MODEL 1
REMARK minimizedAffinity 3.95736122
REMARK minimizedRMSD -1
REMARK  0 active torsions:
REMARK  status: ('A' for Active; 'I' for Inactive)
ROOT
ATOM      1  O1  BZF d   1       1.375   0.901   1.136  0.00  0.00    -0.204 OA
ATOM      2  C2  BZF d   1       0.722   0.799  -0.077  0.00  0.00     0.174 A 
ATOM      3  C3  BZF d   1       0.375  -0.479  -0.328  0.00  0.00    -0.012 A 
ATOM      4  C3A BZF d   1       0.758  -1.210   0.841  0.00  0.00    -0.107 A 
ATOM      5  C4  BZF d   1       0.659  -2.523   1.202  0.00  0.00     0.055 A 
ATOM      6  C5  BZF d   1       1.197  -2.926   2.383  0.00  0.00    -0.016 A 
ATOM      7  C6  BZF d   1       1.844  -2.045   3.224  0.00  0.00     0.022 A 
ATOM      8  C7  BZF d   1       1.963  -0.731   2.912  0.00  0.00     0.029 A 
ATOM      9  C7A BZF d   1       1.392  -0.315   1.734  0.00  0.00     0.058 A 
ENDROOT
TORSDOF 0
ENDMDL
