MODEL 1
REMARK minimizedAffinity 5.41771221
REMARK minimizedRMSD -1
REMARK  0 active torsions:
REMARK  status: ('A' for Active; 'I' for Inactive)
ROOT
ATOM      1  O1  BZF d   1       2.848  -0.663   3.099  0.00  0.00    -0.204 OA
ATOM      2  C2  BZF d   1       1.841  -1.217   3.865  0.00  0.00     0.174 A 
ATOM      3  C3  BZF d   1       0.701  -1.323   3.152  0.00  0.00    -0.012 A 
ATOM      4  C3A BZF d   1       1.041  -0.889   1.832  0.00  0.00    -0.107 A 
ATOM      5  C4  BZF d   1       0.335  -0.781   0.668  0.00  0.00     0.055 A 
ATOM      6  C5  BZF d   1       0.943  -0.252  -0.426  0.00  0.00    -0.016 A 
ATOM      7  C6  BZF d   1       2.252   0.183  -0.391  0.00  0.00     0.022 A 
ATOM      8  C7  BZF d   1       2.994   0.092   0.739  0.00  0.00     0.029 A 
ATOM      9  C7A BZF d   1       2.393  -0.472   1.838  0.00  0.00     0.058 A 
ENDROOT
TORSDOF 0
ENDMDL
