MODEL 1
REMARK minimizedAffinity 9.1678791
REMARK minimizedRMSD -1
REMARK  0 active torsions:
REMARK  status: ('A' for Active; 'I' for Inactive)
ROOT
ATOM      1  O1  BZF d   1       3.184  -0.226   1.231  0.00  0.00    -0.204 OA
ATOM      2  C2  BZF d   1       3.059   0.668   0.185  0.00  0.00     0.174 A 
ATOM      3  C3  BZF d   1       1.777   0.749  -0.226  0.00  0.00    -0.012 A 
ATOM      4  C3A BZF d   1       1.040  -0.081   0.677  0.00  0.00    -0.107 A 
ATOM      5  C4  BZF d   1      -0.284  -0.395   0.796  0.00  0.00     0.055 A 
ATOM      6  C5  BZF d   1      -0.667  -1.294   1.740  0.00  0.00    -0.016 A 
ATOM      7  C6  BZF d   1       0.245  -1.900   2.578  0.00  0.00     0.022 A 
ATOM      8  C7  BZF d   1       1.568  -1.617   2.502  0.00  0.00     0.029 A 
ATOM      9  C7A BZF d   1       1.955  -0.684   1.571  0.00  0.00     0.058 A 
ENDROOT
TORSDOF 0
ENDMDL
