MODEL 1
REMARK minimizedAffinity 5.8708725
REMARK minimizedRMSD -1
REMARK  0 active torsions:
REMARK  status: ('A' for Active; 'I' for Inactive)
ROOT
ATOM      1  O1  BZF d   1       1.536   0.838   1.115  0.00  0.00    -0.204 OA
ATOM      2  C2  BZF d   1       0.668   0.796   0.041  0.00  0.00     0.174 A 
ATOM      3  C3  BZF d   1       0.186  -0.451  -0.136  0.00  0.00    -0.012 A 
ATOM      4  C3A BZF d   1       0.719  -1.218   0.948  0.00  0.00    -0.107 A 
ATOM      5  C4  BZF d   1       0.589  -2.523   1.327  0.00  0.00     0.055 A 
ATOM      6  C5  BZF d   1       1.300  -2.975   2.394  0.00  0.00    -0.016 A 
ATOM      7  C6  BZF d   1       2.154  -2.151   3.099  0.00  0.00     0.022 A 
ATOM      8  C7  BZF d   1       2.312  -0.848   2.763  0.00  0.00     0.029 A 
ATOM      9  C7A BZF d   1       1.569  -0.380   1.706  0.00  0.00     0.058 A 
ENDROOT
TORSDOF 0
ENDMDL
