MODEL 1
REMARK minimizedAffinity 3.18311191
REMARK minimizedRMSD -1
REMARK  0 active torsions:
REMARK  status: ('A' for Active; 'I' for Inactive)
ROOT
ATOM      1  O1  BZF d   1      -3.776  -0.239   1.067  0.00  0.00    -0.204 OA
ATOM      2  C2  BZF d   1      -3.177  -1.480   0.977  0.00  0.00     0.174 A 
ATOM      3  C3  BZF d   1      -3.577  -2.125  -0.138  0.00  0.00    -0.012 A 
ATOM      4  C3A BZF d   1      -4.411  -1.193  -0.833  0.00  0.00    -0.107 A 
ATOM      5  C4  BZF d   1      -5.094  -1.243  -2.014  0.00  0.00     0.055 A 
ATOM      6  C5  BZF d   1      -5.875  -0.190  -2.371  0.00  0.00    -0.016 A 
ATOM      7  C6  BZF d   1      -6.000   0.926  -1.570  0.00  0.00     0.022 A 
ATOM      8  C7  BZF d   1      -5.338   1.024  -0.391  0.00  0.00     0.029 A 
ATOM      9  C7A BZF d   1      -4.522  -0.025  -0.043  0.00  0.00     0.058 A 
ENDROOT
TORSDOF 0
ENDMDL
