MODEL 1
REMARK minimizedAffinity 4.68165398
REMARK minimizedRMSD -1
REMARK  0 active torsions:
REMARK  status: ('A' for Active; 'I' for Inactive)
ROOT
ATOM      1  O1  BZF d   1      -1.521   0.934   0.492  0.00  0.00    -0.204 OA
ATOM      2  C2  BZF d   1      -2.760   0.365   0.268  0.00  0.00     0.174 A 
ATOM      3  C3  BZF d   1      -2.668  -0.980   0.224  0.00  0.00    -0.012 A 
ATOM      4  C3A BZF d   1      -1.300  -1.274   0.525  0.00  0.00    -0.107 A 
ATOM      5  C4  BZF d   1      -0.594  -2.436   0.646  0.00  0.00     0.055 A 
ATOM      6  C5  BZF d   1       0.744  -2.376   0.876  0.00  0.00    -0.016 A 
ATOM      7  C6  BZF d   1       1.408  -1.172   0.984  0.00  0.00     0.022 A 
ATOM      8  C7  BZF d   1       0.749   0.008   0.876  0.00  0.00     0.029 A 
ATOM      9  C7A BZF d   1      -0.608  -0.050   0.677  0.00  0.00     0.058 A 
ENDROOT
TORSDOF 0
ENDMDL
