MODEL 1
REMARK minimizedAffinity -1.49701202
REMARK minimizedRMSD -1
REMARK  0 active torsions:
REMARK  status: ('A' for Active; 'I' for Inactive)
ROOT
ATOM      1  O1  BZF d   1      -2.995  -5.976  -4.487  0.00  0.00    -0.204 OA
ATOM      2  C2  BZF d   1      -3.421  -5.960  -3.173  0.00  0.00     0.174 A 
ATOM      3  C3  BZF d   1      -2.370  -5.999  -2.329  0.00  0.00    -0.012 A 
ATOM      4  C3A BZF d   1      -1.212  -5.948  -3.167  0.00  0.00    -0.107 A 
ATOM      5  C4  BZF d   1       0.130  -5.940  -2.914  0.00  0.00     0.055 A 
ATOM      6  C5  BZF d   1       0.999  -5.959  -3.959  0.00  0.00    -0.016 A 
ATOM      7  C6  BZF d   1       0.561  -5.993  -5.267  0.00  0.00     0.022 A 
ATOM      8  C7  BZF d   1      -0.760  -5.998  -5.567  0.00  0.00     0.029 A 
ATOM      9  C7A BZF d   1      -1.641  -5.945  -4.514  0.00  0.00     0.058 A 
ENDROOT
TORSDOF 0
ENDMDL
