MODEL 1
REMARK minimizedAffinity -0.490956694
REMARK minimizedRMSD -1
REMARK  0 active torsions:
REMARK  status: ('A' for Active; 'I' for Inactive)
ROOT
ATOM      1  O1  BZF d   1      -0.711  -5.976  -5.339  0.00  0.00    -0.204 OA
ATOM      2  C2  BZF d   1       0.590  -5.996  -4.875  0.00  0.00     0.174 A 
ATOM      3  C3  BZF d   1       0.618  -5.953  -3.527  0.00  0.00    -0.012 A 
ATOM      4  C3A BZF d   1      -0.753  -5.996  -3.121  0.00  0.00    -0.107 A 
ATOM      5  C4  BZF d   1      -1.372  -5.999  -1.903  0.00  0.00     0.055 A 
ATOM      6  C5  BZF d   1      -2.730  -5.973  -1.852  0.00  0.00    -0.016 A 
ATOM      7  C6  BZF d   1      -3.499  -5.940  -2.997  0.00  0.00     0.022 A 
ATOM      8  C7  BZF d   1      -2.930  -5.941  -4.227  0.00  0.00     0.029 A 
ATOM      9  C7A BZF d   1      -1.559  -6.000  -4.283  0.00  0.00     0.058 A 
ENDROOT
TORSDOF 0
ENDMDL
