MODEL 1
REMARK minimizedAffinity -0.444933832
REMARK minimizedRMSD -1
REMARK  0 active torsions:
REMARK  status: ('A' for Active; 'I' for Inactive)
ROOT
ATOM      1  O1  BZF d   1       1.120  -5.971  -4.699  0.00  0.00    -0.204 OA
ATOM      2  C2  BZF d   1       0.635  -5.956  -5.992  0.00  0.00     0.174 A 
ATOM      3  C3  BZF d   1      -0.713  -6.000  -5.998  0.00  0.00    -0.012 A 
ATOM      4  C3A BZF d   1      -1.097  -5.952  -4.621  0.00  0.00    -0.107 A 
ATOM      5  C4  BZF d   1      -2.304  -5.948  -3.982  0.00  0.00     0.055 A 
ATOM      6  C5  BZF d   1      -2.333  -5.969  -2.624  0.00  0.00    -0.016 A 
ATOM      7  C6  BZF d   1      -1.176  -6.000  -1.873  0.00  0.00     0.022 A 
ATOM      8  C7  BZF d   1       0.045  -6.000  -2.462  0.00  0.00     0.029 A 
ATOM      9  C7A BZF d   1       0.078  -5.945  -3.834  0.00  0.00     0.058 A 
ENDROOT
TORSDOF 0
ENDMDL
