MODEL 1
REMARK minimizedAffinity -1.01333749
REMARK minimizedRMSD -1
REMARK  0 active torsions:
REMARK  status: ('A' for Active; 'I' for Inactive)
ROOT
ATOM      1  O1  BZF d   1      -0.802  -5.950  -5.955  0.00  0.00    -0.204 OA
ATOM      2  C2  BZF d   1       0.578  -5.972  -6.000  0.00  0.00     0.174 A 
ATOM      3  C3  BZF d   1       1.098  -5.939  -4.756  0.00  0.00    -0.012 A 
ATOM      4  C3A BZF d   1      -0.029  -5.987  -3.876  0.00  0.00    -0.107 A 
ATOM      5  C4  BZF d   1      -0.159  -6.000  -2.516  0.00  0.00     0.055 A 
ATOM      6  C5  BZF d   1      -1.404  -5.976  -1.972  0.00  0.00    -0.016 A 
ATOM      7  C6  BZF d   1      -2.539  -5.934  -2.755  0.00  0.00     0.022 A 
ATOM      8  C7  BZF d   1      -2.460  -5.925  -4.108  0.00  0.00     0.029 A 
ATOM      9  C7A BZF d   1      -1.205  -5.983  -4.662  0.00  0.00     0.058 A 
ENDROOT
TORSDOF 0
ENDMDL
