MODEL 1
REMARK minimizedAffinity 3.1186204
REMARK minimizedRMSD -1
REMARK  0 active torsions:
REMARK  status: ('A' for Active; 'I' for Inactive)
ROOT
ATOM      1  O1  BZF d   1       0.958  -5.682  -5.946  0.00  0.00    -0.204 OA
ATOM      2  C2  BZF d   1       1.909  -5.711  -4.945  0.00  0.00     0.174 A 
ATOM      3  C3  BZF d   1       1.325  -5.770  -3.731  0.00  0.00    -0.012 A 
ATOM      4  C3A BZF d   1      -0.078  -5.872  -3.993  0.00  0.00    -0.107 A 
ATOM      5  C4  BZF d   1      -1.178  -5.979  -3.190  0.00  0.00     0.055 A 
ATOM      6  C5  BZF d   1      -2.412  -5.984  -3.759  0.00  0.00    -0.016 A 
ATOM      7  C6  BZF d   1      -2.583  -5.879  -5.124  0.00  0.00     0.022 A 
ATOM      8  C7  BZF d   1      -1.523  -5.776  -5.961  0.00  0.00     0.029 A 
ATOM      9  C7A BZF d   1      -0.273  -5.803  -5.392  0.00  0.00     0.058 A 
ENDROOT
TORSDOF 0
ENDMDL
