MODEL 1
REMARK minimizedAffinity 0.926090956
REMARK minimizedRMSD -1
REMARK  0 active torsions:
REMARK  status: ('A' for Active; 'I' for Inactive)
ROOT
ATOM      1  O1  BZF d   1      -3.157  -5.878  -4.312  0.00  0.00    -0.204 OA
ATOM      2  C2  BZF d   1      -3.792  -5.899  -3.086  0.00  0.00     0.174 A 
ATOM      3  C3  BZF d   1      -2.894  -6.000  -2.084  0.00  0.00    -0.012 A 
ATOM      4  C3A BZF d   1      -1.614  -5.953  -2.720  0.00  0.00    -0.107 A 
ATOM      5  C4  BZF d   1      -0.331  -5.993  -2.253  0.00  0.00     0.055 A 
ATOM      6  C5  BZF d   1       0.696  -6.000  -3.143  0.00  0.00    -0.016 A 
ATOM      7  C6  BZF d   1       0.477  -5.972  -4.504  0.00  0.00     0.022 A 
ATOM      8  C7  BZF d   1      -0.777  -5.926  -5.015  0.00  0.00     0.029 A 
ATOM      9  C7A BZF d   1      -1.816  -5.886  -4.118  0.00  0.00     0.058 A 
ENDROOT
TORSDOF 0
ENDMDL
