MODEL 1
REMARK minimizedAffinity 1.35370243
REMARK minimizedRMSD -1
REMARK  0 active torsions:
REMARK  status: ('A' for Active; 'I' for Inactive)
ROOT
ATOM      1  O1  BZF d   1      -3.336  -5.970  -3.709  0.00  0.00    -0.204 OA
ATOM      2  C2  BZF d   1      -3.560  -5.953  -2.346  0.00  0.00     0.174 A 
ATOM      3  C3  BZF d   1      -2.394  -5.994  -1.669  0.00  0.00    -0.012 A 
ATOM      4  C3A BZF d   1      -1.375  -5.946  -2.672  0.00  0.00    -0.107 A 
ATOM      5  C4  BZF d   1      -0.010  -5.941  -2.624  0.00  0.00     0.055 A 
ATOM      6  C5  BZF d   1       0.692  -5.963  -3.788  0.00  0.00    -0.016 A 
ATOM      7  C6  BZF d   1       0.062  -5.996  -5.015  0.00  0.00     0.022 A 
ATOM      8  C7  BZF d   1      -1.289  -5.998  -5.113  0.00  0.00     0.029 A 
ATOM      9  C7A BZF d   1      -2.001  -5.942  -3.940  0.00  0.00     0.058 A 
ENDROOT
TORSDOF 0
ENDMDL
