MODEL 1
REMARK minimizedAffinity 6.01183605
REMARK minimizedRMSD -1
REMARK  0 active torsions:
REMARK  status: ('A' for Active; 'I' for Inactive)
ROOT
ATOM      1  O1  BZF d   1      -5.048  -0.746  -2.546  0.00  0.00    -0.204 OA
ATOM      2  C2  BZF d   1      -5.999   0.256  -2.595  0.00  0.00     0.174 A 
ATOM      3  C3  BZF d   1      -5.998   0.972  -1.452  0.00  0.00    -0.012 A 
ATOM      4  C3A BZF d   1      -4.921   0.440  -0.676  0.00  0.00    -0.107 A 
ATOM      5  C4  BZF d   1      -4.407   0.748   0.552  0.00  0.00     0.055 A 
ATOM      6  C5  BZF d   1      -3.398  -0.011   1.055  0.00  0.00    -0.016 A 
ATOM      7  C6  BZF d   1      -2.883  -1.087   0.361  0.00  0.00     0.022 A 
ATOM      8  C7  BZF d   1      -3.357  -1.427  -0.863  0.00  0.00     0.029 A 
ATOM      9  C7A BZF d   1      -4.354  -0.642  -1.388  0.00  0.00     0.058 A 
ENDROOT
TORSDOF 0
ENDMDL
