MODEL 1
REMARK minimizedAffinity 0.485215664
REMARK minimizedRMSD -1
REMARK  0 active torsions:
REMARK  status: ('A' for Active; 'I' for Inactive)
ROOT
ATOM      1  O1  BZF d   1       0.609  -5.908  -4.702  0.00  0.00    -0.204 OA
ATOM      2  C2  BZF d   1       0.119  -5.873  -5.993  0.00  0.00     0.174 A 
ATOM      3  C3  BZF d   1      -1.228  -5.920  -5.995  0.00  0.00    -0.012 A 
ATOM      4  C3A BZF d   1      -1.608  -5.896  -4.616  0.00  0.00    -0.107 A 
ATOM      5  C4  BZF d   1      -2.813  -5.906  -3.973  0.00  0.00     0.055 A 
ATOM      6  C5  BZF d   1      -2.836  -5.950  -2.615  0.00  0.00    -0.016 A 
ATOM      7  C6  BZF d   1      -1.676  -5.989  -1.869  0.00  0.00     0.022 A 
ATOM      8  C7  BZF d   1      -0.458  -5.976  -2.462  0.00  0.00     0.029 A 
ATOM      9  C7A BZF d   1      -0.430  -5.899  -3.833  0.00  0.00     0.058 A 
ENDROOT
TORSDOF 0
ENDMDL
