MODEL 1
REMARK minimizedAffinity 0.402918607
REMARK minimizedRMSD -1
REMARK  0 active torsions:
REMARK  status: ('A' for Active; 'I' for Inactive)
ROOT
ATOM      1  C2' OXE d   1       1.076  -3.460  -0.453  0.00  0.00     0.078 C 
ATOM      2  C1' OXE d   1       2.818  -2.556   1.555  0.00  0.00     0.078 C 
ATOM      3  C1  OXE d   1       2.177  -1.523   0.663  0.00  0.00    -0.078 A 
ATOM      4  C2  OXE d   1       1.362  -1.977  -0.347  0.00  0.00    -0.078 A 
ATOM      5  C3  OXE d   1       0.702  -1.064  -1.164  0.00  0.00     0.003 A 
ATOM      6  C4  OXE d   1       0.980   0.305  -1.066  0.00  0.00    -0.002 A 
ATOM      7  C5  OXE d   1       1.837   0.785  -0.070  0.00  0.00    -0.002 A 
ATOM      8  C6  OXE d   1       2.409  -0.110   0.828  0.00  0.00     0.003 A 
ENDROOT
TORSDOF 0
ENDMDL
