MODEL 1
REMARK minimizedAffinity 17.3752365
REMARK minimizedRMSD -1
REMARK  0 active torsions:
REMARK  status: ('A' for Active; 'I' for Inactive)
ROOT
ATOM      1  C2' OXE d   1       1.801  -2.658   0.322  0.00  0.00     0.078 C 
ATOM      2  C1' OXE d   1       2.632  -1.795  -2.217  0.00  0.00     0.078 C 
ATOM      3  C1  OXE d   1       2.699  -0.805  -1.081  0.00  0.00    -0.078 A 
ATOM      4  C2  OXE d   1       2.247  -1.222   0.148  0.00  0.00    -0.078 A 
ATOM      5  C3  OXE d   1       2.337  -0.367   1.242  0.00  0.00     0.003 A 
ATOM      6  C4  OXE d   1       2.741   0.963   1.071  0.00  0.00    -0.002 A 
ATOM      7  C5  OXE d   1       3.168   1.420  -0.180  0.00  0.00    -0.002 A 
ATOM      8  C6  OXE d   1       3.193   0.538  -1.255  0.00  0.00     0.003 A 
ENDROOT
TORSDOF 0
ENDMDL
