MODEL 1
REMARK minimizedAffinity 4.81858873
REMARK minimizedRMSD -1
REMARK  0 active torsions:
REMARK  status: ('A' for Active; 'I' for Inactive)
ROOT
ATOM      1  C2' OXE d   1      -5.579   3.748  -0.689  0.00  0.00     0.078 C 
ATOM      2  C1' OXE d   1      -6.000   4.452  -3.374  0.00  0.00     0.078 C 
ATOM      3  C1  OXE d   1      -5.490   3.062  -3.082  0.00  0.00    -0.078 A 
ATOM      4  C2  OXE d   1      -5.243   2.742  -1.769  0.00  0.00    -0.078 A 
ATOM      5  C3  OXE d   1      -4.824   1.456  -1.440  0.00  0.00     0.003 A 
ATOM      6  C4  OXE d   1      -4.505   0.535  -2.446  0.00  0.00    -0.002 A 
ATOM      7  C5  OXE d   1      -4.712   0.855  -3.792  0.00  0.00    -0.002 A 
ATOM      8  C6  OXE d   1      -5.243   2.096  -4.124  0.00  0.00     0.003 A 
ENDROOT
TORSDOF 0
ENDMDL
