MODEL 1
REMARK minimizedAffinity 8.11828518
REMARK minimizedRMSD -1
REMARK  0 active torsions:
REMARK  status: ('A' for Active; 'I' for Inactive)
ROOT
ATOM      1  C2' OXE d   1       0.095  -1.429  -1.909  0.00  0.00     0.078 C 
ATOM      2  C1' OXE d   1      -0.156  -3.795  -0.420  0.00  0.00     0.078 C 
ATOM      3  C1  OXE d   1       0.943  -2.837  -0.036  0.00  0.00    -0.078 A 
ATOM      4  C2  OXE d   1       1.088  -1.703  -0.800  0.00  0.00    -0.078 A 
ATOM      5  C3  OXE d   1       2.052  -0.759  -0.456  0.00  0.00     0.003 A 
ATOM      6  C4  OXE d   1       2.973  -1.025   0.564  0.00  0.00    -0.002 A 
ATOM      7  C5  OXE d   1       2.868  -2.192   1.329  0.00  0.00    -0.002 A 
ATOM      8  C6  OXE d   1       1.835  -3.086   1.070  0.00  0.00     0.003 A 
ENDROOT
TORSDOF 0
ENDMDL
