MODEL 1
REMARK minimizedAffinity 0.103658013
REMARK minimizedRMSD -1
REMARK  0 active torsions:
REMARK  status: ('A' for Active; 'I' for Inactive)
ROOT
ATOM      1  C2' OXE d   1      -0.414   0.670  -1.760  0.00  0.00     0.078 C 
ATOM      2  C1' OXE d   1       1.067   2.311  -0.030  0.00  0.00     0.078 C 
ATOM      3  C1  OXE d   1       1.422   0.846  -0.086  0.00  0.00    -0.078 A 
ATOM      4  C2  OXE d   1       0.661   0.042  -0.900  0.00  0.00    -0.078 A 
ATOM      5  C3  OXE d   1       0.980  -1.307  -1.029  0.00  0.00     0.003 A 
ATOM      6  C4  OXE d   1       1.970  -1.882  -0.223  0.00  0.00    -0.002 A 
ATOM      7  C5  OXE d   1       2.731  -1.088   0.642  0.00  0.00    -0.002 A 
ATOM      8  C6  OXE d   1       2.498   0.282   0.691  0.00  0.00     0.003 A 
ENDROOT
TORSDOF 0
ENDMDL
