MODEL 1
REMARK minimizedAffinity 12.363122
REMARK minimizedRMSD -1
REMARK  0 active torsions:
REMARK  status: ('A' for Active; 'I' for Inactive)
ROOT
ATOM      1  C2' OXE d   1       3.122  -1.635  -1.898  0.00  0.00     0.078 C 
ATOM      2  C1' OXE d   1       0.857  -3.017  -0.983  0.00  0.00     0.078 C 
ATOM      3  C1  OXE d   1       1.800  -2.451   0.049  0.00  0.00    -0.078 A 
ATOM      4  C2  OXE d   1       2.930  -1.817  -0.408  0.00  0.00    -0.078 A 
ATOM      5  C3  OXE d   1       3.806  -1.228   0.500  0.00  0.00     0.003 A 
ATOM      6  C4  OXE d   1       3.626  -1.410   1.877  0.00  0.00    -0.002 A 
ATOM      7  C5  OXE d   1       2.503  -2.087   2.363  0.00  0.00    -0.002 A 
ATOM      8  C6  OXE d   1       1.560  -2.576   1.465  0.00  0.00     0.003 A 
ENDROOT
TORSDOF 0
ENDMDL
