MODEL 1
REMARK minimizedAffinity 4.26540232
REMARK minimizedRMSD -1
REMARK  0 active torsions:
REMARK  status: ('A' for Active; 'I' for Inactive)
ROOT
ATOM      1  C2' OXE d   1      -5.996   0.626   1.614  0.00  0.00     0.078 C 
ATOM      2  C1' OXE d   1      -6.000   1.123  -1.149  0.00  0.00     0.078 C 
ATOM      3  C1  OXE d   1      -5.889  -0.310  -0.692  0.00  0.00    -0.078 A 
ATOM      4  C2  OXE d   1      -5.841  -0.540   0.662  0.00  0.00    -0.078 A 
ATOM      5  C3  OXE d   1      -5.794  -1.847   1.138  0.00  0.00     0.003 A 
ATOM      6  C4  OXE d   1      -5.641  -2.920   0.251  0.00  0.00    -0.002 A 
ATOM      7  C5  OXE d   1      -5.648  -2.704  -1.131  0.00  0.00    -0.002 A 
ATOM      8  C6  OXE d   1      -5.814  -1.413  -1.619  0.00  0.00     0.003 A 
ENDROOT
TORSDOF 0
ENDMDL
