MODEL 1
REMARK minimizedAffinity -3.70036244
REMARK minimizedRMSD -1
REMARK  0 active torsions:
REMARK  status: ('A' for Active; 'I' for Inactive)
ROOT
ATOM      1  C   UNL d   1      -0.525  -1.051   0.753  0.00  0.00     0.172 C 
ATOM      2  N   UNL d   1       0.766  -0.429   0.574  0.00  0.00    -0.070 N 
ATOM      3  C1  UNL d   1       1.928  -1.080   0.255  0.00  0.00    -0.004 A 
ATOM      4  C2  UNL d   1       2.931  -0.139   0.175  0.00  0.00    -0.047 A 
ATOM      5  C3  UNL d   1       2.353   1.122   0.457  0.00  0.00    -0.047 A 
ATOM      6  C4  UNL d   1       1.012   0.912   0.701  0.00  0.00    -0.004 A 
ENDROOT
TORSDOF 0
ENDMDL
