MODEL 1
REMARK minimizedAffinity -3.3648994
REMARK minimizedRMSD -1
REMARK  0 active torsions:
REMARK  status: ('A' for Active; 'I' for Inactive)
ROOT
ATOM      1  C   UNL d   1       2.872   0.028   1.316  0.00  0.00     0.172 C 
ATOM      2  N   UNL d   1       1.519   0.069   0.814  0.00  0.00    -0.070 N 
ATOM      3  C1  UNL d   1       0.608  -0.952   0.888  0.00  0.00    -0.004 A 
ATOM      4  C2  UNL d   1      -0.560  -0.519   0.298  0.00  0.00    -0.047 A 
ATOM      5  C3  UNL d   1      -0.343   0.807  -0.147  0.00  0.00    -0.047 A 
ATOM      6  C4  UNL d   1       0.952   1.146   0.185  0.00  0.00    -0.004 A 
ENDROOT
TORSDOF 0
ENDMDL
