MODEL 1
REMARK minimizedAffinity -3.07663822
REMARK minimizedRMSD -1
REMARK  0 active torsions:
REMARK  status: ('A' for Active; 'I' for Inactive)
ROOT
ATOM      1  C   UNL d   1      -0.707   0.173  -0.094  0.00  0.00     0.172 C 
ATOM      2  N   UNL d   1       0.689  -0.048   0.205  0.00  0.00    -0.070 N 
ATOM      3  C1  UNL d   1       1.667   0.910   0.206  0.00  0.00    -0.004 A 
ATOM      4  C2  UNL d   1       2.856   0.300   0.542  0.00  0.00    -0.047 A 
ATOM      5  C3  UNL d   1       2.583  -1.073   0.749  0.00  0.00    -0.047 A 
ATOM      6  C4  UNL d   1       1.234  -1.261   0.535  0.00  0.00    -0.004 A 
ENDROOT
TORSDOF 0
ENDMDL
