MODEL 1
REMARK minimizedAffinity -3.10340619
REMARK minimizedRMSD -1
REMARK  0 active torsions:
REMARK  status: ('A' for Active; 'I' for Inactive)
ROOT
ATOM      1  C   UNL d   1      -1.065  -0.148   0.326  0.00  0.00     0.172 C 
ATOM      2  N   UNL d   1       0.331   0.169   0.518  0.00  0.00    -0.070 N 
ATOM      3  C1  UNL d   1       0.845   1.421   0.727  0.00  0.00    -0.004 A 
ATOM      4  C2  UNL d   1       2.211   1.299   0.863  0.00  0.00    -0.047 A 
ATOM      5  C3  UNL d   1       2.529  -0.073   0.731  0.00  0.00    -0.047 A 
ATOM      6  C4  UNL d   1       1.347  -0.750   0.518  0.00  0.00    -0.004 A 
ENDROOT
TORSDOF 0
ENDMDL
