MODEL 1
REMARK minimizedAffinity -3.5904727
REMARK minimizedRMSD -1
REMARK  0 active torsions:
REMARK  status: ('A' for Active; 'I' for Inactive)
ROOT
ATOM      1  C   UNL d   1      -0.179  -0.237   0.149  0.00  0.00     0.172 C 
ATOM      2  N   UNL d   1       1.167  -0.414   0.642  0.00  0.00    -0.070 N 
ATOM      3  C1  UNL d   1       2.142   0.548   0.665  0.00  0.00    -0.004 A 
ATOM      4  C2  UNL d   1       3.277  -0.014   1.207  0.00  0.00    -0.047 A 
ATOM      5  C3  UNL d   1       2.975  -1.361   1.519  0.00  0.00    -0.047 A 
ATOM      6  C4  UNL d   1       1.662  -1.582   1.159  0.00  0.00    -0.004 A 
ENDROOT
TORSDOF 0
ENDMDL
