MODEL 1
REMARK minimizedAffinity 0.903402507
REMARK minimizedRMSD -1
REMARK  1 active torsions:
REMARK  status: ('A' for Active; 'I' for Inactive)
REMARK    1  A    between atoms: C1_2  and  C2_3 
ROOT
ATOM      1  C2  UNL d   1      -1.966  -1.664  -1.825  0.00  0.00    -0.076 A 
ATOM      2  C3  UNL d   1      -2.073  -1.235  -3.160  0.00  0.00     0.004 A 
ATOM      3  C4  UNL d   1      -2.332  -2.141  -4.186  0.00  0.00    -0.003 A 
ATOM      4  C5  UNL d   1      -2.489  -3.492  -3.895  0.00  0.00     0.000 A 
ATOM      5  C6  UNL d   1      -2.403  -3.933  -2.575  0.00  0.00     0.000 A 
ATOM      6  C7  UNL d   1      -2.159  -3.030  -1.526  0.00  0.00    -0.073 A 
ATOM      7  C8  UNL d   1      -2.071  -3.561  -0.122  0.00  0.00     0.078 C 
ENDROOT
BRANCH   1   8
ATOM      8  C1  UNL d   1      -1.656  -0.640  -0.757  0.00  0.00     0.053 C 
ATOM      9  C   UNL d   1      -0.225  -0.738  -0.252  0.00  0.00     0.018 C 
ENDBRANCH   1   8
TORSDOF 1
ENDMDL
