MODEL 1
REMARK minimizedAffinity 6.01595831
REMARK minimizedRMSD -1
REMARK  1 active torsions:
REMARK  status: ('A' for Active; 'I' for Inactive)
REMARK    1  A    between atoms: C1_2  and  C2_3 
ROOT
ATOM      1  C2  UNL d   1       1.902   2.575   2.427  0.00  0.00    -0.076 A 
ATOM      2  C3  UNL d   1       2.663   3.747   2.280  0.00  0.00     0.004 A 
ATOM      3  C4  UNL d   1       3.164   4.126   1.036  0.00  0.00    -0.003 A 
ATOM      4  C5  UNL d   1       2.911   3.338  -0.082  0.00  0.00     0.000 A 
ATOM      5  C6  UNL d   1       2.143   2.182   0.042  0.00  0.00     0.000 A 
ATOM      6  C7  UNL d   1       1.616   1.794   1.287  0.00  0.00    -0.073 A 
ATOM      7  C8  UNL d   1       0.799   0.534   1.364  0.00  0.00     0.078 C 
ENDROOT
BRANCH   1   8
ATOM      8  C1  UNL d   1       1.408   2.201   3.806  0.00  0.00     0.053 C 
ATOM      9  C   UNL d   1       0.189   3.008   4.228  0.00  0.00     0.018 C 
ENDBRANCH   1   8
TORSDOF 1
ENDMDL
