MODEL 1
REMARK minimizedAffinity 1.88415611
REMARK minimizedRMSD -1
REMARK  1 active torsions:
REMARK  status: ('A' for Active; 'I' for Inactive)
REMARK    1  A    between atoms: C1_2  and  C2_3 
ROOT
ATOM      1  C2  UNL d   1      -2.162  -0.492   0.848  0.00  0.00    -0.076 A 
ATOM      2  C3  UNL d   1      -1.259   0.519   1.221  0.00  0.00     0.004 A 
ATOM      3  C4  UNL d   1      -0.195   0.871   0.392  0.00  0.00    -0.003 A 
ATOM      4  C5  UNL d   1      -0.017   0.219  -0.823  0.00  0.00     0.000 A 
ATOM      5  C6  UNL d   1      -0.913  -0.774  -1.216  0.00  0.00     0.000 A 
ATOM      6  C7  UNL d   1      -2.001  -1.130  -0.400  0.00  0.00    -0.073 A 
ATOM      7  C8  UNL d   1      -2.933  -2.213  -0.872  0.00  0.00     0.078 C 
ENDROOT
BRANCH   1   8
ATOM      8  C1  UNL d   1      -3.281  -0.850   1.800  0.00  0.00     0.053 C 
ATOM      9  C   UNL d   1      -3.158  -0.139   3.138  0.00  0.00     0.018 C 
ENDBRANCH   1   8
TORSDOF 1
ENDMDL
