MODEL 1
REMARK minimizedAffinity 2.78150964
REMARK minimizedRMSD -1
REMARK  1 active torsions:
REMARK  status: ('A' for Active; 'I' for Inactive)
REMARK    1  A    between atoms: C1_2  and  C2_3 
ROOT
ATOM      1  C2  UNL d   1      -4.729   4.830   2.941  0.00  0.00    -0.076 A 
ATOM      2  C3  UNL d   1      -5.475   5.942   2.513  0.00  0.00     0.004 A 
ATOM      3  C4  UNL d   1      -5.999   6.000   1.223  0.00  0.00    -0.003 A 
ATOM      4  C5  UNL d   1      -5.785   4.947   0.340  0.00  0.00     0.000 A 
ATOM      5  C6  UNL d   1      -5.062   3.829   0.753  0.00  0.00     0.000 A 
ATOM      6  C7  UNL d   1      -4.541   3.747   2.056  0.00  0.00    -0.073 A 
ATOM      7  C8  UNL d   1      -3.764   2.520   2.447  0.00  0.00     0.078 C 
ENDROOT
BRANCH   1   8
ATOM      8  C1  UNL d   1      -4.163   4.835   4.343  0.00  0.00     0.053 C 
ATOM      9  C   UNL d   1      -5.163   5.336   5.374  0.00  0.00     0.018 C 
ENDBRANCH   1   8
TORSDOF 1
ENDMDL
