MODEL 1
REMARK minimizedAffinity -4.40703154
REMARK minimizedRMSD -1
REMARK  1 active torsions:
REMARK  status: ('A' for Active; 'I' for Inactive)
REMARK    1  A    between atoms: C1_2  and  C2_3 
ROOT
ATOM      1  C2  UNL d   1      -4.864   4.601   3.472  0.00  0.00    -0.076 A 
ATOM      2  C3  UNL d   1      -4.530   3.540   2.612  0.00  0.00     0.004 A 
ATOM      3  C4  UNL d   1      -4.363   2.246   3.101  0.00  0.00    -0.003 A 
ATOM      4  C5  UNL d   1      -4.528   1.991   4.458  0.00  0.00     0.000 A 
ATOM      5  C6  UNL d   1      -4.877   3.028   5.323  0.00  0.00     0.000 A 
ATOM      6  C7  UNL d   1      -5.064   4.336   4.843  0.00  0.00    -0.073 A 
ATOM      7  C8  UNL d   1      -5.434   5.417   5.821  0.00  0.00     0.078 C 
ENDROOT
BRANCH   1   8
ATOM      8  C1  UNL d   1      -5.005   5.989   2.889  0.00  0.00     0.053 C 
ATOM      9  C   UNL d   1      -4.895   5.998   1.372  0.00  0.00     0.018 C 
ENDBRANCH   1   8
TORSDOF 1
ENDMDL
