MODEL 1
REMARK minimizedAffinity 1.33139396
REMARK minimizedRMSD -1
REMARK  1 active torsions:
REMARK  status: ('A' for Active; 'I' for Inactive)
REMARK    1  A    between atoms: C1_2  and  C2_3 
ROOT
ATOM      1  C2  UNL d   1       1.259  -0.008  -0.999  0.00  0.00    -0.076 A 
ATOM      2  C3  UNL d   1       0.401   0.269  -2.078  0.00  0.00     0.004 A 
ATOM      3  C4  UNL d   1      -0.972   0.058  -1.975  0.00  0.00    -0.003 A 
ATOM      4  C5  UNL d   1      -1.511  -0.435  -0.791  0.00  0.00     0.000 A 
ATOM      5  C6  UNL d   1      -0.677  -0.699   0.295  0.00  0.00     0.000 A 
ATOM      6  C7  UNL d   1       0.708  -0.476   0.213  0.00  0.00    -0.073 A 
ATOM      7  C8  UNL d   1       1.561  -0.784   1.413  0.00  0.00     0.078 C 
ENDROOT
BRANCH   1   8
ATOM      8  C1  UNL d   1       2.744   0.216  -1.178  0.00  0.00     0.053 C 
ATOM      9  C   UNL d   1       3.385  -0.826  -2.082  0.00  0.00     0.018 C 
ENDBRANCH   1   8
TORSDOF 1
ENDMDL
