MODEL 1
REMARK minimizedAffinity 6.59819031
REMARK minimizedRMSD -1
REMARK  1 active torsions:
REMARK  status: ('A' for Active; 'I' for Inactive)
REMARK    1  A    between atoms: C1_2  and  C2_3 
ROOT
ATOM      1  C2  UNL d   1       1.536  -0.276  -2.360  0.00  0.00    -0.076 A 
ATOM      2  C3  UNL d   1       0.515   0.256  -3.166  0.00  0.00     0.004 A 
ATOM      3  C4  UNL d   1       0.663   0.338  -4.550  0.00  0.00    -0.003 A 
ATOM      4  C5  UNL d   1       1.834  -0.113  -5.150  0.00  0.00     0.000 A 
ATOM      5  C6  UNL d   1       2.850  -0.660  -4.367  0.00  0.00     0.000 A 
ATOM      6  C7  UNL d   1       2.711  -0.764  -2.972  0.00  0.00    -0.073 A 
ATOM      7  C8  UNL d   1       3.841  -1.357  -2.176  0.00  0.00     0.078 C 
ENDROOT
BRANCH   1   8
ATOM      8  C1  UNL d   1       1.331  -0.314  -0.862  0.00  0.00     0.053 C 
ATOM      9  C   UNL d   1      -0.140  -0.336  -0.477  0.00  0.00     0.018 C 
ENDBRANCH   1   8
TORSDOF 1
ENDMDL
