MODEL 1
REMARK minimizedAffinity 8.85700035
REMARK minimizedRMSD -1
REMARK  1 active torsions:
REMARK  status: ('A' for Active; 'I' for Inactive)
REMARK    1  A    between atoms: C1_2  and  C2_3 
ROOT
ATOM      1  C2  UNL d   1       1.590   0.012  -3.528  0.00  0.00    -0.076 A 
ATOM      2  C3  UNL d   1       0.282   0.527  -3.506  0.00  0.00     0.004 A 
ATOM      3  C4  UNL d   1      -0.426   0.638  -2.310  0.00  0.00    -0.003 A 
ATOM      4  C5  UNL d   1       0.164   0.237  -1.116  0.00  0.00     0.000 A 
ATOM      5  C6  UNL d   1       1.467  -0.259  -1.117  0.00  0.00     0.000 A 
ATOM      6  C7  UNL d   1       2.200  -0.363  -2.312  0.00  0.00    -0.073 A 
ATOM      7  C8  UNL d   1       3.599  -0.911  -2.255  0.00  0.00     0.078 C 
ENDROOT
BRANCH   1   8
ATOM      8  C1  UNL d   1       2.298  -0.110  -4.858  0.00  0.00     0.053 C 
ATOM      9  C   UNL d   1       1.872   0.965  -5.846  0.00  0.00     0.018 C 
ENDBRANCH   1   8
TORSDOF 1
ENDMDL
