MODEL 1
REMARK minimizedAffinity -0.000578985433
REMARK minimizedRMSD -1
REMARK  1 active torsions:
REMARK  status: ('A' for Active; 'I' for Inactive)
REMARK    1  A    between atoms: C1_2  and  C2_3 
ROOT
ATOM      1  C2  UNL d   1      -4.516   5.713   3.172  0.00  0.00    -0.076 A 
ATOM      2  C3  UNL d   1      -5.804   5.874   3.712  0.00  0.00     0.004 A 
ATOM      3  C4  UNL d   1      -6.000   5.954   5.090  0.00  0.00    -0.003 A 
ATOM      4  C5  UNL d   1      -4.910   5.873   5.950  0.00  0.00     0.000 A 
ATOM      5  C6  UNL d   1      -3.624   5.731   5.431  0.00  0.00     0.000 A 
ATOM      6  C7  UNL d   1      -3.407   5.666   4.044  0.00  0.00    -0.073 A 
ATOM      7  C8  UNL d   1      -1.999   5.506   3.540  0.00  0.00     0.078 C 
ENDROOT
BRANCH   1   8
ATOM      8  C1  UNL d   1      -4.368   5.606   1.671  0.00  0.00     0.053 C 
ATOM      9  C   UNL d   1      -5.671   5.881   0.936  0.00  0.00     0.018 C 
ENDBRANCH   1   8
TORSDOF 1
ENDMDL
