MODEL 1
REMARK minimizedAffinity -4.38931465
REMARK minimizedRMSD -1
REMARK  1 active torsions:
REMARK  status: ('A' for Active; 'I' for Inactive)
REMARK    1  A    between atoms: C1_2  and  C2_3 
ROOT
ATOM      1  C2  UNL d   1      -4.642  -3.494   0.293  0.00  0.00    -0.076 A 
ATOM      2  C3  UNL d   1      -4.233  -2.182  -0.007  0.00  0.00     0.004 A 
ATOM      3  C4  UNL d   1      -2.982  -1.931  -0.568  0.00  0.00    -0.003 A 
ATOM      4  C5  UNL d   1      -2.119  -2.988  -0.838  0.00  0.00     0.000 A 
ATOM      5  C6  UNL d   1      -2.515  -4.296  -0.564  0.00  0.00     0.000 A 
ATOM      6  C7  UNL d   1      -3.779  -4.568  -0.013  0.00  0.00    -0.073 A 
ATOM      7  C8  UNL d   1      -4.152  -5.998   0.268  0.00  0.00     0.078 C 
ENDROOT
BRANCH   1   8
ATOM      8  C1  UNL d   1      -5.999  -3.702   0.925  0.00  0.00     0.053 C 
ATOM      9  C   UNL d   1      -5.921  -4.486   2.226  0.00  0.00     0.018 C 
ENDBRANCH   1   8
TORSDOF 1
ENDMDL
