MODEL 1
REMARK minimizedAffinity -1.25032306
REMARK minimizedRMSD -1
REMARK  1 active torsions:
REMARK  status: ('A' for Active; 'I' for Inactive)
REMARK    1  A    between atoms: C1_2  and  C2_3 
ROOT
ATOM      1  C2  UNL d   1      -4.882   4.145   4.634  0.00  0.00    -0.076 A 
ATOM      2  C3  UNL d   1      -4.533   3.616   3.379  0.00  0.00     0.004 A 
ATOM      3  C4  UNL d   1      -4.906   4.260   2.200  0.00  0.00    -0.003 A 
ATOM      4  C5  UNL d   1      -5.633   5.444   2.257  0.00  0.00     0.000 A 
ATOM      5  C6  UNL d   1      -5.972   5.992   3.494  0.00  0.00     0.000 A 
ATOM      6  C7  UNL d   1      -5.591   5.364   4.692  0.00  0.00    -0.073 A 
ATOM      7  C8  UNL d   1      -5.989   5.996   5.997  0.00  0.00     0.078 C 
ENDROOT
BRANCH   1   8
ATOM      8  C1  UNL d   1      -4.474   3.388   5.877  0.00  0.00     0.053 C 
ATOM      9  C   UNL d   1      -4.698   1.889   5.747  0.00  0.00     0.018 C 
ENDBRANCH   1   8
TORSDOF 1
ENDMDL
