MODEL 1
REMARK minimizedAffinity 9.45616722
REMARK minimizedRMSD -1
REMARK  1 active torsions:
REMARK  status: ('A' for Active; 'I' for Inactive)
REMARK    1  A    between atoms: C1_2  and  C2_3 
ROOT
ATOM      1  C2  UNL d   1      -2.241  -1.739  -2.002  0.00  0.00    -0.076 A 
ATOM      2  C3  UNL d   1      -2.248  -0.467  -2.602  0.00  0.00     0.004 A 
ATOM      3  C4  UNL d   1      -1.572   0.604  -2.021  0.00  0.00    -0.003 A 
ATOM      4  C5  UNL d   1      -0.877   0.422  -0.831  0.00  0.00     0.000 A 
ATOM      5  C6  UNL d   1      -0.844  -0.837  -0.231  0.00  0.00     0.000 A 
ATOM      6  C7  UNL d   1      -1.506  -1.932  -0.812  0.00  0.00    -0.073 A 
ATOM      7  C8  UNL d   1      -1.443  -3.265  -0.119  0.00  0.00     0.078 C 
ENDROOT
BRANCH   1   8
ATOM      8  C1  UNL d   1      -3.014  -2.857  -2.664  0.00  0.00     0.053 C 
ATOM      9  C   UNL d   1      -2.306  -3.408  -3.892  0.00  0.00     0.018 C 
ENDBRANCH   1   8
TORSDOF 1
ENDMDL
