MODEL 1
REMARK minimizedAffinity 11.8671141
REMARK minimizedRMSD -1
REMARK  1 active torsions:
REMARK  status: ('A' for Active; 'I' for Inactive)
REMARK    1  A    between atoms: C1_2  and  C2_3 
ROOT
ATOM      1  C2  UNL d   1      -1.891  -1.959  -2.373  0.00  0.00    -0.076 A 
ATOM      2  C3  UNL d   1      -1.509  -1.127  -3.439  0.00  0.00     0.004 A 
ATOM      3  C4  UNL d   1      -1.734  -1.507  -4.761  0.00  0.00    -0.003 A 
ATOM      4  C5  UNL d   1      -2.346  -2.724  -5.038  0.00  0.00     0.000 A 
ATOM      5  C6  UNL d   1      -2.747  -3.554  -3.992  0.00  0.00     0.000 A 
ATOM      6  C7  UNL d   1      -2.542  -3.179  -2.653  0.00  0.00    -0.073 A 
ATOM      7  C8  UNL d   1      -2.989  -4.116  -1.565  0.00  0.00     0.078 C 
ENDROOT
BRANCH   1   8
ATOM      8  C1  UNL d   1      -1.596  -1.507  -0.960  0.00  0.00     0.053 C 
ATOM      9  C   UNL d   1      -0.539  -0.414  -0.907  0.00  0.00     0.018 C 
ENDBRANCH   1   8
TORSDOF 1
ENDMDL
