MODEL 1
REMARK minimizedAffinity 4.77756834
REMARK minimizedRMSD -1
REMARK  1 active torsions:
REMARK  status: ('A' for Active; 'I' for Inactive)
REMARK    1  A    between atoms: C1_2  and  C2_3 
ROOT
ATOM      1  C2  UNL d   1       2.242   1.947   3.635  0.00  0.00    -0.076 A 
ATOM      2  C3  UNL d   1       2.957   0.804   3.236  0.00  0.00     0.004 A 
ATOM      3  C4  UNL d   1       2.851  -0.392   3.944  0.00  0.00    -0.003 A 
ATOM      4  C5  UNL d   1       2.027  -0.465   5.062  0.00  0.00     0.000 A 
ATOM      5  C6  UNL d   1       1.297   0.654   5.461  0.00  0.00     0.000 A 
ATOM      6  C7  UNL d   1       1.380   1.862   4.749  0.00  0.00    -0.073 A 
ATOM      7  C8  UNL d   1       0.575   3.039   5.228  0.00  0.00     0.078 C 
ENDROOT
BRANCH   1   8
ATOM      8  C1  UNL d   1       2.418   3.224   2.845  0.00  0.00     0.053 C 
ATOM      9  C   UNL d   1       2.497   2.976   1.347  0.00  0.00     0.018 C 
ENDBRANCH   1   8
TORSDOF 1
ENDMDL
