MODEL 1
REMARK minimizedAffinity -1.49013209
REMARK minimizedRMSD -1
REMARK  1 active torsions:
REMARK  status: ('A' for Active; 'I' for Inactive)
REMARK    1  A    between atoms: C1_2  and  C2_3 
ROOT
ATOM      1  C2  UNL d   1      -1.958   1.198  -0.974  0.00  0.00    -0.081 A 
ATOM      2  C3  UNL d   1      -2.454  -0.019  -0.491  0.00  0.00     0.006 A 
ATOM      3  C4  UNL d   1      -1.640  -0.866   0.265  0.00  0.00     0.002 A 
ATOM      4  C5  UNL d   1      -0.320  -0.507   0.557  0.00  0.00    -0.080 A 
ATOM      5  C6  UNL d   1       0.555  -1.393   1.393  0.00  0.00     0.076 C 
ATOM      6  C7  UNL d   1       0.181   0.701   0.060  0.00  0.00     0.002 A 
ATOM      7  C8  UNL d   1      -0.632   1.548  -0.696  0.00  0.00     0.006 A 
ENDROOT
BRANCH   1   8
ATOM      8  C1  UNL d   1      -2.853   2.143  -1.734  0.00  0.00     0.054 C 
ATOM      9  C   UNL d   1      -2.501   2.168  -3.215  0.00  0.00     0.018 C 
ENDBRANCH   1   8
TORSDOF 1
ENDMDL
