MODEL 1
REMARK minimizedAffinity -5.72077703
REMARK minimizedRMSD -1
REMARK  1 active torsions:
REMARK  status: ('A' for Active; 'I' for Inactive)
REMARK    1  A    between atoms: C1_2  and  C2_3 
ROOT
ATOM      1  C2  UNL d   1       1.170  -1.901   1.404  0.00  0.00    -0.081 A 
ATOM      2  C3  UNL d   1      -0.192  -2.188   1.560  0.00  0.00     0.006 A 
ATOM      3  C4  UNL d   1      -1.141  -1.596   0.724  0.00  0.00     0.002 A 
ATOM      4  C5  UNL d   1      -0.745  -0.713  -0.286  0.00  0.00    -0.080 A 
ATOM      5  C6  UNL d   1      -1.751  -0.093  -1.210  0.00  0.00     0.076 C 
ATOM      6  C7  UNL d   1       0.614  -0.412  -0.431  0.00  0.00     0.002 A 
ATOM      7  C8  UNL d   1       1.563  -1.004   0.405  0.00  0.00     0.006 A 
ENDROOT
BRANCH   1   8
ATOM      8  C1  UNL d   1       2.201  -2.588   2.262  0.00  0.00     0.054 C 
ATOM      9  C   UNL d   1       3.560  -1.914   2.139  0.00  0.00     0.018 C 
ENDBRANCH   1   8
TORSDOF 1
ENDMDL
