MODEL 1
REMARK minimizedAffinity -3.56694531
REMARK minimizedRMSD -1
REMARK  1 active torsions:
REMARK  status: ('A' for Active; 'I' for Inactive)
REMARK    1  A    between atoms: C1_2  and  C2_3 
ROOT
ATOM      1  C2  UNL d   1      -1.327   0.297  -1.087  0.00  0.00    -0.081 A 
ATOM      2  C3  UNL d   1      -1.102  -0.520   0.027  0.00  0.00     0.006 A 
ATOM      3  C4  UNL d   1       0.061  -0.376   0.788  0.00  0.00     0.002 A 
ATOM      4  C5  UNL d   1       1.014   0.591   0.451  0.00  0.00    -0.080 A 
ATOM      5  C6  UNL d   1       2.252   0.776   1.277  0.00  0.00     0.076 C 
ATOM      6  C7  UNL d   1       0.798   1.395  -0.673  0.00  0.00     0.002 A 
ATOM      7  C8  UNL d   1      -0.364   1.252  -1.434  0.00  0.00     0.006 A 
ENDROOT
BRANCH   1   8
ATOM      8  C1  UNL d   1      -2.610   0.188  -1.871  0.00  0.00     0.054 C 
ATOM      9  C   UNL d   1      -2.337  -0.048  -3.350  0.00  0.00     0.018 C 
ENDBRANCH   1   8
TORSDOF 1
ENDMDL
