MODEL 1
REMARK minimizedAffinity -2.69000506
REMARK minimizedRMSD -1
REMARK  1 active torsions:
REMARK  status: ('A' for Active; 'I' for Inactive)
REMARK    1  A    between atoms: C1_2  and  C2_3 
ROOT
ATOM      1  C2  UNL d   1      -1.014   0.418  -0.357  0.00  0.00    -0.081 A 
ATOM      2  C3  UNL d   1      -1.723  -0.761  -0.093  0.00  0.00     0.006 A 
ATOM      3  C4  UNL d   1      -2.816  -1.122  -0.884  0.00  0.00     0.002 A 
ATOM      4  C5  UNL d   1      -3.213  -0.316  -1.957  0.00  0.00    -0.080 A 
ATOM      5  C6  UNL d   1      -4.366  -0.708  -2.833  0.00  0.00     0.076 C 
ATOM      6  C7  UNL d   1      -2.515   0.869  -2.210  0.00  0.00     0.002 A 
ATOM      7  C8  UNL d   1      -1.423   1.232  -1.419  0.00  0.00     0.006 A 
ENDROOT
BRANCH   1   8
ATOM      8  C1  UNL d   1       0.204   0.777   0.454  0.00  0.00     0.054 C 
ATOM      9  C   UNL d   1       1.327   1.295  -0.433  0.00  0.00     0.018 C 
ENDBRANCH   1   8
TORSDOF 1
ENDMDL
