MODEL 1
REMARK minimizedAffinity 3.02160811
REMARK minimizedRMSD -1
REMARK  0 active torsions:
REMARK  status: ('A' for Active; 'I' for Inactive)
ROOT
ATOM      1  C   UNL d   1       0.961  -0.134  -2.822  0.00  0.00     0.124 A 
ATOM      2  C1  UNL d   1      -0.202  -0.749  -2.380  0.00  0.00     0.062 A 
ATOM      3  C2  UNL d   1      -0.663  -0.526  -1.086  0.00  0.00     0.162 A 
ATOM      4  C3  UNL d   1       0.039   0.316  -0.224  0.00  0.00    -0.034 A 
ATOM      5  C4  UNL d   1       1.208   0.931  -0.675  0.00  0.00     0.162 A 
ATOM      6  C5  UNL d   1       1.665   0.705  -1.970  0.00  0.00     0.062 A 
ATOM      7  F   UNL d   1       2.789   1.300  -2.395  0.00  0.00    -0.097 F 
ATOM      8  F1  UNL d   1       1.907   1.747   0.127  0.00  0.00    -0.096 F 
ATOM      9  I   UNL d   1      -0.648   0.652   1.712  0.00  0.00    -0.060 I 
ATOM     10  F2  UNL d   1      -1.790  -1.133  -0.686  0.00  0.00    -0.096 F 
ATOM     11  F3  UNL d   1      -0.883  -1.561  -3.202  0.00  0.00    -0.097 F 
ATOM     12  F4  UNL d   1       1.403  -0.351  -4.067  0.00  0.00    -0.092 F 
ENDROOT
TORSDOF 0
ENDMDL
