MODEL 1
REMARK minimizedAffinity -0.0977397636
REMARK minimizedRMSD -1
REMARK  0 active torsions:
REMARK  status: ('A' for Active; 'I' for Inactive)
ROOT
ATOM      1  C   UNL d   1      -2.056   0.597   1.319  0.00  0.00     0.124 A 
ATOM      2  C1  UNL d   1      -1.811  -0.206   0.214  0.00  0.00     0.062 A 
ATOM      3  C2  UNL d   1      -0.507  -0.565  -0.115  0.00  0.00     0.162 A 
ATOM      4  C3  UNL d   1       0.563  -0.123   0.664  0.00  0.00    -0.034 A 
ATOM      5  C4  UNL d   1       0.308   0.686   1.773  0.00  0.00     0.162 A 
ATOM      6  C5  UNL d   1      -0.997   1.042   2.097  0.00  0.00     0.062 A 
ATOM      7  F   UNL d   1      -1.232   1.818   3.165  0.00  0.00    -0.097 F 
ATOM      8  F1  UNL d   1       1.313   1.129   2.543  0.00  0.00    -0.096 F 
ATOM      9  I   UNL d   1       2.514  -0.658   0.176  0.00  0.00    -0.060 I 
ATOM     10  F2  UNL d   1      -0.299  -1.343  -1.188  0.00  0.00    -0.096 F 
ATOM     11  F3  UNL d   1      -2.832  -0.637  -0.541  0.00  0.00    -0.097 F 
ATOM     12  F4  UNL d   1      -3.312   0.942   1.632  0.00  0.00    -0.092 F 
ENDROOT
TORSDOF 0
ENDMDL
