MODEL 1
REMARK minimizedAffinity -1.82391608
REMARK minimizedRMSD -1
REMARK  0 active torsions:
REMARK  status: ('A' for Active; 'I' for Inactive)
ROOT
ATOM      1  C   UNL d   1       1.035  -1.075  -1.013  0.00  0.00     0.124 A 
ATOM      2  C1  UNL d   1       1.746  -0.829   0.153  0.00  0.00     0.062 A 
ATOM      3  C2  UNL d   1       1.190  -0.045   1.160  0.00  0.00     0.162 A 
ATOM      4  C3  UNL d   1      -0.086   0.497   1.006  0.00  0.00    -0.034 A 
ATOM      5  C4  UNL d   1      -0.795   0.246  -0.170  0.00  0.00     0.162 A 
ATOM      6  C5  UNL d   1      -0.234  -0.538  -1.174  0.00  0.00     0.062 A 
ATOM      7  F   UNL d   1      -0.923  -0.775  -2.300  0.00  0.00    -0.097 F 
ATOM      8  F1  UNL d   1      -2.023   0.752  -0.351  0.00  0.00    -0.096 F 
ATOM      9  I   UNL d   1      -0.921   1.670   2.509  0.00  0.00    -0.060 I 
ATOM     10  F2  UNL d   1       1.900   0.177   2.277  0.00  0.00    -0.096 F 
ATOM     11  F3  UNL d   1       2.973  -1.346   0.311  0.00  0.00    -0.097 F 
ATOM     12  F4  UNL d   1       1.573  -1.829  -1.980  0.00  0.00    -0.092 F 
ENDROOT
TORSDOF 0
ENDMDL
