MODEL 1
REMARK minimizedAffinity 8.94436359
REMARK minimizedRMSD -1
REMARK  0 active torsions:
REMARK  status: ('A' for Active; 'I' for Inactive)
ROOT
ATOM      1  C1  DEN d   1       0.125   2.102  -2.558  0.00  0.00     0.130 A 
ATOM      2  C2  DEN d   1       0.967   2.597  -3.644  0.00  0.00    -0.031 A 
ATOM      3  C3  DEN d   1       2.376   2.481  -3.218  0.00  0.00     0.027 A 
ATOM      4  C4  DEN d   1       3.331   1.584  -0.997  0.00  0.00     0.027 A 
ATOM      5  C5  DEN d   1       3.006   1.062   0.236  0.00  0.00    -0.003 A 
ATOM      6  C6  DEN d   1       1.707   0.884   0.633  0.00  0.00     0.001 A 
ATOM      7  C7  DEN d   1       0.686   1.188  -0.227  0.00  0.00     0.017 A 
ATOM      8  C8  DEN d   1       1.006   1.721  -1.469  0.00  0.00    -0.094 A 
ATOM      9  C9  DEN d   1       2.325   1.882  -1.857  0.00  0.00    -0.072 A 
ENDROOT
TORSDOF 0
ENDMDL
