MODEL 1
REMARK minimizedAffinity 9.10106373
REMARK minimizedRMSD -1
REMARK  0 active torsions:
REMARK  status: ('A' for Active; 'I' for Inactive)
ROOT
ATOM      1  C1  DEN d   1      -5.029   5.973  -5.663  0.00  0.00     0.130 A 
ATOM      2  C2  DEN d   1      -5.880   5.301  -4.685  0.00  0.00    -0.031 A 
ATOM      3  C3  DEN d   1      -5.008   4.549  -3.760  0.00  0.00     0.027 A 
ATOM      4  C4  DEN d   1      -2.436   4.365  -3.745  0.00  0.00     0.027 A 
ATOM      5  C5  DEN d   1      -1.279   4.750  -4.387  0.00  0.00    -0.003 A 
ATOM      6  C6  DEN d   1      -1.293   5.535  -5.509  0.00  0.00     0.001 A 
ATOM      7  C7  DEN d   1      -2.485   5.998  -5.999  0.00  0.00     0.017 A 
ATOM      8  C8  DEN d   1      -3.656   5.608  -5.362  0.00  0.00    -0.094 A 
ATOM      9  C9  DEN d   1      -3.621   4.824  -4.221  0.00  0.00    -0.072 A 
ENDROOT
TORSDOF 0
ENDMDL
