MODEL 1
REMARK minimizedAffinity 11.5378666
REMARK minimizedRMSD -1
REMARK  0 active torsions:
REMARK  status: ('A' for Active; 'I' for Inactive)
ROOT
ATOM      1  C1  DEN d   1      -2.288   5.631  -5.939  0.00  0.00     0.130 A 
ATOM      2  C2  DEN d   1      -1.331   5.513  -4.842  0.00  0.00    -0.031 A 
ATOM      3  C3  DEN d   1      -2.088   5.508  -3.574  0.00  0.00     0.027 A 
ATOM      4  C4  DEN d   1      -4.636   5.666  -3.205  0.00  0.00     0.027 A 
ATOM      5  C5  DEN d   1      -5.856   5.791  -3.833  0.00  0.00    -0.003 A 
ATOM      6  C6  DEN d   1      -5.968   5.905  -5.194  0.00  0.00     0.001 A 
ATOM      7  C7  DEN d   1      -4.844   5.851  -5.975  0.00  0.00     0.017 A 
ATOM      8  C8  DEN d   1      -3.610   5.732  -5.348  0.00  0.00    -0.094 A 
ATOM      9  C9  DEN d   1      -3.519   5.606  -3.972  0.00  0.00    -0.072 A 
ENDROOT
TORSDOF 0
ENDMDL
