MODEL 1
REMARK minimizedAffinity 8.32086277
REMARK minimizedRMSD -1
REMARK  0 active torsions:
REMARK  status: ('A' for Active; 'I' for Inactive)
ROOT
ATOM      1  C1  DEN d   1      -2.185   5.752  -5.994  0.00  0.00     0.130 A 
ATOM      2  C2  DEN d   1      -1.211   5.672  -4.909  0.00  0.00    -0.031 A 
ATOM      3  C3  DEN d   1      -1.951   5.663  -3.631  0.00  0.00     0.027 A 
ATOM      4  C4  DEN d   1      -4.497   5.760  -3.230  0.00  0.00     0.027 A 
ATOM      5  C5  DEN d   1      -5.728   5.847  -3.843  0.00  0.00    -0.003 A 
ATOM      6  C6  DEN d   1      -5.861   5.941  -5.203  0.00  0.00     0.001 A 
ATOM      7  C7  DEN d   1      -4.747   5.906  -5.998  0.00  0.00     0.017 A 
ATOM      8  C8  DEN d   1      -3.502   5.826  -5.387  0.00  0.00    -0.094 A 
ATOM      9  C9  DEN d   1      -3.389   5.719  -4.011  0.00  0.00    -0.072 A 
ENDROOT
TORSDOF 0
ENDMDL
