MODEL 1
REMARK minimizedAffinity 15.7154789
REMARK minimizedRMSD -1
REMARK  0 active torsions:
REMARK  status: ('A' for Active; 'I' for Inactive)
ROOT
ATOM      1  C1  DEN d   1       4.838   2.851   2.768  0.00  0.00     0.130 A 
ATOM      2  C2  DEN d   1       5.999   3.579   2.264  0.00  0.00    -0.031 A 
ATOM      3  C3  DEN d   1       6.000   3.474   0.791  0.00  0.00     0.027 A 
ATOM      4  C4  DEN d   1       4.321   2.266  -0.751  0.00  0.00     0.027 A 
ATOM      5  C5  DEN d   1       3.178   1.499  -0.783  0.00  0.00    -0.003 A 
ATOM      6  C6  DEN d   1       2.531   1.104   0.359  0.00  0.00     0.001 A 
ATOM      7  C7  DEN d   1       2.999   1.512   1.580  0.00  0.00     0.017 A 
ATOM      8  C8  DEN d   1       4.156   2.279   1.620  0.00  0.00    -0.094 A 
ATOM      9  C9  DEN d   1       4.788   2.679   0.455  0.00  0.00    -0.072 A 
ENDROOT
TORSDOF 0
ENDMDL
