MODEL 1
REMARK minimizedAffinity 18.4294415
REMARK minimizedRMSD -1
REMARK  0 active torsions:
REMARK  status: ('A' for Active; 'I' for Inactive)
ROOT
ATOM      1  C1  DEN d   1      -4.112  -0.764   0.034  0.00  0.00     0.130 A 
ATOM      2  C2  DEN d   1      -5.055   0.297   0.378  0.00  0.00    -0.031 A 
ATOM      3  C3  DEN d   1      -4.499   1.048   1.521  0.00  0.00     0.027 A 
ATOM      4  C4  DEN d   1      -2.280   0.677   2.782  0.00  0.00     0.027 A 
ATOM      5  C5  DEN d   1      -1.152  -0.108   2.861  0.00  0.00    -0.003 A 
ATOM      6  C6  DEN d   1      -0.948  -1.180   2.033  0.00  0.00     0.001 A 
ATOM      7  C7  DEN d   1      -1.867  -1.468   1.058  0.00  0.00     0.017 A 
ATOM      8  C8  DEN d   1      -3.011  -0.685   0.977  0.00  0.00    -0.094 A 
ATOM      9  C9  DEN d   1      -3.192   0.402   1.816  0.00  0.00    -0.072 A 
ENDROOT
TORSDOF 0
ENDMDL
