MODEL 1
REMARK minimizedAffinity 15.5764389
REMARK minimizedRMSD -1
REMARK  0 active torsions:
REMARK  status: ('A' for Active; 'I' for Inactive)
ROOT
ATOM      1  C1  DEN d   1       3.595   1.980  -0.656  0.00  0.00     0.130 A 
ATOM      2  C2  DEN d   1       2.636   1.592   0.375  0.00  0.00    -0.031 A 
ATOM      3  C3  DEN d   1       1.278   1.785  -0.169  0.00  0.00     0.027 A 
ATOM      4  C4  DEN d   1       0.569   2.639  -2.498  0.00  0.00     0.027 A 
ATOM      5  C5  DEN d   1       1.028   3.103  -3.711  0.00  0.00    -0.003 A 
ATOM      6  C6  DEN d   1       2.363   3.256  -3.976  0.00  0.00     0.001 A 
ATOM      7  C7  DEN d   1       3.288   2.900  -3.031  0.00  0.00     0.017 A 
ATOM      8  C8  DEN d   1       2.833   2.438  -1.803  0.00  0.00    -0.094 A 
ATOM      9  C9  DEN d   1       1.479   2.278  -1.558  0.00  0.00    -0.072 A 
ENDROOT
TORSDOF 0
ENDMDL
