MODEL 1
REMARK minimizedAffinity 23.04879
REMARK minimizedRMSD -1
REMARK  0 active torsions:
REMARK  status: ('A' for Active; 'I' for Inactive)
ROOT
ATOM      1  C1  DEN d   1       4.223   4.620  -1.063  0.00  0.00     0.130 A 
ATOM      2  C2  DEN d   1       5.139   5.692  -0.681  0.00  0.00    -0.031 A 
ATOM      3  C3  DEN d   1       5.999   5.993  -1.843  0.00  0.00     0.027 A 
ATOM      4  C4  DEN d   1       6.000   4.914  -4.185  0.00  0.00     0.027 A 
ATOM      5  C5  DEN d   1       5.411   3.954  -4.979  0.00  0.00    -0.003 A 
ATOM      6  C6  DEN d   1       4.416   3.133  -4.517  0.00  0.00     0.001 A 
ATOM      7  C7  DEN d   1       3.949   3.287  -3.238  0.00  0.00     0.017 A 
ATOM      8  C8  DEN d   1       4.543   4.247  -2.430  0.00  0.00    -0.094 A 
ATOM      9  C9  DEN d   1       5.538   5.075  -2.919  0.00  0.00    -0.072 A 
ENDROOT
TORSDOF 0
ENDMDL
