MODEL 1
REMARK minimizedAffinity 18.2448196
REMARK minimizedRMSD -1
REMARK  0 active torsions:
REMARK  status: ('A' for Active; 'I' for Inactive)
ROOT
ATOM      1  C1  DEN d   1       4.671   2.998  -3.985  0.00  0.00     0.130 A 
ATOM      2  C2  DEN d   1       4.176   3.851  -5.062  0.00  0.00    -0.031 A 
ATOM      3  C3  DEN d   1       2.721   4.021  -4.877  0.00  0.00     0.027 A 
ATOM      4  C4  DEN d   1       1.195   3.057  -3.035  0.00  0.00     0.027 A 
ATOM      5  C5  DEN d   1       1.159   2.265  -1.908  0.00  0.00    -0.003 A 
ATOM      6  C6  DEN d   1       2.274   1.640  -1.418  0.00  0.00     0.001 A 
ATOM      7  C7  DEN d   1       3.484   1.832  -2.031  0.00  0.00     0.017 A 
ATOM      8  C8  DEN d   1       3.528   2.623  -3.172  0.00  0.00    -0.094 A 
ATOM      9  C9  DEN d   1       2.391   3.256  -3.645  0.00  0.00    -0.072 A 
ENDROOT
TORSDOF 0
ENDMDL
