MODEL 1
REMARK minimizedAffinity 14.6396837
REMARK minimizedRMSD -1
REMARK  0 active torsions:
REMARK  status: ('A' for Active; 'I' for Inactive)
ROOT
ATOM      1  C1  DEN d   1       3.604   3.240  -3.746  0.00  0.00     0.130 A 
ATOM      2  C2  DEN d   1       4.150   3.439  -5.086  0.00  0.00    -0.031 A 
ATOM      3  C3  DEN d   1       5.188   4.487  -5.005  0.00  0.00     0.027 A 
ATOM      4  C4  DEN d   1       5.999   5.811  -2.945  0.00  0.00     0.027 A 
ATOM      5  C5  DEN d   1       5.825   6.000  -1.592  0.00  0.00    -0.003 A 
ATOM      6  C6  DEN d   1       4.883   5.312  -0.874  0.00  0.00     0.001 A 
ATOM      7  C7  DEN d   1       4.108   4.370  -1.498  0.00  0.00     0.017 A 
ATOM      8  C8  DEN d   1       4.273   4.179  -2.864  0.00  0.00    -0.094 A 
ATOM      9  C9  DEN d   1       5.240   4.875  -3.569  0.00  0.00    -0.072 A 
ENDROOT
TORSDOF 0
ENDMDL
