MODEL 1
REMARK minimizedAffinity 18.316534
REMARK minimizedRMSD -1
REMARK  0 active torsions:
REMARK  status: ('A' for Active; 'I' for Inactive)
ROOT
ATOM      1  C1  DEN d   1       1.048  -3.489   1.366  0.00  0.00     0.130 A 
ATOM      2  C2  DEN d   1       1.136  -2.272   2.169  0.00  0.00    -0.031 A 
ATOM      3  C3  DEN d   1       2.391  -1.580   1.813  0.00  0.00     0.027 A 
ATOM      4  C4  DEN d   1       4.194  -2.267   0.101  0.00  0.00     0.027 A 
ATOM      5  C5  DEN d   1       4.564  -3.227  -0.815  0.00  0.00    -0.003 A 
ATOM      6  C6  DEN d   1       3.812  -4.349  -1.042  0.00  0.00     0.001 A 
ATOM      7  C7  DEN d   1       2.627  -4.517  -0.376  0.00  0.00     0.017 A 
ATOM      8  C8  DEN d   1       2.250  -3.557   0.554  0.00  0.00    -0.094 A 
ATOM      9  C9  DEN d   1       3.018  -2.424   0.760  0.00  0.00    -0.072 A 
ENDROOT
TORSDOF 0
ENDMDL
