MODEL 1
REMARK minimizedAffinity 16.0419235
REMARK minimizedRMSD -1
REMARK  0 active torsions:
REMARK  status: ('A' for Active; 'I' for Inactive)
ROOT
ATOM      1  C1  DEN d   1       5.301   4.248  -1.925  0.00  0.00     0.130 A 
ATOM      2  C2  DEN d   1       5.783   5.601  -1.661  0.00  0.00    -0.031 A 
ATOM      3  C3  DEN d   1       5.444   5.942  -0.265  0.00  0.00     0.027 A 
ATOM      4  C4  DEN d   1       4.230   4.513   1.505  0.00  0.00     0.027 A 
ATOM      5  C5  DEN d   1       3.621   3.301   1.745  0.00  0.00    -0.003 A 
ATOM      6  C6  DEN d   1       3.501   2.340   0.776  0.00  0.00     0.001 A 
ATOM      7  C7  DEN d   1       4.036   2.558  -0.466  0.00  0.00     0.017 A 
ATOM      8  C8  DEN d   1       4.645   3.781  -0.717  0.00  0.00    -0.094 A 
ATOM      9  C9  DEN d   1       4.768   4.734   0.279  0.00  0.00    -0.072 A 
ENDROOT
TORSDOF 0
ENDMDL
