MODEL 1
REMARK minimizedAffinity 11.9045572
REMARK minimizedRMSD -1
REMARK  0 active torsions:
REMARK  status: ('A' for Active; 'I' for Inactive)
ROOT
ATOM      1  C1  DEN d   1      -6.000   0.751  -4.473  0.00  0.00     0.130 A 
ATOM      2  C2  DEN d   1      -5.999  -0.688  -4.725  0.00  0.00    -0.031 A 
ATOM      3  C3  DEN d   1      -5.865  -1.379  -3.427  0.00  0.00     0.027 A 
ATOM      4  C4  DEN d   1      -5.665  -0.366  -1.063  0.00  0.00     0.027 A 
ATOM      5  C5  DEN d   1      -5.606   0.808  -0.346  0.00  0.00    -0.003 A 
ATOM      6  C6  DEN d   1      -5.640   2.036  -0.952  0.00  0.00     0.001 A 
ATOM      7  C7  DEN d   1      -5.781   2.118  -2.313  0.00  0.00     0.017 A 
ATOM      8  C8  DEN d   1      -5.833   0.938  -3.043  0.00  0.00    -0.094 A 
ATOM      9  C9  DEN d   1      -5.810  -0.294  -2.410  0.00  0.00    -0.072 A 
ENDROOT
TORSDOF 0
ENDMDL
