MODEL 1
REMARK minimizedAffinity 16.5245819
REMARK minimizedRMSD -1
REMARK  0 active torsions:
REMARK  status: ('A' for Active; 'I' for Inactive)
ROOT
ATOM      1  C1  DEN d   1      -1.959   5.631  -2.145  0.00  0.00     0.130 A 
ATOM      2  C2  DEN d   1      -0.833   5.122  -1.366  0.00  0.00    -0.031 A 
ATOM      3  C3  DEN d   1       0.219   4.694  -2.310  0.00  0.00     0.027 A 
ATOM      4  C4  DEN d   1       0.215   4.773  -4.888  0.00  0.00     0.027 A 
ATOM      5  C5  DEN d   1      -0.525   5.111  -6.000  0.00  0.00    -0.003 A 
ATOM      6  C6  DEN d   1      -1.797   5.611  -5.906  0.00  0.00     0.001 A 
ATOM      7  C7  DEN d   1      -2.351   5.829  -4.673  0.00  0.00     0.017 A 
ATOM      8  C8  DEN d   1      -1.615   5.483  -3.547  0.00  0.00    -0.094 A 
ATOM      9  C9  DEN d   1      -0.326   4.991  -3.663  0.00  0.00    -0.072 A 
ENDROOT
TORSDOF 0
ENDMDL
