MODEL 1
REMARK minimizedAffinity 14.5460587
REMARK minimizedRMSD -1
REMARK  0 active torsions:
REMARK  status: ('A' for Active; 'I' for Inactive)
ROOT
ATOM      1  C1  DEN d   1      -2.322  -2.093   1.309  0.00  0.00     0.130 A 
ATOM      2  C2  DEN d   1      -0.989  -2.074   1.906  0.00  0.00    -0.031 A 
ATOM      3  C3  DEN d   1      -0.934  -0.952   2.865  0.00  0.00     0.027 A 
ATOM      4  C4  DEN d   1      -2.776   0.744   3.484  0.00  0.00     0.027 A 
ATOM      5  C5  DEN d   1      -4.073   1.135   3.232  0.00  0.00    -0.003 A 
ATOM      6  C6  DEN d   1      -4.859   0.505   2.304  0.00  0.00     0.001 A 
ATOM      7  C7  DEN d   1      -4.370  -0.581   1.627  0.00  0.00     0.017 A 
ATOM      8  C8  DEN d   1      -3.062  -0.977   1.870  0.00  0.00    -0.094 A 
ATOM      9  C9  DEN d   1      -2.287  -0.334   2.821  0.00  0.00    -0.072 A 
ENDROOT
TORSDOF 0
ENDMDL
