MODEL 1
REMARK minimizedAffinity 5.78487206
REMARK minimizedRMSD -1
REMARK  0 active torsions:
REMARK  status: ('A' for Active; 'I' for Inactive)
ROOT
ATOM      1  C2' OXE d   1      -1.500  -3.485  -4.499  0.00  0.00     0.078 C 
ATOM      2  C1' OXE d   1       0.197  -3.006  -2.315  0.00  0.00     0.078 C 
ATOM      3  C1  OXE d   1       0.823  -3.490  -3.600  0.00  0.00    -0.078 A 
ATOM      4  C2  OXE d   1      -0.021  -3.766  -4.649  0.00  0.00    -0.078 A 
ATOM      5  C3  OXE d   1       0.509  -4.163  -5.873  0.00  0.00     0.003 A 
ATOM      6  C4  OXE d   1       1.878  -4.430  -6.000  0.00  0.00    -0.002 A 
ATOM      7  C5  OXE d   1       2.749  -4.193  -4.932  0.00  0.00    -0.002 A 
ATOM      8  C6  OXE d   1       2.245  -3.683  -3.741  0.00  0.00     0.003 A 
ENDROOT
TORSDOF 0
ENDMDL
