MODEL 1
REMARK minimizedAffinity 9.3834219
REMARK minimizedRMSD -1
REMARK  0 active torsions:
REMARK  status: ('A' for Active; 'I' for Inactive)
ROOT
ATOM      1  C2' OXE d   1       2.846  -3.701  -4.127  0.00  0.00     0.078 C 
ATOM      2  C1' OXE d   1       0.669  -3.884  -5.891  0.00  0.00     0.078 C 
ATOM      3  C1  OXE d   1       0.387  -3.486  -4.464  0.00  0.00    -0.078 A 
ATOM      4  C2  OXE d   1       1.452  -3.444  -3.596  0.00  0.00    -0.078 A 
ATOM      5  C3  OXE d   1       1.255  -3.030  -2.282  0.00  0.00     0.003 A 
ATOM      6  C4  OXE d   1      -0.039  -2.804  -1.796  0.00  0.00    -0.002 A 
ATOM      7  C5  OXE d   1      -1.142  -2.880  -2.653  0.00  0.00    -0.002 A 
ATOM      8  C6  OXE d   1      -0.942  -3.177  -3.997  0.00  0.00     0.003 A 
ENDROOT
TORSDOF 0
ENDMDL
