MODEL 1
REMARK minimizedAffinity 6.98670912
REMARK minimizedRMSD -1
REMARK  0 active torsions:
REMARK  status: ('A' for Active; 'I' for Inactive)
ROOT
ATOM      1  C2' OXE d   1       5.996  -5.298   5.736  0.00  0.00     0.078 C 
ATOM      2  C1' OXE d   1       3.202  -5.264   5.998  0.00  0.00     0.078 C 
ATOM      3  C1  OXE d   1       3.918  -3.938   5.936  0.00  0.00    -0.078 A 
ATOM      4  C2  OXE d   1       5.290  -3.964   5.855  0.00  0.00    -0.078 A 
ATOM      5  C3  OXE d   1       5.997  -2.771   5.740  0.00  0.00     0.003 A 
ATOM      6  C4  OXE d   1       5.337  -1.542   5.861  0.00  0.00    -0.002 A 
ATOM      7  C5  OXE d   1       3.944  -1.493   5.984  0.00  0.00    -0.002 A 
ATOM      8  C6  OXE d   1       3.218  -2.678   5.981  0.00  0.00     0.003 A 
ENDROOT
TORSDOF 0
ENDMDL
