MODEL 1
REMARK minimizedAffinity 15.8468428
REMARK minimizedRMSD -1
REMARK  0 active torsions:
REMARK  status: ('A' for Active; 'I' for Inactive)
ROOT
ATOM      1  C2' OXE d   1       3.422  -2.127  -1.942  0.00  0.00     0.078 C 
ATOM      2  C1' OXE d   1       2.644  -3.714  -4.123  0.00  0.00     0.078 C 
ATOM      3  C1  OXE d   1       1.560  -3.173  -3.225  0.00  0.00    -0.078 A 
ATOM      4  C2  OXE d   1       1.953  -2.437  -2.133  0.00  0.00    -0.078 A 
ATOM      5  C3  OXE d   1       0.991  -1.869  -1.302  0.00  0.00     0.003 A 
ATOM      6  C4  OXE d   1      -0.365  -2.168  -1.480  0.00  0.00    -0.002 A 
ATOM      7  C5  OXE d   1      -0.784  -2.949  -2.563  0.00  0.00    -0.002 A 
ATOM      8  C6  OXE d   1       0.161  -3.423  -3.467  0.00  0.00     0.003 A 
ENDROOT
TORSDOF 0
ENDMDL
