MODEL 1
REMARK minimizedAffinity 4.61314058
REMARK minimizedRMSD -1
REMARK  0 active torsions:
REMARK  status: ('A' for Active; 'I' for Inactive)
ROOT
ATOM      1  C2' OXE d   1       0.985  -3.170  -2.432  0.00  0.00     0.078 C 
ATOM      2  C1' OXE d   1      -1.642  -2.663  -3.283  0.00  0.00     0.078 C 
ATOM      3  C1  OXE d   1      -1.360  -2.612  -1.802  0.00  0.00    -0.078 A 
ATOM      4  C2  OXE d   1      -0.082  -2.907  -1.391  0.00  0.00    -0.078 A 
ATOM      5  C3  OXE d   1       0.244  -2.820  -0.041  0.00  0.00     0.003 A 
ATOM      6  C4  OXE d   1      -0.751  -2.586   0.916  0.00  0.00    -0.002 A 
ATOM      7  C5  OXE d   1      -2.067  -2.322   0.521  0.00  0.00    -0.002 A 
ATOM      8  C6  OXE d   1      -2.378  -2.289  -0.834  0.00  0.00     0.003 A 
ENDROOT
TORSDOF 0
ENDMDL
