MODEL 1
REMARK minimizedAffinity 10.9194841
REMARK minimizedRMSD -1
REMARK  0 active torsions:
REMARK  status: ('A' for Active; 'I' for Inactive)
ROOT
ATOM      1  C2' OXE d   1      -0.800  -2.681   1.440  0.00  0.00     0.078 C 
ATOM      2  C1' OXE d   1      -3.311  -2.706   0.186  0.00  0.00     0.078 C 
ATOM      3  C1  OXE d   1      -2.088  -2.613  -0.691  0.00  0.00    -0.078 A 
ATOM      4  C2  OXE d   1      -0.865  -2.554  -0.067  0.00  0.00    -0.078 A 
ATOM      5  C3  OXE d   1       0.298  -2.523  -0.831  0.00  0.00     0.003 A 
ATOM      6  C4  OXE d   1       0.229  -2.395  -2.223  0.00  0.00    -0.002 A 
ATOM      7  C5  OXE d   1      -1.008  -2.413  -2.877  0.00  0.00    -0.002 A 
ATOM      8  C6  OXE d   1      -2.171  -2.564  -2.130  0.00  0.00     0.003 A 
ENDROOT
TORSDOF 0
ENDMDL
