MODEL 1
REMARK minimizedAffinity 6.67102051
REMARK minimizedRMSD -1
REMARK  0 active torsions:
REMARK  status: ('A' for Active; 'I' for Inactive)
ROOT
ATOM      1  C2' OXE d   1      -5.645   5.298  -0.358  0.00  0.00     0.078 C 
ATOM      2  C1' OXE d   1      -3.399   6.000   1.172  0.00  0.00     0.078 C 
ATOM      3  C1  OXE d   1      -3.576   4.547   0.808  0.00  0.00    -0.078 A 
ATOM      4  C2  OXE d   1      -4.703   4.206   0.099  0.00  0.00    -0.078 A 
ATOM      5  C3  OXE d   1      -4.888   2.888  -0.309  0.00  0.00     0.003 A 
ATOM      6  C4  OXE d   1      -4.016   1.882   0.126  0.00  0.00    -0.002 A 
ATOM      7  C5  OXE d   1      -2.884   2.202   0.883  0.00  0.00    -0.002 A 
ATOM      8  C6  OXE d   1      -2.627   3.533   1.195  0.00  0.00     0.003 A 
ENDROOT
TORSDOF 0
ENDMDL
