MODEL 1
REMARK minimizedAffinity 6.81049109
REMARK minimizedRMSD -1
REMARK  0 active torsions:
REMARK  status: ('A' for Active; 'I' for Inactive)
ROOT
ATOM      1  C2' OXE d   1      -0.019  -2.561   0.986  0.00  0.00     0.078 C 
ATOM      2  C1' OXE d   1      -2.767  -2.569   0.415  0.00  0.00     0.078 C 
ATOM      3  C1  OXE d   1      -1.807  -2.596  -0.748  0.00  0.00    -0.078 A 
ATOM      4  C2  OXE d   1      -0.464  -2.545  -0.460  0.00  0.00    -0.078 A 
ATOM      5  C3  OXE d   1       0.466  -2.623  -1.493  0.00  0.00     0.003 A 
ATOM      6  C4  OXE d   1       0.046  -2.597  -2.828  0.00  0.00    -0.002 A 
ATOM      7  C5  OXE d   1      -1.317  -2.610  -3.144  0.00  0.00    -0.002 A 
ATOM      8  C6  OXE d   1      -2.254  -2.652  -2.118  0.00  0.00     0.003 A 
ENDROOT
TORSDOF 0
ENDMDL
