MODEL 1
REMARK minimizedAffinity 1.93291783
REMARK minimizedRMSD -1
REMARK  0 active torsions:
REMARK  status: ('A' for Active; 'I' for Inactive)
ROOT
ATOM      1  C2' OXE d   1      -2.631  -0.209   1.506  0.00  0.00     0.078 C 
ATOM      2  C1' OXE d   1      -1.739  -1.857   3.596  0.00  0.00     0.078 C 
ATOM      3  C1  OXE d   1      -1.283  -2.186   2.197  0.00  0.00    -0.078 A 
ATOM      4  C2  OXE d   1      -1.762  -1.403   1.175  0.00  0.00    -0.078 A 
ATOM      5  C3  OXE d   1      -1.330  -1.630  -0.128  0.00  0.00     0.003 A 
ATOM      6  C4  OXE d   1      -0.534  -2.742  -0.427  0.00  0.00    -0.002 A 
ATOM      7  C5  OXE d   1      -0.067  -3.577   0.594  0.00  0.00    -0.002 A 
ATOM      8  C6  OXE d   1      -0.397  -3.288   1.914  0.00  0.00     0.003 A 
ENDROOT
TORSDOF 0
ENDMDL
