MODEL 1
REMARK minimizedAffinity 5.4235487
REMARK minimizedRMSD -1
REMARK  0 active torsions:
REMARK  status: ('A' for Active; 'I' for Inactive)
ROOT
ATOM      1  C2' OXE d   1      -2.251   2.055   5.764  0.00  0.00     0.078 C 
ATOM      2  C1' OXE d   1      -4.862   1.033   5.895  0.00  0.00     0.078 C 
ATOM      3  C1  OXE d   1      -3.720   0.048   5.901  0.00  0.00    -0.078 A 
ATOM      4  C2  OXE d   1      -2.448   0.554   5.789  0.00  0.00    -0.078 A 
ATOM      5  C3  OXE d   1      -1.355  -0.307   5.845  0.00  0.00     0.003 A 
ATOM      6  C4  OXE d   1      -1.546  -1.694   5.858  0.00  0.00    -0.002 A 
ATOM      7  C5  OXE d   1      -2.836  -2.232   5.932  0.00  0.00    -0.002 A 
ATOM      8  C6  OXE d   1      -3.929  -1.376   5.997  0.00  0.00     0.003 A 
ENDROOT
TORSDOF 0
ENDMDL
