MODEL 1
REMARK minimizedAffinity 14.6345415
REMARK minimizedRMSD -1
REMARK  0 active torsions:
REMARK  status: ('A' for Active; 'I' for Inactive)
ROOT
ATOM      1  C2' OXE d   1      -3.323  -2.454   5.870  0.00  0.00     0.078 C 
ATOM      2  C1' OXE d   1      -0.919  -1.006   5.854  0.00  0.00     0.078 C 
ATOM      3  C1  OXE d   1      -2.209  -0.227   5.919  0.00  0.00    -0.078 A 
ATOM      4  C2  OXE d   1      -3.381  -0.942   5.879  0.00  0.00    -0.078 A 
ATOM      5  C3  OXE d   1      -4.599  -0.276   5.991  0.00  0.00     0.003 A 
ATOM      6  C4  OXE d   1      -4.644   1.123   5.988  0.00  0.00    -0.002 A 
ATOM      7  C5  OXE d   1      -3.462   1.872   5.989  0.00  0.00    -0.002 A 
ATOM      8  C6  OXE d   1      -2.238   1.213   5.998  0.00  0.00     0.003 A 
ENDROOT
TORSDOF 0
ENDMDL
