MODEL 1
REMARK minimizedAffinity 6.66173887
REMARK minimizedRMSD -1
REMARK  0 active torsions:
REMARK  status: ('A' for Active; 'I' for Inactive)
ROOT
ATOM      1  C2' OXE d   1      -0.905  -2.508  -4.610  0.00  0.00     0.078 C 
ATOM      2  C1' OXE d   1       1.526  -3.057  -3.317  0.00  0.00     0.078 C 
ATOM      3  C1  OXE d   1       0.359  -2.621  -2.466  0.00  0.00    -0.078 A 
ATOM      4  C2  OXE d   1      -0.813  -2.309  -3.112  0.00  0.00    -0.078 A 
ATOM      5  C3  OXE d   1      -1.936  -1.954  -2.370  0.00  0.00     0.003 A 
ATOM      6  C4  OXE d   1      -1.840  -1.763  -0.986  0.00  0.00    -0.002 A 
ATOM      7  C5  OXE d   1      -0.644  -2.036  -0.313  0.00  0.00    -0.002 A 
ATOM      8  C6  OXE d   1       0.450  -2.506  -1.031  0.00  0.00     0.003 A 
ENDROOT
TORSDOF 0
ENDMDL
