MODEL 1
REMARK minimizedAffinity 19.8433685
REMARK minimizedRMSD -1
REMARK  0 active torsions:
REMARK  status: ('A' for Active; 'I' for Inactive)
ROOT
ATOM      1  C2' OXE d   1      -0.950  -2.736  -3.428  0.00  0.00     0.078 C 
ATOM      2  C1' OXE d   1       0.519  -4.631  -1.968  0.00  0.00     0.078 C 
ATOM      3  C1  OXE d   1      -0.002  -3.424  -1.229  0.00  0.00    -0.078 A 
ATOM      4  C2  OXE d   1      -0.680  -2.478  -1.961  0.00  0.00    -0.078 A 
ATOM      5  C3  OXE d   1      -1.229  -1.372  -1.319  0.00  0.00     0.003 A 
ATOM      6  C4  OXE d   1      -0.965  -1.137   0.036  0.00  0.00    -0.002 A 
ATOM      7  C5  OXE d   1      -0.243  -2.067   0.791  0.00  0.00    -0.002 A 
ATOM      8  C6  OXE d   1       0.208  -3.234   0.185  0.00  0.00     0.003 A 
ENDROOT
TORSDOF 0
ENDMDL
