MODEL 1
REMARK minimizedAffinity 5.98954344
REMARK minimizedRMSD -1
REMARK  0 active torsions:
REMARK  status: ('A' for Active; 'I' for Inactive)
ROOT
ATOM      1  C2' OXE d   1      -2.921  -2.173   0.357  0.00  0.00     0.078 C 
ATOM      2  C1' OXE d   1      -0.146  -1.753   0.316  0.00  0.00     0.078 C 
ATOM      3  C1  OXE d   1      -0.819  -2.137  -0.978  0.00  0.00    -0.078 A 
ATOM      4  C2  OXE d   1      -2.169  -2.387  -0.939  0.00  0.00    -0.078 A 
ATOM      5  C3  OXE d   1      -2.848  -2.692  -2.115  0.00  0.00     0.003 A 
ATOM      6  C4  OXE d   1      -2.144  -2.898  -3.307  0.00  0.00    -0.002 A 
ATOM      7  C5  OXE d   1      -0.762  -2.688  -3.360  0.00  0.00    -0.002 A 
ATOM      8  C6  OXE d   1      -0.092  -2.267  -2.217  0.00  0.00     0.003 A 
ENDROOT
TORSDOF 0
ENDMDL
