MODEL 1
REMARK minimizedAffinity 11.209878
REMARK minimizedRMSD -1
REMARK  0 active torsions:
REMARK  status: ('A' for Active; 'I' for Inactive)
ROOT
ATOM      1  C2' OXE d   1      -1.247  -0.203   5.484  0.00  0.00     0.078 C 
ATOM      2  C1' OXE d   1      -3.474  -1.849   5.945  0.00  0.00     0.078 C 
ATOM      3  C1  OXE d   1      -3.703  -0.360   5.870  0.00  0.00    -0.078 A 
ATOM      4  C2  OXE d   1      -2.601   0.441   5.690  0.00  0.00    -0.078 A 
ATOM      5  C3  OXE d   1      -2.764   1.818   5.560  0.00  0.00     0.003 A 
ATOM      6  C4  OXE d   1      -4.018   2.406   5.762  0.00  0.00    -0.002 A 
ATOM      7  C5  OXE d   1      -5.147   1.611   5.985  0.00  0.00    -0.002 A 
ATOM      8  C6  OXE d   1      -5.014   0.227   6.000  0.00  0.00     0.003 A 
ENDROOT
TORSDOF 0
ENDMDL
