MODEL 1
REMARK minimizedAffinity 13.6388245
REMARK minimizedRMSD -1
REMARK  0 active torsions:
REMARK  status: ('A' for Active; 'I' for Inactive)
ROOT
ATOM      1  C2' OXE d   1      -3.282   5.168   0.721  0.00  0.00     0.078 C 
ATOM      2  C1' OXE d   1      -2.308   2.540   0.558  0.00  0.00     0.078 C 
ATOM      3  C1  OXE d   1      -1.312   3.646   0.803  0.00  0.00    -0.078 A 
ATOM      4  C2  OXE d   1      -1.792   4.933   0.835  0.00  0.00    -0.078 A 
ATOM      5  C3  OXE d   1      -0.924   5.986   1.112  0.00  0.00     0.003 A 
ATOM      6  C4  OXE d   1       0.455   5.761   1.206  0.00  0.00    -0.002 A 
ATOM      7  C5  OXE d   1       0.969   4.462   1.137  0.00  0.00    -0.002 A 
ATOM      8  C6  OXE d   1       0.097   3.392   0.979  0.00  0.00     0.003 A 
ENDROOT
TORSDOF 0
ENDMDL
