MODEL 1
REMARK minimizedAffinity 12.3508453
REMARK minimizedRMSD -1
REMARK  0 active torsions:
REMARK  status: ('A' for Active; 'I' for Inactive)
ROOT
ATOM      1  C2' OXE d   1      -1.275  -3.368  -4.632  0.00  0.00     0.078 C 
ATOM      2  C1' OXE d   1      -3.427  -2.941  -2.881  0.00  0.00     0.078 C 
ATOM      3  C1  OXE d   1      -2.031  -2.813  -2.325  0.00  0.00    -0.078 A 
ATOM      4  C2  OXE d   1      -0.984  -3.069  -3.177  0.00  0.00    -0.078 A 
ATOM      5  C3  OXE d   1       0.324  -2.912  -2.730  0.00  0.00     0.003 A 
ATOM      6  C4  OXE d   1       0.584  -2.646  -1.380  0.00  0.00    -0.002 A 
ATOM      7  C5  OXE d   1      -0.468  -2.420  -0.485  0.00  0.00    -0.002 A 
ATOM      8  C6  OXE d   1      -1.777  -2.458  -0.950  0.00  0.00     0.003 A 
ENDROOT
TORSDOF 0
ENDMDL
