MODEL 1
REMARK minimizedAffinity -5.1903019
REMARK minimizedRMSD -1
REMARK  0 active torsions:
REMARK  status: ('A' for Active; 'I' for Inactive)
ROOT
ATOM      1  C1  DEN d   1       2.609  -4.231   0.418  0.00  0.00     0.130 A 
ATOM      2  C2  DEN d   1       2.036  -5.194   1.355  0.00  0.00    -0.031 A 
ATOM      3  C3  DEN d   1       0.912  -4.537   2.053  0.00  0.00     0.027 A 
ATOM      4  C4  DEN d   1       0.006  -2.139   1.772  0.00  0.00     0.027 A 
ATOM      5  C5  DEN d   1       0.175  -0.946   1.104  0.00  0.00    -0.003 A 
ATOM      6  C6  DEN d   1       1.180  -0.755   0.193  0.00  0.00     0.001 A 
ATOM      7  C7  DEN d   1       2.028  -1.788  -0.109  0.00  0.00     0.017 A 
ATOM      8  C8  DEN d   1       1.868  -2.992   0.566  0.00  0.00    -0.094 A 
ATOM      9  C9  DEN d   1       0.839  -3.168   1.475  0.00  0.00    -0.072 A 
ENDROOT
TORSDOF 0
ENDMDL
