MODEL 1
REMARK minimizedAffinity 9.44032574
REMARK minimizedRMSD -1
REMARK  0 active torsions:
REMARK  status: ('A' for Active; 'I' for Inactive)
ROOT
ATOM      1  C1  DEN d   1       1.341  -4.953   0.952  0.00  0.00     0.130 A 
ATOM      2  C2  DEN d   1       2.624  -5.053   0.262  0.00  0.00    -0.031 A 
ATOM      3  C3  DEN d   1       2.961  -3.717  -0.272  0.00  0.00     0.027 A 
ATOM      4  C4  DEN d   1       1.628  -1.516  -0.094  0.00  0.00     0.027 A 
ATOM      5  C5  DEN d   1       0.473  -0.939   0.386  0.00  0.00    -0.003 A 
ATOM      6  C6  DEN d   1      -0.481  -1.660   1.054  0.00  0.00     0.001 A 
ATOM      7  C7  DEN d   1      -0.277  -2.992   1.299  0.00  0.00     0.017 A 
ATOM      8  C8  DEN d   1       0.881  -3.583   0.811  0.00  0.00    -0.094 A 
ATOM      9  C9  DEN d   1       1.840  -2.835   0.149  0.00  0.00    -0.072 A 
ENDROOT
TORSDOF 0
ENDMDL
