MODEL 1
REMARK minimizedAffinity 3.26349258
REMARK minimizedRMSD -1
REMARK  0 active torsions:
REMARK  status: ('A' for Active; 'I' for Inactive)
ROOT
ATOM      1  C1  DEN d   1      -1.210  -1.100   1.916  0.00  0.00     0.130 A 
ATOM      2  C2  DEN d   1      -1.765  -0.211   0.899  0.00  0.00    -0.031 A 
ATOM      3  C3  DEN d   1      -0.906  -0.296  -0.299  0.00  0.00     0.027 A 
ATOM      4  C4  DEN d   1       1.216  -1.712  -0.677  0.00  0.00     0.027 A 
ATOM      5  C5  DEN d   1       2.082  -2.614  -0.098  0.00  0.00    -0.003 A 
ATOM      6  C6  DEN d   1       1.931  -3.045   1.194  0.00  0.00     0.001 A 
ATOM      7  C7  DEN d   1       0.865  -2.608   1.935  0.00  0.00     0.017 A 
ATOM      8  C8  DEN d   1      -0.008  -1.693   1.361  0.00  0.00    -0.094 A 
ATOM      9  C9  DEN d   1       0.155  -1.279   0.050  0.00  0.00    -0.072 A 
ENDROOT
TORSDOF 0
ENDMDL
