MODEL 1
REMARK minimizedAffinity 8.25781059
REMARK minimizedRMSD -1
REMARK  0 active torsions:
REMARK  status: ('A' for Active; 'I' for Inactive)
ROOT
ATOM      1  C1  DEN d   1      -5.959   3.014   5.408  0.00  0.00     0.130 A 
ATOM      2  C2  DEN d   1      -4.907   3.838   5.999  0.00  0.00    -0.031 A 
ATOM      3  C3  DEN d   1      -3.704   3.718   5.151  0.00  0.00     0.027 A 
ATOM      4  C4  DEN d   1      -3.370   2.350   2.990  0.00  0.00     0.027 A 
ATOM      5  C5  DEN d   1      -3.974   1.483   2.106  0.00  0.00    -0.003 A 
ATOM      6  C6  DEN d   1      -5.260   1.043   2.277  0.00  0.00     0.001 A 
ATOM      7  C7  DEN d   1      -6.000   1.504   3.334  0.00  0.00     0.017 A 
ATOM      8  C8  DEN d   1      -5.396   2.372   4.234  0.00  0.00    -0.094 A 
ATOM      9  C9  DEN d   1      -4.099   2.815   4.037  0.00  0.00    -0.072 A 
ENDROOT
TORSDOF 0
ENDMDL
