MODEL 1
REMARK minimizedAffinity 8.89451027
REMARK minimizedRMSD -1
REMARK  0 active torsions:
REMARK  status: ('A' for Active; 'I' for Inactive)
ROOT
ATOM      1  C1  DEN d   1       3.088  -2.919   0.209  0.00  0.00     0.130 A 
ATOM      2  C2  DEN d   1       2.727  -4.317   0.428  0.00  0.00    -0.031 A 
ATOM      3  C3  DEN d   1       1.359  -4.354   0.985  0.00  0.00     0.027 A 
ATOM      4  C4  DEN d   1      -0.227  -2.393   1.522  0.00  0.00     0.027 A 
ATOM      5  C5  DEN d   1      -0.359  -1.022   1.517  0.00  0.00    -0.003 A 
ATOM      6  C6  DEN d   1       0.653  -0.192   1.110  0.00  0.00     0.001 A 
ATOM      7  C7  DEN d   1       1.826  -0.729   0.650  0.00  0.00     0.017 A 
ATOM      8  C8  DEN d   1       1.969  -2.110   0.659  0.00  0.00    -0.094 A 
ATOM      9  C9  DEN d   1       0.930  -2.932   1.062  0.00  0.00    -0.072 A 
ENDROOT
TORSDOF 0
ENDMDL
