MODEL 1
REMARK minimizedAffinity 8.21130371
REMARK minimizedRMSD -1
REMARK  3 active torsions:
REMARK  status: ('A' for Active; 'I' for Inactive)
REMARK    1  A    between atoms: C3'_2  and  C2'_3 
REMARK    2  A    between atoms: C2'_3  and  C1'_4 
REMARK    3  A    between atoms: C1'_4  and  C1_5 
ROOT
ATOM      1  C1  N4B d   1      -0.981   1.172  -0.549  0.00  0.00    -0.075 A 
ATOM      2  C2  N4B d   1      -0.252   0.194  -1.261  0.00  0.00     0.002 A 
ATOM      3  C3  N4B d   1      -0.893  -0.912  -1.761  0.00  0.00     0.002 A 
ATOM      4  C4  N4B d   1      -2.254  -1.071  -1.547  0.00  0.00    -0.004 A 
ATOM      5  C5  N4B d   1      -2.956  -0.110  -0.881  0.00  0.00     0.002 A 
ATOM      6  C6  N4B d   1      -2.325   1.009  -0.376  0.00  0.00     0.002 A 
ENDROOT
BRANCH   1   7
ATOM      7  C1' N4B d   1      -0.309   2.355   0.091  0.00  0.00     0.057 C 
BRANCH   7   8
ATOM      8  C2' N4B d   1      -0.885   2.564   1.488  0.00  0.00     0.009 C 
BRANCH   8   9
ATOM      9  C3' N4B d   1      -0.076   1.840   2.550  0.00  0.00     0.004 C 
ATOM     10  C4' N4B d   1       1.025   2.685   3.119  0.00  0.00     0.003 C 
ENDBRANCH   8   9
ENDBRANCH   7   8
ENDBRANCH   1   7
TORSDOF 3
ENDMDL
