MODEL 1
REMARK minimizedAffinity 1.65602589
REMARK minimizedRMSD -1
REMARK  3 active torsions:
REMARK  status: ('A' for Active; 'I' for Inactive)
REMARK    1  A    between atoms: C3'_2  and  C2'_3 
REMARK    2  A    between atoms: C2'_3  and  C1'_4 
REMARK    3  A    between atoms: C1'_4  and  C1_5 
ROOT
ATOM      1  C1  N4B d   1      -0.419   2.666   1.045  0.00  0.00    -0.075 A 
ATOM      2  C2  N4B d   1      -0.286   1.858   2.195  0.00  0.00     0.002 A 
ATOM      3  C3  N4B d   1       0.625   2.192   3.167  0.00  0.00     0.002 A 
ATOM      4  C4  N4B d   1       1.424   3.313   3.003  0.00  0.00    -0.004 A 
ATOM      5  C5  N4B d   1       1.271   4.103   1.901  0.00  0.00     0.002 A 
ATOM      6  C6  N4B d   1       0.356   3.782   0.918  0.00  0.00     0.002 A 
ENDROOT
BRANCH   1   7
ATOM      7  C1' N4B d   1      -1.341   2.294  -0.084  0.00  0.00     0.057 C 
BRANCH   7   8
ATOM      8  C2' N4B d   1      -2.333   1.243   0.404  0.00  0.00     0.009 C 
BRANCH   8   9
ATOM      9  C3' N4B d   1      -3.746   1.530  -0.071  0.00  0.00     0.004 C 
ATOM     10  C4' N4B d   1      -3.783   2.412  -1.284  0.00  0.00     0.003 C 
ENDBRANCH   8   9
ENDBRANCH   7   8
ENDBRANCH   1   7
TORSDOF 3
ENDMDL
