MODEL 1
REMARK minimizedAffinity 8.74312115
REMARK minimizedRMSD -1
REMARK  0 active torsions:
REMARK  status: ('A' for Active; 'I' for Inactive)
ROOT
ATOM      1  C   UNL d   1       3.064   0.651  -0.471  0.00  0.00     0.023 A 
ATOM      2  C1  UNL d   1       2.953   1.755   0.375  0.00  0.00     0.003 A 
ATOM      3  C2  UNL d   1       3.639   2.935   0.078  0.00  0.00     0.048 A 
ATOM      4  C3  UNL d   1       4.433   3.004  -1.066  0.00  0.00     0.023 A 
ATOM      5  C4  UNL d   1       4.546   1.903  -1.915  0.00  0.00     0.048 A 
ATOM      6  C5  UNL d   1       3.859   0.725  -1.614  0.00  0.00     0.003 A 
ATOM      7  I   UNL d   1       5.455   4.759  -1.509  0.00  0.00    -0.146 I 
ENDROOT
TORSDOF 0
ENDMDL
