MODEL 1
REMARK minimizedAffinity 4.45641565
REMARK minimizedRMSD -1
REMARK  0 active torsions:
REMARK  status: ('A' for Active; 'I' for Inactive)
ROOT
ATOM      1  C   UNL d   1      -5.094   5.678   5.998  0.00  0.00     0.023 A 
ATOM      2  C1  UNL d   1      -6.000   4.631   5.831  0.00  0.00     0.003 A 
ATOM      3  C2  UNL d   1      -5.997   3.886   4.650  0.00  0.00     0.048 A 
ATOM      4  C3  UNL d   1      -5.086   4.193   3.641  0.00  0.00     0.023 A 
ATOM      5  C4  UNL d   1      -4.177   5.240   3.804  0.00  0.00     0.048 A 
ATOM      6  C5  UNL d   1      -4.184   5.983   4.986  0.00  0.00     0.003 A 
ATOM      7  I   UNL d   1      -5.080   3.085   1.882  0.00  0.00    -0.146 I 
ENDROOT
TORSDOF 0
ENDMDL
