MODEL 1
REMARK minimizedAffinity 8.31307125
REMARK minimizedRMSD -1
REMARK  0 active torsions:
REMARK  status: ('A' for Active; 'I' for Inactive)
ROOT
ATOM      1  C   UNL d   1      -5.792   0.375  -0.003  0.00  0.00     0.023 A 
ATOM      2  C1  UNL d   1      -4.500   0.626   0.459  0.00  0.00     0.003 A 
ATOM      3  C2  UNL d   1      -3.413   0.524  -0.411  0.00  0.00     0.048 A 
ATOM      4  C3  UNL d   1      -3.625   0.173  -1.744  0.00  0.00     0.023 A 
ATOM      5  C4  UNL d   1      -4.916  -0.078  -2.212  0.00  0.00     0.048 A 
ATOM      6  C5  UNL d   1      -6.000   0.024  -1.337  0.00  0.00     0.003 A 
ATOM      7  I   UNL d   1      -2.009   0.022  -3.042  0.00  0.00    -0.146 I 
ENDROOT
TORSDOF 0
ENDMDL
