MODEL 1
REMARK minimizedAffinity 14.0295134
REMARK minimizedRMSD -1
REMARK  0 active torsions:
REMARK  status: ('A' for Active; 'I' for Inactive)
ROOT
ATOM      1  C   UNL d   1       4.688  -1.192   1.688  0.00  0.00     0.023 A 
ATOM      2  C1  UNL d   1       4.984   0.013   1.050  0.00  0.00     0.003 A 
ATOM      3  C2  UNL d   1       4.031   0.623   0.231  0.00  0.00     0.048 A 
ATOM      4  C3  UNL d   1       2.785   0.024   0.055  0.00  0.00     0.023 A 
ATOM      5  C4  UNL d   1       2.484  -1.181   0.693  0.00  0.00     0.048 A 
ATOM      6  C5  UNL d   1       3.439  -1.788   1.509  0.00  0.00     0.003 A 
ATOM      7  I   UNL d   1       1.365   0.931  -1.162  0.00  0.00    -0.146 I 
ENDROOT
TORSDOF 0
ENDMDL
