MODEL 1
REMARK minimizedAffinity 17.3267479
REMARK minimizedRMSD -1
REMARK  0 active torsions:
REMARK  status: ('A' for Active; 'I' for Inactive)
ROOT
ATOM      1  C   UNL d   1       1.740   0.070  -0.524  0.00  0.00     0.023 A 
ATOM      2  C1  UNL d   1       2.057  -0.977   0.343  0.00  0.00     0.003 A 
ATOM      3  C2  UNL d   1       3.279  -0.979   1.019  0.00  0.00     0.048 A 
ATOM      4  C3  UNL d   1       4.179   0.068   0.824  0.00  0.00     0.023 A 
ATOM      5  C4  UNL d   1       3.866   1.117  -0.041  0.00  0.00     0.048 A 
ATOM      6  C5  UNL d   1       2.644   1.115  -0.716  0.00  0.00     0.003 A 
ATOM      7  I   UNL d   1       5.998   0.066   1.830  0.00  0.00    -0.146 I 
ENDROOT
TORSDOF 0
ENDMDL
