MODEL 1
REMARK minimizedAffinity 17.5461178
REMARK minimizedRMSD -1
REMARK  0 active torsions:
REMARK  status: ('A' for Active; 'I' for Inactive)
ROOT
ATOM      1  C   UNL d   1       1.119   5.339   3.212  0.00  0.00     0.023 A 
ATOM      2  C1  UNL d   1       2.339   6.000   3.364  0.00  0.00     0.003 A 
ATOM      3  C2  UNL d   1       3.519   5.267   3.501  0.00  0.00     0.048 A 
ATOM      4  C3  UNL d   1       3.473   3.873   3.485  0.00  0.00     0.023 A 
ATOM      5  C4  UNL d   1       2.256   3.208   3.333  0.00  0.00     0.048 A 
ATOM      6  C5  UNL d   1       1.078   3.945   3.197  0.00  0.00     0.003 A 
ATOM      7  I   UNL d   1       5.229   2.780   3.689  0.00  0.00    -0.146 I 
ENDROOT
TORSDOF 0
ENDMDL
