MODEL 1
REMARK minimizedAffinity 16.6863174
REMARK minimizedRMSD -1
REMARK  0 active torsions:
REMARK  status: ('A' for Active; 'I' for Inactive)
ROOT
ATOM      1  C   UNL d   1      -5.305   0.716  -1.564  0.00  0.00     0.023 A 
ATOM      2  C1  UNL d   1      -5.520   1.834  -2.371  0.00  0.00     0.003 A 
ATOM      3  C2  UNL d   1      -5.077   3.092  -1.957  0.00  0.00     0.048 A 
ATOM      4  C3  UNL d   1      -4.419   3.224  -0.734  0.00  0.00     0.023 A 
ATOM      5  C4  UNL d   1      -4.200   2.109   0.076  0.00  0.00     0.048 A 
ATOM      6  C5  UNL d   1      -4.646   0.854  -0.343  0.00  0.00     0.003 A 
ATOM      7  I   UNL d   1      -3.759   5.095  -0.115  0.00  0.00    -0.146 I 
ENDROOT
TORSDOF 0
ENDMDL
