MODEL 1
REMARK minimizedAffinity 6.47537327
REMARK minimizedRMSD -1
REMARK  0 active torsions:
REMARK  status: ('A' for Active; 'I' for Inactive)
ROOT
ATOM      1  C   UNL d   1      -4.837   5.994   5.810  0.00  0.00     0.023 A 
ATOM      2  C1  UNL d   1      -3.681   6.000   5.031  0.00  0.00     0.003 A 
ATOM      3  C2  UNL d   1      -3.680   5.388   3.775  0.00  0.00     0.048 A 
ATOM      4  C3  UNL d   1      -4.840   4.773   3.305  0.00  0.00     0.023 A 
ATOM      5  C4  UNL d   1      -6.000   4.766   4.081  0.00  0.00     0.048 A 
ATOM      6  C5  UNL d   1      -5.996   5.378   5.336  0.00  0.00     0.003 A 
ATOM      7  I   UNL d   1      -4.841   3.863   1.437  0.00  0.00    -0.146 I 
ENDROOT
TORSDOF 0
ENDMDL
