MODEL 1
REMARK minimizedAffinity 4.86537933
REMARK minimizedRMSD -1
REMARK  0 active torsions:
REMARK  status: ('A' for Active; 'I' for Inactive)
ROOT
ATOM      1  C   UNL d   1      -4.902   5.989   5.940  0.00  0.00     0.023 A 
ATOM      2  C1  UNL d   1      -3.777   5.999   5.115  0.00  0.00     0.003 A 
ATOM      3  C2  UNL d   1      -3.746   5.208   3.965  0.00  0.00     0.048 A 
ATOM      4  C3  UNL d   1      -4.843   4.409   3.645  0.00  0.00     0.023 A 
ATOM      5  C4  UNL d   1      -5.971   4.396   4.467  0.00  0.00     0.048 A 
ATOM      6  C5  UNL d   1      -5.998   5.188   5.617  0.00  0.00     0.003 A 
ATOM      7  I   UNL d   1      -4.798   3.231   1.934  0.00  0.00    -0.146 I 
ENDROOT
TORSDOF 0
ENDMDL
