MODEL 1
REMARK minimizedAffinity -3.97517228
REMARK minimizedRMSD -1
REMARK  0 active torsions:
REMARK  status: ('A' for Active; 'I' for Inactive)
ROOT
ATOM      1  C   UNL d   1      -1.129   0.628  -0.141  0.00  0.00     0.077 C 
ATOM      2  C1  UNL d   1      -0.027  -0.192   0.463  0.00  0.00    -0.074 A 
ATOM      3  C2  UNL d   1      -0.011  -0.476   1.832  0.00  0.00    -0.005 A 
ATOM      4  C3  UNL d   1       1.015  -1.248   2.378  0.00  0.00     0.006 A 
ATOM      5  C4  UNL d   1       2.033  -1.742   1.562  0.00  0.00    -0.005 A 
ATOM      6  C5  UNL d   1       2.033  -1.469   0.190  0.00  0.00    -0.074 A 
ATOM      7  C6  UNL d   1       3.114  -2.000  -0.703  0.00  0.00     0.077 C 
ATOM      8  C7  UNL d   1       0.995  -0.698  -0.352  0.00  0.00    -0.001 A 
ENDROOT
TORSDOF 0
ENDMDL
