MODEL 1
REMARK minimizedAffinity -2.03258538
REMARK minimizedRMSD -1
REMARK  0 active torsions:
REMARK  status: ('A' for Active; 'I' for Inactive)
ROOT
ATOM      1  C   UNL d   1       1.729   3.370   0.356  0.00  0.00     0.077 C 
ATOM      2  C1  UNL d   1       1.266   1.963   0.593  0.00  0.00    -0.074 A 
ATOM      3  C2  UNL d   1       2.009   1.086   1.390  0.00  0.00    -0.005 A 
ATOM      4  C3  UNL d   1       1.561  -0.216   1.609  0.00  0.00     0.006 A 
ATOM      5  C4  UNL d   1       0.368  -0.655   1.033  0.00  0.00    -0.005 A 
ATOM      6  C5  UNL d   1      -0.388   0.207   0.233  0.00  0.00    -0.074 A 
ATOM      7  C6  UNL d   1      -1.677  -0.245  -0.386  0.00  0.00     0.077 C 
ATOM      8  C7  UNL d   1       0.065   1.517   0.024  0.00  0.00    -0.001 A 
ENDROOT
TORSDOF 0
ENDMDL
