MODEL 1
REMARK minimizedAffinity -4.69933081
REMARK minimizedRMSD -1
REMARK  0 active torsions:
REMARK  status: ('A' for Active; 'I' for Inactive)
ROOT
ATOM      1  C   UNL d   1       1.657   2.566   0.678  0.00  0.00     0.077 C 
ATOM      2  C1  UNL d   1       0.931   1.303   0.322  0.00  0.00    -0.074 A 
ATOM      3  C2  UNL d   1      -0.419   1.328  -0.043  0.00  0.00    -0.005 A 
ATOM      4  C3  UNL d   1      -1.078   0.147  -0.380  0.00  0.00     0.006 A 
ATOM      5  C4  UNL d   1      -0.396  -1.070  -0.356  0.00  0.00    -0.005 A 
ATOM      6  C5  UNL d   1       0.954  -1.115   0.005  0.00  0.00    -0.074 A 
ATOM      7  C6  UNL d   1       1.705  -2.413   0.027  0.00  0.00     0.077 C 
ATOM      8  C7  UNL d   1       1.612   0.077   0.336  0.00  0.00    -0.001 A 
ENDROOT
TORSDOF 0
ENDMDL
