MODEL 1
REMARK minimizedAffinity -4.53844309
REMARK minimizedRMSD -1
REMARK  0 active torsions:
REMARK  status: ('A' for Active; 'I' for Inactive)
ROOT
ATOM      1  C   UNL d   1       1.904   1.983   0.495  0.00  0.00     0.077 C 
ATOM      2  C1  UNL d   1       0.880   0.916   0.248  0.00  0.00    -0.074 A 
ATOM      3  C2  UNL d   1       1.261  -0.417   0.059  0.00  0.00    -0.005 A 
ATOM      4  C3  UNL d   1       0.297  -1.400  -0.160  0.00  0.00     0.006 A 
ATOM      5  C4  UNL d   1      -1.057  -1.062  -0.193  0.00  0.00    -0.005 A 
ATOM      6  C5  UNL d   1      -1.457   0.265  -0.006  0.00  0.00    -0.074 A 
ATOM      7  C6  UNL d   1      -2.908   0.645  -0.028  0.00  0.00     0.077 C 
ATOM      8  C7  UNL d   1      -0.482   1.247   0.221  0.00  0.00    -0.001 A 
ENDROOT
TORSDOF 0
ENDMDL
