MODEL 1
REMARK minimizedAffinity -4.66347075
REMARK minimizedRMSD -1
REMARK  0 active torsions:
REMARK  status: ('A' for Active; 'I' for Inactive)
ROOT
ATOM      1  C   UNL d   1       3.312   2.627   0.696  0.00  0.00     0.077 C 
ATOM      2  C1  UNL d   1       2.805   1.232   0.481  0.00  0.00    -0.074 A 
ATOM      3  C2  UNL d   1       3.676   0.138   0.507  0.00  0.00    -0.005 A 
ATOM      4  C3  UNL d   1       3.188  -1.154   0.316  0.00  0.00     0.006 A 
ATOM      5  C4  UNL d   1       1.827  -1.366   0.097  0.00  0.00    -0.005 A 
ATOM      6  C5  UNL d   1       0.940  -0.285   0.068  0.00  0.00    -0.074 A 
ATOM      7  C6  UNL d   1      -0.528  -0.496  -0.156  0.00  0.00     0.077 C 
ATOM      8  C7  UNL d   1       1.437   1.010   0.269  0.00  0.00    -0.001 A 
ENDROOT
TORSDOF 0
ENDMDL
