MODEL 1
REMARK minimizedAffinity -4.44720078
REMARK minimizedRMSD -1
REMARK  0 active torsions:
REMARK  status: ('A' for Active; 'I' for Inactive)
ROOT
ATOM      1  C   UNL d   1      -0.354   0.093   0.080  0.00  0.00     0.077 C 
ATOM      2  C1  UNL d   1       1.103  -0.262   0.096  0.00  0.00    -0.074 A 
ATOM      3  C2  UNL d   1       1.526  -1.546   0.457  0.00  0.00    -0.005 A 
ATOM      4  C3  UNL d   1       2.884  -1.864   0.459  0.00  0.00     0.006 A 
ATOM      5  C4  UNL d   1       3.831  -0.904   0.100  0.00  0.00    -0.005 A 
ATOM      6  C5  UNL d   1       3.427   0.384  -0.264  0.00  0.00    -0.074 A 
ATOM      7  C6  UNL d   1       4.432   1.424  -0.661  0.00  0.00     0.077 C 
ATOM      8  C7  UNL d   1       2.060   0.694  -0.270  0.00  0.00    -0.001 A 
ENDROOT
TORSDOF 0
ENDMDL
