MODEL 1
REMARK minimizedAffinity -6.11827278
REMARK minimizedRMSD -1
REMARK  0 active torsions:
REMARK  status: ('A' for Active; 'I' for Inactive)
ROOT
ATOM      1  C   UNL d   1      -1.319   0.817  -0.693  0.00  0.00     0.077 C 
ATOM      2  C1  UNL d   1       0.052   0.210  -0.670  0.00  0.00    -0.074 A 
ATOM      3  C2  UNL d   1       0.223  -1.177  -0.612  0.00  0.00    -0.005 A 
ATOM      4  C3  UNL d   1       1.505  -1.728  -0.601  0.00  0.00     0.006 A 
ATOM      5  C4  UNL d   1       2.626  -0.899  -0.648  0.00  0.00    -0.005 A 
ATOM      6  C5  UNL d   1       2.475   0.490  -0.707  0.00  0.00    -0.074 A 
ATOM      7  C6  UNL d   1       3.669   1.395  -0.768  0.00  0.00     0.077 C 
ATOM      8  C7  UNL d   1       1.184   1.036  -0.725  0.00  0.00    -0.001 A 
ENDROOT
TORSDOF 0
ENDMDL
