MODEL 1
REMARK minimizedAffinity -3.52184868
REMARK minimizedRMSD -1
REMARK  1 active torsions:
REMARK  status: ('A' for Active; 'I' for Inactive)
REMARK    1  A    between atoms: C3_4  and  O_7 
ROOT
ATOM      1  C   UNL d   1      -1.525   2.737  -5.975  0.00  0.00    -0.033 A 
ATOM      2  C1  UNL d   1      -1.881   4.087  -5.959  0.00  0.00     0.039 A 
ATOM      3  C2  UNL d   1      -3.227   4.456  -5.966  0.00  0.00    -0.080 A 
ATOM      4  C3  UNL d   1      -4.207   3.467  -5.988  0.00  0.00     0.150 A 
ATOM      5  C4  UNL d   1      -3.860   2.120  -6.000  0.00  0.00    -0.007 A 
ATOM      6  C5  UNL d   1      -2.515   1.754  -5.994  0.00  0.00     0.039 A 
ENDROOT
BRANCH   4   7
ATOM      7  O   UNL d   1      -5.534   3.779  -6.000  0.00  0.00    -0.526 OA
ATOM      8  H5  UNL d   1      -5.623   4.746  -6.018  0.00  0.00     0.418 HD
ENDBRANCH   4   7
TORSDOF 1
ENDMDL
