MODEL 1
REMARK minimizedAffinity -0.996097326
REMARK minimizedRMSD -1
REMARK  1 active torsions:
REMARK  status: ('A' for Active; 'I' for Inactive)
REMARK    1  A    between atoms: C3_4  and  O_7 
ROOT
ATOM      1  C   UNL d   1      -0.602  -1.098  -0.661  0.00  0.00    -0.033 A 
ATOM      2  C1  UNL d   1       0.005  -0.829  -1.890  0.00  0.00     0.039 A 
ATOM      3  C2  UNL d   1       0.896   0.239  -2.011  0.00  0.00    -0.080 A 
ATOM      4  C3  UNL d   1       1.171   1.029  -0.898  0.00  0.00     0.150 A 
ATOM      5  C4  UNL d   1       0.573   0.765   0.329  0.00  0.00    -0.007 A 
ATOM      6  C5  UNL d   1      -0.317  -0.302   0.448  0.00  0.00     0.039 A 
ENDROOT
BRANCH   4   7
ATOM      7  O   UNL d   1       2.029   2.086  -0.970  0.00  0.00    -0.526 OA
ATOM      8  H5  UNL d   1       2.344   2.166  -1.885  0.00  0.00     0.418 HD
ENDBRANCH   4   7
TORSDOF 1
ENDMDL
