MODEL 1
REMARK minimizedAffinity -1.19411039
REMARK minimizedRMSD -1
REMARK  1 active torsions:
REMARK  status: ('A' for Active; 'I' for Inactive)
REMARK    1  A    between atoms: C3_4  and  O_7 
ROOT
ATOM      1  C   UNL d   1      -4.706   1.886  -5.990  0.00  0.00    -0.033 A 
ATOM      2  C1  UNL d   1      -3.382   2.331  -5.985  0.00  0.00     0.039 A 
ATOM      3  C2  UNL d   1      -3.105   3.700  -5.986  0.00  0.00    -0.080 A 
ATOM      4  C3  UNL d   1      -4.157   4.610  -5.992  0.00  0.00     0.150 A 
ATOM      5  C4  UNL d   1      -5.478   4.174  -5.993  0.00  0.00    -0.007 A 
ATOM      6  C5  UNL d   1      -5.753   2.807  -5.993  0.00  0.00     0.039 A 
ENDROOT
BRANCH   4   7
ATOM      7  O   UNL d   1      -3.936   5.956  -5.998  0.00  0.00    -0.526 OA
ATOM      8  H5  UNL d   1      -2.977   6.109  -6.026  0.00  0.00     0.418 HD
ENDBRANCH   4   7
TORSDOF 1
ENDMDL
