MODEL 1
REMARK minimizedAffinity -2.33737111
REMARK minimizedRMSD -1
REMARK  1 active torsions:
REMARK  status: ('A' for Active; 'I' for Inactive)
REMARK    1  A    between atoms: C3_4  and  O_7 
ROOT
ATOM      1  C   UNL d   1      -5.010   2.177  -5.999  0.00  0.00    -0.033 A 
ATOM      2  C1  UNL d   1      -3.625   2.357  -5.999  0.00  0.00     0.039 A 
ATOM      3  C2  UNL d   1      -3.086   3.638  -5.872  0.00  0.00    -0.080 A 
ATOM      4  C3  UNL d   1      -3.940   4.730  -5.745  0.00  0.00     0.150 A 
ATOM      5  C4  UNL d   1      -5.320   4.558  -5.740  0.00  0.00    -0.007 A 
ATOM      6  C5  UNL d   1      -5.857   3.277  -5.868  0.00  0.00     0.039 A 
ENDROOT
BRANCH   4   7
ATOM      7  O   UNL d   1      -3.460   6.000  -5.623  0.00  0.00    -0.526 OA
ATOM      8  H5  UNL d   1      -2.490   5.968  -5.671  0.00  0.00     0.418 HD
ENDBRANCH   4   7
TORSDOF 1
ENDMDL
