MODEL 1
REMARK minimizedAffinity -2.77152419
REMARK minimizedRMSD -1
REMARK  1 active torsions:
REMARK  status: ('A' for Active; 'I' for Inactive)
REMARK    1  A    between atoms: C3_4  and  O_7 
ROOT
ATOM      1  C   UNL d   1      -6.000   3.407  -5.969  0.00  0.00    -0.033 A 
ATOM      2  C1  UNL d   1      -5.527   4.721  -5.950  0.00  0.00     0.039 A 
ATOM      3  C2  UNL d   1      -4.154   4.970  -5.954  0.00  0.00    -0.080 A 
ATOM      4  C3  UNL d   1      -3.265   3.900  -5.977  0.00  0.00     0.150 A 
ATOM      5  C4  UNL d   1      -3.728   2.588  -5.999  0.00  0.00    -0.007 A 
ATOM      6  C5  UNL d   1      -5.100   2.341  -5.995  0.00  0.00     0.039 A 
ENDROOT
BRANCH   4   7
ATOM      7  O   UNL d   1      -1.915   4.094  -5.976  0.00  0.00    -0.526 OA
ATOM      8  H5  UNL d   1      -1.742   5.049  -5.930  0.00  0.00     0.418 HD
ENDBRANCH   4   7
TORSDOF 1
ENDMDL
