MODEL 1
REMARK minimizedAffinity 2.07011032
REMARK minimizedRMSD -1
REMARK  1 active torsions:
REMARK  status: ('A' for Active; 'I' for Inactive)
REMARK    1  A    between atoms: C3_4  and  O_7 
ROOT
ATOM      1  C   UNL d   1      -4.331   1.355  -5.999  0.00  0.00    -0.033 A 
ATOM      2  C1  UNL d   1      -3.028   1.854  -5.999  0.00  0.00     0.039 A 
ATOM      3  C2  UNL d   1      -2.806   3.233  -5.997  0.00  0.00    -0.080 A 
ATOM      4  C3  UNL d   1      -3.895   4.100  -5.995  0.00  0.00     0.150 A 
ATOM      5  C4  UNL d   1      -5.197   3.609  -5.992  0.00  0.00    -0.007 A 
ATOM      6  C5  UNL d   1      -5.416   2.233  -5.994  0.00  0.00     0.039 A 
ENDROOT
BRANCH   4   7
ATOM      7  O   UNL d   1      -3.729   5.453  -5.999  0.00  0.00    -0.526 OA
ATOM      8  H5  UNL d   1      -2.777   5.646  -6.030  0.00  0.00     0.418 HD
ENDBRANCH   4   7
TORSDOF 1
ENDMDL
