MODEL 1
REMARK minimizedAffinity -0.586324692
REMARK minimizedRMSD -1
REMARK  1 active torsions:
REMARK  status: ('A' for Active; 'I' for Inactive)
REMARK    1  A    between atoms: C3_4  and  O_7 
ROOT
ATOM      1  C   UNL d   1      -4.629   0.960  -5.980  0.00  0.00    -0.033 A 
ATOM      2  C1  UNL d   1      -3.234   1.007  -5.997  0.00  0.00     0.039 A 
ATOM      3  C2  UNL d   1      -2.574   2.237  -6.000  0.00  0.00    -0.080 A 
ATOM      4  C3  UNL d   1      -3.320   3.412  -5.985  0.00  0.00     0.150 A 
ATOM      5  C4  UNL d   1      -4.711   3.374  -5.964  0.00  0.00    -0.007 A 
ATOM      6  C5  UNL d   1      -5.368   2.144  -5.962  0.00  0.00     0.039 A 
ENDROOT
BRANCH   4   7
ATOM      7  O   UNL d   1      -2.722   4.637  -5.992  0.00  0.00    -0.526 OA
ATOM      8  H5  UNL d   1      -1.759   4.509  -6.036  0.00  0.00     0.418 HD
ENDBRANCH   4   7
TORSDOF 1
ENDMDL
