MODEL 1
REMARK minimizedAffinity -3.08886409
REMARK minimizedRMSD -1
REMARK  1 active torsions:
REMARK  status: ('A' for Active; 'I' for Inactive)
REMARK    1  A    between atoms: C3_4  and  O_7 
ROOT
ATOM      1  C   UNL d   1      -5.352   2.642  -5.834  0.00  0.00    -0.033 A 
ATOM      2  C1  UNL d   1      -4.894   1.330  -5.975  0.00  0.00     0.039 A 
ATOM      3  C2  UNL d   1      -3.523   1.066  -5.999  0.00  0.00    -0.080 A 
ATOM      4  C3  UNL d   1      -2.622   2.121  -5.879  0.00  0.00     0.150 A 
ATOM      5  C4  UNL d   1      -3.071   3.429  -5.734  0.00  0.00    -0.007 A 
ATOM      6  C5  UNL d   1      -4.441   3.691  -5.712  0.00  0.00     0.039 A 
ENDROOT
BRANCH   4   7
ATOM      7  O   UNL d   1      -1.275   1.913  -5.902  0.00  0.00    -0.526 OA
ATOM      8  H5  UNL d   1      -1.112   0.964  -6.036  0.00  0.00     0.418 HD
ENDBRANCH   4   7
TORSDOF 1
ENDMDL
