MODEL 1
REMARK minimizedAffinity -2.93362141
REMARK minimizedRMSD -1
REMARK  1 active torsions:
REMARK  status: ('A' for Active; 'I' for Inactive)
REMARK    1  A    between atoms: C3_4  and  O_7 
ROOT
ATOM      1  C   UNL d   1      -3.651   0.369  -6.000  0.00  0.00    -0.033 A 
ATOM      2  C1  UNL d   1      -2.445   1.072  -5.999  0.00  0.00     0.039 A 
ATOM      3  C2  UNL d   1      -2.448   2.467  -5.947  0.00  0.00    -0.080 A 
ATOM      4  C3  UNL d   1      -3.662   3.146  -5.896  0.00  0.00     0.150 A 
ATOM      5  C4  UNL d   1      -4.868   2.452  -5.893  0.00  0.00    -0.007 A 
ATOM      6  C5  UNL d   1      -4.862   1.059  -5.945  0.00  0.00     0.039 A 
ENDROOT
BRANCH   4   7
ATOM      7  O   UNL d   1      -3.716   4.508  -5.849  0.00  0.00    -0.526 OA
ATOM      8  H5  UNL d   1      -2.809   4.853  -5.887  0.00  0.00     0.418 HD
ENDBRANCH   4   7
TORSDOF 1
ENDMDL
