MODEL 1
REMARK minimizedAffinity -0.286009878
REMARK minimizedRMSD -1
REMARK  1 active torsions:
REMARK  status: ('A' for Active; 'I' for Inactive)
REMARK    1  A    between atoms: C3_4  and  O_7 
ROOT
ATOM      1  C   UNL d   1       1.039  -0.514  -2.427  0.00  0.00    -0.033 A 
ATOM      2  C1  UNL d   1       2.196   0.142  -2.003  0.00  0.00     0.039 A 
ATOM      3  C2  UNL d   1       2.205   0.829  -0.787  0.00  0.00    -0.080 A 
ATOM      4  C3  UNL d   1       1.053   0.850  -0.006  0.00  0.00     0.150 A 
ATOM      5  C4  UNL d   1      -0.102   0.195  -0.421  0.00  0.00    -0.007 A 
ATOM      6  C5  UNL d   1      -0.109  -0.489  -1.636  0.00  0.00     0.039 A 
ENDROOT
BRANCH   4   7
ATOM      7  O   UNL d   1       1.012   1.511   1.186  0.00  0.00    -0.526 OA
ATOM      8  H5  UNL d   1       1.872   1.940   1.329  0.00  0.00     0.418 HD
ENDBRANCH   4   7
TORSDOF 1
ENDMDL
