MODEL 1
REMARK minimizedAffinity 2.61611438
REMARK minimizedRMSD -1
REMARK  1 active torsions:
REMARK  status: ('A' for Active; 'I' for Inactive)
REMARK    1  A    between atoms: C3_4  and  O_7 
ROOT
ATOM      1  C   UNL d   1       0.912  -0.721  -2.928  0.00  0.00    -0.033 A 
ATOM      2  C1  UNL d   1       2.019  -0.228  -2.235  0.00  0.00     0.039 A 
ATOM      3  C2  UNL d   1       1.936   0.010  -0.862  0.00  0.00    -0.080 A 
ATOM      4  C3  UNL d   1       0.742  -0.250  -0.195  0.00  0.00     0.150 A 
ATOM      5  C4  UNL d   1      -0.364  -0.745  -0.878  0.00  0.00    -0.007 A 
ATOM      6  C5  UNL d   1      -0.279  -0.981  -2.250  0.00  0.00     0.039 A 
ENDROOT
BRANCH   4   7
ATOM      7  O   UNL d   1       0.611  -0.028   1.144  0.00  0.00    -0.526 OA
ATOM      8  H5  UNL d   1       1.446   0.341   1.478  0.00  0.00     0.418 HD
ENDBRANCH   4   7
TORSDOF 1
ENDMDL
