MODEL 1
REMARK minimizedAffinity -2.54303074
REMARK minimizedRMSD -1
REMARK  1 active torsions:
REMARK  status: ('A' for Active; 'I' for Inactive)
REMARK    1  A    between atoms: C3_4  and  O_7 
ROOT
ATOM      1  C   UNL d   1      -4.896   3.569  -5.989  0.00  0.00    -0.033 A 
ATOM      2  C1  UNL d   1      -3.946   2.555  -5.852  0.00  0.00     0.039 A 
ATOM      3  C2  UNL d   1      -2.593   2.876  -5.727  0.00  0.00    -0.080 A 
ATOM      4  C3  UNL d   1      -2.203   4.212  -5.739  0.00  0.00     0.150 A 
ATOM      5  C4  UNL d   1      -3.145   5.228  -5.870  0.00  0.00    -0.007 A 
ATOM      6  C5  UNL d   1      -4.495   4.905  -5.996  0.00  0.00     0.039 A 
ENDROOT
BRANCH   4   7
ATOM      7  O   UNL d   1      -0.894   4.574  -5.624  0.00  0.00    -0.526 OA
ATOM      8  H5  UNL d   1      -0.355   3.767  -5.569  0.00  0.00     0.418 HD
ENDBRANCH   4   7
TORSDOF 1
ENDMDL
