MODEL 1
REMARK minimizedAffinity 7.42372465
REMARK minimizedRMSD -1
REMARK  1 active torsions:
REMARK  status: ('A' for Active; 'I' for Inactive)
REMARK    1  A    between atoms: C1_2  and  C2_3 
ROOT
ATOM      1  C2  UNL d   1      -2.758  -2.763  -0.829  0.00  0.00    -0.076 A 
ATOM      2  C3  UNL d   1      -1.849  -1.756  -1.198  0.00  0.00     0.004 A 
ATOM      3  C4  UNL d   1      -1.521  -1.540  -2.535  0.00  0.00    -0.003 A 
ATOM      4  C5  UNL d   1      -2.098  -2.328  -3.526  0.00  0.00     0.000 A 
ATOM      5  C6  UNL d   1      -3.015  -3.319  -3.180  0.00  0.00     0.000 A 
ATOM      6  C7  UNL d   1      -3.369  -3.539  -1.838  0.00  0.00    -0.073 A 
ATOM      7  C8  UNL d   1      -4.359  -4.627  -1.521  0.00  0.00     0.078 C 
ENDROOT
BRANCH   1   8
ATOM      8  C1  UNL d   1      -3.054  -2.969   0.639  0.00  0.00     0.053 C 
ATOM      9  C   UNL d   1      -1.793  -3.167   1.466  0.00  0.00     0.018 C 
ENDBRANCH   1   8
TORSDOF 1
ENDMDL
