MODEL 1
REMARK minimizedAffinity 6.98447561
REMARK minimizedRMSD -1
REMARK  1 active torsions:
REMARK  status: ('A' for Active; 'I' for Inactive)
REMARK    1  A    between atoms: C1_2  and  C2_3 
ROOT
ATOM      1  C2  UNL d   1       4.945   1.521   1.108  0.00  0.00    -0.076 A 
ATOM      2  C3  UNL d   1       6.000   0.655   1.446  0.00  0.00     0.004 A 
ATOM      3  C4  UNL d   1       5.755  -0.671   1.798  0.00  0.00    -0.003 A 
ATOM      4  C5  UNL d   1       4.451  -1.153   1.819  0.00  0.00     0.000 A 
ATOM      5  C6  UNL d   1       3.394  -0.314   1.469  0.00  0.00     0.000 A 
ATOM      6  C7  UNL d   1       3.625   1.021   1.096  0.00  0.00    -0.073 A 
ATOM      7  C8  UNL d   1       2.447   1.884   0.734  0.00  0.00     0.078 C 
ENDROOT
BRANCH   1   8
ATOM      8  C1  UNL d   1       5.269   2.956   0.760  0.00  0.00     0.053 C 
ATOM      9  C   UNL d   1       6.000   3.677   1.882  0.00  0.00     0.018 C 
ENDBRANCH   1   8
TORSDOF 1
ENDMDL
