MODEL 1
REMARK minimizedAffinity 18.3972092
REMARK minimizedRMSD -1
REMARK  1 active torsions:
REMARK  status: ('A' for Active; 'I' for Inactive)
REMARK    1  A    between atoms: C1_2  and  C2_3 
ROOT
ATOM      1  C2  UNL d   1       4.480  -1.132   3.229  0.00  0.00    -0.076 A 
ATOM      2  C3  UNL d   1       3.227  -0.943   3.838  0.00  0.00     0.004 A 
ATOM      3  C4  UNL d   1       2.136  -0.478   3.105  0.00  0.00    -0.003 A 
ATOM      4  C5  UNL d   1       2.281  -0.195   1.751  0.00  0.00     0.000 A 
ATOM      5  C6  UNL d   1       3.512  -0.394   1.127  0.00  0.00     0.000 A 
ATOM      6  C7  UNL d   1       4.617  -0.878   1.848  0.00  0.00    -0.073 A 
ATOM      7  C8  UNL d   1       5.923  -1.068   1.126  0.00  0.00     0.078 C 
ENDROOT
BRANCH   1   8
ATOM      8  C1  UNL d   1       5.633  -1.613   4.081  0.00  0.00     0.053 C 
ATOM      9  C   UNL d   1       5.548  -1.112   5.514  0.00  0.00     0.018 C 
ENDBRANCH   1   8
TORSDOF 1
ENDMDL
