MODEL 1
REMARK minimizedAffinity 4.82109594
REMARK minimizedRMSD -1
REMARK  1 active torsions:
REMARK  status: ('A' for Active; 'I' for Inactive)
REMARK    1  A    between atoms: C1_2  and  C2_3 
ROOT
ATOM      1  C2  UNL d   1       3.774   4.290  -4.486  0.00  0.00    -0.076 A 
ATOM      2  C3  UNL d   1       2.481   3.850  -4.151  0.00  0.00     0.004 A 
ATOM      3  C4  UNL d   1       1.352   4.480  -4.671  0.00  0.00    -0.003 A 
ATOM      4  C5  UNL d   1       1.496   5.560  -5.534  0.00  0.00     0.000 A 
ATOM      5  C6  UNL d   1       2.771   5.999  -5.891  0.00  0.00     0.000 A 
ATOM      6  C7  UNL d   1       3.920   5.365  -5.389  0.00  0.00    -0.073 A 
ATOM      7  C8  UNL d   1       5.270   5.883  -5.803  0.00  0.00     0.078 C 
ENDROOT
BRANCH   1   8
ATOM      8  C1  UNL d   1       4.961   3.585  -3.870  0.00  0.00     0.053 C 
ATOM      9  C   UNL d   1       4.625   2.177  -3.404  0.00  0.00     0.018 C 
ENDBRANCH   1   8
TORSDOF 1
ENDMDL
