MODEL 1
REMARK minimizedAffinity 11.3683586
REMARK minimizedRMSD -1
REMARK  1 active torsions:
REMARK  status: ('A' for Active; 'I' for Inactive)
REMARK    1  A    between atoms: C1_2  and  C2_3 
ROOT
ATOM      1  C2  UNL d   1       3.722   1.502  -0.679  0.00  0.00    -0.076 A 
ATOM      2  C3  UNL d   1       2.785   2.528  -0.463  0.00  0.00     0.004 A 
ATOM      3  C4  UNL d   1       1.862   2.449   0.578  0.00  0.00    -0.003 A 
ATOM      4  C5  UNL d   1       1.861   1.343   1.421  0.00  0.00     0.000 A 
ATOM      5  C6  UNL d   1       2.794   0.324   1.232  0.00  0.00     0.000 A 
ATOM      6  C7  UNL d   1       3.742   0.396   0.197  0.00  0.00    -0.073 A 
ATOM      7  C8  UNL d   1       4.722  -0.734   0.036  0.00  0.00     0.078 C 
ENDROOT
BRANCH   1   8
ATOM      8  C1  UNL d   1       4.681   1.629  -1.841  0.00  0.00     0.053 C 
ATOM      9  C   UNL d   1       3.966   1.844  -3.166  0.00  0.00     0.018 C 
ENDBRANCH   1   8
TORSDOF 1
ENDMDL
