MODEL 1
REMARK minimizedAffinity 7.8505702
REMARK minimizedRMSD -1
REMARK  1 active torsions:
REMARK  status: ('A' for Active; 'I' for Inactive)
REMARK    1  A    between atoms: C1_2  and  C2_3 
ROOT
ATOM      1  C2  UNL d   1       2.420   1.381   1.372  0.00  0.00    -0.076 A 
ATOM      2  C3  UNL d   1       3.108   2.597   1.215  0.00  0.00     0.004 A 
ATOM      3  C4  UNL d   1       2.482   3.814   1.477  0.00  0.00    -0.003 A 
ATOM      4  C5  UNL d   1       1.158   3.836   1.900  0.00  0.00     0.000 A 
ATOM      5  C6  UNL d   1       0.466   2.639   2.079  0.00  0.00     0.000 A 
ATOM      6  C7  UNL d   1       1.087   1.402   1.835  0.00  0.00    -0.073 A 
ATOM      7  C8  UNL d   1       0.291   0.142   2.038  0.00  0.00     0.078 C 
ENDROOT
BRANCH   1   8
ATOM      8  C1  UNL d   1       3.142   0.093   1.047  0.00  0.00     0.053 C 
ATOM      9  C   UNL d   1       4.478  -0.024   1.765  0.00  0.00     0.018 C 
ENDBRANCH   1   8
TORSDOF 1
ENDMDL
