MODEL 1
REMARK minimizedAffinity 13.6201801
REMARK minimizedRMSD -1
REMARK  1 active torsions:
REMARK  status: ('A' for Active; 'I' for Inactive)
REMARK    1  A    between atoms: C1_2  and  C2_3 
ROOT
ATOM      1  C2  UNL d   1       3.119   3.826  -4.036  0.00  0.00    -0.076 A 
ATOM      2  C3  UNL d   1       2.272   3.225  -4.983  0.00  0.00     0.004 A 
ATOM      3  C4  UNL d   1       1.625   3.990  -5.953  0.00  0.00    -0.003 A 
ATOM      4  C5  UNL d   1       1.816   5.366  -5.992  0.00  0.00     0.000 A 
ATOM      5  C6  UNL d   1       2.667   5.976  -5.071  0.00  0.00     0.000 A 
ATOM      6  C7  UNL d   1       3.340   5.218  -4.097  0.00  0.00    -0.073 A 
ATOM      7  C8  UNL d   1       4.241   5.929  -3.125  0.00  0.00     0.078 C 
ENDROOT
BRANCH   1   8
ATOM      8  C1  UNL d   1       3.772   2.950  -2.991  0.00  0.00     0.053 C 
ATOM      9  C   UNL d   1       4.158   1.583  -3.534  0.00  0.00     0.018 C 
ENDBRANCH   1   8
TORSDOF 1
ENDMDL
