MODEL 1
REMARK minimizedAffinity 19.9897404
REMARK minimizedRMSD -1
REMARK  1 active torsions:
REMARK  status: ('A' for Active; 'I' for Inactive)
REMARK    1  A    between atoms: C1_2  and  C2_3 
ROOT
ATOM      1  C2  UNL d   1      -0.576  -3.535  -3.811  0.00  0.00    -0.076 A 
ATOM      2  C3  UNL d   1      -0.925  -3.646  -2.454  0.00  0.00     0.004 A 
ATOM      3  C4  UNL d   1      -1.608  -2.620  -1.803  0.00  0.00    -0.003 A 
ATOM      4  C5  UNL d   1      -1.955  -1.468  -2.499  0.00  0.00     0.000 A 
ATOM      5  C6  UNL d   1      -1.633  -1.349  -3.850  0.00  0.00     0.000 A 
ATOM      6  C7  UNL d   1      -0.958  -2.380  -4.526  0.00  0.00    -0.073 A 
ATOM      7  C8  UNL d   1      -0.631  -2.196  -5.982  0.00  0.00     0.078 C 
ENDROOT
BRANCH   1   8
ATOM      8  C1  UNL d   1       0.189  -4.669  -4.457  0.00  0.00     0.053 C 
ATOM      9  C   UNL d   1      -0.717  -5.811  -4.890  0.00  0.00     0.018 C 
ENDBRANCH   1   8
TORSDOF 1
ENDMDL
