MODEL 1
REMARK minimizedAffinity 17.9130726
REMARK minimizedRMSD -1
REMARK  1 active torsions:
REMARK  status: ('A' for Active; 'I' for Inactive)
REMARK    1  A    between atoms: C1_2  and  C2_3 
ROOT
ATOM      1  C2  UNL d   1      -4.222   0.531   3.885  0.00  0.00    -0.076 A 
ATOM      2  C3  UNL d   1      -4.765   0.840   5.145  0.00  0.00     0.004 A 
ATOM      3  C4  UNL d   1      -5.212  -0.167   6.000  0.00  0.00    -0.003 A 
ATOM      4  C5  UNL d   1      -5.123  -1.498   5.608  0.00  0.00     0.000 A 
ATOM      5  C6  UNL d   1      -4.571  -1.823   4.370  0.00  0.00     0.000 A 
ATOM      6  C7  UNL d   1      -4.101  -0.822   3.503  0.00  0.00    -0.073 A 
ATOM      7  C8  UNL d   1      -3.521  -1.229   2.176  0.00  0.00     0.078 C 
ENDROOT
BRANCH   1   8
ATOM      8  C1  UNL d   1      -3.779   1.667   2.990  0.00  0.00     0.053 C 
ATOM      9  C   UNL d   1      -2.408   2.206   3.369  0.00  0.00     0.018 C 
ENDBRANCH   1   8
TORSDOF 1
ENDMDL
