MODEL 1
REMARK minimizedAffinity 8.80735207
REMARK minimizedRMSD -1
REMARK  1 active torsions:
REMARK  status: ('A' for Active; 'I' for Inactive)
REMARK    1  A    between atoms: C1_2  and  C2_3 
ROOT
ATOM      1  C2  UNL d   1       3.855   3.767  -4.768  0.00  0.00    -0.076 A 
ATOM      2  C3  UNL d   1       3.232   3.077  -3.713  0.00  0.00     0.004 A 
ATOM      3  C4  UNL d   1       3.975   2.300  -2.826  0.00  0.00    -0.003 A 
ATOM      4  C5  UNL d   1       5.354   2.201  -2.979  0.00  0.00     0.000 A 
ATOM      5  C6  UNL d   1       5.991   2.893  -4.009  0.00  0.00     0.000 A 
ATOM      6  C7  UNL d   1       5.258   3.694  -4.902  0.00  0.00    -0.073 A 
ATOM      7  C8  UNL d   1       5.996   4.413  -5.997  0.00  0.00     0.078 C 
ENDROOT
BRANCH   1   8
ATOM      8  C1  UNL d   1       2.994   4.573  -5.715  0.00  0.00     0.053 C 
ATOM      9  C   UNL d   1       1.946   5.401  -4.988  0.00  0.00     0.018 C 
ENDBRANCH   1   8
TORSDOF 1
ENDMDL
