MODEL 1
REMARK minimizedAffinity -2.9356184
REMARK minimizedRMSD -1
REMARK  1 active torsions:
REMARK  status: ('A' for Active; 'I' for Inactive)
REMARK    1  A    between atoms: C1_2  and  C2_3 
ROOT
ATOM      1  C2  UNL d   1       3.853   4.494  -4.959  0.00  0.00    -0.076 A 
ATOM      2  C3  UNL d   1       3.229   3.625  -4.048  0.00  0.00     0.004 A 
ATOM      3  C4  UNL d   1       3.978   2.743  -3.270  0.00  0.00    -0.003 A 
ATOM      4  C5  UNL d   1       5.363   2.717  -3.390  0.00  0.00     0.000 A 
ATOM      5  C6  UNL d   1       6.000   3.585  -4.276  0.00  0.00     0.000 A 
ATOM      6  C7  UNL d   1       5.261   4.491  -5.056  0.00  0.00    -0.073 A 
ATOM      7  C8  UNL d   1       6.000   5.400  -6.000  0.00  0.00     0.078 C 
ENDROOT
BRANCH   1   8
ATOM      8  C1  UNL d   1       2.988   5.409  -5.796  0.00  0.00     0.053 C 
ATOM      9  C   UNL d   1       1.576   4.874  -5.974  0.00  0.00     0.018 C 
ENDBRANCH   1   8
TORSDOF 1
ENDMDL
