MODEL 1
REMARK minimizedAffinity 14.4420395
REMARK minimizedRMSD -1
REMARK  1 active torsions:
REMARK  status: ('A' for Active; 'I' for Inactive)
REMARK    1  A    between atoms: C1_2  and  C2_3 
ROOT
ATOM      1  C2  UNL d   1      -1.420  -4.094   1.878  0.00  0.00    -0.076 A 
ATOM      2  C3  UNL d   1      -0.967  -3.774   3.170  0.00  0.00     0.004 A 
ATOM      3  C4  UNL d   1      -0.710  -2.454   3.534  0.00  0.00    -0.003 A 
ATOM      4  C5  UNL d   1      -0.902  -1.431   2.612  0.00  0.00     0.000 A 
ATOM      5  C6  UNL d   1      -1.368  -1.728   1.331  0.00  0.00     0.000 A 
ATOM      6  C7  UNL d   1      -1.647  -3.052   0.954  0.00  0.00    -0.073 A 
ATOM      7  C8  UNL d   1      -2.142  -3.316  -0.442  0.00  0.00     0.078 C 
ENDROOT
BRANCH   1   8
ATOM      8  C1  UNL d   1      -1.656  -5.547   1.533  0.00  0.00     0.053 C 
ATOM      9  C   UNL d   1      -3.072  -6.000   1.856  0.00  0.00     0.018 C 
ENDBRANCH   1   8
TORSDOF 1
ENDMDL
