MODEL 1
REMARK minimizedAffinity 8.76749229
REMARK minimizedRMSD -1
REMARK  1 active torsions:
REMARK  status: ('A' for Active; 'I' for Inactive)
REMARK    1  A    between atoms: C1_2  and  C2_3 
ROOT
ATOM      1  C2  UNL d   1       2.917   1.759  -0.060  0.00  0.00    -0.076 A 
ATOM      2  C3  UNL d   1       2.024   2.755   0.374  0.00  0.00     0.004 A 
ATOM      3  C4  UNL d   1       1.116   2.506   1.401  0.00  0.00    -0.003 A 
ATOM      4  C5  UNL d   1       1.085   1.257   2.012  0.00  0.00     0.000 A 
ATOM      5  C6  UNL d   1       1.976   0.263   1.607  0.00  0.00     0.000 A 
ATOM      6  C7  UNL d   1       2.909   0.503   0.584  0.00  0.00    -0.073 A 
ATOM      7  C8  UNL d   1       3.842  -0.607   0.183  0.00  0.00     0.078 C 
ENDROOT
BRANCH   1   8
ATOM      8  C1  UNL d   1       3.862   2.078  -1.196  0.00  0.00     0.053 C 
ATOM      9  C   UNL d   1       3.267   1.750  -2.557  0.00  0.00     0.018 C 
ENDBRANCH   1   8
TORSDOF 1
ENDMDL
