MODEL 1
REMARK minimizedAffinity 0.518883765
REMARK minimizedRMSD -1
REMARK  1 active torsions:
REMARK  status: ('A' for Active; 'I' for Inactive)
REMARK    1  A    between atoms: C1_2  and  C2_3 
ROOT
ATOM      1  C2  UNL d   1       3.816   3.333  -5.214  0.00  0.00    -0.076 A 
ATOM      2  C3  UNL d   1       3.231   2.305  -4.455  0.00  0.00     0.004 A 
ATOM      3  C4  UNL d   1       4.019   1.410  -3.732  0.00  0.00    -0.003 A 
ATOM      4  C5  UNL d   1       5.404   1.530  -3.756  0.00  0.00     0.000 A 
ATOM      5  C6  UNL d   1       6.000   2.555  -4.491  0.00  0.00     0.000 A 
ATOM      6  C7  UNL d   1       5.220   3.475  -5.212  0.00  0.00    -0.073 A 
ATOM      7  C8  UNL d   1       5.915   4.557  -5.991  0.00  0.00     0.078 C 
ENDROOT
BRANCH   1   8
ATOM      8  C1  UNL d   1       2.912   4.256  -6.000  0.00  0.00     0.053 C 
ATOM      9  C   UNL d   1       1.496   4.296  -5.446  0.00  0.00     0.018 C 
ENDBRANCH   1   8
TORSDOF 1
ENDMDL
