MODEL 1
REMARK minimizedAffinity 2.49949646
REMARK minimizedRMSD -1
REMARK  1 active torsions:
REMARK  status: ('A' for Active; 'I' for Inactive)
REMARK    1  A    between atoms: C1_2  and  C2_3 
ROOT
ATOM      1  C2  UNL d   1       5.274   3.622  -4.935  0.00  0.00    -0.076 A 
ATOM      2  C3  UNL d   1       5.998   4.815  -5.108  0.00  0.00     0.004 A 
ATOM      3  C4  UNL d   1       5.391   5.953  -5.636  0.00  0.00    -0.003 A 
ATOM      4  C5  UNL d   1       4.050   5.917  -6.000  0.00  0.00     0.000 A 
ATOM      5  C6  UNL d   1       3.311   4.748  -5.819  0.00  0.00     0.000 A 
ATOM      6  C7  UNL d   1       3.904   3.597  -5.273  0.00  0.00    -0.073 A 
ATOM      7  C8  UNL d   1       3.062   2.362  -5.105  0.00  0.00     0.078 C 
ENDROOT
BRANCH   1   8
ATOM      8  C1  UNL d   1       5.992   2.412  -4.383  0.00  0.00     0.053 C 
ATOM      9  C   UNL d   1       5.992   2.378  -2.862  0.00  0.00     0.018 C 
ENDBRANCH   1   8
TORSDOF 1
ENDMDL
