MODEL 1
REMARK minimizedAffinity 0.0218563527
REMARK minimizedRMSD -1
REMARK  1 active torsions:
REMARK  status: ('A' for Active; 'I' for Inactive)
REMARK    1  A    between atoms: C1_2  and  C2_3 
ROOT
ATOM      1  C2  UNL d   1       4.498   3.791  -4.028  0.00  0.00    -0.076 A 
ATOM      2  C3  UNL d   1       4.640   5.190  -4.054  0.00  0.00     0.004 A 
ATOM      3  C4  UNL d   1       3.673   5.998  -4.650  0.00  0.00    -0.003 A 
ATOM      4  C5  UNL d   1       2.548   5.421  -5.228  0.00  0.00     0.000 A 
ATOM      5  C6  UNL d   1       2.382   4.037  -5.195  0.00  0.00     0.000 A 
ATOM      6  C7  UNL d   1       3.340   3.209  -4.584  0.00  0.00    -0.073 A 
ATOM      7  C8  UNL d   1       3.113   1.722  -4.583  0.00  0.00     0.078 C 
ENDROOT
BRANCH   1   8
ATOM      8  C1  UNL d   1       5.593   2.964  -3.392  0.00  0.00     0.053 C 
ATOM      9  C   UNL d   1       5.230   2.497  -1.991  0.00  0.00     0.018 C 
ENDBRANCH   1   8
TORSDOF 1
ENDMDL
