MODEL 1
REMARK minimizedAffinity -2.41880298
REMARK minimizedRMSD -1
REMARK  0 active torsions:
REMARK  status: ('A' for Active; 'I' for Inactive)
ROOT
ATOM      1  C   UNL d   1      -0.043  -1.603  -1.025  0.00  0.00     0.172 C 
ATOM      2  N   UNL d   1      -0.145  -0.399  -0.234  0.00  0.00    -0.070 N 
ATOM      3  C1  UNL d   1      -0.892  -0.253   0.905  0.00  0.00    -0.004 A 
ATOM      4  C2  UNL d   1      -0.723   1.037   1.358  0.00  0.00    -0.047 A 
ATOM      5  C3  UNL d   1       0.154   1.690   0.459  0.00  0.00    -0.047 A 
ATOM      6  C4  UNL d   1       0.496   0.778  -0.517  0.00  0.00    -0.004 A 
ENDROOT
TORSDOF 0
ENDMDL
