MODEL 1
REMARK minimizedAffinity -3.63183355
REMARK minimizedRMSD -1
REMARK  0 active torsions:
REMARK  status: ('A' for Active; 'I' for Inactive)
ROOT
ATOM      1  C   UNL d   1      -0.040  -1.009  -0.637  0.00  0.00     0.172 C 
ATOM      2  N   UNL d   1       0.229   0.166   0.157  0.00  0.00    -0.070 N 
ATOM      3  C1  UNL d   1      -0.426   0.521   1.306  0.00  0.00    -0.004 A 
ATOM      4  C2  UNL d   1       0.124   1.701   1.759  0.00  0.00    -0.047 A 
ATOM      5  C3  UNL d   1       1.145   2.068   0.850  0.00  0.00    -0.047 A 
ATOM      6  C4  UNL d   1       1.188   1.101  -0.132  0.00  0.00    -0.004 A 
ENDROOT
TORSDOF 0
ENDMDL
