MODEL 1
REMARK minimizedAffinity -2.01656485
REMARK minimizedRMSD -1
REMARK  0 active torsions:
REMARK  status: ('A' for Active; 'I' for Inactive)
ROOT
ATOM      1  C   UNL d   1       0.501   1.868   2.127  0.00  0.00     0.172 C 
ATOM      2  N   UNL d   1       0.191   0.928   1.076  0.00  0.00    -0.070 N 
ATOM      3  C1  UNL d   1       0.795   0.875  -0.152  0.00  0.00    -0.004 A 
ATOM      4  C2  UNL d   1       0.219  -0.157  -0.862  0.00  0.00    -0.047 A 
ATOM      5  C3  UNL d   1      -0.765  -0.744  -0.032  0.00  0.00    -0.047 A 
ATOM      6  C4  UNL d   1      -0.761  -0.053   1.162  0.00  0.00    -0.004 A 
ENDROOT
TORSDOF 0
ENDMDL
