MODEL 1
REMARK minimizedAffinity -2.49516153
REMARK minimizedRMSD -1
REMARK  0 active torsions:
REMARK  status: ('A' for Active; 'I' for Inactive)
ROOT
ATOM      1  C   UNL d   1      -0.013  -1.223  -0.282  0.00  0.00     0.172 C 
ATOM      2  N   UNL d   1       0.054  -0.037   0.539  0.00  0.00    -0.070 N 
ATOM      3  C1  UNL d   1      -0.282   0.036   1.864  0.00  0.00    -0.004 A 
ATOM      4  C2  UNL d   1      -0.078   1.334   2.280  0.00  0.00    -0.047 A 
ATOM      5  C3  UNL d   1       0.396   2.067   1.165  0.00  0.00    -0.047 A 
ATOM      6  C4  UNL d   1       0.468   1.193   0.101  0.00  0.00    -0.004 A 
ENDROOT
TORSDOF 0
ENDMDL
