MODEL 1
REMARK minimizedAffinity -1.78462136
REMARK minimizedRMSD -1
REMARK  0 active torsions:
REMARK  status: ('A' for Active; 'I' for Inactive)
ROOT
ATOM      1  C   UNL d   1      -0.441  -0.134  -0.549  0.00  0.00     0.172 C 
ATOM      2  N   UNL d   1       0.012   0.572   0.627  0.00  0.00    -0.070 N 
ATOM      3  C1  UNL d   1      -0.375   0.310   1.914  0.00  0.00    -0.004 A 
ATOM      4  C2  UNL d   1       0.278   1.199   2.740  0.00  0.00    -0.047 A 
ATOM      5  C3  UNL d   1       1.084   2.024   1.922  0.00  0.00    -0.047 A 
ATOM      6  C4  UNL d   1       0.901   1.615   0.618  0.00  0.00    -0.004 A 
ENDROOT
TORSDOF 0
ENDMDL
