MODEL 1
REMARK minimizedAffinity -2.12572646
REMARK minimizedRMSD -1
REMARK  0 active torsions:
REMARK  status: ('A' for Active; 'I' for Inactive)
ROOT
ATOM      1  C   UNL d   1       0.610   1.538   0.761  0.00  0.00     0.172 C 
ATOM      2  N   UNL d   1       0.380   0.332   0.000  0.00  0.00    -0.070 N 
ATOM      3  C1  UNL d   1      -0.781  -0.394  -0.013  0.00  0.00    -0.004 A 
ATOM      4  C2  UNL d   1      -0.598  -1.467  -0.858  0.00  0.00    -0.047 A 
ATOM      5  C3  UNL d   1       0.719  -1.384  -1.370  0.00  0.00    -0.047 A 
ATOM      6  C4  UNL d   1       1.302  -0.261  -0.822  0.00  0.00    -0.004 A 
ENDROOT
TORSDOF 0
ENDMDL
