MODEL 1
REMARK minimizedAffinity -1.70468497
REMARK minimizedRMSD -1
REMARK  0 active torsions:
REMARK  status: ('A' for Active; 'I' for Inactive)
ROOT
ATOM      1  C   UNL d   1       0.374  -1.479  -0.583  0.00  0.00     0.172 C 
ATOM      2  N   UNL d   1      -0.721  -1.517  -1.523  0.00  0.00    -0.070 N 
ATOM      3  C1  UNL d   1      -2.022  -1.820  -1.221  0.00  0.00    -0.004 A 
ATOM      4  C2  UNL d   1      -2.754  -1.747  -2.387  0.00  0.00    -0.047 A 
ATOM      5  C3  UNL d   1      -1.861  -1.388  -3.425  0.00  0.00    -0.047 A 
ATOM      6  C4  UNL d   1      -0.610  -1.252  -2.862  0.00  0.00    -0.004 A 
ENDROOT
TORSDOF 0
ENDMDL
