MODEL 1
REMARK minimizedAffinity -3.40952134
REMARK minimizedRMSD -1
REMARK  0 active torsions:
REMARK  status: ('A' for Active; 'I' for Inactive)
ROOT
ATOM      1  C   UNL d   1       0.721   2.635   1.087  0.00  0.00     0.172 C 
ATOM      2  N   UNL d   1       0.305   1.334   0.618  0.00  0.00    -0.070 N 
ATOM      3  C1  UNL d   1       1.024   0.518  -0.215  0.00  0.00    -0.004 A 
ATOM      4  C2  UNL d   1       0.286  -0.627  -0.424  0.00  0.00    -0.047 A 
ATOM      5  C3  UNL d   1      -0.918  -0.495   0.308  0.00  0.00    -0.047 A 
ATOM      6  C4  UNL d   1      -0.880   0.728   0.944  0.00  0.00    -0.004 A 
ENDROOT
TORSDOF 0
ENDMDL
