MODEL 1
REMARK minimizedAffinity -3.52610493
REMARK minimizedRMSD -1
REMARK  0 active torsions:
REMARK  status: ('A' for Active; 'I' for Inactive)
ROOT
ATOM      1  C   UNL d   1      -1.268  -0.882  -1.556  0.00  0.00     0.172 C 
ATOM      2  N   UNL d   1      -0.784  -0.061  -0.472  0.00  0.00    -0.070 N 
ATOM      3  C1  UNL d   1      -1.490   0.932   0.155  0.00  0.00    -0.004 A 
ATOM      4  C2  UNL d   1      -0.681   1.474   1.130  0.00  0.00    -0.047 A 
ATOM      5  C3  UNL d   1       0.554   0.784   1.088  0.00  0.00    -0.047 A 
ATOM      6  C4  UNL d   1       0.463  -0.160   0.087  0.00  0.00    -0.004 A 
ENDROOT
TORSDOF 0
ENDMDL
