MODEL 1
REMARK minimizedAffinity -3.04867244
REMARK minimizedRMSD -1
REMARK  0 active torsions:
REMARK  status: ('A' for Active; 'I' for Inactive)
ROOT
ATOM      1  C   UNL d   1      -1.157  -1.894  -2.994  0.00  0.00     0.172 C 
ATOM      2  N   UNL d   1      -0.858  -1.310  -1.708  0.00  0.00    -0.070 N 
ATOM      3  C1  UNL d   1      -0.019  -1.842  -0.765  0.00  0.00    -0.004 A 
ATOM      4  C2  UNL d   1      -0.002  -0.986   0.316  0.00  0.00    -0.047 A 
ATOM      5  C3  UNL d   1      -0.861   0.097   0.012  0.00  0.00    -0.047 A 
ATOM      6  C4  UNL d   1      -1.377  -0.129  -1.247  0.00  0.00    -0.004 A 
ENDROOT
TORSDOF 0
ENDMDL
