MODEL 1
REMARK minimizedAffinity -1.36799192
REMARK minimizedRMSD -1
REMARK  0 active torsions:
REMARK  status: ('A' for Active; 'I' for Inactive)
ROOT
ATOM      1  C   UNL d   1       0.768   1.793   1.806  0.00  0.00     0.172 C 
ATOM      2  N   UNL d   1       0.485   0.718   0.885  0.00  0.00    -0.070 N 
ATOM      3  C1  UNL d   1      -0.717   0.076   0.752  0.00  0.00    -0.004 A 
ATOM      4  C2  UNL d   1      -0.577  -0.883  -0.227  0.00  0.00    -0.047 A 
ATOM      5  C3  UNL d   1       0.755  -0.817  -0.699  0.00  0.00    -0.047 A 
ATOM      6  C4  UNL d   1       1.391   0.183   0.008  0.00  0.00    -0.004 A 
ENDROOT
TORSDOF 0
ENDMDL
