MODEL 1
REMARK minimizedAffinity -2.8581717
REMARK minimizedRMSD -1
REMARK  0 active torsions:
REMARK  status: ('A' for Active; 'I' for Inactive)
ROOT
ATOM      1  C   UNL d   1      -0.193  -0.426  -0.545  0.00  0.00     0.172 C 
ATOM      2  N   UNL d   1       0.131   0.693   0.309  0.00  0.00    -0.070 N 
ATOM      3  C1  UNL d   1      -0.684   1.223   1.273  0.00  0.00    -0.004 A 
ATOM      4  C2  UNL d   1      -0.013   2.273   1.862  0.00  0.00    -0.047 A 
ATOM      5  C3  UNL d   1       1.248   2.378   1.229  0.00  0.00    -0.047 A 
ATOM      6  C4  UNL d   1       1.311   1.387   0.272  0.00  0.00    -0.004 A 
ENDROOT
TORSDOF 0
ENDMDL
