MODEL 1
REMARK minimizedAffinity -2.11624217
REMARK minimizedRMSD -1
REMARK  0 active torsions:
REMARK  status: ('A' for Active; 'I' for Inactive)
ROOT
ATOM      1  C   UNL d   1       0.757   2.699   1.515  0.00  0.00     0.172 C 
ATOM      2  N   UNL d   1       0.330   1.455   0.921  0.00  0.00    -0.070 N 
ATOM      3  C1  UNL d   1      -0.780   0.737   1.280  0.00  0.00    -0.004 A 
ATOM      4  C2  UNL d   1      -0.837  -0.383   0.479  0.00  0.00    -0.047 A 
ATOM      5  C3  UNL d   1       0.278  -0.337  -0.392  0.00  0.00    -0.047 A 
ATOM      6  C4  UNL d   1       0.983   0.811  -0.097  0.00  0.00    -0.004 A 
ENDROOT
TORSDOF 0
ENDMDL
