MODEL 1
REMARK minimizedAffinity -3.87286377
REMARK minimizedRMSD -1
REMARK  0 active torsions:
REMARK  status: ('A' for Active; 'I' for Inactive)
ROOT
ATOM      1  C   UNL d   1      -0.190  -0.391  -0.453  0.00  0.00     0.172 C 
ATOM      2  N   UNL d   1       0.311   0.703   0.345  0.00  0.00    -0.070 N 
ATOM      3  C1  UNL d   1      -0.397   1.388   1.296  0.00  0.00    -0.004 A 
ATOM      4  C2  UNL d   1       0.433   2.352   1.827  0.00  0.00    -0.047 A 
ATOM      5  C3  UNL d   1       1.683   2.243   1.172  0.00  0.00    -0.047 A 
ATOM      6  C4  UNL d   1       1.579   1.214   0.260  0.00  0.00    -0.004 A 
ENDROOT
TORSDOF 0
ENDMDL
