MODEL 1
REMARK minimizedAffinity -1.48732722
REMARK minimizedRMSD -1
REMARK  0 active torsions:
REMARK  status: ('A' for Active; 'I' for Inactive)
ROOT
ATOM      1  C   UNL d   1      -0.796  -0.104   1.434  0.00  0.00     0.172 C 
ATOM      2  N   UNL d   1       0.124   0.924   1.007  0.00  0.00    -0.070 N 
ATOM      3  C1  UNL d   1       0.813   0.938  -0.176  0.00  0.00    -0.004 A 
ATOM      4  C2  UNL d   1       1.580   2.082  -0.205  0.00  0.00    -0.047 A 
ATOM      5  C3  UNL d   1       1.344   2.780   1.004  0.00  0.00    -0.047 A 
ATOM      6  C4  UNL d   1       0.439   2.041   1.735  0.00  0.00    -0.004 A 
ENDROOT
TORSDOF 0
ENDMDL
