MODEL 1
REMARK minimizedAffinity -2.73377824
REMARK minimizedRMSD -1
REMARK  0 active torsions:
REMARK  status: ('A' for Active; 'I' for Inactive)
ROOT
ATOM      1  C   UNL d   1      -0.563  -0.355   1.440  0.00  0.00     0.172 C 
ATOM      2  N   UNL d   1       0.107   0.790   0.870  0.00  0.00    -0.070 N 
ATOM      3  C1  UNL d   1       0.480   0.927  -0.440  0.00  0.00    -0.004 A 
ATOM      4  C2  UNL d   1       1.088   2.156  -0.580  0.00  0.00    -0.047 A 
ATOM      5  C3  UNL d   1       1.080   2.779   0.691  0.00  0.00    -0.047 A 
ATOM      6  C4  UNL d   1       0.467   1.912   1.570  0.00  0.00    -0.004 A 
ENDROOT
TORSDOF 0
ENDMDL
