MODEL 1
REMARK minimizedAffinity 16.5434074
REMARK minimizedRMSD -1
REMARK  1 active torsions:
REMARK  status: ('A' for Active; 'I' for Inactive)
REMARK    1  A    between atoms: C1_2  and  C2_3 
ROOT
ATOM      1  C2  UNL d   1      -0.007  -2.532  -4.447  0.00  0.00    -0.073 A 
ATOM      2  C3  UNL d   1       1.163  -3.152  -4.900  0.00  0.00    -0.002 A 
ATOM      3  C4  UNL d   1       1.093  -4.315  -5.668  0.00  0.00     0.004 A 
ATOM      4  C5  UNL d   1      -0.146  -4.865  -5.997  0.00  0.00    -0.004 A 
ATOM      5  C6  UNL d   1      -1.327  -4.254  -5.564  0.00  0.00    -0.075 A 
ATOM      6  C7  UNL d   1      -2.667  -4.835  -5.907  0.00  0.00     0.076 C 
ATOM      7  C8  UNL d   1      -1.248  -3.088  -4.791  0.00  0.00     0.001 A 
ENDROOT
BRANCH   1   8
ATOM      8  C1  UNL d   1       0.063  -1.273  -3.623  0.00  0.00     0.053 C 
ATOM      9  C   UNL d   1       0.408  -0.057  -4.468  0.00  0.00     0.018 C 
ENDBRANCH   1   8
TORSDOF 1
ENDMDL
