MODEL 1
REMARK minimizedAffinity 10.9773302
REMARK minimizedRMSD -1
REMARK  1 active torsions:
REMARK  status: ('A' for Active; 'I' for Inactive)
REMARK    1  A    between atoms: C1_2  and  C2_3 
ROOT
ATOM      1  C2  UNL d   1       3.073  -0.377  -5.471  0.00  0.00    -0.073 A 
ATOM      2  C3  UNL d   1       3.332  -1.737  -5.267  0.00  0.00    -0.002 A 
ATOM      3  C4  UNL d   1       2.331  -2.580  -4.783  0.00  0.00     0.004 A 
ATOM      4  C5  UNL d   1       1.061  -2.075  -4.505  0.00  0.00    -0.004 A 
ATOM      5  C6  UNL d   1       0.779  -0.721  -4.714  0.00  0.00    -0.075 A 
ATOM      6  C7  UNL d   1      -0.582  -0.162  -4.419  0.00  0.00     0.076 C 
ATOM      7  C8  UNL d   1       1.790   0.120  -5.198  0.00  0.00     0.001 A 
ENDROOT
BRANCH   1   8
ATOM      8  C1  UNL d   1       4.148   0.537  -6.000  0.00  0.00     0.053 C 
ATOM      9  C   UNL d   1       4.913   1.224  -4.880  0.00  0.00     0.018 C 
ENDBRANCH   1   8
TORSDOF 1
ENDMDL
