MODEL 1
REMARK minimizedAffinity 10.4829063
REMARK minimizedRMSD -1
REMARK  1 active torsions:
REMARK  status: ('A' for Active; 'I' for Inactive)
REMARK    1  A    between atoms: C1_2  and  C2_3 
ROOT
ATOM      1  C2  UNL d   1       0.764  -1.988   3.563  0.00  0.00    -0.073 A 
ATOM      2  C3  UNL d   1       0.378  -1.923   2.219  0.00  0.00    -0.002 A 
ATOM      3  C4  UNL d   1       0.034  -0.699   1.643  0.00  0.00     0.004 A 
ATOM      4  C5  UNL d   1       0.080   0.471   2.400  0.00  0.00    -0.004 A 
ATOM      5  C6  UNL d   1       0.476   0.428   3.741  0.00  0.00    -0.075 A 
ATOM      6  C7  UNL d   1       0.528   1.678   4.570  0.00  0.00     0.076 C 
ATOM      7  C8  UNL d   1       0.816  -0.804   4.313  0.00  0.00     0.001 A 
ENDROOT
BRANCH   1   8
ATOM      8  C1  UNL d   1       1.142  -3.306   4.188  0.00  0.00     0.053 C 
ATOM      9  C   UNL d   1       1.162  -3.231   5.706  0.00  0.00     0.018 C 
ENDBRANCH   1   8
TORSDOF 1
ENDMDL
