MODEL 1
REMARK minimizedAffinity 7.31197023
REMARK minimizedRMSD -1
REMARK  1 active torsions:
REMARK  status: ('A' for Active; 'I' for Inactive)
REMARK    1  A    between atoms: C1_2  and  C2_3 
ROOT
ATOM      1  C2  UNL d   1      -1.248  -0.463   2.841  0.00  0.00    -0.073 A 
ATOM      2  C3  UNL d   1      -0.420   0.627   2.550  0.00  0.00    -0.002 A 
ATOM      3  C4  UNL d   1       0.914   0.630   2.962  0.00  0.00     0.004 A 
ATOM      4  C5  UNL d   1       1.434  -0.458   3.663  0.00  0.00    -0.004 A 
ATOM      5  C6  UNL d   1       0.625  -1.562   3.953  0.00  0.00    -0.075 A 
ATOM      6  C7  UNL d   1       1.169  -2.739   4.708  0.00  0.00     0.076 C 
ATOM      7  C8  UNL d   1      -0.713  -1.556   3.538  0.00  0.00     0.001 A 
ENDROOT
BRANCH   1   8
ATOM      8  C1  UNL d   1      -2.686  -0.473   2.393  0.00  0.00     0.053 C 
ATOM      9  C   UNL d   1      -3.469  -1.618   3.015  0.00  0.00     0.018 C 
ENDBRANCH   1   8
TORSDOF 1
ENDMDL
