MODEL 1
REMARK minimizedAffinity 11.3031197
REMARK minimizedRMSD -1
REMARK  1 active torsions:
REMARK  status: ('A' for Active; 'I' for Inactive)
REMARK    1  A    between atoms: C1_2  and  C2_3 
ROOT
ATOM      1  C2  UNL d   1      -0.813  -0.982   2.398  0.00  0.00    -0.073 A 
ATOM      2  C3  UNL d   1       0.003   0.085   2.005  0.00  0.00    -0.002 A 
ATOM      3  C4  UNL d   1       1.363   0.083   2.314  0.00  0.00     0.004 A 
ATOM      4  C5  UNL d   1       1.923  -0.987   3.012  0.00  0.00    -0.004 A 
ATOM      5  C6  UNL d   1       1.127  -2.068   3.403  0.00  0.00    -0.075 A 
ATOM      6  C7  UNL d   1       1.714  -3.226   4.156  0.00  0.00     0.076 C 
ATOM      7  C8  UNL d   1      -0.239  -2.057   3.091  0.00  0.00     0.001 A 
ENDROOT
BRANCH   1   8
ATOM      8  C1  UNL d   1      -2.282  -0.987   2.061  0.00  0.00     0.053 C 
ATOM      9  C   UNL d   1      -2.936  -2.321   2.386  0.00  0.00     0.018 C 
ENDBRANCH   1   8
TORSDOF 1
ENDMDL
