MODEL 1
REMARK minimizedAffinity 8.36618519
REMARK minimizedRMSD -1
REMARK  0 active torsions:
REMARK  status: ('A' for Active; 'I' for Inactive)
ROOT
ATOM      1  C   UNL d   1      -1.859   0.398   2.871  0.00  0.00    -0.002 A 
ATOM      2  C1  UNL d   1      -1.554  -0.750   2.153  0.00  0.00     0.010 A 
ATOM      3  C2  UNL d   1      -2.414  -1.214   1.156  0.00  0.00     0.041 A 
ATOM      4  C3  UNL d   1      -3.597  -0.497   0.889  0.00  0.00    -0.075 A 
ATOM      5  S   UNL d   1      -4.800  -0.877  -0.287  0.00  0.00     0.015 SA
ATOM      6  C4  UNL d   1      -5.747   0.475   0.135  0.00  0.00     0.022 A 
ATOM      7  C5  UNL d   1      -5.175   1.210   1.147  0.00  0.00     0.026 A 
ATOM      8  C6  UNL d   1      -3.926   0.662   1.598  0.00  0.00    -0.082 A 
ATOM      9  C7  UNL d   1      -3.034   1.106   2.603  0.00  0.00     0.045 A 
ENDROOT
TORSDOF 0
ENDMDL
