MODEL 1
REMARK minimizedAffinity 2.37003827
REMARK minimizedRMSD -1
REMARK  0 active torsions:
REMARK  status: ('A' for Active; 'I' for Inactive)
ROOT
ATOM      1  C   UNL d   1      -4.986   0.982   1.098  0.00  0.00    -0.002 A 
ATOM      2  C1  UNL d   1      -4.952   0.170  -0.027  0.00  0.00     0.010 A 
ATOM      3  C2  UNL d   1      -3.864  -0.674  -0.261  0.00  0.00     0.041 A 
ATOM      4  C3  UNL d   1      -2.802  -0.689   0.664  0.00  0.00    -0.075 A 
ATOM      5  S   UNL d   1      -1.367  -1.643   0.584  0.00  0.00     0.015 SA
ATOM      6  C4  UNL d   1      -0.766  -0.995   2.042  0.00  0.00     0.022 A 
ATOM      7  C5  UNL d   1      -1.626  -0.072   2.589  0.00  0.00     0.026 A 
ATOM      8  C6  UNL d   1      -2.814   0.119   1.805  0.00  0.00    -0.082 A 
ATOM      9  C7  UNL d   1      -3.930   0.964   2.014  0.00  0.00     0.045 A 
ENDROOT
TORSDOF 0
ENDMDL
