MODEL 1
REMARK minimizedAffinity 1.64550984
REMARK minimizedRMSD -1
REMARK  0 active torsions:
REMARK  status: ('A' for Active; 'I' for Inactive)
ROOT
ATOM      1  C   UNL d   1       3.564   1.175  -4.890  0.00  0.00    -0.002 A 
ATOM      2  C1  UNL d   1       3.357   0.156  -5.809  0.00  0.00     0.010 A 
ATOM      3  C2  UNL d   1       2.082  -0.381  -5.998  0.00  0.00     0.041 A 
ATOM      4  C3  UNL d   1       1.008   0.130  -5.242  0.00  0.00    -0.075 A 
ATOM      5  S   UNL d   1      -0.640  -0.373  -5.305  0.00  0.00     0.015 SA
ATOM      6  C4  UNL d   1      -1.107   0.754  -4.115  0.00  0.00     0.022 A 
ATOM      7  C5  UNL d   1      -0.044   1.503  -3.669  0.00  0.00     0.026 A 
ATOM      8  C6  UNL d   1       1.192   1.156  -4.311  0.00  0.00    -0.082 A 
ATOM      9  C7  UNL d   1       2.497   1.679  -4.142  0.00  0.00     0.045 A 
ENDROOT
TORSDOF 0
ENDMDL
