MODEL 1
REMARK minimizedAffinity 7.41790581
REMARK minimizedRMSD -1
REMARK  0 active torsions:
REMARK  status: ('A' for Active; 'I' for Inactive)
ROOT
ATOM      1  C   UNL d   1      -1.602   0.043   2.582  0.00  0.00    -0.002 A 
ATOM      2  C1  UNL d   1      -1.512  -0.982   1.650  0.00  0.00     0.010 A 
ATOM      3  C2  UNL d   1      -2.531  -1.185   0.717  0.00  0.00     0.041 A 
ATOM      4  C3  UNL d   1      -3.652  -0.332   0.736  0.00  0.00    -0.075 A 
ATOM      5  S   UNL d   1      -5.020  -0.391  -0.311  0.00  0.00     0.015 SA
ATOM      6  C4  UNL d   1      -5.756   0.943   0.453  0.00  0.00     0.022 A 
ATOM      7  C5  UNL d   1      -4.991   1.433   1.484  0.00  0.00     0.026 A 
ATOM      8  C6  UNL d   1      -3.765   0.707   1.664  0.00  0.00    -0.082 A 
ATOM      9  C7  UNL d   1      -2.716   0.887   2.597  0.00  0.00     0.045 A 
ENDROOT
TORSDOF 0
ENDMDL
