MODEL 1
REMARK minimizedAffinity 5.25652361
REMARK minimizedRMSD -1
REMARK  0 active torsions:
REMARK  status: ('A' for Active; 'I' for Inactive)
ROOT
ATOM      1  C   UNL d   1      -1.315   0.426   2.873  0.00  0.00    -0.002 A 
ATOM      2  C1  UNL d   1      -1.082  -0.604   1.973  0.00  0.00     0.010 A 
ATOM      3  C2  UNL d   1      -2.008  -0.892   0.968  0.00  0.00     0.041 A 
ATOM      4  C3  UNL d   1      -3.182  -0.119   0.881  0.00  0.00    -0.075 A 
ATOM      5  S   UNL d   1      -4.456  -0.289  -0.268  0.00  0.00     0.015 SA
ATOM      6  C4  UNL d   1      -5.339   1.002   0.408  0.00  0.00     0.022 A 
ATOM      7  C5  UNL d   1      -4.692   1.561   1.485  0.00  0.00     0.026 A 
ATOM      8  C6  UNL d   1      -3.438   0.925   1.775  0.00  0.00    -0.082 A 
ATOM      9  C7  UNL d   1      -2.481   1.192   2.783  0.00  0.00     0.045 A 
ENDROOT
TORSDOF 0
ENDMDL
