MODEL 1
REMARK minimizedAffinity 5.5731163
REMARK minimizedRMSD -1
REMARK  0 active torsions:
REMARK  status: ('A' for Active; 'I' for Inactive)
ROOT
ATOM      1  C   UNL d   1      -4.489   1.302   1.206  0.00  0.00    -0.002 A 
ATOM      2  C1  UNL d   1      -3.733   1.669   2.311  0.00  0.00     0.010 A 
ATOM      3  C2  UNL d   1      -2.553   0.990   2.621  0.00  0.00     0.041 A 
ATOM      4  C3  UNL d   1      -2.141  -0.073   1.794  0.00  0.00    -0.075 A 
ATOM      5  S   UNL d   1      -0.730  -1.048   1.978  0.00  0.00     0.015 SA
ATOM      6  C4  UNL d   1      -1.098  -1.973   0.595  0.00  0.00     0.022 A 
ATOM      7  C5  UNL d   1      -2.265  -1.563  -0.005  0.00  0.00     0.026 A 
ATOM      8  C6  UNL d   1      -2.885  -0.460   0.675  0.00  0.00    -0.082 A 
ATOM      9  C7  UNL d   1      -4.076   0.247   0.388  0.00  0.00     0.045 A 
ENDROOT
TORSDOF 0
ENDMDL
