MODEL 1
REMARK minimizedAffinity 8.23499298
REMARK minimizedRMSD -1
REMARK  3 active torsions:
REMARK  status: ('A' for Active; 'I' for Inactive)
REMARK    1  A    between atoms: C3'_2  and  C2'_3 
REMARK    2  A    between atoms: C2'_3  and  C1'_4 
REMARK    3  A    between atoms: C1'_4  and  C1_5 
ROOT
ATOM      1  C1  N4B d   1       1.219  -3.769   0.129  0.00  0.00    -0.075 A 
ATOM      2  C2  N4B d   1      -0.188  -3.711   0.236  0.00  0.00     0.002 A 
ATOM      3  C3  N4B d   1      -0.883  -4.782   0.741  0.00  0.00     0.002 A 
ATOM      4  C4  N4B d   1      -0.198  -5.924   1.127  0.00  0.00    -0.004 A 
ATOM      5  C5  N4B d   1       1.164  -5.963   1.045  0.00  0.00     0.002 A 
ATOM      6  C6  N4B d   1       1.875  -4.892   0.542  0.00  0.00     0.002 A 
ENDROOT
BRANCH   1   7
ATOM      7  C1' N4B d   1       2.015  -2.657  -0.497  0.00  0.00     0.057 C 
BRANCH   7   8
ATOM      8  C2' N4B d   1       1.476  -2.383  -1.898  0.00  0.00     0.009 C 
BRANCH   8   9
ATOM      9  C3' N4B d   1       1.122  -0.919  -2.094  0.00  0.00     0.004 C 
ATOM     10  C4' N4B d   1       0.238  -0.689  -3.284  0.00  0.00     0.003 C 
ENDBRANCH   8   9
ENDBRANCH   7   8
ENDBRANCH   1   7
TORSDOF 3
ENDMDL
