MODEL 1
REMARK minimizedAffinity -2.35889935
REMARK minimizedRMSD -1
REMARK  3 active torsions:
REMARK  status: ('A' for Active; 'I' for Inactive)
REMARK    1  A    between atoms: C3'_2  and  C2'_3 
REMARK    2  A    between atoms: C2'_3  and  C1'_4 
REMARK    3  A    between atoms: C1'_4  and  C1_5 
ROOT
ATOM      1  C1  N4B d   1       1.298  -2.573   0.033  0.00  0.00    -0.075 A 
ATOM      2  C2  N4B d   1       1.754  -1.751  -1.021  0.00  0.00     0.002 A 
ATOM      3  C3  N4B d   1       0.899  -0.851  -1.609  0.00  0.00     0.002 A 
ATOM      4  C4  N4B d   1      -0.415  -0.769  -1.173  0.00  0.00    -0.004 A 
ATOM      5  C5  N4B d   1      -0.840  -1.548  -0.137  0.00  0.00     0.002 A 
ATOM      6  C6  N4B d   1       0.009  -2.454   0.465  0.00  0.00     0.002 A 
ENDROOT
BRANCH   1   7
ATOM      7  C1' N4B d   1       2.172  -3.632   0.649  0.00  0.00     0.057 C 
BRANCH   7   8
ATOM      8  C2' N4B d   1       1.950  -4.952  -0.083  0.00  0.00     0.009 C 
BRANCH   8   9
ATOM      9  C3' N4B d   1       1.308  -5.998   0.813  0.00  0.00     0.004 C 
ATOM     10  C4' N4B d   1      -0.049  -5.589   1.303  0.00  0.00     0.003 C 
ENDBRANCH   8   9
ENDBRANCH   7   8
ENDBRANCH   1   7
TORSDOF 3
ENDMDL
