MODEL 1
REMARK minimizedAffinity -3.12567782
REMARK minimizedRMSD -1
REMARK  3 active torsions:
REMARK  status: ('A' for Active; 'I' for Inactive)
REMARK    1  A    between atoms: C3'_2  and  C2'_3 
REMARK    2  A    between atoms: C2'_3  and  C1'_4 
REMARK    3  A    between atoms: C1'_4  and  C1_5 
ROOT
ATOM      1  C1  N4B d   1       1.492  -2.195  -0.004  0.00  0.00    -0.075 A 
ATOM      2  C2  N4B d   1       2.628  -1.366   0.127  0.00  0.00     0.002 A 
ATOM      3  C3  N4B d   1       2.606  -0.088  -0.374  0.00  0.00     0.002 A 
ATOM      4  C4  N4B d   1       1.472   0.375  -1.024  0.00  0.00    -0.004 A 
ATOM      5  C5  N4B d   1       0.370  -0.423  -1.124  0.00  0.00     0.002 A 
ATOM      6  C6  N4B d   1       0.376  -1.709  -0.622  0.00  0.00     0.002 A 
ENDROOT
BRANCH   1   7
ATOM      7  C1' N4B d   1       1.498  -3.629   0.451  0.00  0.00     0.057 C 
BRANCH   7   8
ATOM      8  C2' N4B d   1       0.059  -4.106   0.624  0.00  0.00     0.009 C 
BRANCH   8   9
ATOM      9  C3' N4B d   1      -0.009  -5.538   1.124  0.00  0.00     0.004 C 
ATOM     10  C4' N4B d   1       1.279  -6.000   1.739  0.00  0.00     0.003 C 
ENDBRANCH   8   9
ENDBRANCH   7   8
ENDBRANCH   1   7
TORSDOF 3
ENDMDL
