MODEL 1
REMARK minimizedAffinity -2.20553756
REMARK minimizedRMSD -1
REMARK  3 active torsions:
REMARK  status: ('A' for Active; 'I' for Inactive)
REMARK    1  A    between atoms: C3'_2  and  C2'_3 
REMARK    2  A    between atoms: C2'_3  and  C1'_4 
REMARK    3  A    between atoms: C1'_4  and  C1_5 
ROOT
ATOM      1  C1  N4B d   1       0.636  -1.520   0.093  0.00  0.00    -0.075 A 
ATOM      2  C2  N4B d   1       1.173  -0.511  -0.736  0.00  0.00     0.002 A 
ATOM      3  C3  N4B d   1       0.365   0.144  -1.632  0.00  0.00     0.002 A 
ATOM      4  C4  N4B d   1      -0.974  -0.204  -1.729  0.00  0.00    -0.004 A 
ATOM      5  C5  N4B d   1      -1.491  -1.162  -0.907  0.00  0.00     0.002 A 
ATOM      6  C6  N4B d   1      -0.691  -1.826   0.001  0.00  0.00     0.002 A 
ENDROOT
BRANCH   1   7
ATOM      7  C1' N4B d   1       1.499  -2.324   1.027  0.00  0.00     0.057 C 
BRANCH   7   8
ATOM      8  C2' N4B d   1       1.876  -3.640   0.354  0.00  0.00     0.009 C 
BRANCH   8   9
ATOM      9  C3' N4B d   1       0.856  -4.731   0.629  0.00  0.00     0.004 C 
ATOM     10  C4' N4B d   1       1.483  -6.000   1.125  0.00  0.00     0.003 C 
ENDBRANCH   8   9
ENDBRANCH   7   8
ENDBRANCH   1   7
TORSDOF 3
ENDMDL
