MODEL 1
REMARK minimizedAffinity -0.427480966
REMARK minimizedRMSD -1
REMARK  3 active torsions:
REMARK  status: ('A' for Active; 'I' for Inactive)
REMARK    1  A    between atoms: C3'_2  and  C2'_3 
REMARK    2  A    between atoms: C2'_3  and  C1'_4 
REMARK    3  A    between atoms: C1'_4  and  C1_5 
ROOT
ATOM      1  C1  N4B d   1       0.847  -1.730  -0.236  0.00  0.00    -0.075 A 
ATOM      2  C2  N4B d   1      -0.376  -2.161   0.326  0.00  0.00     0.002 A 
ATOM      3  C3  N4B d   1      -0.468  -3.407   0.896  0.00  0.00     0.002 A 
ATOM      4  C4  N4B d   1       0.638  -4.243   0.899  0.00  0.00    -0.004 A 
ATOM      5  C5  N4B d   1       1.821  -3.810   0.378  0.00  0.00     0.002 A 
ATOM      6  C6  N4B d   1       1.930  -2.559  -0.195  0.00  0.00     0.002 A 
ENDROOT
BRANCH   1   7
ATOM      7  C1' N4B d   1       0.973  -0.411  -0.946  0.00  0.00     0.057 C 
BRANCH   7   8
ATOM      8  C2' N4B d   1      -0.151  -0.283  -1.970  0.00  0.00     0.009 C 
BRANCH   8   9
ATOM      9  C3' N4B d   1      -0.017  -1.300  -3.091  0.00  0.00     0.004 C 
ATOM     10  C4' N4B d   1      -0.242  -0.702  -4.447  0.00  0.00     0.003 C 
ENDBRANCH   8   9
ENDBRANCH   7   8
ENDBRANCH   1   7
TORSDOF 3
ENDMDL
