MODEL 1
REMARK minimizedAffinity -0.463651329
REMARK minimizedRMSD -1
REMARK  3 active torsions:
REMARK  status: ('A' for Active; 'I' for Inactive)
REMARK    1  A    between atoms: C3'_2  and  C2'_3 
REMARK    2  A    between atoms: C2'_3  and  C1'_4 
REMARK    3  A    between atoms: C1'_4  and  C1_5 
ROOT
ATOM      1  C1  N4B d   1       1.710  -1.650  -0.578  0.00  0.00    -0.075 A 
ATOM      2  C2  N4B d   1       2.552  -2.704  -0.158  0.00  0.00     0.002 A 
ATOM      3  C3  N4B d   1       2.010  -3.834   0.403  0.00  0.00     0.002 A 
ATOM      4  C4  N4B d   1       0.637  -3.925   0.571  0.00  0.00    -0.004 A 
ATOM      5  C5  N4B d   1      -0.171  -2.914   0.140  0.00  0.00     0.002 A 
ATOM      6  C6  N4B d   1       0.359  -1.774  -0.429  0.00  0.00     0.002 A 
ENDROOT
BRANCH   1   7
ATOM      7  C1' N4B d   1       2.263  -0.359  -1.117  0.00  0.00     0.057 C 
BRANCH   7   8
ATOM      8  C2' N4B d   1       3.778  -0.480  -1.251  0.00  0.00     0.009 C 
BRANCH   8   9
ATOM      9  C3' N4B d   1       4.352   0.578  -2.178  0.00  0.00     0.004 C 
ATOM     10  C4' N4B d   1       5.850   0.545  -2.238  0.00  0.00     0.003 C 
ENDBRANCH   8   9
ENDBRANCH   7   8
ENDBRANCH   1   7
TORSDOF 3
ENDMDL
