MODEL 1
REMARK minimizedAffinity 2.72599506
REMARK minimizedRMSD -1
REMARK  3 active torsions:
REMARK  status: ('A' for Active; 'I' for Inactive)
REMARK    1  A    between atoms: C3'_2  and  C2'_3 
REMARK    2  A    between atoms: C2'_3  and  C1'_4 
REMARK    3  A    between atoms: C1'_4  and  C1_5 
ROOT
ATOM      1  C1  N4B d   1       1.404  -1.710  -1.136  0.00  0.00    -0.075 A 
ATOM      2  C2  N4B d   1       2.260  -2.436  -0.279  0.00  0.00     0.002 A 
ATOM      3  C3  N4B d   1       1.750  -3.430   0.519  0.00  0.00     0.002 A 
ATOM      4  C4  N4B d   1       0.390  -3.703   0.492  0.00  0.00    -0.004 A 
ATOM      5  C5  N4B d   1      -0.426  -3.014  -0.357  0.00  0.00     0.002 A 
ATOM      6  C6  N4B d   1       0.073  -2.014  -1.168  0.00  0.00     0.002 A 
ENDROOT
BRANCH   1   7
ATOM      7  C1' N4B d   1       1.900  -0.556  -1.963  0.00  0.00     0.057 C 
BRANCH   7   8
ATOM      8  C2' N4B d   1       3.402  -0.392  -1.744  0.00  0.00     0.009 C 
BRANCH   8   9
ATOM      9  C3' N4B d   1       3.996   0.669  -2.654  0.00  0.00     0.004 C 
ATOM     10  C4' N4B d   1       5.494   0.717  -2.590  0.00  0.00     0.003 C 
ENDBRANCH   8   9
ENDBRANCH   7   8
ENDBRANCH   1   7
TORSDOF 3
ENDMDL
