MODEL 1
REMARK minimizedAffinity -1.80657506
REMARK minimizedRMSD -1
REMARK  3 active torsions:
REMARK  status: ('A' for Active; 'I' for Inactive)
REMARK    1  A    between atoms: C3'_2  and  C2'_3 
REMARK    2  A    between atoms: C2'_3  and  C1'_4 
REMARK    3  A    between atoms: C1'_4  and  C1_5 
ROOT
ATOM      1  C1  N4B d   1       0.850  -3.418   0.565  0.00  0.00    -0.075 A 
ATOM      2  C2  N4B d   1       1.899  -4.351   0.724  0.00  0.00     0.002 A 
ATOM      3  C3  N4B d   1       1.634  -5.602   1.224  0.00  0.00     0.002 A 
ATOM      4  C4  N4B d   1       0.338  -5.935   1.588  0.00  0.00    -0.004 A 
ATOM      5  C5  N4B d   1      -0.673  -5.037   1.407  0.00  0.00     0.002 A 
ATOM      6  C6  N4B d   1      -0.422  -3.778   0.902  0.00  0.00     0.002 A 
ENDROOT
BRANCH   1   7
ATOM      7  C1' N4B d   1       1.104  -2.009   0.103  0.00  0.00     0.057 C 
BRANCH   7   8
ATOM      8  C2' N4B d   1      -0.215  -1.379  -0.333  0.00  0.00     0.009 C 
BRANCH   8   9
ATOM      9  C3' N4B d   1      -0.006  -0.263  -1.342  0.00  0.00     0.004 C 
ATOM     10  C4' N4B d   1       1.306   0.441  -1.166  0.00  0.00     0.003 C 
ENDBRANCH   8   9
ENDBRANCH   7   8
ENDBRANCH   1   7
TORSDOF 3
ENDMDL
