MODEL 1
REMARK minimizedAffinity -0.579428673
REMARK minimizedRMSD -1
REMARK  3 active torsions:
REMARK  status: ('A' for Active; 'I' for Inactive)
REMARK    1  A    between atoms: C3'_2  and  C2'_3 
REMARK    2  A    between atoms: C2'_3  and  C1'_4 
REMARK    3  A    between atoms: C1'_4  and  C1_5 
ROOT
ATOM      1  C1  N4B d   1       0.102  -1.755   0.079  0.00  0.00    -0.075 A 
ATOM      2  C2  N4B d   1       1.236  -2.597   0.076  0.00  0.00     0.002 A 
ATOM      3  C3  N4B d   1       2.424  -2.149  -0.448  0.00  0.00     0.002 A 
ATOM      4  C4  N4B d   1       2.496  -0.874  -0.989  0.00  0.00    -0.004 A 
ATOM      5  C5  N4B d   1       1.403  -0.058  -0.960  0.00  0.00     0.002 A 
ATOM      6  C6  N4B d   1       0.205  -0.494  -0.433  0.00  0.00     0.002 A 
ENDROOT
BRANCH   1   7
ATOM      7  C1' N4B d   1      -1.240  -2.232   0.563  0.00  0.00     0.057 C 
BRANCH   7   8
ATOM      8  C2' N4B d   1      -1.238  -3.757   0.623  0.00  0.00     0.009 C 
BRANCH   8   9
ATOM      9  C3' N4B d   1      -1.993  -4.372  -0.542  0.00  0.00     0.004 C 
ATOM     10  C4' N4B d   1      -2.107  -3.446  -1.716  0.00  0.00     0.003 C 
ENDBRANCH   8   9
ENDBRANCH   7   8
ENDBRANCH   1   7
TORSDOF 3
ENDMDL
