MODEL 1
REMARK minimizedAffinity 5.00299454
REMARK minimizedRMSD -1
REMARK  0 active torsions:
REMARK  status: ('A' for Active; 'I' for Inactive)
ROOT
ATOM      1  C   UNL d   1       0.028   5.999  -5.424  0.00  0.00     0.020 A 
ATOM      2  C1  UNL d   1       0.694   6.000  -4.199  0.00  0.00     0.020 A 
ATOM      3  C2  UNL d   1      -0.035   6.000  -3.008  0.00  0.00     0.034 A 
ATOM      4  C3  UNL d   1      -1.434   6.000  -3.038  0.00  0.00     0.017 A 
ATOM      5  C4  UNL d   1      -2.102   5.999  -4.268  0.00  0.00     0.017 A 
ATOM      6  C5  UNL d   1      -1.367   5.999  -5.458  0.00  0.00     0.034 A 
ATOM      7 Cl   UNL d   1      -3.826   5.999  -4.387  0.00  0.00    -0.070 Cl
ATOM      8 Cl1  UNL d   1      -2.271   5.999  -1.527  0.00  0.00    -0.070 Cl
ENDROOT
TORSDOF 0
ENDMDL
