MODEL 1
REMARK minimizedAffinity -1.92679489
REMARK minimizedRMSD -1
REMARK  0 active torsions:
REMARK  status: ('A' for Active; 'I' for Inactive)
ROOT
ATOM      1  C   UNL d   1       1.400   5.992  -4.010  0.00  0.00     0.020 A 
ATOM      2  C1  UNL d   1       1.019   5.986  -5.351  0.00  0.00     0.020 A 
ATOM      3  C2  UNL d   1      -0.335   5.982  -5.693  0.00  0.00     0.034 A 
ATOM      4  C3  UNL d   1      -1.313   5.985  -4.692  0.00  0.00     0.017 A 
ATOM      5  C4  UNL d   1      -0.930   5.992  -3.346  0.00  0.00     0.017 A 
ATOM      6  C5  UNL d   1       0.427   5.995  -3.009  0.00  0.00     0.034 A 
ATOM      7 Cl   UNL d   1      -2.080   5.996  -2.055  0.00  0.00    -0.070 Cl
ATOM      8 Cl1  UNL d   1      -2.969   5.982  -5.187  0.00  0.00    -0.070 Cl
ENDROOT
TORSDOF 0
ENDMDL
