MODEL 1
REMARK minimizedAffinity -1.66859758
REMARK minimizedRMSD -1
REMARK  0 active torsions:
REMARK  status: ('A' for Active; 'I' for Inactive)
ROOT
ATOM      1  C   UNL d   1      -0.583   5.981  -5.267  0.00  0.00     0.020 A 
ATOM      2  C1  UNL d   1      -1.886   6.000  -5.764  0.00  0.00     0.020 A 
ATOM      3  C2  UNL d   1      -2.968   6.000  -4.882  0.00  0.00     0.034 A 
ATOM      4  C3  UNL d   1      -2.751   5.980  -3.500  0.00  0.00     0.017 A 
ATOM      5  C4  UNL d   1      -1.443   5.961  -3.003  0.00  0.00     0.017 A 
ATOM      6  C5  UNL d   1      -0.362   5.961  -3.890  0.00  0.00     0.034 A 
ATOM      7 Cl   UNL d   1      -1.095   5.936  -1.310  0.00  0.00    -0.070 Cl
ATOM      8 Cl1  UNL d   1      -4.137   5.982  -2.468  0.00  0.00    -0.070 Cl
ENDROOT
TORSDOF 0
ENDMDL
