MODEL 1
REMARK minimizedAffinity 2.44851732
REMARK minimizedRMSD -1
REMARK  0 active torsions:
REMARK  status: ('A' for Active; 'I' for Inactive)
ROOT
ATOM      1  C   UNL d   1      -3.355   5.971  -4.825  0.00  0.00     0.020 A 
ATOM      2  C1  UNL d   1      -3.781   5.979  -3.498  0.00  0.00     0.020 A 
ATOM      3  C2  UNL d   1      -2.844   5.984  -2.463  0.00  0.00     0.034 A 
ATOM      4  C3  UNL d   1      -1.474   5.979  -2.754  0.00  0.00     0.017 A 
ATOM      5  C4  UNL d   1      -1.047   5.971  -4.086  0.00  0.00     0.017 A 
ATOM      6  C5  UNL d   1      -1.990   5.967  -5.119  0.00  0.00     0.034 A 
ATOM      7 Cl   UNL d   1       0.625   5.965  -4.524  0.00  0.00    -0.070 Cl
ATOM      8 Cl1  UNL d   1      -0.371   5.985  -1.424  0.00  0.00    -0.070 Cl
ENDROOT
TORSDOF 0
ENDMDL
