MODEL 1
REMARK minimizedAffinity -2.26896095
REMARK minimizedRMSD -1
REMARK  0 active torsions:
REMARK  status: ('A' for Active; 'I' for Inactive)
ROOT
ATOM      1  C   UNL d   1       4.765   6.000  -5.503  0.00  0.00     0.020 A 
ATOM      2  C1  UNL d   1       5.255   5.260  -4.428  0.00  0.00     0.020 A 
ATOM      3  C2  UNL d   1       4.437   4.322  -3.795  0.00  0.00     0.034 A 
ATOM      4  C3  UNL d   1       3.124   4.121  -4.236  0.00  0.00     0.017 A 
ATOM      5  C4  UNL d   1       2.632   4.865  -5.315  0.00  0.00     0.017 A 
ATOM      6  C5  UNL d   1       3.456   5.803  -5.946  0.00  0.00     0.034 A 
ATOM      7 Cl   UNL d   1       1.023   4.673  -5.916  0.00  0.00    -0.070 Cl
ATOM      8 Cl1  UNL d   1       2.169   2.945  -3.407  0.00  0.00    -0.070 Cl
ENDROOT
TORSDOF 0
ENDMDL
