MODEL 1
REMARK minimizedAffinity 1.66113842
REMARK minimizedRMSD -1
REMARK  0 active torsions:
REMARK  status: ('A' for Active; 'I' for Inactive)
ROOT
ATOM      1  C   UNL d   1      -0.662   5.996  -4.497  0.00  0.00     0.020 A 
ATOM      2  C1  UNL d   1      -0.262   5.995  -3.162  0.00  0.00     0.020 A 
ATOM      3  C2  UNL d   1      -1.219   5.996  -2.145  0.00  0.00     0.034 A 
ATOM      4  C3  UNL d   1      -2.583   5.998  -2.463  0.00  0.00     0.017 A 
ATOM      5  C4  UNL d   1      -2.984   5.998  -3.804  0.00  0.00     0.017 A 
ATOM      6  C5  UNL d   1      -2.020   5.997  -4.817  0.00  0.00     0.034 A 
ATOM      7 Cl   UNL d   1      -4.647   6.000  -4.274  0.00  0.00    -0.070 Cl
ATOM      8 Cl1  UNL d   1      -3.712   5.998  -1.155  0.00  0.00    -0.070 Cl
ENDROOT
TORSDOF 0
ENDMDL
