MODEL 1
REMARK minimizedAffinity -1.37960064
REMARK minimizedRMSD -1
REMARK  0 active torsions:
REMARK  status: ('A' for Active; 'I' for Inactive)
ROOT
ATOM      1  C   UNL d   1      -0.313  -0.266   0.958  0.00  0.00     0.020 A 
ATOM      2  C1  UNL d   1       0.300   0.277   2.087  0.00  0.00     0.020 A 
ATOM      3  C2  UNL d   1       1.431   1.084   1.946  0.00  0.00     0.034 A 
ATOM      4  C3  UNL d   1       1.952   1.352   0.675  0.00  0.00     0.017 A 
ATOM      5  C4  UNL d   1       1.335   0.807  -0.457  0.00  0.00     0.017 A 
ATOM      6  C5  UNL d   1       0.203  -0.002  -0.311  0.00  0.00     0.034 A 
ATOM      7 Cl   UNL d   1       1.920   1.092  -2.058  0.00  0.00    -0.070 Cl
ATOM      8 Cl1  UNL d   1       3.352   2.359   0.576  0.00  0.00    -0.070 Cl
ENDROOT
TORSDOF 0
ENDMDL
