MODEL 1
REMARK minimizedAffinity 5.76783848
REMARK minimizedRMSD -1
REMARK  0 active torsions:
REMARK  status: ('A' for Active; 'I' for Inactive)
ROOT
ATOM      1  C   UNL d   1       4.012   5.983  -5.999  0.00  0.00     0.020 A 
ATOM      2  C1  UNL d   1       5.400   5.908  -5.893  0.00  0.00     0.020 A 
ATOM      3  C2  UNL d   1       5.991   4.837  -5.218  0.00  0.00     0.034 A 
ATOM      4  C3  UNL d   1       5.194   3.838  -4.648  0.00  0.00     0.017 A 
ATOM      5  C4  UNL d   1       3.801   3.915  -4.756  0.00  0.00     0.017 A 
ATOM      6  C5  UNL d   1       3.214   4.989  -5.432  0.00  0.00     0.034 A 
ATOM      7 Cl   UNL d   1       2.752   2.720  -4.079  0.00  0.00    -0.070 Cl
ATOM      8 Cl1  UNL d   1       5.993   2.543  -3.829  0.00  0.00    -0.070 Cl
ENDROOT
TORSDOF 0
ENDMDL
