MODEL 1
REMARK minimizedAffinity 10.9827566
REMARK minimizedRMSD -1
REMARK  0 active torsions:
REMARK  status: ('A' for Active; 'I' for Inactive)
ROOT
ATOM      1  C   UNL d   1      -2.143   5.980  -5.901  0.00  0.00     0.020 A 
ATOM      2  C1  UNL d   1      -2.760   5.980  -4.650  0.00  0.00     0.020 A 
ATOM      3  C2  UNL d   1      -1.985   5.986  -3.489  0.00  0.00     0.034 A 
ATOM      4  C3  UNL d   1      -0.588   5.991  -3.575  0.00  0.00     0.017 A 
ATOM      5  C4  UNL d   1       0.031   5.991  -4.831  0.00  0.00     0.017 A 
ATOM      6  C5  UNL d   1      -0.750   5.986  -5.990  0.00  0.00     0.034 A 
ATOM      7 Cl   UNL d   1       1.749   5.998  -5.017  0.00  0.00    -0.070 Cl
ATOM      8 Cl1  UNL d   1       0.308   5.998  -2.098  0.00  0.00    -0.070 Cl
ENDROOT
TORSDOF 0
ENDMDL
