MODEL 1
REMARK minimizedAffinity 0.647460759
REMARK minimizedRMSD -1
REMARK  0 active torsions:
REMARK  status: ('A' for Active; 'I' for Inactive)
ROOT
ATOM      1  C   UNL d   1       0.515   5.999  -6.000  0.00  0.00     0.020 A 
ATOM      2  C1  UNL d   1       1.246   6.000  -4.812  0.00  0.00     0.020 A 
ATOM      3  C2  UNL d   1       0.582   5.989  -3.584  0.00  0.00     0.034 A 
ATOM      4  C3  UNL d   1      -0.817   5.978  -3.539  0.00  0.00     0.017 A 
ATOM      5  C4  UNL d   1      -1.550   5.978  -4.731  0.00  0.00     0.017 A 
ATOM      6  C5  UNL d   1      -0.880   5.988  -5.959  0.00  0.00     0.034 A 
ATOM      7 Cl   UNL d   1      -3.278   5.964  -4.757  0.00  0.00    -0.070 Cl
ATOM      8 Cl1  UNL d   1      -1.571   5.964  -1.985  0.00  0.00    -0.070 Cl
ENDROOT
TORSDOF 0
ENDMDL
