MODEL 1
REMARK minimizedAffinity 4.60428238
REMARK minimizedRMSD -1
REMARK  0 active torsions:
REMARK  status: ('A' for Active; 'I' for Inactive)
ROOT
ATOM      1  C   UNL d   1       0.972   2.450  -1.129  0.00  0.00     0.020 A 
ATOM      2  C1  UNL d   1       1.343   2.743   0.182  0.00  0.00     0.020 A 
ATOM      3  C2  UNL d   1       0.810   2.004   1.240  0.00  0.00     0.034 A 
ATOM      4  C3  UNL d   1      -0.098   0.969   0.989  0.00  0.00     0.017 A 
ATOM      5  C4  UNL d   1      -0.469   0.676  -0.328  0.00  0.00     0.017 A 
ATOM      6  C5  UNL d   1       0.068   1.419  -1.384  0.00  0.00     0.034 A 
ATOM      7 Cl   UNL d   1      -1.584  -0.587  -0.718  0.00  0.00    -0.070 Cl
ATOM      8 Cl1  UNL d   1      -0.718   0.096   2.345  0.00  0.00    -0.070 Cl
ENDROOT
TORSDOF 0
ENDMDL
