MODEL 1
REMARK minimizedAffinity 3.46586609
REMARK minimizedRMSD -1
REMARK  0 active torsions:
REMARK  status: ('A' for Active; 'I' for Inactive)
ROOT
ATOM      1  C   UNL d   1       1.574   6.000  -5.925  0.00  0.00     0.020 A 
ATOM      2  C1  UNL d   1       2.373   6.000  -4.782  0.00  0.00     0.020 A 
ATOM      3  C2  UNL d   1       1.782   6.000  -3.517  0.00  0.00     0.034 A 
ATOM      4  C3  UNL d   1       0.388   6.000  -3.391  0.00  0.00     0.017 A 
ATOM      5  C4  UNL d   1      -0.413   6.000  -4.539  0.00  0.00     0.017 A 
ATOM      6  C5  UNL d   1       0.184   6.000  -5.803  0.00  0.00     0.034 A 
ATOM      7 Cl   UNL d   1      -2.140   6.000  -4.464  0.00  0.00    -0.070 Cl
ATOM      8 Cl1  UNL d   1      -0.275   6.000  -1.795  0.00  0.00    -0.070 Cl
ENDROOT
TORSDOF 0
ENDMDL
