MODEL 1
REMARK minimizedAffinity 1.05760682
REMARK minimizedRMSD -1
REMARK  0 active torsions:
REMARK  status: ('A' for Active; 'I' for Inactive)
ROOT
ATOM      1  C   UNL d   1       0.155   5.967  -3.198  0.00  0.00     0.020 A 
ATOM      2  C1  UNL d   1      -0.116   5.966  -4.566  0.00  0.00     0.020 A 
ATOM      3  C2  UNL d   1      -1.437   5.976  -5.017  0.00  0.00     0.034 A 
ATOM      4  C3  UNL d   1      -2.494   5.986  -4.099  0.00  0.00     0.017 A 
ATOM      5  C4  UNL d   1      -2.221   5.987  -2.726  0.00  0.00     0.017 A 
ATOM      6  C5  UNL d   1      -0.896   5.977  -2.280  0.00  0.00     0.034 A 
ATOM      7 Cl   UNL d   1      -3.472   6.000  -1.533  0.00  0.00    -0.070 Cl
ATOM      8 Cl1  UNL d   1      -4.104   5.998  -4.726  0.00  0.00    -0.070 Cl
ENDROOT
TORSDOF 0
ENDMDL
