MODEL 1
REMARK minimizedAffinity 6.08766508
REMARK minimizedRMSD -1
REMARK  0 active torsions:
REMARK  status: ('A' for Active; 'I' for Inactive)
ROOT
ATOM      1  C   UNL d   1      -0.258   0.112   0.730  0.00  0.00     0.020 A 
ATOM      2  C1  UNL d   1       0.544   0.263   1.861  0.00  0.00     0.020 A 
ATOM      3  C2  UNL d   1       1.730   0.997   1.782  0.00  0.00     0.034 A 
ATOM      4  C3  UNL d   1       2.117   1.582   0.571  0.00  0.00     0.017 A 
ATOM      5  C4  UNL d   1       1.311   1.429  -0.563  0.00  0.00     0.017 A 
ATOM      6  C5  UNL d   1       0.124   0.693  -0.479  0.00  0.00     0.034 A 
ATOM      7 Cl   UNL d   1       1.722   2.121  -2.093  0.00  0.00    -0.070 Cl
ATOM      8 Cl1  UNL d   1       3.595   2.475   0.546  0.00  0.00    -0.070 Cl
ENDROOT
TORSDOF 0
ENDMDL
