MODEL 1
REMARK minimizedAffinity 9.25562954
REMARK minimizedRMSD -1
REMARK  0 active torsions:
REMARK  status: ('A' for Active; 'I' for Inactive)
ROOT
ATOM      1  C   UNL d   1      -3.665   5.997  -4.101  0.00  0.00     0.020 A 
ATOM      2  C1  UNL d   1      -2.273   5.996  -4.176  0.00  0.00     0.020 A 
ATOM      3  C2  UNL d   1      -1.511   5.995  -3.006  0.00  0.00     0.034 A 
ATOM      4  C3  UNL d   1      -2.140   5.995  -1.756  0.00  0.00     0.017 A 
ATOM      5  C4  UNL d   1      -3.538   5.996  -1.681  0.00  0.00     0.017 A 
ATOM      6  C5  UNL d   1      -4.296   5.997  -2.856  0.00  0.00     0.034 A 
ATOM      7 Cl   UNL d   1      -4.386   5.996  -0.175  0.00  0.00    -0.070 Cl
ATOM      8 Cl1  UNL d   1      -1.135   5.992  -0.350  0.00  0.00    -0.070 Cl
ENDROOT
TORSDOF 0
ENDMDL
