MODEL 1
REMARK minimizedAffinity 3.29146934
REMARK minimizedRMSD -1
REMARK  0 active torsions:
REMARK  status: ('A' for Active; 'I' for Inactive)
ROOT
ATOM      1  C   UNL d   1       5.941   4.493  -4.262  0.00  0.00     0.020 A 
ATOM      2  C1  UNL d   1       5.896   4.257  -2.889  0.00  0.00     0.020 A 
ATOM      3  C2  UNL d   1       4.724   3.778  -2.300  0.00  0.00     0.034 A 
ATOM      4  C3  UNL d   1       3.591   3.535  -3.085  0.00  0.00     0.017 A 
ATOM      5  C4  UNL d   1       3.637   3.772  -4.464  0.00  0.00     0.017 A 
ATOM      6  C5  UNL d   1       4.814   4.251  -5.048  0.00  0.00     0.034 A 
ATOM      7 Cl   UNL d   1       2.280   3.496  -5.498  0.00  0.00    -0.070 Cl
ATOM      8 Cl1  UNL d   1       2.175   2.943  -2.291  0.00  0.00    -0.070 Cl
ENDROOT
TORSDOF 0
ENDMDL
