MODEL 1
REMARK minimizedAffinity 1.20997286
REMARK minimizedRMSD -1
REMARK  0 active torsions:
REMARK  status: ('A' for Active; 'I' for Inactive)
ROOT
ATOM      1  C   UNL d   1      -2.533  -2.118  -4.112  0.00  0.00     0.020 A 
ATOM      2  C1  UNL d   1      -3.060  -1.863  -2.846  0.00  0.00     0.020 A 
ATOM      3  C2  UNL d   1      -2.208  -1.551  -1.785  0.00  0.00     0.034 A 
ATOM      4  C3  UNL d   1      -0.824  -1.493  -1.987  0.00  0.00     0.017 A 
ATOM      5  C4  UNL d   1      -0.296  -1.749  -3.258  0.00  0.00     0.017 A 
ATOM      6  C5  UNL d   1      -1.154  -2.061  -4.317  0.00  0.00     0.034 A 
ATOM      7 Cl   UNL d   1       1.400  -1.696  -3.585  0.00  0.00    -0.070 Cl
ATOM      8 Cl1  UNL d   1       0.171  -1.101  -0.630  0.00  0.00    -0.070 Cl
ENDROOT
TORSDOF 0
ENDMDL
