MODEL 1
REMARK minimizedAffinity 2.47259688
REMARK minimizedRMSD -1
REMARK  0 active torsions:
REMARK  status: ('A' for Active; 'I' for Inactive)
ROOT
ATOM      1  C   UNL d   1      -2.623   6.000  -2.382  0.00  0.00     0.020 A 
ATOM      2  C1  UNL d   1      -1.541   6.000  -1.503  0.00  0.00     0.020 A 
ATOM      3  C2  UNL d   1      -0.237   5.999  -2.001  0.00  0.00     0.034 A 
ATOM      4  C3  UNL d   1      -0.011   5.999  -3.382  0.00  0.00     0.017 A 
ATOM      5  C4  UNL d   1      -1.097   5.999  -4.264  0.00  0.00     0.017 A 
ATOM      6  C5  UNL d   1      -2.402   5.999  -3.760  0.00  0.00     0.034 A 
ATOM      7 Cl   UNL d   1      -0.898   5.998  -5.981  0.00  0.00    -0.070 Cl
ATOM      8 Cl1  UNL d   1       1.629   5.998  -3.928  0.00  0.00    -0.070 Cl
ENDROOT
TORSDOF 0
ENDMDL
