MODEL 1
REMARK minimizedAffinity 8.3540802
REMARK minimizedRMSD -1
REMARK  1 active torsions:
REMARK  status: ('A' for Active; 'I' for Inactive)
REMARK    1  A    between atoms: C1_2  and  C2_3 
ROOT
ATOM      1  C2  UNL d   1       1.029  -0.580  -3.379  0.00  0.00    -0.081 A 
ATOM      2  C3  UNL d   1       1.138  -1.147  -2.103  0.00  0.00     0.006 A 
ATOM      3  C4  UNL d   1       0.117  -1.953  -1.596  0.00  0.00     0.002 A 
ATOM      4  C5  UNL d   1      -1.027  -2.213  -2.358  0.00  0.00    -0.080 A 
ATOM      5  C6  UNL d   1      -2.118  -3.101  -1.837  0.00  0.00     0.076 C 
ATOM      6  C7  UNL d   1      -1.145  -1.633  -3.625  0.00  0.00     0.002 A 
ATOM      7  C8  UNL d   1      -0.124  -0.826  -4.133  0.00  0.00     0.006 A 
ENDROOT
BRANCH   1   8
ATOM      8  C1  UNL d   1       2.157   0.237  -3.954  0.00  0.00     0.054 C 
ATOM      9  C   UNL d   1       3.508  -0.394  -3.650  0.00  0.00     0.018 C 
ENDBRANCH   1   8
TORSDOF 1
ENDMDL
