MODEL 1
REMARK minimizedAffinity 17.9428902
REMARK minimizedRMSD -1
REMARK  1 active torsions:
REMARK  status: ('A' for Active; 'I' for Inactive)
REMARK    1  A    between atoms: C1_2  and  C2_3 
ROOT
ATOM      1  C2  UNL d   1      -0.392  -0.746   1.988  0.00  0.00    -0.081 A 
ATOM      2  C3  UNL d   1       0.555  -1.752   2.218  0.00  0.00     0.006 A 
ATOM      3  C4  UNL d   1       1.732  -1.470   2.915  0.00  0.00     0.002 A 
ATOM      4  C5  UNL d   1       1.979  -0.182   3.400  0.00  0.00    -0.080 A 
ATOM      5  C6  UNL d   1       3.224   0.127   4.176  0.00  0.00     0.076 C 
ATOM      6  C7  UNL d   1       1.041   0.827   3.156  0.00  0.00     0.002 A 
ATOM      7  C8  UNL d   1      -0.136   0.547   2.458  0.00  0.00     0.006 A 
ENDROOT
BRANCH   1   8
ATOM      8  C1  UNL d   1      -1.692  -1.062   1.293  0.00  0.00     0.054 C 
ATOM      9  C   UNL d   1      -2.741   0.005   1.572  0.00  0.00     0.018 C 
ENDBRANCH   1   8
TORSDOF 1
ENDMDL
