MODEL 1
REMARK minimizedAffinity 11.2420826
REMARK minimizedRMSD -1
REMARK  1 active torsions:
REMARK  status: ('A' for Active; 'I' for Inactive)
REMARK    1  A    between atoms: C1_2  and  C2_3 
ROOT
ATOM      1  C2  UNL d   1      -0.795  -1.957  -4.505  0.00  0.00    -0.081 A 
ATOM      2  C3  UNL d   1      -1.313  -2.422  -3.290  0.00  0.00     0.006 A 
ATOM      3  C4  UNL d   1      -1.803  -3.725  -3.182  0.00  0.00     0.002 A 
ATOM      4  C5  UNL d   1      -1.776  -4.588  -4.283  0.00  0.00    -0.080 A 
ATOM      5  C6  UNL d   1      -2.271  -5.999  -4.172  0.00  0.00     0.076 C 
ATOM      6  C7  UNL d   1      -1.275  -4.118  -5.502  0.00  0.00     0.002 A 
ATOM      7  C8  UNL d   1      -0.785  -2.814  -5.611  0.00  0.00     0.006 A 
ENDROOT
BRANCH   1   8
ATOM      8  C1  UNL d   1      -0.206  -0.573  -4.608  0.00  0.00     0.054 C 
ATOM      9  C   UNL d   1       1.127  -0.483  -3.879  0.00  0.00     0.018 C 
ENDBRANCH   1   8
TORSDOF 1
ENDMDL
