MODEL 1
REMARK minimizedAffinity 18.6267796
REMARK minimizedRMSD -1
REMARK  1 active torsions:
REMARK  status: ('A' for Active; 'I' for Inactive)
REMARK    1  A    between atoms: C1_2  and  C2_3 
ROOT
ATOM      1  C2  UNL d   1      -1.484  -2.961  -5.162  0.00  0.00    -0.081 A 
ATOM      2  C3  UNL d   1      -0.886  -2.011  -6.000  0.00  0.00     0.006 A 
ATOM      3  C4  UNL d   1      -0.164  -0.945  -5.459  0.00  0.00     0.002 A 
ATOM      4  C5  UNL d   1      -0.022  -0.814  -4.074  0.00  0.00    -0.080 A 
ATOM      5  C6  UNL d   1       0.776   0.310  -3.481  0.00  0.00     0.076 C 
ATOM      6  C7  UNL d   1      -0.633  -1.752  -3.236  0.00  0.00     0.002 A 
ATOM      7  C8  UNL d   1      -1.356  -2.819  -3.776  0.00  0.00     0.006 A 
ENDROOT
BRANCH   1   8
ATOM      8  C1  UNL d   1      -2.208  -4.148  -5.744  0.00  0.00     0.054 C 
ATOM      9  C   UNL d   1      -1.767  -5.445  -5.080  0.00  0.00     0.018 C 
ENDBRANCH   1   8
TORSDOF 1
ENDMDL
