MODEL 1
REMARK minimizedAffinity 11.3835592
REMARK minimizedRMSD -1
REMARK  1 active torsions:
REMARK  status: ('A' for Active; 'I' for Inactive)
REMARK    1  A    between atoms: C1_2  and  C2_3 
ROOT
ATOM      1  C2  UNL d   1      -0.338  -2.191  -4.039  0.00  0.00    -0.081 A 
ATOM      2  C3  UNL d   1      -0.046  -2.649  -5.330  0.00  0.00     0.006 A 
ATOM      3  C4  UNL d   1      -0.828  -3.642  -5.923  0.00  0.00     0.002 A 
ATOM      4  C5  UNL d   1      -1.919  -4.189  -5.240  0.00  0.00    -0.080 A 
ATOM      5  C6  UNL d   1      -2.785  -5.235  -5.877  0.00  0.00     0.076 C 
ATOM      6  C7  UNL d   1      -2.201  -3.745  -3.943  0.00  0.00     0.002 A 
ATOM      7  C8  UNL d   1      -1.419  -2.752  -3.349  0.00  0.00     0.006 A 
ENDROOT
BRANCH   1   8
ATOM      8  C1  UNL d   1       0.464  -1.074  -3.422  0.00  0.00     0.054 C 
ATOM      9  C   UNL d   1       0.700   0.053  -4.417  0.00  0.00     0.018 C 
ENDBRANCH   1   8
TORSDOF 1
ENDMDL
