MODEL 1
REMARK minimizedAffinity 16.9795494
REMARK minimizedRMSD -1
REMARK  1 active torsions:
REMARK  status: ('A' for Active; 'I' for Inactive)
REMARK    1  A    between atoms: C1_2  and  C2_3 
ROOT
ATOM      1  C2  UNL d   1      -0.351  -2.973  -5.371  0.00  0.00    -0.081 A 
ATOM      2  C3  UNL d   1       1.027  -2.774  -5.220  0.00  0.00     0.006 A 
ATOM      3  C4  UNL d   1       1.512  -1.629  -4.584  0.00  0.00     0.002 A 
ATOM      4  C5  UNL d   1       0.628  -0.668  -4.082  0.00  0.00    -0.080 A 
ATOM      5  C6  UNL d   1       1.134   0.551  -3.370  0.00  0.00     0.076 C 
ATOM      6  C7  UNL d   1      -0.748  -0.858  -4.248  0.00  0.00     0.002 A 
ATOM      7  C8  UNL d   1      -1.234  -2.002  -4.885  0.00  0.00     0.006 A 
ENDROOT
BRANCH   1   8
ATOM      8  C1  UNL d   1      -0.879  -4.238  -5.999  0.00  0.00     0.054 C 
ATOM      9  C   UNL d   1      -2.400  -4.262  -6.000  0.00  0.00     0.018 C 
ENDBRANCH   1   8
TORSDOF 1
ENDMDL
