MODEL 1
REMARK minimizedAffinity 7.17764854
REMARK minimizedRMSD -1
REMARK  1 active torsions:
REMARK  status: ('A' for Active; 'I' for Inactive)
REMARK    1  A    between atoms: C1_2  and  C2_3 
ROOT
ATOM      1  C2  UNL d   1       0.709   0.186   2.954  0.00  0.00    -0.081 A 
ATOM      2  C3  UNL d   1       0.851  -1.128   2.494  0.00  0.00     0.006 A 
ATOM      3  C4  UNL d   1       1.366  -2.120   3.332  0.00  0.00     0.002 A 
ATOM      4  C5  UNL d   1       1.739  -1.817   4.645  0.00  0.00    -0.080 A 
ATOM      5  C6  UNL d   1       2.265  -2.879   5.565  0.00  0.00     0.076 C 
ATOM      6  C7  UNL d   1       1.613  -0.500   5.100  0.00  0.00     0.002 A 
ATOM      7  C8  UNL d   1       1.099   0.493   4.262  0.00  0.00     0.006 A 
ENDROOT
BRANCH   1   8
ATOM      8  C1  UNL d   1       0.093   1.244   2.074  0.00  0.00     0.054 C 
ATOM      9  C   UNL d   1      -0.914   2.087   2.844  0.00  0.00     0.018 C 
ENDBRANCH   1   8
TORSDOF 1
ENDMDL
