MODEL 1
REMARK minimizedAffinity 1.35489953
REMARK minimizedRMSD -1
REMARK  0 active torsions:
REMARK  status: ('A' for Active; 'I' for Inactive)
ROOT
ATOM      1  O1  BZF d   1       6.000   0.148   2.461  0.00  0.00    -0.204 OA
ATOM      2  C2  BZF d   1       5.320  -0.982   2.050  0.00  0.00     0.174 A 
ATOM      3  C3  BZF d   1       4.459  -0.688   1.055  0.00  0.00    -0.012 A 
ATOM      4  C3A BZF d   1       4.677   0.697   0.767  0.00  0.00    -0.107 A 
ATOM      5  C4  BZF d   1       4.132   1.564  -0.137  0.00  0.00     0.055 A 
ATOM      6  C5  BZF d   1       4.512   2.869  -0.111  0.00  0.00    -0.016 A 
ATOM      7  C6  BZF d   1       5.429   3.340   0.806  0.00  0.00     0.022 A 
ATOM      8  C7  BZF d   1       6.000   2.516   1.718  0.00  0.00     0.029 A 
ATOM      9  C7A BZF d   1       5.642   1.191   1.674  0.00  0.00     0.058 A 
ENDROOT
TORSDOF 0
ENDMDL
