MODEL 1
REMARK minimizedAffinity -0.436878979
REMARK minimizedRMSD -1
REMARK  0 active torsions:
REMARK  status: ('A' for Active; 'I' for Inactive)
ROOT
ATOM      1  O1  BZF d   1       4.456  -1.457   1.557  0.00  0.00    -0.204 OA
ATOM      2  C2  BZF d   1       5.234  -1.787   2.650  0.00  0.00     0.174 A 
ATOM      3  C3  BZF d   1       5.998  -0.742   3.027  0.00  0.00    -0.012 A 
ATOM      4  C3A BZF d   1       5.609   0.336   2.170  0.00  0.00    -0.107 A 
ATOM      5  C4  BZF d   1       5.999   1.641   2.067  0.00  0.00     0.055 A 
ATOM      6  C5  BZF d   1       5.477   2.410   1.076  0.00  0.00    -0.016 A 
ATOM      7  C6  BZF d   1       4.568   1.906   0.169  0.00  0.00     0.022 A 
ATOM      8  C7  BZF d   1       4.147   0.620   0.234  0.00  0.00     0.029 A 
ATOM      9  C7A BZF d   1       4.648  -0.151   1.255  0.00  0.00     0.058 A 
ENDROOT
TORSDOF 0
ENDMDL
