MODEL 1
REMARK minimizedAffinity -1.15741897
REMARK minimizedRMSD -1
REMARK  0 active torsions:
REMARK  status: ('A' for Active; 'I' for Inactive)
ROOT
ATOM      1  O1  BZF d   1      -2.228   2.959   4.194  0.00  0.00    -0.204 OA
ATOM      2  C2  BZF d   1      -1.707   2.196   3.167  0.00  0.00     0.174 A 
ATOM      3  C3  BZF d   1      -2.619   1.310   2.718  0.00  0.00    -0.012 A 
ATOM      4  C3A BZF d   1      -3.814   1.596   3.452  0.00  0.00    -0.107 A 
ATOM      5  C4  BZF d   1      -5.071   1.064   3.443  0.00  0.00     0.055 A 
ATOM      6  C5  BZF d   1      -5.989   1.521   4.335  0.00  0.00    -0.016 A 
ATOM      7  C6  BZF d   1      -5.681   2.503   5.253  0.00  0.00     0.022 A 
ATOM      8  C7  BZF d   1      -4.449   3.065   5.298  0.00  0.00     0.029 A 
ATOM      9  C7A BZF d   1      -3.530   2.629   4.375  0.00  0.00     0.058 A 
ENDROOT
TORSDOF 0
ENDMDL
