MODEL 1
REMARK minimizedAffinity 3.46899509
REMARK minimizedRMSD -1
REMARK  0 active torsions:
REMARK  status: ('A' for Active; 'I' for Inactive)
ROOT
ATOM      1  O1  BZF d   1       0.487  -4.225  -3.553  0.00  0.00    -0.204 OA
ATOM      2  C2  BZF d   1       1.810  -4.093  -3.175  0.00  0.00     0.174 A 
ATOM      3  C3  BZF d   1       1.938  -4.208  -1.838  0.00  0.00    -0.012 A 
ATOM      4  C3A BZF d   1       0.626  -4.517  -1.358  0.00  0.00    -0.107 A 
ATOM      5  C4  BZF d   1       0.114  -4.763  -0.117  0.00  0.00     0.055 A 
ATOM      6  C5  BZF d   1      -1.224  -4.959   0.019  0.00  0.00    -0.016 A 
ATOM      7  C6  BZF d   1      -2.078  -4.911  -1.063  0.00  0.00     0.022 A 
ATOM      8  C7  BZF d   1      -1.616  -4.675  -2.315  0.00  0.00     0.029 A 
ATOM      9  C7A BZF d   1      -0.260  -4.509  -2.460  0.00  0.00     0.058 A 
ENDROOT
TORSDOF 0
ENDMDL
