MODEL 1
REMARK minimizedAffinity 2.75037622
REMARK minimizedRMSD -1
REMARK  0 active torsions:
REMARK  status: ('A' for Active; 'I' for Inactive)
ROOT
ATOM      1  O1  BZF d   1      -4.460   3.311   5.024  0.00  0.00    -0.204 OA
ATOM      2  C2  BZF d   1      -5.663   2.849   5.522  0.00  0.00     0.174 A 
ATOM      3  C3  BZF d   1      -5.861   1.561   5.176  0.00  0.00    -0.012 A 
ATOM      4  C3A BZF d   1      -4.668   1.167   4.492  0.00  0.00    -0.107 A 
ATOM      5  C4  BZF d   1      -4.255  -0.003   3.922  0.00  0.00     0.055 A 
ATOM      6  C5  BZF d   1      -3.064  -0.036   3.269  0.00  0.00    -0.016 A 
ATOM      7  C6  BZF d   1      -2.263   1.083   3.164  0.00  0.00     0.022 A 
ATOM      8  C7  BZF d   1      -2.627   2.265   3.718  0.00  0.00     0.029 A 
ATOM      9  C7A BZF d   1      -3.816   2.292   4.406  0.00  0.00     0.058 A 
ENDROOT
TORSDOF 0
ENDMDL
