MODEL 1
REMARK minimizedAffinity 6.09121704
REMARK minimizedRMSD -1
REMARK  0 active torsions:
REMARK  status: ('A' for Active; 'I' for Inactive)
ROOT
ATOM      1  O1  BZF d   1      -5.344   0.931   5.287  0.00  0.00    -0.204 OA
ATOM      2  C2  BZF d   1      -5.397   2.219   5.785  0.00  0.00     0.174 A 
ATOM      3  C3  BZF d   1      -4.338   2.939   5.362  0.00  0.00    -0.012 A 
ATOM      4  C3A BZF d   1      -3.625   2.074   4.473  0.00  0.00    -0.107 A 
ATOM      5  C4  BZF d   1      -2.493   2.224   3.724  0.00  0.00     0.055 A 
ATOM      6  C5  BZF d   1      -2.021   1.161   3.021  0.00  0.00    -0.016 A 
ATOM      7  C6  BZF d   1      -2.652  -0.066   3.048  0.00  0.00     0.022 A 
ATOM      8  C7  BZF d   1      -3.781  -0.261   3.772  0.00  0.00     0.029 A 
ATOM      9  C7A BZF d   1      -4.279   0.820   4.458  0.00  0.00     0.058 A 
ENDROOT
TORSDOF 0
ENDMDL
