MODEL 1
REMARK minimizedAffinity 7.1967907
REMARK minimizedRMSD -1
REMARK  0 active torsions:
REMARK  status: ('A' for Active; 'I' for Inactive)
ROOT
ATOM      1  O1  BZF d   1       0.388  -3.877  -3.516  0.00  0.00    -0.204 OA
ATOM      2  C2  BZF d   1       1.681  -3.510  -3.199  0.00  0.00     0.174 A 
ATOM      3  C3  BZF d   1       1.858  -3.488  -1.862  0.00  0.00    -0.012 A 
ATOM      4  C3A BZF d   1       0.622  -3.954  -1.311  0.00  0.00    -0.107 A 
ATOM      5  C4  BZF d   1       0.185  -4.170  -0.036  0.00  0.00     0.055 A 
ATOM      6  C5  BZF d   1      -1.102  -4.559   0.164  0.00  0.00    -0.016 A 
ATOM      7  C6  BZF d   1      -1.978  -4.737  -0.886  0.00  0.00     0.022 A 
ATOM      8  C7  BZF d   1      -1.588  -4.541  -2.169  0.00  0.00     0.029 A 
ATOM      9  C7A BZF d   1      -0.280  -4.179  -2.377  0.00  0.00     0.058 A 
ENDROOT
TORSDOF 0
ENDMDL
