MODEL 1
REMARK minimizedAffinity 4.02297068
REMARK minimizedRMSD -1
REMARK  0 active torsions:
REMARK  status: ('A' for Active; 'I' for Inactive)
ROOT
ATOM      1  O1  BZF d   1       1.622  -4.184  -1.914  0.00  0.00    -0.204 OA
ATOM      2  C2  BZF d   1       1.869  -5.114  -2.906  0.00  0.00     0.174 A 
ATOM      3  C3  BZF d   1       0.857  -6.000  -2.994  0.00  0.00    -0.012 A 
ATOM      4  C3A BZF d   1      -0.124  -5.544  -2.057  0.00  0.00    -0.107 A 
ATOM      5  C4  BZF d   1      -1.361  -5.999  -1.697  0.00  0.00     0.055 A 
ATOM      6  C5  BZF d   1      -2.031  -5.368  -0.697  0.00  0.00    -0.016 A 
ATOM      7  C6  BZF d   1      -1.493  -4.284  -0.034  0.00  0.00     0.022 A 
ATOM      8  C7  BZF d   1      -0.272  -3.794  -0.359  0.00  0.00     0.029 A 
ATOM      9  C7A BZF d   1       0.393  -4.409  -1.391  0.00  0.00     0.058 A 
ENDROOT
TORSDOF 0
ENDMDL
