MODEL 1
REMARK minimizedAffinity 9.23824978
REMARK minimizedRMSD -1
REMARK  0 active torsions:
REMARK  status: ('A' for Active; 'I' for Inactive)
ROOT
ATOM      1  O1  BZF d   1      -4.153   3.319   5.153  0.00  0.00    -0.204 OA
ATOM      2  C2  BZF d   1      -5.225   2.837   5.878  0.00  0.00     0.174 A 
ATOM      3  C3  BZF d   1      -5.555   1.593   5.474  0.00  0.00    -0.012 A 
ATOM      4  C3A BZF d   1      -4.573   1.242   4.495  0.00  0.00    -0.107 A 
ATOM      5  C4  BZF d   1      -4.356   0.125   3.740  0.00  0.00     0.055 A 
ATOM      6  C5  BZF d   1      -3.352   0.130   2.825  0.00  0.00    -0.016 A 
ATOM      7  C6  BZF d   1      -2.549   1.236   2.634  0.00  0.00     0.022 A 
ATOM      8  C7  BZF d   1      -2.722   2.365   3.363  0.00  0.00     0.029 A 
ATOM      9  C7A BZF d   1      -3.715   2.351   4.312  0.00  0.00     0.058 A 
ENDROOT
TORSDOF 0
ENDMDL
