MODEL 1
REMARK minimizedAffinity 10.6398993
REMARK minimizedRMSD -1
REMARK  0 active torsions:
REMARK  status: ('A' for Active; 'I' for Inactive)
ROOT
ATOM      1  O1  BZF d   1      -4.365   1.036   2.964  0.00  0.00    -0.204 OA
ATOM      2  C2  BZF d   1      -2.993   0.872   2.992  0.00  0.00     0.174 A 
ATOM      3  C3  BZF d   1      -2.437   1.656   3.937  0.00  0.00    -0.012 A 
ATOM      4  C3A BZF d   1      -3.538   2.285   4.601  0.00  0.00    -0.107 A 
ATOM      5  C4  BZF d   1      -3.629   3.165   5.641  0.00  0.00     0.055 A 
ATOM      6  C5  BZF d   1      -4.850   3.641   5.998  0.00  0.00    -0.016 A 
ATOM      7  C6  BZF d   1      -5.999   3.264   5.335  0.00  0.00     0.022 A 
ATOM      8  C7  BZF d   1      -5.960   2.389   4.300  0.00  0.00     0.029 A 
ATOM      9  C7A BZF d   1      -4.731   1.881   3.958  0.00  0.00     0.058 A 
ENDROOT
TORSDOF 0
ENDMDL
