MODEL 1
REMARK minimizedAffinity 4.36594439
REMARK minimizedRMSD -1
REMARK  0 active torsions:
REMARK  status: ('A' for Active; 'I' for Inactive)
ROOT
ATOM      1  O1  BZF d   1      -0.714   2.929   3.121  0.00  0.00    -0.204 OA
ATOM      2  C2  BZF d   1       0.210   2.240   2.359  0.00  0.00     0.174 A 
ATOM      3  C3  BZF d   1      -0.252   1.014   2.041  0.00  0.00    -0.012 A 
ATOM      4  C3A BZF d   1      -1.583   0.965   2.564  0.00  0.00    -0.107 A 
ATOM      5  C4  BZF d   1      -2.561   0.013   2.554  0.00  0.00     0.055 A 
ATOM      6  C5  BZF d   1      -3.722   0.251   3.219  0.00  0.00    -0.016 A 
ATOM      7  C6  BZF d   1      -3.936   1.427   3.908  0.00  0.00     0.022 A 
ATOM      8  C7  BZF d   1      -2.996   2.403   3.943  0.00  0.00     0.029 A 
ATOM      9  C7A BZF d   1      -1.835   2.179   3.244  0.00  0.00     0.058 A 
ENDROOT
TORSDOF 0
ENDMDL
