MODEL 1
REMARK minimizedAffinity 0.244550705
REMARK minimizedRMSD -1
REMARK  0 active torsions:
REMARK  status: ('A' for Active; 'I' for Inactive)
ROOT
ATOM      1  O1  BZF d   1      -4.231   2.697   3.104  0.00  0.00    -0.204 OA
ATOM      2  C2  BZF d   1      -4.347   2.400   4.448  0.00  0.00     0.174 A 
ATOM      3  C3  BZF d   1      -3.173   1.959   4.944  0.00  0.00    -0.012 A 
ATOM      4  C3A BZF d   1      -2.243   2.069   3.863  0.00  0.00    -0.107 A 
ATOM      5  C4  BZF d   1      -0.910   1.798   3.739  0.00  0.00     0.055 A 
ATOM      6  C5  BZF d   1      -0.315   1.946   2.526  0.00  0.00    -0.016 A 
ATOM      7  C6  BZF d   1      -1.023   2.357   1.416  0.00  0.00     0.022 A 
ATOM      8  C7  BZF d   1      -2.346   2.642   1.490  0.00  0.00     0.029 A 
ATOM      9  C7A BZF d   1      -2.942   2.526   2.722  0.00  0.00     0.058 A 
ENDROOT
TORSDOF 0
ENDMDL
