MODEL 1
REMARK minimizedAffinity 2.35950541
REMARK minimizedRMSD -1
REMARK  0 active torsions:
REMARK  status: ('A' for Active; 'I' for Inactive)
ROOT
ATOM      1  O1  BZF d   1      -0.030  -3.308  -2.978  0.00  0.00    -0.204 OA
ATOM      2  C2  BZF d   1       0.842  -4.100  -2.255  0.00  0.00     0.174 A 
ATOM      3  C3  BZF d   1       0.242  -4.585  -1.149  0.00  0.00    -0.012 A 
ATOM      4  C3A BZF d   1      -1.115  -4.138  -1.229  0.00  0.00    -0.107 A 
ATOM      5  C4  BZF d   1      -2.209  -4.311  -0.431  0.00  0.00     0.055 A 
ATOM      6  C5  BZF d   1      -3.369  -3.681  -0.755  0.00  0.00    -0.016 A 
ATOM      7  C6  BZF d   1      -3.468  -2.868  -1.865  0.00  0.00     0.022 A 
ATOM      8  C7  BZF d   1      -2.411  -2.670  -2.690  0.00  0.00     0.029 A 
ATOM      9  C7A BZF d   1      -1.247  -3.332  -2.384  0.00  0.00     0.058 A 
ENDROOT
TORSDOF 0
ENDMDL
