MODEL 1
REMARK minimizedAffinity 10.9030075
REMARK minimizedRMSD -1
REMARK  0 active torsions:
REMARK  status: ('A' for Active; 'I' for Inactive)
ROOT
ATOM      1  O1  BZF d   1       2.531   5.355  -5.047  0.00  0.00    -0.204 OA
ATOM      2  C2  BZF d   1       3.547   5.497  -5.972  0.00  0.00     0.174 A 
ATOM      3  C3  BZF d   1       4.327   4.397  -6.000  0.00  0.00    -0.012 A 
ATOM      4  C3A BZF d   1       3.709   3.475  -5.096  0.00  0.00    -0.107 A 
ATOM      5  C4  BZF d   1       4.006   2.201  -4.706  0.00  0.00     0.055 A 
ATOM      6  C5  BZF d   1       3.242   1.607  -3.752  0.00  0.00    -0.016 A 
ATOM      7  C6  BZF d   1       2.178   2.259  -3.163  0.00  0.00     0.022 A 
ATOM      8  C7  BZF d   1       1.842   3.523  -3.521  0.00  0.00     0.029 A 
ATOM      9  C7A BZF d   1       2.592   4.113  -4.509  0.00  0.00     0.058 A 
ENDROOT
TORSDOF 0
ENDMDL
