MODEL 1
REMARK minimizedAffinity 9.23135471
REMARK minimizedRMSD -1
REMARK  0 active torsions:
REMARK  status: ('A' for Active; 'I' for Inactive)
ROOT
ATOM      1  O1  BZF d   1      -5.042  -1.545  -2.106  0.00  0.00    -0.204 OA
ATOM      2  C2  BZF d   1      -3.814  -1.100  -2.554  0.00  0.00     0.174 A 
ATOM      3  C3  BZF d   1      -3.001  -0.814  -1.516  0.00  0.00    -0.012 A 
ATOM      4  C3A BZF d   1      -3.738  -1.186  -0.347  0.00  0.00    -0.107 A 
ATOM      5  C4  BZF d   1      -3.457  -1.155   0.989  0.00  0.00     0.055 A 
ATOM      6  C5  BZF d   1      -4.421  -1.520   1.874  0.00  0.00    -0.016 A 
ATOM      7  C6  BZF d   1      -5.676  -1.916   1.460  0.00  0.00     0.022 A 
ATOM      8  C7  BZF d   1      -6.000  -1.967   0.145  0.00  0.00     0.029 A 
ATOM      9  C7A BZF d   1      -5.017  -1.630  -0.754  0.00  0.00     0.058 A 
ENDROOT
TORSDOF 0
ENDMDL
