MODEL 1
REMARK minimizedAffinity 15.0943995
REMARK minimizedRMSD -1
REMARK  0 active torsions:
REMARK  status: ('A' for Active; 'I' for Inactive)
ROOT
ATOM      1  O1  BZF d   1      -5.998   4.532   5.996  0.00  0.00    -0.204 OA
ATOM      2  C2  BZF d   1      -5.024   5.511   5.943  0.00  0.00     0.174 A 
ATOM      3  C3  BZF d   1      -3.819   4.971   5.667  0.00  0.00    -0.012 A 
ATOM      4  C3A BZF d   1      -4.071   3.580   5.450  0.00  0.00    -0.107 A 
ATOM      5  C4  BZF d   1      -3.272   2.521   5.123  0.00  0.00     0.055 A 
ATOM      6  C5  BZF d   1      -3.818   1.278   5.058  0.00  0.00    -0.016 A 
ATOM      7  C6  BZF d   1      -5.154   1.057   5.317  0.00  0.00     0.022 A 
ATOM      8  C7  BZF d   1      -5.987   2.076   5.639  0.00  0.00     0.029 A 
ATOM      9  C7A BZF d   1      -5.446   3.338   5.674  0.00  0.00     0.058 A 
ENDROOT
TORSDOF 0
ENDMDL
