MODEL 1
REMARK minimizedAffinity 5.3477931
REMARK minimizedRMSD -1
REMARK  0 active torsions:
REMARK  status: ('A' for Active; 'I' for Inactive)
ROOT
ATOM      1  O1  BZF d   1       2.986   5.455  -5.531  0.00  0.00    -0.204 OA
ATOM      2  C2  BZF d   1       4.276   5.612  -6.000  0.00  0.00     0.174 A 
ATOM      3  C3  BZF d   1       5.071   4.618  -5.556  0.00  0.00    -0.012 A 
ATOM      4  C3A BZF d   1       4.205   3.736  -4.836  0.00  0.00    -0.107 A 
ATOM      5  C4  BZF d   1       4.404   2.559  -4.173  0.00  0.00     0.055 A 
ATOM      6  C5  BZF d   1       3.362   1.989  -3.512  0.00  0.00    -0.016 A 
ATOM      7  C6  BZF d   1       2.111   2.570  -3.489  0.00  0.00     0.022 A 
ATOM      8  C7  BZF d   1       1.864   3.735  -4.135  0.00  0.00     0.029 A 
ATOM      9  C7A BZF d   1       2.907   4.297  -4.832  0.00  0.00     0.058 A 
ENDROOT
TORSDOF 0
ENDMDL
