MODEL 1
REMARK minimizedAffinity 12.0477123
REMARK minimizedRMSD -1
REMARK  0 active torsions:
REMARK  status: ('A' for Active; 'I' for Inactive)
ROOT
ATOM      1  O1  BZF d   1      -2.190   3.770   2.654  0.00  0.00    -0.204 OA
ATOM      2  C2  BZF d   1      -1.082   3.373   1.929  0.00  0.00     0.174 A 
ATOM      3  C3  BZF d   1      -0.970   2.029   1.925  0.00  0.00    -0.012 A 
ATOM      4  C3A BZF d   1      -2.128   1.552   2.617  0.00  0.00    -0.107 A 
ATOM      5  C4  BZF d   1      -2.591   0.305   2.925  0.00  0.00     0.055 A 
ATOM      6  C5  BZF d   1      -3.718   0.185   3.675  0.00  0.00    -0.016 A 
ATOM      7  C6  BZF d   1      -4.403   1.289   4.138  0.00  0.00     0.022 A 
ATOM      8  C7  BZF d   1      -3.985   2.547   3.854  0.00  0.00     0.029 A 
ATOM      9  C7A BZF d   1      -2.865   2.671   3.069  0.00  0.00     0.058 A 
ENDROOT
TORSDOF 0
ENDMDL
