MODEL 1
REMARK minimizedAffinity -5.16621923
REMARK minimizedRMSD -1
REMARK  0 active torsions:
REMARK  status: ('A' for Active; 'I' for Inactive)
ROOT
ATOM      1  C   UNL d   1       2.424  -0.168   3.341  0.00  0.00     0.078 C 
ATOM      2  C1  UNL d   1       1.029   0.162   2.901  0.00  0.00    -0.077 A 
ATOM      3  C2  UNL d   1      -0.055   0.026   3.777  0.00  0.00    -0.001 A 
ATOM      4  C3  UNL d   1      -1.349   0.327   3.350  0.00  0.00     0.003 A 
ATOM      5  C4  UNL d   1      -1.572   0.766   2.047  0.00  0.00    -0.005 A 
ATOM      6  C5  UNL d   1      -0.500   0.903   1.167  0.00  0.00     0.003 A 
ATOM      7  C6  UNL d   1       0.795   0.602   1.592  0.00  0.00    -0.001 A 
ENDROOT
TORSDOF 0
ENDMDL
