MODEL 1
REMARK minimizedAffinity -5.41054916
REMARK minimizedRMSD -1
REMARK  0 active torsions:
REMARK  status: ('A' for Active; 'I' for Inactive)
ROOT
ATOM      1  C   UNL d   1       0.322  -0.501  -1.240  0.00  0.00     0.078 C 
ATOM      2  C1  UNL d   1      -0.089   0.042   0.097  0.00  0.00    -0.077 A 
ATOM      3  C2  UNL d   1      -1.440   0.183   0.433  0.00  0.00    -0.001 A 
ATOM      4  C3  UNL d   1      -1.808   0.699   1.677  0.00  0.00     0.003 A 
ATOM      5  C4  UNL d   1      -0.829   1.078   2.594  0.00  0.00    -0.005 A 
ATOM      6  C5  UNL d   1       0.518   0.943   2.267  0.00  0.00     0.003 A 
ATOM      7  C6  UNL d   1       0.888   0.428   1.024  0.00  0.00    -0.001 A 
ENDROOT
TORSDOF 0
ENDMDL
