MODEL 1
REMARK minimizedAffinity -4.29454041
REMARK minimizedRMSD -1
REMARK  0 active torsions:
REMARK  status: ('A' for Active; 'I' for Inactive)
ROOT
ATOM      1  C   UNL d   1       0.304  -0.818  -2.055  0.00  0.00     0.078 C 
ATOM      2  C1  UNL d   1       0.702  -0.541  -0.636  0.00  0.00    -0.077 A 
ATOM      3  C2  UNL d   1      -0.095   0.258   0.193  0.00  0.00    -0.001 A 
ATOM      4  C3  UNL d   1       0.292   0.516   1.509  0.00  0.00     0.003 A 
ATOM      5  C4  UNL d   1       1.478  -0.021   2.008  0.00  0.00    -0.005 A 
ATOM      6  C5  UNL d   1       2.278  -0.815   1.189  0.00  0.00     0.003 A 
ATOM      7  C6  UNL d   1       1.893  -1.074  -0.127  0.00  0.00    -0.001 A 
ENDROOT
TORSDOF 0
ENDMDL
