MODEL 1
REMARK minimizedAffinity -3.05312037
REMARK minimizedRMSD -1
REMARK  0 active torsions:
REMARK  status: ('A' for Active; 'I' for Inactive)
ROOT
ATOM      1  C   UNL d   1       0.709  -0.401  -1.685  0.00  0.00     0.078 C 
ATOM      2  C1  UNL d   1      -0.032  -0.028  -0.436  0.00  0.00    -0.077 A 
ATOM      3  C2  UNL d   1       0.607   0.659   0.604  0.00  0.00    -0.001 A 
ATOM      4  C3  UNL d   1      -0.093   0.991   1.765  0.00  0.00     0.003 A 
ATOM      5  C4  UNL d   1      -1.435   0.641   1.898  0.00  0.00    -0.005 A 
ATOM      6  C5  UNL d   1      -2.079  -0.044   0.870  0.00  0.00     0.003 A 
ATOM      7  C6  UNL d   1      -1.381  -0.378  -0.292  0.00  0.00    -0.001 A 
ENDROOT
TORSDOF 0
ENDMDL
