MODEL 1
REMARK minimizedAffinity -5.43575001
REMARK minimizedRMSD -1
REMARK  0 active torsions:
REMARK  status: ('A' for Active; 'I' for Inactive)
ROOT
ATOM      1  C   UNL d   1       0.379  -1.098  -0.763  0.00  0.00     0.078 C 
ATOM      2  C1  UNL d   1       0.029  -0.427   0.531  0.00  0.00    -0.077 A 
ATOM      3  C2  UNL d   1      -1.248   0.108   0.744  0.00  0.00    -0.001 A 
ATOM      4  C3  UNL d   1      -1.557   0.739   1.950  0.00  0.00     0.003 A 
ATOM      5  C4  UNL d   1      -0.594   0.841   2.953  0.00  0.00    -0.005 A 
ATOM      6  C5  UNL d   1       0.680   0.314   2.749  0.00  0.00     0.003 A 
ATOM      7  C6  UNL d   1       0.990  -0.317   1.543  0.00  0.00    -0.001 A 
ENDROOT
TORSDOF 0
ENDMDL
