MODEL 1
REMARK minimizedAffinity -4.47522783
REMARK minimizedRMSD -1
REMARK  0 active torsions:
REMARK  status: ('A' for Active; 'I' for Inactive)
ROOT
ATOM      1  C   UNL d   1      -0.670   1.361   3.203  0.00  0.00     0.078 C 
ATOM      2  C1  UNL d   1      -0.457   0.621   1.916  0.00  0.00    -0.077 A 
ATOM      3  C2  UNL d   1       0.816   0.171   1.544  0.00  0.00    -0.001 A 
ATOM      4  C3  UNL d   1       1.001  -0.507   0.339  0.00  0.00     0.003 A 
ATOM      5  C4  UNL d   1      -0.082  -0.742  -0.505  0.00  0.00    -0.005 A 
ATOM      6  C5  UNL d   1      -1.352  -0.296  -0.146  0.00  0.00     0.003 A 
ATOM      7  C6  UNL d   1      -1.539   0.383   1.060  0.00  0.00    -0.001 A 
ENDROOT
TORSDOF 0
ENDMDL
