MODEL 1
REMARK minimizedAffinity -3.07616138
REMARK minimizedRMSD -1
REMARK  0 active torsions:
REMARK  status: ('A' for Active; 'I' for Inactive)
ROOT
ATOM      1  C   UNL d   1      -0.935   1.655   2.605  0.00  0.00     0.078 C 
ATOM      2  C1  UNL d   1      -0.505   0.880   1.394  0.00  0.00    -0.077 A 
ATOM      3  C2  UNL d   1       0.850   0.657   1.125  0.00  0.00    -0.001 A 
ATOM      4  C3  UNL d   1       1.236  -0.057  -0.011  0.00  0.00     0.003 A 
ATOM      5  C4  UNL d   1       0.272  -0.553  -0.886  0.00  0.00    -0.005 A 
ATOM      6  C5  UNL d   1      -1.080  -0.334  -0.627  0.00  0.00     0.003 A 
ATOM      7  C6  UNL d   1      -1.467   0.380   0.508  0.00  0.00    -0.001 A 
ENDROOT
TORSDOF 0
ENDMDL
