MODEL 1
REMARK minimizedAffinity -4.77851009
REMARK minimizedRMSD -1
REMARK  0 active torsions:
REMARK  status: ('A' for Active; 'I' for Inactive)
ROOT
ATOM      1  C   UNL d   1      -0.877   1.522   2.681  0.00  0.00     0.078 C 
ATOM      2  C1  UNL d   1      -0.568   0.629   1.518  0.00  0.00    -0.077 A 
ATOM      3  C2  UNL d   1       0.754   0.320   1.177  0.00  0.00    -0.001 A 
ATOM      4  C3  UNL d   1       1.028  -0.506   0.085  0.00  0.00     0.003 A 
ATOM      5  C4  UNL d   1      -0.016  -1.028  -0.676  0.00  0.00    -0.005 A 
ATOM      6  C5  UNL d   1      -1.335  -0.724  -0.346  0.00  0.00     0.003 A 
ATOM      7  C6  UNL d   1      -1.611   0.101   0.745  0.00  0.00    -0.001 A 
ENDROOT
TORSDOF 0
ENDMDL
