MODEL 1
REMARK minimizedAffinity 10.0887346
REMARK minimizedRMSD -1
REMARK  0 active torsions:
REMARK  status: ('A' for Active; 'I' for Inactive)
ROOT
ATOM      1  C1  DEN d   1       0.821   1.086   3.267  0.00  0.00     0.130 A 
ATOM      2  C2  DEN d   1       0.226   0.129   2.338  0.00  0.00    -0.031 A 
ATOM      3  C3  DEN d   1       0.759  -1.210   2.657  0.00  0.00     0.027 A 
ATOM      4  C4  DEN d   1       2.435  -1.893   4.495  0.00  0.00     0.027 A 
ATOM      5  C5  DEN d   1       3.225  -1.428   5.524  0.00  0.00    -0.003 A 
ATOM      6  C6  DEN d   1       3.294  -0.099   5.847  0.00  0.00     0.001 A 
ATOM      7  C7  DEN d   1       2.525   0.807   5.165  0.00  0.00     0.017 A 
ATOM      8  C8  DEN d   1       1.733   0.346   4.122  0.00  0.00    -0.094 A 
ATOM      9  C9  DEN d   1       1.667  -1.003   3.818  0.00  0.00    -0.072 A 
ENDROOT
TORSDOF 0
ENDMDL
