MODEL 1
REMARK minimizedAffinity 7.59915781
REMARK minimizedRMSD -1
REMARK  0 active torsions:
REMARK  status: ('A' for Active; 'I' for Inactive)
ROOT
ATOM      1  C1  DEN d   1       2.037  -2.247   4.618  0.00  0.00     0.130 A 
ATOM      2  C2  DEN d   1       1.115  -3.331   4.947  0.00  0.00    -0.031 A 
ATOM      3  C3  DEN d   1      -0.181  -3.039   4.302  0.00  0.00     0.027 A 
ATOM      4  C4  DEN d   1      -0.845  -1.028   2.830  0.00  0.00     0.027 A 
ATOM      5  C5  DEN d   1      -0.403   0.155   2.280  0.00  0.00    -0.003 A 
ATOM      6  C6  DEN d   1       0.861   0.634   2.498  0.00  0.00     0.001 A 
ATOM      7  C7  DEN d   1       1.744  -0.097   3.248  0.00  0.00     0.017 A 
ATOM      8  C8  DEN d   1       1.304  -1.287   3.811  0.00  0.00    -0.094 A 
ATOM      9  C9  DEN d   1       0.025  -1.761   3.570  0.00  0.00    -0.072 A 
ENDROOT
TORSDOF 0
ENDMDL
