MODEL 1
REMARK minimizedAffinity 6.94570112
REMARK minimizedRMSD -1
REMARK  0 active torsions:
REMARK  status: ('A' for Active; 'I' for Inactive)
ROOT
ATOM      1  C1  DEN d   1      -0.957  -1.139  -1.848  0.00  0.00     0.130 A 
ATOM      2  C2  DEN d   1      -1.541  -2.474  -1.949  0.00  0.00    -0.031 A 
ATOM      3  C3  DEN d   1      -1.076  -3.081  -3.212  0.00  0.00     0.027 A 
ATOM      4  C4  DEN d   1       0.486  -2.090  -5.010  0.00  0.00     0.027 A 
ATOM      5  C5  DEN d   1       1.223  -0.983  -5.371  0.00  0.00    -0.003 A 
ATOM      6  C6  DEN d   1       1.257   0.152  -4.606  0.00  0.00     0.001 A 
ATOM      7  C7  DEN d   1       0.577   0.190  -3.417  0.00  0.00     0.017 A 
ATOM      8  C8  DEN d   1      -0.174  -0.919  -3.050  0.00  0.00    -0.094 A 
ATOM      9  C9  DEN d   1      -0.186  -2.062  -3.831  0.00  0.00    -0.072 A 
ENDROOT
TORSDOF 0
ENDMDL
