MODEL 1
REMARK minimizedAffinity 13.9071283
REMARK minimizedRMSD -1
REMARK  0 active torsions:
REMARK  status: ('A' for Active; 'I' for Inactive)
ROOT
ATOM      1  C1  DEN d   1      -1.477  -2.527  -2.113  0.00  0.00     0.130 A 
ATOM      2  C2  DEN d   1      -2.250  -3.513  -2.864  0.00  0.00    -0.031 A 
ATOM      3  C3  DEN d   1      -1.834  -3.436  -4.279  0.00  0.00     0.027 A 
ATOM      4  C4  DEN d   1      -0.076  -1.899  -5.373  0.00  0.00     0.027 A 
ATOM      5  C5  DEN d   1       0.831  -0.888  -5.142  0.00  0.00    -0.003 A 
ATOM      6  C6  DEN d   1       1.006  -0.334  -3.902  0.00  0.00     0.001 A 
ATOM      7  C7  DEN d   1       0.296  -0.819  -2.835  0.00  0.00     0.017 A 
ATOM      8  C8  DEN d   1      -0.626  -1.833  -3.062  0.00  0.00    -0.094 A 
ATOM      9  C9  DEN d   1      -0.780  -2.388  -4.321  0.00  0.00    -0.072 A 
ENDROOT
TORSDOF 0
ENDMDL
