MODEL 1
REMARK minimizedAffinity -3.33582759
REMARK minimizedRMSD -1
REMARK  0 active torsions:
REMARK  status: ('A' for Active; 'I' for Inactive)
ROOT
ATOM      1  C   UNL d   1       0.635   3.102   1.625  0.00  0.00     0.078 C 
ATOM      2  C1  UNL d   1       0.249   1.811   0.966  0.00  0.00    -0.077 A 
ATOM      3  C2  UNL d   1      -0.871   1.089   1.397  0.00  0.00    -0.001 A 
ATOM      4  C3  UNL d   1      -1.213  -0.116   0.781  0.00  0.00     0.003 A 
ATOM      5  C4  UNL d   1      -0.440  -0.610  -0.268  0.00  0.00    -0.005 A 
ATOM      6  C5  UNL d   1       0.677   0.101  -0.702  0.00  0.00     0.003 A 
ATOM      7  C6  UNL d   1       1.021   1.306  -0.087  0.00  0.00    -0.001 A 
ENDROOT
TORSDOF 0
ENDMDL
