MODEL 1
REMARK minimizedAffinity -5.39223719
REMARK minimizedRMSD -1
REMARK  0 active torsions:
REMARK  status: ('A' for Active; 'I' for Inactive)
ROOT
ATOM      1  C   UNL d   1      -0.462  -1.068  -0.702  0.00  0.00     0.078 C 
ATOM      2  C1  UNL d   1      -0.019   0.142   0.066  0.00  0.00    -0.077 A 
ATOM      3  C2  UNL d   1      -0.731   0.583   1.188  0.00  0.00    -0.001 A 
ATOM      4  C3  UNL d   1      -0.313   1.716   1.888  0.00  0.00     0.003 A 
ATOM      5  C4  UNL d   1       0.817   2.418   1.472  0.00  0.00    -0.005 A 
ATOM      6  C5  UNL d   1       1.530   1.988   0.355  0.00  0.00     0.003 A 
ATOM      7  C6  UNL d   1       1.114   0.855  -0.346  0.00  0.00    -0.001 A 
ENDROOT
TORSDOF 0
ENDMDL
