MODEL 1
REMARK minimizedAffinity -4.73001814
REMARK minimizedRMSD -1
REMARK  0 active torsions:
REMARK  status: ('A' for Active; 'I' for Inactive)
ROOT
ATOM      1  C   UNL d   1      -0.387  -1.192  -0.586  0.00  0.00     0.078 C 
ATOM      2  C1  UNL d   1       0.146   0.036   0.090  0.00  0.00    -0.077 A 
ATOM      3  C2  UNL d   1       1.255   0.718  -0.424  0.00  0.00    -0.001 A 
ATOM      4  C3  UNL d   1       1.746   1.855   0.221  0.00  0.00     0.003 A 
ATOM      5  C4  UNL d   1       1.134   2.319   1.384  0.00  0.00    -0.005 A 
ATOM      6  C5  UNL d   1       0.031   1.645   1.904  0.00  0.00     0.003 A 
ATOM      7  C6  UNL d   1      -0.462   0.508   1.261  0.00  0.00    -0.001 A 
ENDROOT
TORSDOF 0
ENDMDL
