MODEL 1
REMARK minimizedAffinity -2.45878267
REMARK minimizedRMSD -1
REMARK  0 active torsions:
REMARK  status: ('A' for Active; 'I' for Inactive)
ROOT
ATOM      1  C   UNL d   1      -0.163  -0.515   0.137  0.00  0.00     0.078 C 
ATOM      2  C1  UNL d   1      -0.795  -0.762  -1.200  0.00  0.00    -0.077 A 
ATOM      3  C2  UNL d   1      -0.057  -0.632  -2.383  0.00  0.00    -0.001 A 
ATOM      4  C3  UNL d   1      -0.661  -0.855  -3.621  0.00  0.00     0.003 A 
ATOM      5  C4  UNL d   1      -2.007  -1.209  -3.689  0.00  0.00    -0.005 A 
ATOM      6  C5  UNL d   1      -2.751  -1.339  -2.517  0.00  0.00     0.003 A 
ATOM      7  C6  UNL d   1      -2.148  -1.116  -1.278  0.00  0.00    -0.001 A 
ENDROOT
TORSDOF 0
ENDMDL
