MODEL 1
REMARK minimizedAffinity -3.1261375
REMARK minimizedRMSD -1
REMARK  0 active torsions:
REMARK  status: ('A' for Active; 'I' for Inactive)
ROOT
ATOM      1  C   UNL d   1      -0.158  -1.489  -0.660  0.00  0.00     0.078 C 
ATOM      2  C1  UNL d   1      -0.023  -0.323   0.274  0.00  0.00    -0.077 A 
ATOM      3  C2  UNL d   1      -0.350  -0.443   1.630  0.00  0.00    -0.001 A 
ATOM      4  C3  UNL d   1      -0.228   0.653   2.485  0.00  0.00     0.003 A 
ATOM      5  C4  UNL d   1       0.221   1.878   1.994  0.00  0.00    -0.005 A 
ATOM      6  C5  UNL d   1       0.547   2.007   0.646  0.00  0.00     0.003 A 
ATOM      7  C6  UNL d   1       0.426   0.912  -0.211  0.00  0.00    -0.001 A 
ENDROOT
TORSDOF 0
ENDMDL
