MODEL 1
REMARK minimizedAffinity -5.52696753
REMARK minimizedRMSD -1
REMARK  0 active torsions:
REMARK  status: ('A' for Active; 'I' for Inactive)
ROOT
ATOM      1  C   UNL d   1      -0.076  -1.119  -0.643  0.00  0.00     0.078 C 
ATOM      2  C1  UNL d   1       0.063   0.197   0.062  0.00  0.00    -0.077 A 
ATOM      3  C2  UNL d   1      -0.675   0.477   1.218  0.00  0.00    -0.001 A 
ATOM      4  C3  UNL d   1      -0.542   1.710   1.859  0.00  0.00     0.003 A 
ATOM      5  C4  UNL d   1       0.327   2.673   1.350  0.00  0.00    -0.005 A 
ATOM      6  C5  UNL d   1       1.064   2.404   0.199  0.00  0.00     0.003 A 
ATOM      7  C6  UNL d   1       0.933   1.172  -0.443  0.00  0.00    -0.001 A 
ENDROOT
TORSDOF 0
ENDMDL
