MODEL 1
REMARK minimizedAffinity -2.50788188
REMARK minimizedRMSD -1
REMARK  0 active torsions:
REMARK  status: ('A' for Active; 'I' for Inactive)
ROOT
ATOM      1  C   UNL d   1      -0.648  -0.621  -0.925  0.00  0.00     0.078 C 
ATOM      2  C1  UNL d   1      -0.232   0.093   0.326  0.00  0.00    -0.077 A 
ATOM      3  C2  UNL d   1      -0.712  -0.308   1.579  0.00  0.00    -0.001 A 
ATOM      4  C3  UNL d   1      -0.324   0.372   2.734  0.00  0.00     0.003 A 
ATOM      5  C4  UNL d   1       0.546   1.458   2.648  0.00  0.00    -0.005 A 
ATOM      6  C5  UNL d   1       1.028   1.865   1.406  0.00  0.00     0.003 A 
ATOM      7  C6  UNL d   1       0.640   1.186   0.249  0.00  0.00    -0.001 A 
ENDROOT
TORSDOF 0
ENDMDL
