MODEL 1
REMARK minimizedAffinity -3.2513721
REMARK minimizedRMSD -1
REMARK  0 active torsions:
REMARK  status: ('A' for Active; 'I' for Inactive)
ROOT
ATOM      1  C   UNL d   1       0.973   2.063   1.417  0.00  0.00     0.078 C 
ATOM      2  C1  UNL d   1       0.715   0.899   0.507  0.00  0.00    -0.077 A 
ATOM      3  C2  UNL d   1      -0.546   0.294   0.449  0.00  0.00    -0.001 A 
ATOM      4  C3  UNL d   1      -0.769  -0.794  -0.396  0.00  0.00     0.003 A 
ATOM      5  C4  UNL d   1       0.265  -1.289  -1.188  0.00  0.00    -0.005 A 
ATOM      6  C5  UNL d   1       1.525  -0.695  -1.135  0.00  0.00     0.003 A 
ATOM      7  C6  UNL d   1       1.749   0.394  -0.291  0.00  0.00    -0.001 A 
ENDROOT
TORSDOF 0
ENDMDL
