MODEL 1
REMARK minimizedAffinity -5.37090397
REMARK minimizedRMSD -1
REMARK  0 active torsions:
REMARK  status: ('A' for Active; 'I' for Inactive)
ROOT
ATOM      1  C   UNL d   1       1.027   1.873   2.445  0.00  0.00     0.078 C 
ATOM      2  C1  UNL d   1       0.338   1.133   1.337  0.00  0.00    -0.077 A 
ATOM      3  C2  UNL d   1       1.026   0.193   0.560  0.00  0.00    -0.001 A 
ATOM      4  C3  UNL d   1       0.374  -0.481  -0.473  0.00  0.00     0.003 A 
ATOM      5  C4  UNL d   1      -0.968  -0.222  -0.741  0.00  0.00    -0.005 A 
ATOM      6  C5  UNL d   1      -1.661   0.712   0.026  0.00  0.00     0.003 A 
ATOM      7  C6  UNL d   1      -1.011   1.388   1.060  0.00  0.00    -0.001 A 
ENDROOT
TORSDOF 0
ENDMDL
