MODEL 1
REMARK minimizedAffinity -4.37239075
REMARK minimizedRMSD -1
REMARK  0 active torsions:
REMARK  status: ('A' for Active; 'I' for Inactive)
ROOT
ATOM      1  C   UNL d   1      -0.675  -0.441  -0.530  0.00  0.00     0.078 C 
ATOM      2  C1  UNL d   1       0.279   0.458   0.198  0.00  0.00    -0.077 A 
ATOM      3  C2  UNL d   1       0.148   0.686   1.574  0.00  0.00    -0.001 A 
ATOM      4  C3  UNL d   1       1.038   1.533   2.236  0.00  0.00     0.003 A 
ATOM      5  C4  UNL d   1       2.064   2.160   1.532  0.00  0.00    -0.005 A 
ATOM      6  C5  UNL d   1       2.201   1.940   0.162  0.00  0.00     0.003 A 
ATOM      7  C6  UNL d   1       1.312   1.094  -0.502  0.00  0.00    -0.001 A 
ENDROOT
TORSDOF 0
ENDMDL
