MODEL 1
REMARK minimizedAffinity -1.75609243
REMARK minimizedRMSD -1
REMARK  0 active torsions:
REMARK  status: ('A' for Active; 'I' for Inactive)
ROOT
ATOM      1  C   UNL d   1       0.905   2.016   1.934  0.00  0.00     0.078 C 
ATOM      2  C1  UNL d   1       0.608   0.897   0.981  0.00  0.00    -0.077 A 
ATOM      3  C2  UNL d   1       1.599   0.390   0.132  0.00  0.00    -0.001 A 
ATOM      4  C3  UNL d   1       1.305  -0.646  -0.757  0.00  0.00     0.003 A 
ATOM      5  C4  UNL d   1       0.020  -1.182  -0.805  0.00  0.00    -0.005 A 
ATOM      6  C5  UNL d   1      -0.974  -0.683   0.034  0.00  0.00     0.003 A 
ATOM      7  C6  UNL d   1      -0.682   0.353   0.923  0.00  0.00    -0.001 A 
ENDROOT
TORSDOF 0
ENDMDL
