MODEL 1
REMARK minimizedAffinity -3.92670536
REMARK minimizedRMSD -1
REMARK  0 active torsions:
REMARK  status: ('A' for Active; 'I' for Inactive)
ROOT
ATOM      1  C   UNL d   1      -0.349  -0.836  -0.768  0.00  0.00     0.078 C 
ATOM      2  C1  UNL d   1      -0.014   0.340   0.099  0.00  0.00    -0.077 A 
ATOM      3  C2  UNL d   1       1.187   1.042  -0.069  0.00  0.00    -0.001 A 
ATOM      4  C3  UNL d   1       1.491   2.129   0.752  0.00  0.00     0.003 A 
ATOM      5  C4  UNL d   1       0.600   2.523   1.749  0.00  0.00    -0.005 A 
ATOM      6  C5  UNL d   1      -0.596   1.830   1.925  0.00  0.00     0.003 A 
ATOM      7  C6  UNL d   1      -0.901   0.743   1.105  0.00  0.00    -0.001 A 
ENDROOT
TORSDOF 0
ENDMDL
