MODEL 1
REMARK minimizedAffinity -3.29211831
REMARK minimizedRMSD -1
REMARK  0 active torsions:
REMARK  status: ('A' for Active; 'I' for Inactive)
ROOT
ATOM      1  C   UNL d   1       0.775   2.796   1.583  0.00  0.00     0.078 C 
ATOM      2  C1  UNL d   1       0.400   1.507   0.914  0.00  0.00    -0.077 A 
ATOM      3  C2  UNL d   1      -0.767   0.821   1.272  0.00  0.00    -0.001 A 
ATOM      4  C3  UNL d   1      -1.098  -0.383   0.648  0.00  0.00     0.003 A 
ATOM      5  C4  UNL d   1      -0.267  -0.911  -0.338  0.00  0.00    -0.005 A 
ATOM      6  C5  UNL d   1       0.898  -0.237  -0.700  0.00  0.00     0.003 A 
ATOM      7  C6  UNL d   1       1.231   0.967  -0.076  0.00  0.00    -0.001 A 
ENDROOT
TORSDOF 0
ENDMDL
