MODEL 1
REMARK minimizedAffinity -5.43376017
REMARK minimizedRMSD -1
REMARK  0 active torsions:
REMARK  status: ('A' for Active; 'I' for Inactive)
ROOT
ATOM      1  C   UNL d   1      -0.849  -0.784  -0.748  0.00  0.00     0.078 C 
ATOM      2  C1  UNL d   1      -0.035   0.249  -0.028  0.00  0.00    -0.077 A 
ATOM      3  C2  UNL d   1      -0.601   1.036   0.984  0.00  0.00    -0.001 A 
ATOM      4  C3  UNL d   1       0.166   2.001   1.639  0.00  0.00     0.003 A 
ATOM      5  C4  UNL d   1       1.502   2.189   1.290  0.00  0.00    -0.005 A 
ATOM      6  C5  UNL d   1       2.072   1.412   0.283  0.00  0.00     0.003 A 
ATOM      7  C6  UNL d   1       1.307   0.447  -0.373  0.00  0.00    -0.001 A 
ENDROOT
TORSDOF 0
ENDMDL
