MODEL 1
REMARK minimizedAffinity -2.22141027
REMARK minimizedRMSD -1
REMARK  0 active torsions:
REMARK  status: ('A' for Active; 'I' for Inactive)
ROOT
ATOM      1  C   UNL d   1       0.222  -1.259  -0.684  0.00  0.00     0.078 C 
ATOM      2  C1  UNL d   1       0.500   0.060  -0.028  0.00  0.00    -0.077 A 
ATOM      3  C2  UNL d   1      -0.162   0.436   1.147  0.00  0.00    -0.001 A 
ATOM      4  C3  UNL d   1       0.100   1.671   1.741  0.00  0.00     0.003 A 
ATOM      5  C4  UNL d   1       1.025   2.541   1.167  0.00  0.00    -0.005 A 
ATOM      6  C5  UNL d   1       1.688   2.177  -0.003  0.00  0.00     0.003 A 
ATOM      7  C6  UNL d   1       1.427   0.942  -0.599  0.00  0.00    -0.001 A 
ENDROOT
TORSDOF 0
ENDMDL
