MODEL 1
REMARK minimizedAffinity -3.58686876
REMARK minimizedRMSD -1
REMARK  0 active torsions:
REMARK  status: ('A' for Active; 'I' for Inactive)
ROOT
ATOM      1  C   UNL d   1      -0.753  -0.648   1.546  0.00  0.00     0.078 C 
ATOM      2  C1  UNL d   1      -0.057   0.548   0.969  0.00  0.00    -0.077 A 
ATOM      3  C2  UNL d   1       0.270   0.606  -0.391  0.00  0.00    -0.001 A 
ATOM      4  C3  UNL d   1       0.927   1.722  -0.912  0.00  0.00     0.003 A 
ATOM      5  C4  UNL d   1       1.264   2.788  -0.080  0.00  0.00    -0.005 A 
ATOM      6  C5  UNL d   1       0.945   2.738   1.276  0.00  0.00     0.003 A 
ATOM      7  C6  UNL d   1       0.288   1.623   1.799  0.00  0.00    -0.001 A 
ENDROOT
TORSDOF 0
ENDMDL
