MODEL 1
REMARK minimizedAffinity 4.56559086
REMARK minimizedRMSD -1
REMARK  1 active torsions:
REMARK  status: ('A' for Active; 'I' for Inactive)
REMARK    1  A    between atoms: C1_2  and  C2_3 
ROOT
ATOM      1  C2  UNL d   1       1.264   0.543   0.784  0.00  0.00    -0.081 A 
ATOM      2  C3  UNL d   1       0.567  -0.650   1.011  0.00  0.00     0.006 A 
ATOM      3  C4  UNL d   1       0.863  -1.442   2.123  0.00  0.00     0.002 A 
ATOM      4  C5  UNL d   1       1.853  -1.050   3.030  0.00  0.00    -0.080 A 
ATOM      5  C6  UNL d   1       2.159  -1.876   4.244  0.00  0.00     0.076 C 
ATOM      6  C7  UNL d   1       2.562   0.133   2.794  0.00  0.00     0.002 A 
ATOM      7  C8  UNL d   1       2.267   0.925   1.682  0.00  0.00     0.006 A 
ENDROOT
BRANCH   1   8
ATOM      8  C1  UNL d   1       0.903   1.432  -0.379  0.00  0.00     0.054 C 
ATOM      9  C   UNL d   1       0.090   2.636   0.075  0.00  0.00     0.018 C 
ENDBRANCH   1   8
TORSDOF 1
ENDMDL
