MODEL 1
REMARK minimizedAffinity 9.813241
REMARK minimizedRMSD -1
REMARK  1 active torsions:
REMARK  status: ('A' for Active; 'I' for Inactive)
REMARK    1  A    between atoms: C1_2  and  C2_3 
ROOT
ATOM      1  C2  UNL d   1      -2.711  -0.396  -3.388  0.00  0.00    -0.081 A 
ATOM      2  C3  UNL d   1      -2.804   0.668  -2.482  0.00  0.00     0.006 A 
ATOM      3  C4  UNL d   1      -3.460   1.848  -2.841  0.00  0.00     0.002 A 
ATOM      4  C5  UNL d   1      -4.040   1.981  -4.107  0.00  0.00    -0.080 A 
ATOM      5  C6  UNL d   1      -4.773   3.230  -4.495  0.00  0.00     0.076 C 
ATOM      6  C7  UNL d   1      -3.932   0.924  -5.018  0.00  0.00     0.002 A 
ATOM      7  C8  UNL d   1      -3.275  -0.255  -4.660  0.00  0.00     0.006 A 
ENDROOT
BRANCH   1   8
ATOM      8  C1  UNL d   1      -2.061  -1.694  -2.981  0.00  0.00     0.054 C 
ATOM      9  C   UNL d   1      -3.083  -2.674  -2.424  0.00  0.00     0.018 C 
ENDBRANCH   1   8
TORSDOF 1
ENDMDL
