MODEL 1
REMARK minimizedAffinity 1.54408777
REMARK minimizedRMSD -1
REMARK  1 active torsions:
REMARK  status: ('A' for Active; 'I' for Inactive)
REMARK    1  A    between atoms: C1_2  and  C2_3 
ROOT
ATOM      1  C2  UNL d   1      -2.136  -1.672  -1.097  0.00  0.00    -0.081 A 
ATOM      2  C3  UNL d   1      -2.518  -0.326  -1.145  0.00  0.00     0.006 A 
ATOM      3  C4  UNL d   1      -2.951   0.246  -2.344  0.00  0.00     0.002 A 
ATOM      4  C5  UNL d   1      -3.016  -0.521  -3.513  0.00  0.00    -0.080 A 
ATOM      5  C6  UNL d   1      -3.507   0.072  -4.800  0.00  0.00     0.076 C 
ATOM      6  C7  UNL d   1      -2.618  -1.862  -3.469  0.00  0.00     0.002 A 
ATOM      7  C8  UNL d   1      -2.185  -2.433  -2.270  0.00  0.00     0.006 A 
ENDROOT
BRANCH   1   8
ATOM      8  C1  UNL d   1      -1.731  -2.308   0.208  0.00  0.00     0.054 C 
ATOM      9  C   UNL d   1      -1.012  -1.313   1.108  0.00  0.00     0.018 C 
ENDBRANCH   1   8
TORSDOF 1
ENDMDL
