MODEL 1
REMARK minimizedAffinity -1.47699797
REMARK minimizedRMSD -1
REMARK  0 active torsions:
REMARK  status: ('A' for Active; 'I' for Inactive)
ROOT
ATOM      1  C2' OXE d   1       1.505  -0.449   2.061  0.00  0.00     0.078 C 
ATOM      2  C1' OXE d   1       1.898   2.242   1.365  0.00  0.00     0.078 C 
ATOM      3  C1  OXE d   1       0.699   1.533   0.786  0.00  0.00    -0.078 A 
ATOM      4  C2  OXE d   1       0.540   0.204   1.094  0.00  0.00    -0.078 A 
ATOM      5  C3  OXE d   1      -0.578  -0.483   0.631  0.00  0.00     0.003 A 
ATOM      6  C4  OXE d   1      -1.460   0.126  -0.271  0.00  0.00    -0.002 A 
ATOM      7  C5  OXE d   1      -1.294   1.468  -0.630  0.00  0.00    -0.002 A 
ATOM      8  C6  OXE d   1      -0.246   2.196  -0.078  0.00  0.00     0.003 A 
ENDROOT
TORSDOF 0
ENDMDL
