MODEL 1
REMARK minimizedAffinity -2.71680474
REMARK minimizedRMSD -1
REMARK  0 active torsions:
REMARK  status: ('A' for Active; 'I' for Inactive)
ROOT
ATOM      1  C2' OXE d   1       2.643   2.045   1.305  0.00  0.00     0.078 C 
ATOM      2  C1' OXE d   1       2.862  -0.754   1.268  0.00  0.00     0.078 C 
ATOM      3  C1  OXE d   1       1.616  -0.138   0.683  0.00  0.00    -0.078 A 
ATOM      4  C2  OXE d   1       1.496   1.230   0.748  0.00  0.00    -0.078 A 
ATOM      5  C3  OXE d   1       0.391   1.853   0.174  0.00  0.00     0.003 A 
ATOM      6  C4  OXE d   1      -0.670   1.091  -0.330  0.00  0.00    -0.002 A 
ATOM      7  C5  OXE d   1      -0.586  -0.305  -0.369  0.00  0.00    -0.002 A 
ATOM      8  C6  OXE d   1       0.566  -0.932   0.094  0.00  0.00     0.003 A 
ENDROOT
TORSDOF 0
ENDMDL
