MODEL 1
REMARK minimizedAffinity -3.51334453
REMARK minimizedRMSD -1
REMARK  0 active torsions:
REMARK  status: ('A' for Active; 'I' for Inactive)
ROOT
ATOM      1  C2' OXE d   1       2.136  -3.121  -0.952  0.00  0.00     0.078 C 
ATOM      2  C1' OXE d   1       3.295  -1.358   0.899  0.00  0.00     0.078 C 
ATOM      3  C1  OXE d   1       1.883  -1.077   0.449  0.00  0.00    -0.078 A 
ATOM      4  C2  OXE d   1       1.340  -1.919  -0.492  0.00  0.00    -0.078 A 
ATOM      5  C3  OXE d   1       0.022  -1.737  -0.901  0.00  0.00     0.003 A 
ATOM      6  C4  OXE d   1      -0.703  -0.616  -0.478  0.00  0.00    -0.002 A 
ATOM      7  C5  OXE d   1      -0.155   0.276   0.450  0.00  0.00    -0.002 A 
ATOM      8  C6  OXE d   1       1.119   0.037   0.954  0.00  0.00     0.003 A 
ENDROOT
TORSDOF 0
ENDMDL
