MODEL 1
REMARK minimizedAffinity -4.68143988
REMARK minimizedRMSD -1
REMARK  0 active torsions:
REMARK  status: ('A' for Active; 'I' for Inactive)
ROOT
ATOM      1  C2' OXE d   1      -0.368  -2.157  -1.641  0.00  0.00     0.078 C 
ATOM      2  C1' OXE d   1      -0.998   0.057  -0.033  0.00  0.00     0.078 C 
ATOM      3  C1  OXE d   1       0.338  -0.610   0.180  0.00  0.00    -0.078 A 
ATOM      4  C2  OXE d   1       0.618  -1.721  -0.578  0.00  0.00    -0.078 A 
ATOM      5  C3  OXE d   1       1.858  -2.342  -0.460  0.00  0.00     0.003 A 
ATOM      6  C4  OXE d   1       2.761  -1.939   0.532  0.00  0.00    -0.002 A 
ATOM      7  C5  OXE d   1       2.478  -0.834   1.343  0.00  0.00    -0.002 A 
ATOM      8  C6  OXE d   1       1.292  -0.134   1.151  0.00  0.00     0.003 A 
ENDROOT
TORSDOF 0
ENDMDL
