MODEL 1
REMARK minimizedAffinity -4.79737759
REMARK minimizedRMSD -1
REMARK  0 active torsions:
REMARK  status: ('A' for Active; 'I' for Inactive)
ROOT
ATOM      1  C2' OXE d   1       0.079  -1.815  -1.729  0.00  0.00     0.078 C 
ATOM      2  C1' OXE d   1      -0.695   0.509  -0.358  0.00  0.00     0.078 C 
ATOM      3  C1  OXE d   1       0.546  -0.207   0.115  0.00  0.00    -0.078 A 
ATOM      4  C2  OXE d   1       0.891  -1.369  -0.532  0.00  0.00    -0.078 A 
ATOM      5  C3  OXE d   1       2.056  -2.039  -0.172  0.00  0.00     0.003 A 
ATOM      6  C4  OXE d   1       2.796  -1.626   0.943  0.00  0.00    -0.002 A 
ATOM      7  C5  OXE d   1       2.439  -0.467   1.641  0.00  0.00    -0.002 A 
ATOM      8  C6  OXE d   1       1.344   0.276   1.214  0.00  0.00     0.003 A 
ENDROOT
TORSDOF 0
ENDMDL
