MODEL 1
REMARK minimizedAffinity -3.58162975
REMARK minimizedRMSD -1
REMARK  0 active torsions:
REMARK  status: ('A' for Active; 'I' for Inactive)
ROOT
ATOM      1  C2' OXE d   1      -0.773  -1.624  -0.755  0.00  0.00     0.078 C 
ATOM      2  C1' OXE d   1      -1.518   1.063  -0.432  0.00  0.00     0.078 C 
ATOM      3  C1  OXE d   1      -0.072   0.702  -0.203  0.00  0.00    -0.078 A 
ATOM      4  C2  OXE d   1       0.274  -0.623  -0.317  0.00  0.00    -0.078 A 
ATOM      5  C3  OXE d   1       1.605  -1.003  -0.169  0.00  0.00     0.003 A 
ATOM      6  C4  OXE d   1       2.566  -0.073   0.246  0.00  0.00    -0.002 A 
ATOM      7  C5  OXE d   1       2.227   1.274   0.407  0.00  0.00    -0.002 A 
ATOM      8  C6  OXE d   1       0.924   1.685   0.146  0.00  0.00     0.003 A 
ENDROOT
TORSDOF 0
ENDMDL
