MODEL 1
REMARK minimizedAffinity -5.10865831
REMARK minimizedRMSD -1
REMARK  0 active torsions:
REMARK  status: ('A' for Active; 'I' for Inactive)
ROOT
ATOM      1  C2' OXE d   1       2.925  -1.120   1.234  0.00  0.00     0.078 C 
ATOM      2  C1' OXE d   1       2.118   1.569   1.274  0.00  0.00     0.078 C 
ATOM      3  C1  OXE d   1       1.239   0.581   0.549  0.00  0.00    -0.078 A 
ATOM      4  C2  OXE d   1       1.666  -0.724   0.494  0.00  0.00    -0.078 A 
ATOM      5  C3  OXE d   1       0.866  -1.686  -0.116  0.00  0.00     0.003 A 
ATOM      6  C4  OXE d   1      -0.293  -1.311  -0.806  0.00  0.00    -0.002 A 
ATOM      7  C5  OXE d   1      -0.725   0.020  -0.797  0.00  0.00    -0.002 A 
ATOM      8  C6  OXE d   1       0.005   0.968  -0.090  0.00  0.00     0.003 A 
ENDROOT
TORSDOF 0
ENDMDL
