MODEL 1
REMARK minimizedAffinity 3.12505841
REMARK minimizedRMSD -1
REMARK  2 active torsions:
REMARK  status: ('A' for Active; 'I' for Inactive)
REMARK    1  A    between atoms: C1_2  and  C2_3 
REMARK    2  A    between atoms: C2_3  and  C3_4 
ROOT
ATOM      1  C3  UNL d   1      -0.583  -1.119  -0.838  0.00  0.00    -0.075 A 
ATOM      2  C4  UNL d   1      -0.316  -2.402  -0.336  0.00  0.00     0.002 A 
ATOM      3  C5  UNL d   1      -0.740  -3.536  -1.030  0.00  0.00     0.002 A 
ATOM      4  C6  UNL d   1      -1.444  -3.402  -2.225  0.00  0.00    -0.004 A 
ATOM      5  C7  UNL d   1      -1.729  -2.133  -2.724  0.00  0.00     0.002 A 
ATOM      6  C8  UNL d   1      -1.302  -0.997  -2.034  0.00  0.00     0.002 A 
ENDROOT
BRANCH   1   7
ATOM      7  C2  UNL d   1      -0.101   0.111  -0.107  0.00  0.00     0.056 C 
BRANCH   7   8
ATOM      8  C1  UNL d   1       0.905  -0.181   1.011  0.00  0.00     0.007 C 
ATOM      9  C   UNL d   1       0.429   0.280   2.382  0.00  0.00     0.009 C 
ENDBRANCH   7   8
ENDBRANCH   1   7
TORSDOF 2
ENDMDL
