MODEL 1
REMARK minimizedAffinity 0.864138782
REMARK minimizedRMSD -1
REMARK  2 active torsions:
REMARK  status: ('A' for Active; 'I' for Inactive)
REMARK    1  A    between atoms: C1_2  and  C2_3 
REMARK    2  A    between atoms: C2_3  and  C3_4 
ROOT
ATOM      1  C3  UNL d   1      -1.028  -1.520  -1.164  0.00  0.00    -0.075 A 
ATOM      2  C4  UNL d   1      -0.909  -2.718  -1.882  0.00  0.00     0.002 A 
ATOM      3  C5  UNL d   1      -1.188  -3.941  -1.272  0.00  0.00     0.002 A 
ATOM      4  C6  UNL d   1      -1.580  -3.982   0.065  0.00  0.00    -0.004 A 
ATOM      5  C7  UNL d   1      -1.685  -2.799   0.793  0.00  0.00     0.002 A 
ATOM      6  C8  UNL d   1      -1.411  -1.574   0.183  0.00  0.00     0.002 A 
ENDROOT
BRANCH   1   7
ATOM      7  C2  UNL d   1      -0.755  -0.191  -1.827  0.00  0.00     0.056 C 
BRANCH   7   8
ATOM      8  C1  UNL d   1      -0.069   0.832  -0.916  0.00  0.00     0.007 C 
ATOM      9  C   UNL d   1      -1.012   1.916  -0.413  0.00  0.00     0.009 C 
ENDBRANCH   7   8
ENDBRANCH   1   7
TORSDOF 2
ENDMDL
