MODEL 1
REMARK minimizedAffinity 5.54101276
REMARK minimizedRMSD -1
REMARK  2 active torsions:
REMARK  status: ('A' for Active; 'I' for Inactive)
REMARK    1  A    between atoms: C1_2  and  C2_3 
REMARK    2  A    between atoms: C2_3  and  C3_4 
ROOT
ATOM      1  C3  UNL d   1       2.979   0.853   3.426  0.00  0.00    -0.075 A 
ATOM      2  C4  UNL d   1       3.842   0.105   4.240  0.00  0.00     0.002 A 
ATOM      3  C5  UNL d   1       3.889  -1.285   4.133  0.00  0.00     0.002 A 
ATOM      4  C6  UNL d   1       3.070  -1.945   3.219  0.00  0.00    -0.004 A 
ATOM      5  C7  UNL d   1       2.197  -1.213   2.417  0.00  0.00     0.002 A 
ATOM      6  C8  UNL d   1       2.151   0.178   2.519  0.00  0.00     0.002 A 
ENDROOT
BRANCH   1   7
ATOM      7  C2  UNL d   1       2.944   2.360   3.516  0.00  0.00     0.056 C 
BRANCH   7   8
ATOM      8  C1  UNL d   1       2.698   2.894   4.931  0.00  0.00     0.007 C 
ATOM      9  C   UNL d   1       3.977   3.053   5.744  0.00  0.00     0.009 C 
ENDBRANCH   7   8
ENDBRANCH   1   7
TORSDOF 2
ENDMDL
