MODEL 1
REMARK minimizedAffinity 7.35524416
REMARK minimizedRMSD -1
REMARK  0 active torsions:
REMARK  status: ('A' for Active; 'I' for Inactive)
ROOT
ATOM      1  C1  DEN d   1       3.757   6.000   3.515  0.00  0.00     0.130 A 
ATOM      2  C2  DEN d   1       4.911   5.932   4.407  0.00  0.00    -0.031 A 
ATOM      3  C3  DEN d   1       5.983   5.192   3.711  0.00  0.00     0.027 A 
ATOM      4  C4  DEN d   1       5.970   4.157   1.349  0.00  0.00     0.027 A 
ATOM      5  C5  DEN d   1       5.211   3.949   0.219  0.00  0.00    -0.003 A 
ATOM      6  C6  DEN d   1       3.913   4.376   0.122  0.00  0.00     0.001 A 
ATOM      7  C7  DEN d   1       3.349   5.074   1.157  0.00  0.00     0.017 A 
ATOM      8  C8  DEN d   1       4.106   5.282   2.303  0.00  0.00    -0.094 A 
ATOM      9  C9  DEN d   1       5.420   4.852   2.376  0.00  0.00    -0.072 A 
ENDROOT
TORSDOF 0
ENDMDL
