MODEL 1
REMARK minimizedAffinity 3.10788894
REMARK minimizedRMSD -1
REMARK  0 active torsions:
REMARK  status: ('A' for Active; 'I' for Inactive)
ROOT
ATOM      1  C1  DEN d   1      -1.900   0.997   2.524  0.00  0.00     0.130 A 
ATOM      2  C2  DEN d   1      -3.008   0.556   3.366  0.00  0.00    -0.031 A 
ATOM      3  C3  DEN d   1      -3.643  -0.607   2.714  0.00  0.00     0.027 A 
ATOM      4  C4  DEN d   1      -3.018  -1.764   0.495  0.00  0.00     0.027 A 
ATOM      5  C5  DEN d   1      -2.157  -1.740  -0.580  0.00  0.00    -0.003 A 
ATOM      6  C6  DEN d   1      -1.179  -0.790  -0.711  0.00  0.00     0.001 A 
ATOM      7  C7  DEN d   1      -1.009   0.150   0.271  0.00  0.00     0.017 A 
ATOM      8  C8  DEN d   1      -1.879   0.137   1.354  0.00  0.00    -0.094 A 
ATOM      9  C9  DEN d   1      -2.853  -0.840   1.475  0.00  0.00    -0.072 A 
ENDROOT
TORSDOF 0
ENDMDL
