MODEL 1
REMARK minimizedAffinity 9.63095379
REMARK minimizedRMSD -1
REMARK  0 active torsions:
REMARK  status: ('A' for Active; 'I' for Inactive)
ROOT
ATOM      1  C1  DEN d   1      -4.647   5.807   3.418  0.00  0.00     0.130 A 
ATOM      2  C2  DEN d   1      -5.536   5.792   4.576  0.00  0.00    -0.031 A 
ATOM      3  C3  DEN d   1      -4.700   5.848   5.793  0.00  0.00     0.027 A 
ATOM      4  C4  DEN d   1      -2.132   5.962   5.994  0.00  0.00     0.027 A 
ATOM      5  C5  DEN d   1      -0.950   5.986   5.286  0.00  0.00    -0.003 A 
ATOM      6  C6  DEN d   1      -0.917   5.919   3.918  0.00  0.00     0.001 A 
ATOM      7  C7  DEN d   1      -2.090   5.869   3.213  0.00  0.00     0.017 A 
ATOM      8  C8  DEN d   1      -3.285   5.837   3.920  0.00  0.00    -0.094 A 
ATOM      9  C9  DEN d   1      -3.298   5.918   5.302  0.00  0.00    -0.072 A 
ENDROOT
TORSDOF 0
ENDMDL
