MODEL 1
REMARK minimizedAffinity 2.84939814
REMARK minimizedRMSD -1
REMARK  0 active torsions:
REMARK  status: ('A' for Active; 'I' for Inactive)
ROOT
ATOM      1  C1  DEN d   1       3.232  -4.905   3.957  0.00  0.00     0.130 A 
ATOM      2  C2  DEN d   1       3.406  -5.996   4.913  0.00  0.00    -0.031 A 
ATOM      3  C3  DEN d   1       4.444  -5.592   5.882  0.00  0.00     0.027 A 
ATOM      4  C4  DEN d   1       5.789  -3.394   5.998  0.00  0.00     0.027 A 
ATOM      5  C5  DEN d   1       5.999  -2.174   5.396  0.00  0.00    -0.003 A 
ATOM      6  C6  DEN d   1       5.331  -1.795   4.261  0.00  0.00     0.001 A 
ATOM      7  C7  DEN d   1       4.388  -2.627   3.719  0.00  0.00     0.017 A 
ATOM      8  C8  DEN d   1       4.176  -3.863   4.316  0.00  0.00    -0.094 A 
ATOM      9  C9  DEN d   1       4.852  -4.222   5.470  0.00  0.00    -0.072 A 
ENDROOT
TORSDOF 0
ENDMDL
