MODEL 1
REMARK minimizedAffinity 6.58551407
REMARK minimizedRMSD -1
REMARK  0 active torsions:
REMARK  status: ('A' for Active; 'I' for Inactive)
ROOT
ATOM      1  C1  DEN d   1       3.951   5.950   1.882  0.00  0.00     0.130 A 
ATOM      2  C2  DEN d   1       4.426   5.074   0.815  0.00  0.00    -0.031 A 
ATOM      3  C3  DEN d   1       5.314   4.059   1.417  0.00  0.00     0.027 A 
ATOM      4  C4  DEN d   1       5.991   3.758   3.888  0.00  0.00     0.027 A 
ATOM      5  C5  DEN d   1       5.849   4.265   5.161  0.00  0.00    -0.003 A 
ATOM      6  C6  DEN d   1       5.098   5.381   5.423  0.00  0.00     0.001 A 
ATOM      7  C7  DEN d   1       4.423   5.999   4.403  0.00  0.00     0.017 A 
ATOM      8  C8  DEN d   1       4.567   5.498   3.117  0.00  0.00    -0.094 A 
ATOM      9  C9  DEN d   1       5.321   4.362   2.874  0.00  0.00    -0.072 A 
ENDROOT
TORSDOF 0
ENDMDL
