MODEL 1
REMARK minimizedAffinity 14.36728
REMARK minimizedRMSD -1
REMARK  0 active torsions:
REMARK  status: ('A' for Active; 'I' for Inactive)
ROOT
ATOM      1  C1  DEN d   1      -2.652   5.526   2.660  0.00  0.00     0.130 A 
ATOM      2  C2  DEN d   1      -3.938   4.869   2.443  0.00  0.00    -0.031 A 
ATOM      3  C3  DEN d   1      -3.990   4.417   1.038  0.00  0.00     0.027 A 
ATOM      4  C4  DEN d   1      -2.210   4.665  -0.812  0.00  0.00     0.027 A 
ATOM      5  C5  DEN d   1      -0.959   5.161  -1.108  0.00  0.00    -0.003 A 
ATOM      6  C6  DEN d   1      -0.206   5.838  -0.186  0.00  0.00     0.001 A 
ATOM      7  C7  DEN d   1      -0.677   5.998   1.091  0.00  0.00     0.017 A 
ATOM      8  C8  DEN d   1      -1.940   5.507   1.394  0.00  0.00    -0.094 A 
ATOM      9  C9  DEN d   1      -2.681   4.814   0.452  0.00  0.00    -0.072 A 
ENDROOT
TORSDOF 0
ENDMDL
