MODEL 1
REMARK minimizedAffinity 16.8703403
REMARK minimizedRMSD -1
REMARK  0 active torsions:
REMARK  status: ('A' for Active; 'I' for Inactive)
ROOT
ATOM      1  C1  DEN d   1      -1.728   5.267   3.665  0.00  0.00     0.130 A 
ATOM      2  C2  DEN d   1      -0.913   5.391   4.871  0.00  0.00    -0.031 A 
ATOM      3  C3  DEN d   1      -1.812   5.703   6.000  0.00  0.00     0.027 A 
ATOM      4  C4  DEN d   1      -4.374   5.999   6.000  0.00  0.00     0.027 A 
ATOM      5  C5  DEN d   1      -5.504   5.999   5.212  0.00  0.00    -0.003 A 
ATOM      6  C6  DEN d   1      -5.452   5.791   3.860  0.00  0.00     0.001 A 
ATOM      7  C7  DEN d   1      -4.248   5.528   3.260  0.00  0.00     0.017 A 
ATOM      8  C8  DEN d   1      -3.104   5.534   4.046  0.00  0.00    -0.094 A 
ATOM      9  C9  DEN d   1      -3.179   5.734   5.414  0.00  0.00    -0.072 A 
ENDROOT
TORSDOF 0
ENDMDL
