MODEL 1
REMARK minimizedAffinity 3.73800063
REMARK minimizedRMSD -1
REMARK  0 active torsions:
REMARK  status: ('A' for Active; 'I' for Inactive)
ROOT
ATOM      1  C1  DEN d   1      -1.825   0.238  -0.035  0.00  0.00     0.130 A 
ATOM      2  C2  DEN d   1      -2.196   1.169  -1.097  0.00  0.00    -0.031 A 
ATOM      3  C3  DEN d   1      -2.710   2.401  -0.465  0.00  0.00     0.027 A 
ATOM      4  C4  DEN d   1      -2.962   2.955   2.041  0.00  0.00     0.027 A 
ATOM      5  C5  DEN d   1      -2.791   2.473   3.320  0.00  0.00    -0.003 A 
ATOM      6  C6  DEN d   1      -2.321   1.210   3.568  0.00  0.00     0.001 A 
ATOM      7  C7  DEN d   1      -1.964   0.402   2.522  0.00  0.00     0.017 A 
ATOM      8  C8  DEN d   1      -2.141   0.878   1.229  0.00  0.00    -0.094 A 
ATOM      9  C9  DEN d   1      -2.606   2.161   1.000  0.00  0.00    -0.072 A 
ENDROOT
TORSDOF 0
ENDMDL
