MODEL 1
REMARK minimizedAffinity 20.4612999
REMARK minimizedRMSD -1
REMARK  0 active torsions:
REMARK  status: ('A' for Active; 'I' for Inactive)
ROOT
ATOM      1  C1  DEN d   1      -2.131   5.999   4.180  0.00  0.00     0.130 A 
ATOM      2  C2  DEN d   1      -1.806   5.860   5.597  0.00  0.00    -0.031 A 
ATOM      3  C3  DEN d   1      -1.309   4.487   5.820  0.00  0.00     0.027 A 
ATOM      4  C4  DEN d   1      -1.009   2.575   4.115  0.00  0.00     0.027 A 
ATOM      5  C5  DEN d   1      -1.162   2.213   2.795  0.00  0.00    -0.003 A 
ATOM      6  C6  DEN d   1      -1.675   3.070   1.858  0.00  0.00     0.001 A 
ATOM      7  C7  DEN d   1      -2.013   4.348   2.220  0.00  0.00     0.017 A 
ATOM      8  C8  DEN d   1      -1.869   4.717   3.551  0.00  0.00    -0.094 A 
ATOM      9  C9  DEN d   1      -1.337   3.840   4.480  0.00  0.00    -0.072 A 
ENDROOT
TORSDOF 0
ENDMDL
