MODEL 1
REMARK minimizedAffinity 19.7318726
REMARK minimizedRMSD -1
REMARK  0 active torsions:
REMARK  status: ('A' for Active; 'I' for Inactive)
ROOT
ATOM      1  C1  DEN d   1       4.039   0.356  -1.220  0.00  0.00     0.130 A 
ATOM      2  C2  DEN d   1       4.363  -1.065  -1.129  0.00  0.00    -0.031 A 
ATOM      3  C3  DEN d   1       3.271  -1.825  -1.770  0.00  0.00     0.027 A 
ATOM      4  C4  DEN d   1       1.123  -0.944  -2.892  0.00  0.00     0.027 A 
ATOM      5  C5  DEN d   1       0.402   0.188  -3.204  0.00  0.00    -0.003 A 
ATOM      6  C6  DEN d   1       0.823   1.442  -2.849  0.00  0.00     0.001 A 
ATOM      7  C7  DEN d   1       2.020   1.599  -2.201  0.00  0.00     0.017 A 
ATOM      8  C8  DEN d   1       2.748   0.462  -1.877  0.00  0.00    -0.094 A 
ATOM      9  C9  DEN d   1       2.312  -0.797  -2.255  0.00  0.00    -0.072 A 
ENDROOT
TORSDOF 0
ENDMDL
