MODEL 1
REMARK minimizedAffinity 12.6019201
REMARK minimizedRMSD -1
REMARK  0 active torsions:
REMARK  status: ('A' for Active; 'I' for Inactive)
ROOT
ATOM      1  C1  DEN d   1      -2.980  -1.045  -0.147  0.00  0.00     0.130 A 
ATOM      2  C2  DEN d   1      -1.743  -1.052  -0.924  0.00  0.00    -0.031 A 
ATOM      3  C3  DEN d   1      -0.687  -0.422  -0.106  0.00  0.00     0.027 A 
ATOM      4  C4  DEN d   1      -0.845   0.552   2.277  0.00  0.00     0.027 A 
ATOM      5  C5  DEN d   1      -1.691   0.796   3.337  0.00  0.00    -0.003 A 
ATOM      6  C6  DEN d   1      -3.022   0.476   3.297  0.00  0.00     0.001 A 
ATOM      7  C7  DEN d   1      -3.537  -0.147   2.191  0.00  0.00     0.017 A 
ATOM      8  C8  DEN d   1      -2.692  -0.389   1.116  0.00  0.00    -0.094 A 
ATOM      9  C9  DEN d   1      -1.347  -0.069   1.180  0.00  0.00    -0.072 A 
ENDROOT
TORSDOF 0
ENDMDL
