MODEL 1
REMARK minimizedAffinity 16.0183067
REMARK minimizedRMSD -1
REMARK  0 active torsions:
REMARK  status: ('A' for Active; 'I' for Inactive)
ROOT
ATOM      1  C1  DEN d   1      -1.766  -1.176   0.911  0.00  0.00     0.130 A 
ATOM      2  C2  DEN d   1      -2.217  -1.064  -0.473  0.00  0.00    -0.031 A 
ATOM      3  C3  DEN d   1      -3.084   0.127  -0.576  0.00  0.00     0.027 A 
ATOM      4  C4  DEN d   1      -3.763   1.803   1.263  0.00  0.00     0.027 A 
ATOM      5  C5  DEN d   1      -3.637   2.116   2.599  0.00  0.00    -0.003 A 
ATOM      6  C6  DEN d   1      -2.913   1.341   3.465  0.00  0.00     0.001 A 
ATOM      7  C7  DEN d   1      -2.249   0.238   2.997  0.00  0.00     0.017 A 
ATOM      8  C8  DEN d   1      -2.376  -0.088   1.653  0.00  0.00    -0.094 A 
ATOM      9  C9  DEN d   1      -3.103   0.715   0.790  0.00  0.00    -0.072 A 
ENDROOT
TORSDOF 0
ENDMDL
