MODEL 1
REMARK minimizedAffinity 9.11340141
REMARK minimizedRMSD -1
REMARK  0 active torsions:
REMARK  status: ('A' for Active; 'I' for Inactive)
ROOT
ATOM      1  C1  DEN d   1       5.998   5.331   1.662  0.00  0.00     0.130 A 
ATOM      2  C2  DEN d   1       5.113   5.975   2.628  0.00  0.00    -0.031 A 
ATOM      3  C3  DEN d   1       3.753   6.000   2.055  0.00  0.00     0.027 A 
ATOM      4  C4  DEN d   1       2.933   5.103  -0.220  0.00  0.00     0.027 A 
ATOM      5  C5  DEN d   1       3.320   4.484  -1.388  0.00  0.00    -0.003 A 
ATOM      6  C6  DEN d   1       4.622   4.137  -1.633  0.00  0.00     0.001 A 
ATOM      7  C7  DEN d   1       5.578   4.366  -0.678  0.00  0.00     0.017 A 
ATOM      8  C8  DEN d   1       5.196   4.997   0.498  0.00  0.00    -0.094 A 
ATOM      9  C9  DEN d   1       3.873   5.329   0.733  0.00  0.00    -0.072 A 
ENDROOT
TORSDOF 0
ENDMDL
