MODEL 1
REMARK minimizedAffinity 11.5971241
REMARK minimizedRMSD -1
REMARK  0 active torsions:
REMARK  status: ('A' for Active; 'I' for Inactive)
ROOT
ATOM      1  C1  DEN d   1       2.917   5.267  -0.819  0.00  0.00     0.130 A 
ATOM      2  C2  DEN d   1       3.710   4.580  -1.835  0.00  0.00    -0.031 A 
ATOM      3  C3  DEN d   1       5.035   4.283  -1.255  0.00  0.00     0.027 A 
ATOM      4  C4  DEN d   1       5.930   4.812   1.105  0.00  0.00     0.027 A 
ATOM      5  C5  DEN d   1       5.627   5.394   2.316  0.00  0.00    -0.003 A 
ATOM      6  C6  DEN d   1       4.421   6.000   2.554  0.00  0.00     0.001 A 
ATOM      7  C7  DEN d   1       3.457   5.997   1.581  0.00  0.00     0.017 A 
ATOM      8  C8  DEN d   1       3.758   5.419   0.355  0.00  0.00    -0.094 A 
ATOM      9  C9  DEN d   1       4.978   4.801   0.138  0.00  0.00    -0.072 A 
ENDROOT
TORSDOF 0
ENDMDL
