MODEL 1
REMARK minimizedAffinity 13.29527
REMARK minimizedRMSD -1
REMARK  0 active torsions:
REMARK  status: ('A' for Active; 'I' for Inactive)
ROOT
ATOM      1  C1  DEN d   1       3.353   0.351  -3.256  0.00  0.00     0.130 A 
ATOM      2  C2  DEN d   1       3.465  -0.990  -2.691  0.00  0.00    -0.031 A 
ATOM      3  C3  DEN d   1       2.238  -1.263  -1.916  0.00  0.00     0.027 A 
ATOM      4  C4  DEN d   1       0.184   0.251  -1.544  0.00  0.00     0.027 A 
ATOM      5  C5  DEN d   1      -0.365   1.485  -1.815  0.00  0.00    -0.003 A 
ATOM      6  C6  DEN d   1       0.295   2.432  -2.551  0.00  0.00     0.001 A 
ATOM      7  C7  DEN d   1       1.526   2.144  -3.080  0.00  0.00     0.017 A 
ATOM      8  C8  DEN d   1       2.089   0.905  -2.805  0.00  0.00    -0.094 A 
ATOM      9  C9  DEN d   1       1.400  -0.044  -2.069  0.00  0.00    -0.072 A 
ENDROOT
TORSDOF 0
ENDMDL
