MODEL 1
REMARK minimizedAffinity 6.79899597
REMARK minimizedRMSD -1
REMARK  0 active torsions:
REMARK  status: ('A' for Active; 'I' for Inactive)
ROOT
ATOM      1  C   UNL d   1      -0.816   1.468  -1.701  0.00  0.00     0.023 A 
ATOM      2  C1  UNL d   1      -0.020   0.326  -1.609  0.00  0.00     0.003 A 
ATOM      3  C2  UNL d   1       1.077   0.307  -0.746  0.00  0.00     0.048 A 
ATOM      4  C3  UNL d   1       1.372   1.432   0.024  0.00  0.00     0.023 A 
ATOM      5  C4  UNL d   1       0.577   2.576  -0.065  0.00  0.00     0.048 A 
ATOM      6  C5  UNL d   1      -0.518   2.591  -0.930  0.00  0.00     0.003 A 
ATOM      7  I   UNL d   1       3.005   1.406   1.309  0.00  0.00    -0.146 I 
ENDROOT
TORSDOF 0
ENDMDL
