MODEL 1
REMARK minimizedAffinity 10.4889259
REMARK minimizedRMSD -1
REMARK  0 active torsions:
REMARK  status: ('A' for Active; 'I' for Inactive)
ROOT
ATOM      1  C   UNL d   1       2.560   0.041  -2.263  0.00  0.00     0.023 A 
ATOM      2  C1  UNL d   1       3.721   0.521  -1.656  0.00  0.00     0.003 A 
ATOM      3  C2  UNL d   1       3.763   0.703  -0.273  0.00  0.00     0.048 A 
ATOM      4  C3  UNL d   1       2.641   0.402   0.499  0.00  0.00     0.023 A 
ATOM      5  C4  UNL d   1       1.478  -0.080  -0.103  0.00  0.00     0.048 A 
ATOM      6  C5  UNL d   1       1.440  -0.259  -1.487  0.00  0.00     0.003 A 
ATOM      7  I   UNL d   1       2.702   0.672   2.559  0.00  0.00    -0.146 I 
ENDROOT
TORSDOF 0
ENDMDL
