MODEL 1
REMARK minimizedAffinity 5.1895175
REMARK minimizedRMSD -1
REMARK  0 active torsions:
REMARK  status: ('A' for Active; 'I' for Inactive)
ROOT
ATOM      1  C   UNL d   1       1.040  -0.614  -0.016  0.00  0.00     0.023 A 
ATOM      2  C1  UNL d   1       0.875  -0.671  -1.400  0.00  0.00     0.003 A 
ATOM      3  C2  UNL d   1       1.852  -0.139  -2.243  0.00  0.00     0.048 A 
ATOM      4  C3  UNL d   1       2.993   0.447  -1.697  0.00  0.00     0.023 A 
ATOM      5  C4  UNL d   1       3.163   0.506  -0.312  0.00  0.00     0.048 A 
ATOM      6  C5  UNL d   1       2.183  -0.026   0.527  0.00  0.00     0.003 A 
ATOM      7  I   UNL d   1       4.450   1.239  -2.951  0.00  0.00    -0.146 I 
ENDROOT
TORSDOF 0
ENDMDL
