MODEL 1
REMARK minimizedAffinity -1.45333743
REMARK minimizedRMSD -1
REMARK  0 active torsions:
REMARK  status: ('A' for Active; 'I' for Inactive)
ROOT
ATOM      1  C   UNL d   1       5.820   0.471  -3.029  0.00  0.00     0.023 A 
ATOM      2  C1  UNL d   1       5.755   1.085  -1.778  0.00  0.00     0.003 A 
ATOM      3  C2  UNL d   1       4.549   1.116  -1.075  0.00  0.00     0.048 A 
ATOM      4  C3  UNL d   1       3.411   0.529  -1.628  0.00  0.00     0.023 A 
ATOM      5  C4  UNL d   1       3.471  -0.088  -2.879  0.00  0.00     0.048 A 
ATOM      6  C5  UNL d   1       4.679  -0.115  -3.578  0.00  0.00     0.003 A 
ATOM      7  I   UNL d   1       1.615   0.572  -0.584  0.00  0.00    -0.146 I 
ENDROOT
TORSDOF 0
ENDMDL
