MODEL 1
REMARK minimizedAffinity 7.00532532
REMARK minimizedRMSD -1
REMARK  0 active torsions:
REMARK  status: ('A' for Active; 'I' for Inactive)
ROOT
ATOM      1  C   UNL d   1      -1.101   0.499  -2.035  0.00  0.00     0.023 A 
ATOM      2  C1  UNL d   1      -0.580   1.692  -1.534  0.00  0.00     0.003 A 
ATOM      3  C2  UNL d   1       0.574   1.676  -0.748  0.00  0.00     0.048 A 
ATOM      4  C3  UNL d   1       1.202   0.464  -0.467  0.00  0.00     0.023 A 
ATOM      5  C4  UNL d   1       0.685  -0.733  -0.967  0.00  0.00     0.048 A 
ATOM      6  C5  UNL d   1      -0.469  -0.712  -1.752  0.00  0.00     0.003 A 
ATOM      7  I   UNL d   1       2.920   0.437   0.702  0.00  0.00    -0.146 I 
ENDROOT
TORSDOF 0
ENDMDL
