MODEL 1
REMARK minimizedAffinity 4.79814243
REMARK minimizedRMSD -1
REMARK  0 active torsions:
REMARK  status: ('A' for Active; 'I' for Inactive)
ROOT
ATOM      1  C   UNL d   1       4.913   1.899  -2.131  0.00  0.00     0.023 A 
ATOM      2  C1  UNL d   1       5.382   2.199  -0.852  0.00  0.00     0.003 A 
ATOM      3  C2  UNL d   1       4.739   1.673   0.270  0.00  0.00     0.048 A 
ATOM      4  C3  UNL d   1       3.628   0.847   0.107  0.00  0.00     0.023 A 
ATOM      5  C4  UNL d   1       3.155   0.544  -1.171  0.00  0.00     0.048 A 
ATOM      6  C5  UNL d   1       3.801   1.073  -2.290  0.00  0.00     0.003 A 
ATOM      7  I   UNL d   1       2.669   0.063   1.776  0.00  0.00    -0.146 I 
ENDROOT
TORSDOF 0
ENDMDL
