MODEL 1
REMARK minimizedAffinity 5.64649677
REMARK minimizedRMSD -1
REMARK  0 active torsions:
REMARK  status: ('A' for Active; 'I' for Inactive)
ROOT
ATOM      1  C   UNL d   1       2.792   0.592  -1.657  0.00  0.00     0.023 A 
ATOM      2  C1  UNL d   1       3.450   1.285  -0.641  0.00  0.00     0.003 A 
ATOM      3  C2  UNL d   1       3.348   0.850   0.682  0.00  0.00     0.048 A 
ATOM      4  C3  UNL d   1       2.587  -0.279   0.982  0.00  0.00     0.023 A 
ATOM      5  C4  UNL d   1       1.928  -0.976  -0.031  0.00  0.00     0.048 A 
ATOM      6  C5  UNL d   1       2.031  -0.537  -1.352  0.00  0.00     0.003 A 
ATOM      7  I   UNL d   1       2.435  -0.928   2.951  0.00  0.00    -0.146 I 
ENDROOT
TORSDOF 0
ENDMDL
