MODEL 1
REMARK minimizedAffinity -4.80774021
REMARK minimizedRMSD -1
REMARK  2 active torsions:
REMARK  status: ('A' for Active; 'I' for Inactive)
REMARK    1  A    between atoms: C1_2  and  C2_3 
REMARK    2  A    between atoms: C2_3  and  C3_4 
ROOT
ATOM      1  C3  UNL d   1       0.469  -0.474  -0.306  0.00  0.00    -0.075 A 
ATOM      2  C4  UNL d   1       1.314   0.392  -1.016  0.00  0.00     0.002 A 
ATOM      3  C5  UNL d   1       2.338  -0.115  -1.816  0.00  0.00     0.002 A 
ATOM      4  C6  UNL d   1       2.537  -1.491  -1.909  0.00  0.00    -0.004 A 
ATOM      5  C7  UNL d   1       1.715  -2.360  -1.195  0.00  0.00     0.002 A 
ATOM      6  C8  UNL d   1       0.686  -1.855  -0.398  0.00  0.00     0.002 A 
ENDROOT
BRANCH   1   7
ATOM      7  C2  UNL d   1      -0.660   0.067   0.538  0.00  0.00     0.056 C 
BRANCH   7   8
ATOM      8  C1  UNL d   1      -0.886  -0.701   1.844  0.00  0.00     0.007 C 
ATOM      9  C   UNL d   1      -2.159  -0.289   2.570  0.00  0.00     0.009 C 
ENDBRANCH   7   8
ENDBRANCH   1   7
TORSDOF 2
ENDMDL
