MODEL 1
REMARK minimizedAffinity -3.37998366
REMARK minimizedRMSD -1
REMARK  2 active torsions:
REMARK  status: ('A' for Active; 'I' for Inactive)
REMARK    1  A    between atoms: C1_2  and  C2_3 
REMARK    2  A    between atoms: C2_3  and  C3_4 
ROOT
ATOM      1  C3  UNL d   1      -0.353   0.466   0.530  0.00  0.00    -0.075 A 
ATOM      2  C4  UNL d   1       0.835  -0.207   0.209  0.00  0.00     0.002 A 
ATOM      3  C5  UNL d   1       1.626   0.222  -0.858  0.00  0.00     0.002 A 
ATOM      4  C6  UNL d   1       1.235   1.320  -1.621  0.00  0.00    -0.004 A 
ATOM      5  C7  UNL d   1       0.049   1.986  -1.321  0.00  0.00     0.002 A 
ATOM      6  C8  UNL d   1      -0.742   1.562  -0.252  0.00  0.00     0.002 A 
ENDROOT
BRANCH   1   7
ATOM      7  C2  UNL d   1      -1.197   0.026   1.702  0.00  0.00     0.056 C 
BRANCH   7   8
ATOM      8  C1  UNL d   1      -2.612   0.615   1.708  0.00  0.00     0.007 C 
ATOM      9  C   UNL d   1      -3.703  -0.441   1.587  0.00  0.00     0.009 C 
ENDBRANCH   7   8
ENDBRANCH   1   7
TORSDOF 2
ENDMDL
