MODEL 1
REMARK minimizedAffinity -5.1494894
REMARK minimizedRMSD -1
REMARK  2 active torsions:
REMARK  status: ('A' for Active; 'I' for Inactive)
REMARK    1  A    between atoms: C1_2  and  C2_3 
REMARK    2  A    between atoms: C2_3  and  C3_4 
ROOT
ATOM      1  C3  UNL d   1       0.274  -0.290  -0.293  0.00  0.00    -0.075 A 
ATOM      2  C4  UNL d   1       0.938   0.862  -0.739  0.00  0.00     0.002 A 
ATOM      3  C5  UNL d   1       1.862   0.788  -1.781  0.00  0.00     0.002 A 
ATOM      4  C6  UNL d   1       2.142  -0.437  -2.383  0.00  0.00    -0.004 A 
ATOM      5  C7  UNL d   1       1.500  -1.590  -1.937  0.00  0.00     0.002 A 
ATOM      6  C8  UNL d   1       0.572  -1.519  -0.897  0.00  0.00     0.002 A 
ENDROOT
BRANCH   1   7
ATOM      7  C2  UNL d   1      -0.750  -0.212   0.815  0.00  0.00     0.056 C 
BRANCH   7   8
ATOM      8  C1  UNL d   1      -2.139   0.238   0.350  0.00  0.00     0.007 C 
ATOM      9  C   UNL d   1      -3.192   0.163   1.447  0.00  0.00     0.009 C 
ENDBRANCH   7   8
ENDBRANCH   1   7
TORSDOF 2
ENDMDL
