MODEL 1
REMARK minimizedAffinity -3.97058153
REMARK minimizedRMSD -1
REMARK  2 active torsions:
REMARK  status: ('A' for Active; 'I' for Inactive)
REMARK    1  A    between atoms: C1_2  and  C2_3 
REMARK    2  A    between atoms: C2_3  and  C3_4 
ROOT
ATOM      1  C3  UNL d   1       0.220   0.074   0.443  0.00  0.00    -0.075 A 
ATOM      2  C4  UNL d   1       0.825  -1.126   0.043  0.00  0.00     0.002 A 
ATOM      3  C5  UNL d   1       1.842  -1.123  -0.911  0.00  0.00     0.002 A 
ATOM      4  C6  UNL d   1       2.261   0.075  -1.484  0.00  0.00    -0.004 A 
ATOM      5  C7  UNL d   1       1.656   1.272  -1.107  0.00  0.00     0.002 A 
ATOM      6  C8  UNL d   1       0.640   1.273  -0.149  0.00  0.00     0.002 A 
ENDROOT
BRANCH   1   7
ATOM      7  C2  UNL d   1      -0.862   0.081   1.497  0.00  0.00     0.056 C 
BRANCH   7   8
ATOM      8  C1  UNL d   1      -2.285   0.066   0.930  0.00  0.00     0.007 C 
ATOM      9  C   UNL d   1      -3.322   0.627   1.894  0.00  0.00     0.009 C 
ENDBRANCH   7   8
ENDBRANCH   1   7
TORSDOF 2
ENDMDL
