MODEL 1
REMARK minimizedAffinity -2.81970191
REMARK minimizedRMSD -1
REMARK  2 active torsions:
REMARK  status: ('A' for Active; 'I' for Inactive)
REMARK    1  A    between atoms: C1_2  and  C2_3 
REMARK    2  A    between atoms: C2_3  and  C3_4 
ROOT
ATOM      1  C3  UNL d   1       1.075  -0.213  -0.868  0.00  0.00    -0.075 A 
ATOM      2  C4  UNL d   1       0.874  -1.560  -0.534  0.00  0.00     0.002 A 
ATOM      3  C5  UNL d   1       1.690  -2.553  -1.077  0.00  0.00     0.002 A 
ATOM      4  C6  UNL d   1       2.708  -2.214  -1.966  0.00  0.00    -0.004 A 
ATOM      5  C7  UNL d   1       2.905  -0.880  -2.317  0.00  0.00     0.002 A 
ATOM      6  C8  UNL d   1       2.093   0.116  -1.772  0.00  0.00     0.002 A 
ENDROOT
BRANCH   1   7
ATOM      7  C2  UNL d   1       0.214   0.870  -0.261  0.00  0.00     0.056 C 
BRANCH   7   8
ATOM      8  C1  UNL d   1      -1.119   0.365   0.300  0.00  0.00     0.007 C 
ATOM      9  C   UNL d   1      -1.322   0.710   1.770  0.00  0.00     0.009 C 
ENDBRANCH   7   8
ENDBRANCH   1   7
TORSDOF 2
ENDMDL
