MODEL 1
REMARK minimizedAffinity -4.08845806
REMARK minimizedRMSD -1
REMARK  2 active torsions:
REMARK  status: ('A' for Active; 'I' for Inactive)
REMARK    1  A    between atoms: C1_2  and  C2_3 
REMARK    2  A    between atoms: C2_3  and  C3_4 
ROOT
ATOM      1  C3  UNL d   1      -1.358   0.390   0.379  0.00  0.00    -0.075 A 
ATOM      2  C4  UNL d   1       0.000   0.053   0.294  0.00  0.00     0.002 A 
ATOM      3  C5  UNL d   1       0.903   0.906  -0.341  0.00  0.00     0.002 A 
ATOM      4  C6  UNL d   1       0.459   2.099  -0.906  0.00  0.00    -0.004 A 
ATOM      5  C7  UNL d   1      -0.891   2.437  -0.842  0.00  0.00     0.002 A 
ATOM      6  C8  UNL d   1      -1.796   1.587  -0.203  0.00  0.00     0.002 A 
ENDROOT
BRANCH   1   7
ATOM      7  C2  UNL d   1      -2.336  -0.515   1.090  0.00  0.00     0.056 C 
BRANCH   7   8
ATOM      8  C1  UNL d   1      -3.522   0.221   1.722  0.00  0.00     0.007 C 
ATOM      9  C   UNL d   1      -3.195   0.833   3.078  0.00  0.00     0.009 C 
ENDBRANCH   7   8
ENDBRANCH   1   7
TORSDOF 2
ENDMDL
