MODEL 1
REMARK minimizedAffinity -1.98757601
REMARK minimizedRMSD -1
REMARK  2 active torsions:
REMARK  status: ('A' for Active; 'I' for Inactive)
REMARK    1  A    between atoms: C1_2  and  C2_3 
REMARK    2  A    between atoms: C2_3  and  C3_4 
ROOT
ATOM      1  C3  UNL d   1      -1.260   0.973   0.513  0.00  0.00    -0.075 A 
ATOM      2  C4  UNL d   1      -1.047  -0.395   0.736  0.00  0.00     0.002 A 
ATOM      3  C5  UNL d   1       0.177  -0.983   0.418  0.00  0.00     0.002 A 
ATOM      4  C6  UNL d   1       1.199  -0.215  -0.137  0.00  0.00    -0.004 A 
ATOM      5  C7  UNL d   1       0.993   1.142  -0.379  0.00  0.00     0.002 A 
ATOM      6  C8  UNL d   1      -0.230   1.733  -0.057  0.00  0.00     0.002 A 
ENDROOT
BRANCH   1   7
ATOM      7  C2  UNL d   1      -2.572   1.621   0.883  0.00  0.00     0.056 C 
BRANCH   7   8
ATOM      8  C1  UNL d   1      -3.339   0.890   1.989  0.00  0.00     0.007 C 
ATOM      9  C   UNL d   1      -4.545   0.115   1.473  0.00  0.00     0.009 C 
ENDBRANCH   7   8
ENDBRANCH   1   7
TORSDOF 2
ENDMDL
