MODEL 1
REMARK minimizedAffinity -3.08309293
REMARK minimizedRMSD -1
REMARK  2 active torsions:
REMARK  status: ('A' for Active; 'I' for Inactive)
REMARK    1  A    between atoms: C1_2  and  C2_3 
REMARK    2  A    between atoms: C2_3  and  C3_4 
ROOT
ATOM      1  C3  UNL d   1       0.597   0.692  -0.837  0.00  0.00    -0.075 A 
ATOM      2  C4  UNL d   1       0.909  -0.035   0.321  0.00  0.00     0.002 A 
ATOM      3  C5  UNL d   1      -0.103  -0.479   1.173  0.00  0.00     0.002 A 
ATOM      4  C6  UNL d   1      -1.436  -0.195   0.883  0.00  0.00    -0.004 A 
ATOM      5  C7  UNL d   1      -1.756   0.540  -0.256  0.00  0.00     0.002 A 
ATOM      6  C8  UNL d   1      -0.746   0.982  -1.112  0.00  0.00     0.002 A 
ENDROOT
BRANCH   1   7
ATOM      7  C2  UNL d   1       1.686   1.150  -1.778  0.00  0.00     0.056 C 
BRANCH   7   8
ATOM      8  C1  UNL d   1       2.644   0.037  -2.212  0.00  0.00     0.007 C 
ATOM      9  C   UNL d   1       2.455  -0.386  -3.663  0.00  0.00     0.009 C 
ENDBRANCH   7   8
ENDBRANCH   1   7
TORSDOF 2
ENDMDL
