MODEL 1
REMARK minimizedAffinity -4.57140255
REMARK minimizedRMSD -1
REMARK  2 active torsions:
REMARK  status: ('A' for Active; 'I' for Inactive)
REMARK    1  A    between atoms: C1_2  and  C2_3 
REMARK    2  A    between atoms: C2_3  and  C3_4 
ROOT
ATOM      1  C3  UNL d   1      -0.762   0.492   0.529  0.00  0.00    -0.075 A 
ATOM      2  C4  UNL d   1      -1.299   0.728  -0.744  0.00  0.00     0.002 A 
ATOM      3  C5  UNL d   1      -0.462   0.998  -1.827  0.00  0.00     0.002 A 
ATOM      4  C6  UNL d   1       0.919   1.046  -1.649  0.00  0.00    -0.004 A 
ATOM      5  C7  UNL d   1       1.462   0.829  -0.384  0.00  0.00     0.002 A 
ATOM      6  C8  UNL d   1       0.627   0.554   0.700  0.00  0.00     0.002 A 
ENDROOT
BRANCH   1   7
ATOM      7  C2  UNL d   1      -1.661   0.170   1.699  0.00  0.00     0.056 C 
BRANCH   7   8
ATOM      8  C1  UNL d   1      -3.148   0.085   1.339  0.00  0.00     0.007 C 
ATOM      9  C   UNL d   1      -3.904   1.381   1.599  0.00  0.00     0.009 C 
ENDBRANCH   7   8
ENDBRANCH   1   7
TORSDOF 2
ENDMDL
