MODEL 1
REMARK minimizedAffinity -2.70599127
REMARK minimizedRMSD -1
REMARK  2 active torsions:
REMARK  status: ('A' for Active; 'I' for Inactive)
REMARK    1  A    between atoms: C1_2  and  C2_3 
REMARK    2  A    between atoms: C2_3  and  C3_4 
ROOT
ATOM      1  C3  UNL d   1       0.017   0.454   0.349  0.00  0.00    -0.075 A 
ATOM      2  C4  UNL d   1       1.405   0.291   0.230  0.00  0.00     0.002 A 
ATOM      3  C5  UNL d   1       2.127   1.032  -0.705  0.00  0.00     0.002 A 
ATOM      4  C6  UNL d   1       1.472   1.937  -1.537  0.00  0.00    -0.004 A 
ATOM      5  C7  UNL d   1       0.092   2.095  -1.439  0.00  0.00     0.002 A 
ATOM      6  C8  UNL d   1      -0.633   1.358  -0.502  0.00  0.00     0.002 A 
ENDROOT
BRANCH   1   7
ATOM      7  C2  UNL d   1      -0.767  -0.324   1.379  0.00  0.00     0.056 C 
BRANCH   7   8
ATOM      8  C1  UNL d   1      -1.951   0.445   1.973  0.00  0.00     0.007 C 
ATOM      9  C   UNL d   1      -3.286  -0.261   1.776  0.00  0.00     0.009 C 
ENDBRANCH   7   8
ENDBRANCH   1   7
TORSDOF 2
ENDMDL
