MODEL 1
REMARK minimizedAffinity 4.89719915
REMARK minimizedRMSD -1
REMARK  1 active torsions:
REMARK  status: ('A' for Active; 'I' for Inactive)
REMARK    1  A    between atoms: C3_4  and  O_7 
ROOT
ATOM      1  C   UNL d   1      -4.512  -1.414  -5.786  0.00  0.00    -0.033 A 
ATOM      2  C1  UNL d   1      -4.405  -2.800  -5.917  0.00  0.00     0.039 A 
ATOM      3  C2  UNL d   1      -3.147  -3.402  -5.975  0.00  0.00    -0.080 A 
ATOM      4  C3  UNL d   1      -2.005  -2.609  -5.901  0.00  0.00     0.150 A 
ATOM      5  C4  UNL d   1      -2.104  -1.228  -5.767  0.00  0.00    -0.007 A 
ATOM      6  C5  UNL d   1      -3.361  -0.628  -5.710  0.00  0.00     0.039 A 
ENDROOT
BRANCH   4   7
ATOM      7  O   UNL d   1      -0.756  -3.152  -5.959  0.00  0.00    -0.526 OA
ATOM      8  H5  UNL d   1      -0.843  -4.112  -6.081  0.00  0.00     0.418 HD
ENDBRANCH   4   7
TORSDOF 1
ENDMDL
