MODEL 1
REMARK minimizedAffinity -0.697267234
REMARK minimizedRMSD -1
REMARK  1 active torsions:
REMARK  status: ('A' for Active; 'I' for Inactive)
REMARK    1  A    between atoms: C3_4  and  O_7 
ROOT
ATOM      1  C   UNL d   1       5.513  -5.287   3.346  0.00  0.00    -0.033 A 
ATOM      2  C1  UNL d   1       4.457  -5.998   3.918  0.00  0.00     0.039 A 
ATOM      3  C2  UNL d   1       3.201  -6.000   3.307  0.00  0.00    -0.080 A 
ATOM      4  C3  UNL d   1       3.016  -5.288   2.125  0.00  0.00     0.150 A 
ATOM      5  C4  UNL d   1       4.065  -4.580   1.547  0.00  0.00    -0.007 A 
ATOM      6  C5  UNL d   1       5.318  -4.579   2.160  0.00  0.00     0.039 A 
ENDROOT
BRANCH   4   7
ATOM      7  O   UNL d   1       1.808  -5.256   1.494  0.00  0.00    -0.526 OA
ATOM      8  H5  UNL d   1       1.171  -5.766   2.023  0.00  0.00     0.418 HD
ENDBRANCH   4   7
TORSDOF 1
ENDMDL
