MODEL 1
REMARK minimizedAffinity 3.41772532
REMARK minimizedRMSD -1
REMARK  1 active torsions:
REMARK  status: ('A' for Active; 'I' for Inactive)
REMARK    1  A    between atoms: C3_4  and  O_7 
ROOT
ATOM      1  C   UNL d   1      -2.259  -3.887  -5.990  0.00  0.00    -0.033 A 
ATOM      2  C1  UNL d   1      -2.225  -5.278  -5.883  0.00  0.00     0.039 A 
ATOM      3  C2  UNL d   1      -3.414  -6.000  -5.758  0.00  0.00    -0.080 A 
ATOM      4  C3  UNL d   1      -4.628  -5.318  -5.743  0.00  0.00     0.150 A 
ATOM      5  C4  UNL d   1      -4.669  -3.932  -5.854  0.00  0.00    -0.007 A 
ATOM      6  C5  UNL d   1      -3.481  -3.214  -5.977  0.00  0.00     0.039 A 
ENDROOT
BRANCH   4   7
ATOM      7  O   UNL d   1      -5.814  -5.979  -5.619  0.00  0.00    -0.526 OA
ATOM      8  H5  UNL d   1      -5.630  -6.928  -5.523  0.00  0.00     0.418 HD
ENDBRANCH   4   7
TORSDOF 1
ENDMDL
