MODEL 1
REMARK minimizedAffinity 3.7442019
REMARK minimizedRMSD -1
REMARK  1 active torsions:
REMARK  status: ('A' for Active; 'I' for Inactive)
REMARK    1  A    between atoms: C3_4  and  O_7 
ROOT
ATOM      1  C   UNL d   1      -2.852  -0.170   0.869  0.00  0.00    -0.033 A 
ATOM      2  C1  UNL d   1      -3.757   0.859   1.137  0.00  0.00     0.039 A 
ATOM      3  C2  UNL d   1      -3.334   2.008   1.807  0.00  0.00    -0.080 A 
ATOM      4  C3  UNL d   1      -2.003   2.116   2.203  0.00  0.00     0.150 A 
ATOM      5  C4  UNL d   1      -1.095   1.098   1.936  0.00  0.00    -0.007 A 
ATOM      6  C5  UNL d   1      -1.520  -0.049   1.267  0.00  0.00     0.039 A 
ENDROOT
BRANCH   4   7
ATOM      7  O   UNL d   1      -1.544   3.217   2.864  0.00  0.00    -0.526 OA
ATOM      8  H5  UNL d   1      -2.289   3.825   3.004  0.00  0.00     0.418 HD
ENDBRANCH   4   7
TORSDOF 1
ENDMDL
