MODEL 1
REMARK minimizedAffinity -1.37812579
REMARK minimizedRMSD -1
REMARK  1 active torsions:
REMARK  status: ('A' for Active; 'I' for Inactive)
REMARK    1  A    between atoms: C3_4  and  O_7 
ROOT
ATOM      1  C   UNL d   1      -1.412  -0.848  -6.000  0.00  0.00    -0.033 A 
ATOM      2  C1  UNL d   1      -2.748  -0.443  -5.996  0.00  0.00     0.039 A 
ATOM      3  C2  UNL d   1      -3.768  -1.397  -5.995  0.00  0.00    -0.080 A 
ATOM      4  C3  UNL d   1      -3.439  -2.750  -5.996  0.00  0.00     0.150 A 
ATOM      5  C4  UNL d   1      -2.109  -3.160  -5.996  0.00  0.00    -0.007 A 
ATOM      6  C5  UNL d   1      -1.092  -2.206  -5.998  0.00  0.00     0.039 A 
ENDROOT
BRANCH   4   7
ATOM      7  O   UNL d   1      -4.399  -3.717  -6.000  0.00  0.00    -0.526 OA
ATOM      8  H5  UNL d   1      -5.270  -3.286  -6.029  0.00  0.00     0.418 HD
ENDBRANCH   4   7
TORSDOF 1
ENDMDL
