MODEL 1
REMARK minimizedAffinity 5.42354774
REMARK minimizedRMSD -1
REMARK  1 active torsions:
REMARK  status: ('A' for Active; 'I' for Inactive)
REMARK    1  A    between atoms: C3_4  and  O_7 
ROOT
ATOM      1  C   UNL d   1       2.938   2.360  -2.291  0.00  0.00    -0.033 A 
ATOM      2  C1  UNL d   1       2.401   1.222  -1.687  0.00  0.00     0.039 A 
ATOM      3  C2  UNL d   1       2.258   0.042  -2.419  0.00  0.00    -0.080 A 
ATOM      4  C3  UNL d   1       2.656   0.013  -3.753  0.00  0.00     0.150 A 
ATOM      5  C4  UNL d   1       3.196   1.142  -4.360  0.00  0.00    -0.007 A 
ATOM      6  C5  UNL d   1       3.337   2.320  -3.628  0.00  0.00     0.039 A 
ENDROOT
BRANCH   4   7
ATOM      7  O   UNL d   1       2.532  -1.114  -4.509  0.00  0.00    -0.526 OA
ATOM      8  H5  UNL d   1       2.118  -1.805  -3.966  0.00  0.00     0.418 HD
ENDBRANCH   4   7
TORSDOF 1
ENDMDL
