MODEL 1
REMARK minimizedAffinity 4.46531725
REMARK minimizedRMSD -1
REMARK  1 active torsions:
REMARK  status: ('A' for Active; 'I' for Inactive)
REMARK    1  A    between atoms: C3_4  and  O_7 
ROOT
ATOM      1  C   UNL d   1      -4.576   1.598   3.907  0.00  0.00    -0.033 A 
ATOM      2  C1  UNL d   1      -4.877   1.526   5.269  0.00  0.00     0.039 A 
ATOM      3  C2  UNL d   1      -4.593   0.363   5.987  0.00  0.00    -0.080 A 
ATOM      4  C3  UNL d   1      -4.008  -0.718   5.334  0.00  0.00     0.150 A 
ATOM      5  C4  UNL d   1      -3.701  -0.651   3.979  0.00  0.00    -0.007 A 
ATOM      6  C5  UNL d   1      -3.987   0.510   3.263  0.00  0.00     0.039 A 
ENDROOT
BRANCH   4   7
ATOM      7  O   UNL d   1      -3.716  -1.876   5.993  0.00  0.00    -0.526 OA
ATOM      8  H5  UNL d   1      -4.010  -1.787   6.915  0.00  0.00     0.418 HD
ENDBRANCH   4   7
TORSDOF 1
ENDMDL
