MODEL 1
REMARK minimizedAffinity 4.67738581
REMARK minimizedRMSD -1
REMARK  1 active torsions:
REMARK  status: ('A' for Active; 'I' for Inactive)
REMARK    1  A    between atoms: C3_4  and  O_7 
ROOT
ATOM      1  C   UNL d   1      -5.328   1.044   4.304  0.00  0.00    -0.033 A 
ATOM      2  C1  UNL d   1      -4.347   0.206   3.769  0.00  0.00     0.039 A 
ATOM      3  C2  UNL d   1      -3.802   0.480   2.513  0.00  0.00    -0.080 A 
ATOM      4  C3  UNL d   1      -4.244   1.593   1.804  0.00  0.00     0.150 A 
ATOM      5  C4  UNL d   1      -5.218   2.434   2.332  0.00  0.00    -0.007 A 
ATOM      6  C5  UNL d   1      -5.762   2.159   3.586  0.00  0.00     0.039 A 
ENDROOT
BRANCH   4   7
ATOM      7  O   UNL d   1      -3.745   1.898   0.573  0.00  0.00    -0.526 OA
ATOM      8  H5  UNL d   1      -3.102   1.213   0.323  0.00  0.00     0.418 HD
ENDBRANCH   4   7
TORSDOF 1
ENDMDL
