MODEL 1
REMARK minimizedAffinity 5.58175659
REMARK minimizedRMSD -1
REMARK  1 active torsions:
REMARK  status: ('A' for Active; 'I' for Inactive)
REMARK    1  A    between atoms: C3_4  and  O_7 
ROOT
ATOM      1  C   UNL d   1      -3.004  -1.674  -6.000  0.00  0.00    -0.033 A 
ATOM      2  C1  UNL d   1      -1.953  -2.592  -5.990  0.00  0.00     0.039 A 
ATOM      3  C2  UNL d   1      -0.686  -2.201  -5.553  0.00  0.00    -0.080 A 
ATOM      4  C3  UNL d   1      -0.484  -0.891  -5.127  0.00  0.00     0.150 A 
ATOM      5  C4  UNL d   1      -1.529   0.028  -5.130  0.00  0.00    -0.007 A 
ATOM      6  C5  UNL d   1      -2.793  -0.364  -5.569  0.00  0.00     0.039 A 
ENDROOT
BRANCH   4   7
ATOM      7  O   UNL d   1       0.735  -0.461  -4.696  0.00  0.00    -0.526 OA
ATOM      8  H5  UNL d   1       1.366  -1.196  -4.776  0.00  0.00     0.418 HD
ENDBRANCH   4   7
TORSDOF 1
ENDMDL
