MODEL 1
REMARK minimizedAffinity 4.99546909
REMARK minimizedRMSD -1
REMARK  1 active torsions:
REMARK  status: ('A' for Active; 'I' for Inactive)
REMARK    1  A    between atoms: C3_4  and  O_7 
ROOT
ATOM      1  C   UNL d   1      -1.505  -0.719  -5.988  0.00  0.00    -0.033 A 
ATOM      2  C1  UNL d   1      -2.869  -0.422  -5.977  0.00  0.00     0.039 A 
ATOM      3  C2  UNL d   1      -3.810  -1.453  -5.977  0.00  0.00    -0.080 A 
ATOM      4  C3  UNL d   1      -3.375  -2.775  -5.986  0.00  0.00     0.150 A 
ATOM      5  C4  UNL d   1      -2.018  -3.079  -5.993  0.00  0.00    -0.007 A 
ATOM      6  C5  UNL d   1      -1.079  -2.048  -5.994  0.00  0.00     0.039 A 
ENDROOT
BRANCH   4   7
ATOM      7  O   UNL d   1      -4.256  -3.816  -5.991  0.00  0.00    -0.526 OA
ATOM      8  H5  UNL d   1      -5.158  -3.455  -6.015  0.00  0.00     0.418 HD
ENDBRANCH   4   7
TORSDOF 1
ENDMDL
