MODEL 1
REMARK minimizedAffinity 4.87415504
REMARK minimizedRMSD -1
REMARK  1 active torsions:
REMARK  status: ('A' for Active; 'I' for Inactive)
REMARK    1  A    between atoms: C3_4  and  O_7 
ROOT
ATOM      1  C   UNL d   1       0.014   0.453  -4.500  0.00  0.00    -0.033 A 
ATOM      2  C1  UNL d   1      -1.226   0.440  -5.141  0.00  0.00     0.039 A 
ATOM      3  C2  UNL d   1      -1.740  -0.756  -5.648  0.00  0.00    -0.080 A 
ATOM      4  C3  UNL d   1      -1.004  -1.929  -5.507  0.00  0.00     0.150 A 
ATOM      5  C4  UNL d   1       0.231  -1.924  -4.867  0.00  0.00    -0.007 A 
ATOM      6  C5  UNL d   1       0.742  -0.729  -4.362  0.00  0.00     0.039 A 
ENDROOT
BRANCH   4   7
ATOM      7  O   UNL d   1      -1.461  -3.119  -5.990  0.00  0.00    -0.526 OA
ATOM      8  H5  UNL d   1      -2.313  -2.965  -6.433  0.00  0.00     0.418 HD
ENDBRANCH   4   7
TORSDOF 1
ENDMDL
