MODEL 1
REMARK minimizedAffinity 2.06411457
REMARK minimizedRMSD -1
REMARK  1 active torsions:
REMARK  status: ('A' for Active; 'I' for Inactive)
REMARK    1  A    between atoms: C3_4  and  O_7 
ROOT
ATOM      1  C   UNL d   1      -4.278   1.665   2.079  0.00  0.00    -0.033 A 
ATOM      2  C1  UNL d   1      -5.612   1.255   2.043  0.00  0.00     0.039 A 
ATOM      3  C2  UNL d   1      -5.961   0.064   1.403  0.00  0.00    -0.080 A 
ATOM      4  C3  UNL d   1      -4.968  -0.707   0.806  0.00  0.00     0.150 A 
ATOM      5  C4  UNL d   1      -3.636  -0.306   0.842  0.00  0.00    -0.007 A 
ATOM      6  C5  UNL d   1      -3.290   0.884   1.480  0.00  0.00     0.039 A 
ENDROOT
BRANCH   4   7
ATOM      7  O   UNL d   1      -5.260  -1.874   0.166  0.00  0.00    -0.526 OA
ATOM      8  H5  UNL d   1      -6.222  -2.009   0.196  0.00  0.00     0.418 HD
ENDBRANCH   4   7
TORSDOF 1
ENDMDL
