MODEL 1
REMARK minimizedAffinity 7.52616644
REMARK minimizedRMSD -1
REMARK  1 active torsions:
REMARK  status: ('A' for Active; 'I' for Inactive)
REMARK    1  A    between atoms: C3_4  and  O_7 
ROOT
ATOM      1  C   UNL d   1      -3.738  -0.881   5.998  0.00  0.00    -0.033 A 
ATOM      2  C1  UNL d   1      -2.684  -1.140   5.120  0.00  0.00     0.039 A 
ATOM      3  C2  UNL d   1      -2.652  -0.528   3.866  0.00  0.00    -0.080 A 
ATOM      4  C3  UNL d   1      -3.678   0.340   3.503  0.00  0.00     0.150 A 
ATOM      5  C4  UNL d   1      -4.729   0.605   4.374  0.00  0.00    -0.007 A 
ATOM      6  C5  UNL d   1      -4.760  -0.008   5.626  0.00  0.00     0.039 A 
ENDROOT
BRANCH   4   7
ATOM      7  O   UNL d   1      -3.692   0.958   2.287  0.00  0.00    -0.526 OA
ATOM      8  H5  UNL d   1      -2.919   0.658   1.781  0.00  0.00     0.418 HD
ENDBRANCH   4   7
TORSDOF 1
ENDMDL
