MODEL 1
REMARK minimizedAffinity 5.2445941
REMARK minimizedRMSD -1
REMARK  1 active torsions:
REMARK  status: ('A' for Active; 'I' for Inactive)
REMARK    1  A    between atoms: C3_4  and  O_7 
ROOT
ATOM      1  C   UNL d   1       0.675  -5.155   2.186  0.00  0.00    -0.033 A 
ATOM      2  C1  UNL d   1       1.622  -4.876   1.199  0.00  0.00     0.039 A 
ATOM      3  C2  UNL d   1       2.971  -5.154   1.424  0.00  0.00    -0.080 A 
ATOM      4  C3  UNL d   1       3.360  -5.713   2.638  0.00  0.00     0.150 A 
ATOM      5  C4  UNL d   1       2.422  -5.998   3.625  0.00  0.00    -0.007 A 
ATOM      6  C5  UNL d   1       1.075  -5.718   3.399  0.00  0.00     0.039 A 
ENDROOT
BRANCH   4   7
ATOM      7  O   UNL d   1       4.666  -5.998   2.905  0.00  0.00    -0.526 OA
ATOM      8  H5  UNL d   1       5.204  -5.721   2.144  0.00  0.00     0.418 HD
ENDBRANCH   4   7
TORSDOF 1
ENDMDL
