MODEL 1
REMARK minimizedAffinity -1.50395846
REMARK minimizedRMSD -1
REMARK  1 active torsions:
REMARK  status: ('A' for Active; 'I' for Inactive)
REMARK    1  A    between atoms: C3_4  and  O_7 
ROOT
ATOM      1  C   UNL d   1      -5.745  -2.445  -5.994  0.00  0.00    -0.033 A 
ATOM      2  C1  UNL d   1      -5.466  -3.813  -5.988  0.00  0.00     0.039 A 
ATOM      3  C2  UNL d   1      -4.143  -4.258  -5.988  0.00  0.00    -0.080 A 
ATOM      4  C3  UNL d   1      -3.109  -3.326  -5.993  0.00  0.00     0.150 A 
ATOM      5  C4  UNL d   1      -3.379  -1.962  -5.995  0.00  0.00    -0.007 A 
ATOM      6  C5  UNL d   1      -4.701  -1.519  -5.996  0.00  0.00     0.039 A 
ENDROOT
BRANCH   4   7
ATOM      7  O   UNL d   1      -1.801  -3.712  -5.998  0.00  0.00    -0.526 OA
ATOM      8  H5  UNL d   1      -1.768  -4.683  -6.025  0.00  0.00     0.418 HD
ENDBRANCH   4   7
TORSDOF 1
ENDMDL
