MODEL 1
REMARK minimizedAffinity -4.3917737
REMARK minimizedRMSD -1
REMARK  0 active torsions:
REMARK  status: ('A' for Active; 'I' for Inactive)
ROOT
ATOM      1  C1  BNZ d   1       0.405   0.066   0.642  0.00  0.00     0.000 A 
ATOM      2  C2  BNZ d   1       0.353   0.578   1.911  0.00  0.00     0.000 A 
ATOM      3  C3  BNZ d   1      -0.822   1.050   2.428  0.00  0.00     0.000 A 
ATOM      4  C4  BNZ d   1      -1.932   1.046   1.662  0.00  0.00     0.000 A 
ATOM      5  C5  BNZ d   1      -1.894   0.542   0.377  0.00  0.00     0.000 A 
ATOM      6  C6  BNZ d   1      -0.719   0.032  -0.126  0.00  0.00     0.000 A 
ENDROOT
TORSDOF 0
ENDMDL
