MODEL 1
REMARK minimizedAffinity -4.49235582
REMARK minimizedRMSD -1
REMARK  0 active torsions:
REMARK  status: ('A' for Active; 'I' for Inactive)
ROOT
ATOM      1  C1  BNZ d   1      -0.377   0.857   2.212  0.00  0.00     0.000 A 
ATOM      2  C2  BNZ d   1       0.829   0.728   1.577  0.00  0.00     0.000 A 
ATOM      3  C3  BNZ d   1       0.890   0.464   0.237  0.00  0.00     0.000 A 
ATOM      4  C4  BNZ d   1      -0.254   0.290  -0.457  0.00  0.00     0.000 A 
ATOM      5  C5  BNZ d   1      -1.477   0.408   0.171  0.00  0.00     0.000 A 
ATOM      6  C6  BNZ d   1      -1.535   0.712   1.512  0.00  0.00     0.000 A 
ENDROOT
TORSDOF 0
ENDMDL
