MODEL 1
REMARK minimizedAffinity -5.08795929
REMARK minimizedRMSD -1
REMARK  0 active torsions:
REMARK  status: ('A' for Active; 'I' for Inactive)
ROOT
ATOM      1  C1  BNZ d   1       0.337   1.012   2.705  0.00  0.00     0.000 A 
ATOM      2  C2  BNZ d   1       0.804   0.578   1.493  0.00  0.00     0.000 A 
ATOM      3  C3  BNZ d   1      -0.060   0.210   0.500  0.00  0.00     0.000 A 
ATOM      4  C4  BNZ d   1      -1.388   0.239   0.733  0.00  0.00     0.000 A 
ATOM      5  C5  BNZ d   1      -1.875   0.666   1.953  0.00  0.00     0.000 A 
ATOM      6  C6  BNZ d   1      -1.003   1.072   2.936  0.00  0.00     0.000 A 
ENDROOT
TORSDOF 0
ENDMDL
