MODEL 1
REMARK minimizedAffinity -4.08856726
REMARK minimizedRMSD -1
REMARK  0 active torsions:
REMARK  status: ('A' for Active; 'I' for Inactive)
ROOT
ATOM      1  C1  BNZ d   1      -2.060   0.192   0.086  0.00  0.00     0.000 A 
ATOM      2  C2  BNZ d   1      -1.276   1.259  -0.263  0.00  0.00     0.000 A 
ATOM      3  C3  BNZ d   1      -0.014   1.070  -0.753  0.00  0.00     0.000 A 
ATOM      4  C4  BNZ d   1       0.476  -0.182  -0.857  0.00  0.00     0.000 A 
ATOM      5  C5  BNZ d   1      -0.299  -1.268  -0.502  0.00  0.00     0.000 A 
ATOM      6  C6  BNZ d   1      -1.583  -1.075  -0.045  0.00  0.00     0.000 A 
ENDROOT
TORSDOF 0
ENDMDL
