MODEL 1
REMARK minimizedAffinity -2.83116889
REMARK minimizedRMSD -1
REMARK  0 active torsions:
REMARK  status: ('A' for Active; 'I' for Inactive)
ROOT
ATOM      1  C1  BNZ d   1       0.984  -0.783   1.069  0.00  0.00     0.000 A 
ATOM      2  C2  BNZ d   1      -0.262  -0.321   1.402  0.00  0.00     0.000 A 
ATOM      3  C3  BNZ d   1      -0.608  -0.122   2.709  0.00  0.00     0.000 A 
ATOM      4  C4  BNZ d   1       0.277  -0.421   3.682  0.00  0.00     0.000 A 
ATOM      5  C5  BNZ d   1       1.533  -0.896   3.363  0.00  0.00     0.000 A 
ATOM      6  C6  BNZ d   1       1.892  -1.059   2.044  0.00  0.00     0.000 A 
ENDROOT
TORSDOF 0
ENDMDL
