MODEL 1
REMARK minimizedAffinity -4.31582642
REMARK minimizedRMSD -1
REMARK  0 active torsions:
REMARK  status: ('A' for Active; 'I' for Inactive)
ROOT
ATOM      1  C1  BNZ d   1       0.803  -0.227   2.175  0.00  0.00     0.000 A 
ATOM      2  C2  BNZ d   1       1.039  -0.382   0.835  0.00  0.00     0.000 A 
ATOM      3  C3  BNZ d   1       0.066  -0.103  -0.084  0.00  0.00     0.000 A 
ATOM      4  C4  BNZ d   1      -1.153   0.291   0.340  0.00  0.00     0.000 A 
ATOM      5  C5  BNZ d   1      -1.409   0.443   1.688  0.00  0.00     0.000 A 
ATOM      6  C6  BNZ d   1      -0.415   0.198   2.608  0.00  0.00     0.000 A 
ENDROOT
TORSDOF 0
ENDMDL
