MODEL 1
REMARK minimizedAffinity -2.59693456
REMARK minimizedRMSD -1
REMARK  0 active torsions:
REMARK  status: ('A' for Active; 'I' for Inactive)
ROOT
ATOM      1  C1  BNZ d   1      -0.619  -0.900  -0.675  0.00  0.00     0.000 A 
ATOM      2  C2  BNZ d   1      -1.820  -0.514  -0.142  0.00  0.00     0.000 A 
ATOM      3  C3  BNZ d   1      -1.881   0.094   1.081  0.00  0.00     0.000 A 
ATOM      4  C4  BNZ d   1      -0.746   0.277   1.786  0.00  0.00     0.000 A 
ATOM      5  C5  BNZ d   1       0.472  -0.115   1.267  0.00  0.00     0.000 A 
ATOM      6  C6  BNZ d   1       0.533  -0.691   0.019  0.00  0.00     0.000 A 
ENDROOT
TORSDOF 0
ENDMDL
