MODEL 1
REMARK minimizedAffinity -1.82988417
REMARK minimizedRMSD -1
REMARK  0 active torsions:
REMARK  status: ('A' for Active; 'I' for Inactive)
ROOT
ATOM      1  C   UNL d   1      -0.805   0.716  -0.139  0.00  0.00    -0.002 A 
ATOM      2  C1  UNL d   1       0.180   0.274   0.734  0.00  0.00     0.010 A 
ATOM      3  C2  UNL d   1       0.773  -0.978   0.562  0.00  0.00     0.041 A 
ATOM      4  C3  UNL d   1       0.357  -1.787  -0.514  0.00  0.00    -0.075 A 
ATOM      5  S   UNL d   1       0.942  -3.356  -0.922  0.00  0.00     0.015 SA
ATOM      6  C4  UNL d   1      -0.100  -3.478  -2.265  0.00  0.00     0.022 A 
ATOM      7  C5  UNL d   1      -0.883  -2.357  -2.413  0.00  0.00     0.026 A 
ATOM      8  C6  UNL d   1      -0.632  -1.364  -1.407  0.00  0.00    -0.082 A 
ATOM      9  C7  UNL d   1      -1.215  -0.089  -1.205  0.00  0.00     0.045 A 
ENDROOT
TORSDOF 0
ENDMDL
