MODEL 1
REMARK minimizedAffinity -6.13418818
REMARK minimizedRMSD -1
REMARK  0 active torsions:
REMARK  status: ('A' for Active; 'I' for Inactive)
ROOT
ATOM      1  C   UNL d   1      -1.137   3.453  -0.117  0.00  0.00    -0.002 A 
ATOM      2  C1  UNL d   1      -1.133   3.270   1.258  0.00  0.00     0.010 A 
ATOM      3  C2  UNL d   1      -0.670   2.077   1.815  0.00  0.00     0.041 A 
ATOM      4  C3  UNL d   1      -0.203   1.061   0.958  0.00  0.00    -0.075 A 
ATOM      5  S   UNL d   1       0.412  -0.484   1.416  0.00  0.00     0.015 SA
ATOM      6  C4  UNL d   1       0.686  -0.937  -0.204  0.00  0.00     0.022 A 
ATOM      7  C5  UNL d   1       0.322   0.053  -1.085  0.00  0.00     0.026 A 
ATOM      8  C6  UNL d   1      -0.196   1.221  -0.430  0.00  0.00    -0.082 A 
ATOM      9  C7  UNL d   1      -0.673   2.442  -0.964  0.00  0.00     0.045 A 
ENDROOT
TORSDOF 0
ENDMDL
