MODEL 1
REMARK minimizedAffinity 1.6616503
REMARK minimizedRMSD -1
REMARK  0 active torsions:
REMARK  status: ('A' for Active; 'I' for Inactive)
ROOT
ATOM      1  C   UNL d   1      -0.553  -0.353  -1.244  0.00  0.00    -0.002 A 
ATOM      2  C1  UNL d   1       0.692  -0.396  -0.632  0.00  0.00     0.010 A 
ATOM      3  C2  UNL d   1       0.922   0.295   0.559  0.00  0.00     0.041 A 
ATOM      4  C3  UNL d   1      -0.130   1.037   1.131  0.00  0.00    -0.075 A 
ATOM      5  S   UNL d   1      -0.080   1.962   2.585  0.00  0.00     0.015 SA
ATOM      6  C4  UNL d   1      -1.710   2.435   2.429  0.00  0.00     0.022 A 
ATOM      7  C5  UNL d   1      -2.293   1.910   1.300  0.00  0.00     0.026 A 
ATOM      8  C6  UNL d   1      -1.393   1.095   0.534  0.00  0.00    -0.082 A 
ATOM      9  C7  UNL d   1      -1.595   0.384  -0.673  0.00  0.00     0.045 A 
ENDROOT
TORSDOF 0
ENDMDL
