MODEL 1
REMARK minimizedAffinity 5.89632273
REMARK minimizedRMSD -1
REMARK  1 active torsions:
REMARK  status: ('A' for Active; 'I' for Inactive)
REMARK    1  A    between atoms: C1_2  and  C2_3 
ROOT
ATOM      1  C2  UNL d   1       2.361  -2.142   3.046  0.00  0.00    -0.081 A 
ATOM      2  C3  UNL d   1       1.468  -3.202   3.249  0.00  0.00     0.006 A 
ATOM      3  C4  UNL d   1       1.771  -4.219   4.157  0.00  0.00     0.002 A 
ATOM      4  C5  UNL d   1       2.968  -4.190   4.882  0.00  0.00    -0.080 A 
ATOM      5  C6  UNL d   1       3.292  -5.260   5.882  0.00  0.00     0.076 C 
ATOM      6  C7  UNL d   1       3.868  -3.141   4.666  0.00  0.00     0.002 A 
ATOM      7  C8  UNL d   1       3.565  -2.124   3.758  0.00  0.00     0.006 A 
ENDROOT
BRANCH   1   8
ATOM      8  C1  UNL d   1       2.007  -1.010   2.115  0.00  0.00     0.054 C 
ATOM      9  C   UNL d   1       3.210  -0.116   1.849  0.00  0.00     0.018 C 
ENDBRANCH   1   8
TORSDOF 1
ENDMDL
