MODEL 1
REMARK minimizedAffinity -0.589493692
REMARK minimizedRMSD -1
REMARK  1 active torsions:
REMARK  status: ('A' for Active; 'I' for Inactive)
REMARK    1  A    between atoms: C1_2  and  C2_3 
ROOT
ATOM      1  C2  UNL d   1       1.769  -2.251   2.981  0.00  0.00    -0.081 A 
ATOM      2  C3  UNL d   1       2.246  -3.519   2.627  0.00  0.00     0.006 A 
ATOM      3  C4  UNL d   1       2.442  -4.499   3.603  0.00  0.00     0.002 A 
ATOM      4  C5  UNL d   1       2.158  -4.230   4.946  0.00  0.00    -0.080 A 
ATOM      5  C6  UNL d   1       2.336  -5.283   6.000  0.00  0.00     0.076 C 
ATOM      6  C7  UNL d   1       1.699  -2.957   5.302  0.00  0.00     0.002 A 
ATOM      7  C8  UNL d   1       1.503  -1.977   4.327  0.00  0.00     0.006 A 
ENDROOT
BRANCH   1   8
ATOM      8  C1  UNL d   1       1.495  -1.213   1.923  0.00  0.00     0.054 C 
ATOM      9  C   UNL d   1       2.248   0.079   2.206  0.00  0.00     0.018 C 
ENDBRANCH   1   8
TORSDOF 1
ENDMDL
