MODEL 1
REMARK minimizedAffinity 8.6825943
REMARK minimizedRMSD -1
REMARK  1 active torsions:
REMARK  status: ('A' for Active; 'I' for Inactive)
REMARK    1  A    between atoms: C1_2  and  C2_3 
ROOT
ATOM      1  C2  UNL d   1       3.827  -2.089   2.651  0.00  0.00    -0.081 A 
ATOM      2  C3  UNL d   1       3.268  -3.307   3.056  0.00  0.00     0.006 A 
ATOM      3  C4  UNL d   1       1.883  -3.488   3.048  0.00  0.00     0.002 A 
ATOM      4  C5  UNL d   1       1.035  -2.458   2.627  0.00  0.00    -0.080 A 
ATOM      5  C6  UNL d   1      -0.452  -2.649   2.585  0.00  0.00     0.076 C 
ATOM      6  C7  UNL d   1       1.593  -1.235   2.239  0.00  0.00     0.002 A 
ATOM      7  C8  UNL d   1       2.978  -1.053   2.247  0.00  0.00     0.006 A 
ENDROOT
BRANCH   1   8
ATOM      8  C1  UNL d   1       5.324  -1.914   2.597  0.00  0.00     0.054 C 
ATOM      9  C   UNL d   1       5.999  -3.117   1.955  0.00  0.00     0.018 C 
ENDBRANCH   1   8
TORSDOF 1
ENDMDL
