MODEL 1
REMARK minimizedAffinity 0.125129327
REMARK minimizedRMSD -1
REMARK  1 active torsions:
REMARK  status: ('A' for Active; 'I' for Inactive)
REMARK    1  A    between atoms: C1_2  and  C2_3 
ROOT
ATOM      1  C2  UNL d   1       2.235  -0.873   2.361  0.00  0.00    -0.081 A 
ATOM      2  C3  UNL d   1       3.373  -1.688   2.407  0.00  0.00     0.006 A 
ATOM      3  C4  UNL d   1       3.342  -2.909   3.084  0.00  0.00     0.002 A 
ATOM      4  C5  UNL d   1       2.172  -3.340   3.718  0.00  0.00    -0.080 A 
ATOM      5  C6  UNL d   1       2.117  -4.663   4.422  0.00  0.00     0.076 C 
ATOM      6  C7  UNL d   1       1.041  -2.518   3.687  0.00  0.00     0.002 A 
ATOM      7  C8  UNL d   1       1.071  -1.296   3.011  0.00  0.00     0.006 A 
ENDROOT
BRANCH   1   8
ATOM      8  C1  UNL d   1       2.246   0.414   1.577  0.00  0.00     0.054 C 
ATOM      9  C   UNL d   1       3.292   0.381   0.472  0.00  0.00     0.018 C 
ENDBRANCH   1   8
TORSDOF 1
ENDMDL
