MODEL 1
REMARK minimizedAffinity 10.7097626
REMARK minimizedRMSD -1
REMARK  1 active torsions:
REMARK  status: ('A' for Active; 'I' for Inactive)
REMARK    1  A    between atoms: C1_2  and  C2_3 
ROOT
ATOM      1  C2  UNL d   1       2.898  -5.848  -3.451  0.00  0.00    -0.081 A 
ATOM      2  C3  UNL d   1       4.295  -5.781  -3.523  0.00  0.00     0.006 A 
ATOM      3  C4  UNL d   1       5.062  -5.705  -2.358  0.00  0.00     0.002 A 
ATOM      4  C5  UNL d   1       4.446  -5.703  -1.102  0.00  0.00    -0.080 A 
ATOM      5  C6  UNL d   1       5.259  -5.653   0.158  0.00  0.00     0.076 C 
ATOM      6  C7  UNL d   1       3.050  -5.753  -1.030  0.00  0.00     0.002 A 
ATOM      7  C8  UNL d   1       2.282  -5.828  -2.194  0.00  0.00     0.006 A 
ENDROOT
BRANCH   1   8
ATOM      8  C1  UNL d   1       2.072  -5.995  -4.703  0.00  0.00     0.054 C 
ATOM      9  C   UNL d   1       2.930  -5.854  -5.952  0.00  0.00     0.018 C 
ENDBRANCH   1   8
TORSDOF 1
ENDMDL
