MODEL 1
REMARK minimizedAffinity 1.61635494
REMARK minimizedRMSD -1
REMARK  1 active torsions:
REMARK  status: ('A' for Active; 'I' for Inactive)
REMARK    1  A    between atoms: C1_2  and  C2_3 
ROOT
ATOM      1  C2  UNL d   1       2.951  -5.773  -4.176  0.00  0.00    -0.081 A 
ATOM      2  C3  UNL d   1       1.957  -5.925  -3.201  0.00  0.00     0.006 A 
ATOM      3  C4  UNL d   1       2.298  -6.000  -1.848  0.00  0.00     0.002 A 
ATOM      4  C5  UNL d   1       3.635  -5.916  -1.447  0.00  0.00    -0.080 A 
ATOM      5  C6  UNL d   1       4.011  -5.965   0.004  0.00  0.00     0.076 C 
ATOM      6  C7  UNL d   1       4.630  -5.782  -2.422  0.00  0.00     0.002 A 
ATOM      7  C8  UNL d   1       4.290  -5.707  -3.774  0.00  0.00     0.006 A 
ENDROOT
BRANCH   1   8
ATOM      8  C1  UNL d   1       2.583  -5.627  -5.630  0.00  0.00     0.054 C 
ATOM      9  C   UNL d   1       1.127  -6.000  -5.872  0.00  0.00     0.018 C 
ENDBRANCH   1   8
TORSDOF 1
ENDMDL
