MODEL 1
REMARK minimizedAffinity -5.05890131
REMARK minimizedRMSD -1
REMARK  1 active torsions:
REMARK  status: ('A' for Active; 'I' for Inactive)
REMARK    1  A    between atoms: C1_2  and  C2_3 
ROOT
ATOM      1  C2  UNL d   1      -0.427   0.604   0.326  0.00  0.00    -0.076 A 
ATOM      2  C3  UNL d   1       0.859   0.341   0.827  0.00  0.00     0.004 A 
ATOM      3  C4  UNL d   1       1.069   0.121   2.188  0.00  0.00    -0.003 A 
ATOM      4  C5  UNL d   1      -0.006   0.160   3.069  0.00  0.00     0.000 A 
ATOM      5  C6  UNL d   1      -1.292   0.402   2.588  0.00  0.00     0.000 A 
ATOM      6  C7  UNL d   1      -1.522   0.610   1.217  0.00  0.00    -0.073 A 
ATOM      7  C8  UNL d   1      -2.929   0.873   0.753  0.00  0.00     0.078 C 
ENDROOT
BRANCH   1   8
ATOM      8  C1  UNL d   1      -0.589   0.862  -1.155  0.00  0.00     0.053 C 
ATOM      9  C   UNL d   1       0.404   0.075  -1.995  0.00  0.00     0.018 C 
ENDBRANCH   1   8
TORSDOF 1
ENDMDL
