MODEL 1
REMARK minimizedAffinity -4.3156023
REMARK minimizedRMSD -1
REMARK  1 active torsions:
REMARK  status: ('A' for Active; 'I' for Inactive)
REMARK    1  A    between atoms: C1_2  and  C2_3 
ROOT
ATOM      1  C2  UNL d   1       0.792   0.008  -0.515  0.00  0.00    -0.076 A 
ATOM      2  C3  UNL d   1      -0.560  -0.374  -0.546  0.00  0.00     0.004 A 
ATOM      3  C4  UNL d   1      -1.304  -0.476   0.629  0.00  0.00    -0.003 A 
ATOM      4  C5  UNL d   1      -0.708  -0.196   1.853  0.00  0.00     0.000 A 
ATOM      5  C6  UNL d   1       0.627   0.202   1.901  0.00  0.00     0.000 A 
ATOM      6  C7  UNL d   1       1.387   0.325   0.725  0.00  0.00    -0.073 A 
ATOM      7  C8  UNL d   1       2.825   0.753   0.836  0.00  0.00     0.078 C 
ENDROOT
BRANCH   1   8
ATOM      8  C1  UNL d   1       1.556   0.075  -1.818  0.00  0.00     0.053 C 
ATOM      9  C   UNL d   1       1.010  -0.885  -2.863  0.00  0.00     0.018 C 
ENDBRANCH   1   8
TORSDOF 1
ENDMDL
