MODEL 1
REMARK minimizedAffinity -3.20228815
REMARK minimizedRMSD -1
REMARK  1 active torsions:
REMARK  status: ('A' for Active; 'I' for Inactive)
REMARK    1  A    between atoms: C1_2  and  C2_3 
ROOT
ATOM      1  C2  UNL d   1      -0.029  -0.143   1.059  0.00  0.00    -0.076 A 
ATOM      2  C3  UNL d   1       1.314  -0.302   0.674  0.00  0.00     0.004 A 
ATOM      3  C4  UNL d   1       1.678  -0.303  -0.672  0.00  0.00    -0.003 A 
ATOM      4  C5  UNL d   1       0.706  -0.145  -1.653  0.00  0.00     0.000 A 
ATOM      5  C6  UNL d   1      -0.628   0.031  -1.288  0.00  0.00     0.000 A 
ATOM      6  C7  UNL d   1      -1.010   0.051   0.064  0.00  0.00    -0.073 A 
ATOM      7  C8  UNL d   1      -2.464   0.238   0.401  0.00  0.00     0.078 C 
ENDROOT
BRANCH   1   8
ATOM      8  C1  UNL d   1      -0.368  -0.177   2.533  0.00  0.00     0.053 C 
ATOM      9  C   UNL d   1       0.110   1.065   3.269  0.00  0.00     0.018 C 
ENDBRANCH   1   8
TORSDOF 1
ENDMDL
