MODEL 1
REMARK minimizedAffinity -6.54564905
REMARK minimizedRMSD -1
REMARK  1 active torsions:
REMARK  status: ('A' for Active; 'I' for Inactive)
REMARK    1  A    between atoms: C1_2  and  C2_3 
ROOT
ATOM      1  C2  UNL d   1      -0.461   0.309   0.316  0.00  0.00    -0.076 A 
ATOM      2  C3  UNL d   1       0.721   0.073   1.040  0.00  0.00     0.004 A 
ATOM      3  C4  UNL d   1       0.678  -0.330   2.373  0.00  0.00    -0.003 A 
ATOM      4  C5  UNL d   1      -0.549  -0.504   3.005  0.00  0.00     0.000 A 
ATOM      5  C6  UNL d   1      -1.731  -0.291   2.297  0.00  0.00     0.000 A 
ATOM      6  C7  UNL d   1      -1.705   0.099   0.947  0.00  0.00    -0.073 A 
ATOM      7  C8  UNL d   1      -3.011   0.320   0.234  0.00  0.00     0.078 C 
ENDROOT
BRANCH   1   8
ATOM      8  C1  UNL d   1      -0.351   0.770  -1.120  0.00  0.00     0.053 C 
ATOM      9  C   UNL d   1       0.801   0.105  -1.859  0.00  0.00     0.018 C 
ENDBRANCH   1   8
TORSDOF 1
ENDMDL
