MODEL 1
REMARK minimizedAffinity -3.42690825
REMARK minimizedRMSD -1
REMARK  1 active torsions:
REMARK  status: ('A' for Active; 'I' for Inactive)
REMARK    1  A    between atoms: C1_2  and  C2_3 
ROOT
ATOM      1  C2  UNL d   1      -0.159  -0.084   0.525  0.00  0.00    -0.076 A 
ATOM      2  C3  UNL d   1      -1.266  -0.948   0.470  0.00  0.00     0.004 A 
ATOM      3  C4  UNL d   1      -1.827  -1.471   1.634  0.00  0.00    -0.003 A 
ATOM      4  C5  UNL d   1      -1.289  -1.137   2.873  0.00  0.00     0.000 A 
ATOM      5  C6  UNL d   1      -0.202  -0.267   2.947  0.00  0.00     0.000 A 
ATOM      6  C7  UNL d   1       0.365   0.281   1.783  0.00  0.00    -0.073 A 
ATOM      7  C8  UNL d   1       1.541   1.209   1.922  0.00  0.00     0.078 C 
ENDROOT
BRANCH   1   8
ATOM      8  C1  UNL d   1       0.424   0.430  -0.772  0.00  0.00     0.053 C 
ATOM      9  C   UNL d   1       0.337  -0.592  -1.895  0.00  0.00     0.018 C 
ENDBRANCH   1   8
TORSDOF 1
ENDMDL
