MODEL 1
REMARK minimizedAffinity -2.5098021
REMARK minimizedRMSD -1
REMARK  1 active torsions:
REMARK  status: ('A' for Active; 'I' for Inactive)
REMARK    1  A    between atoms: C1_2  and  C2_3 
ROOT
ATOM      1  C2  UNL d   1      -0.244   0.036   0.364  0.00  0.00    -0.076 A 
ATOM      2  C3  UNL d   1       1.096  -0.172   0.738  0.00  0.00     0.004 A 
ATOM      3  C4  UNL d   1       1.456  -0.297   2.078  0.00  0.00    -0.003 A 
ATOM      4  C5  UNL d   1       0.482  -0.218   3.068  0.00  0.00     0.000 A 
ATOM      5  C6  UNL d   1      -0.854  -0.030   2.715  0.00  0.00     0.000 A 
ATOM      6  C7  UNL d   1      -1.236   0.082   1.367  0.00  0.00    -0.073 A 
ATOM      7  C8  UNL d   1      -2.690   0.289   1.044  0.00  0.00     0.078 C 
ENDROOT
BRANCH   1   8
ATOM      8  C1  UNL d   1      -0.571   0.191  -1.104  0.00  0.00     0.053 C 
ATOM      9  C   UNL d   1       0.615  -0.124  -2.001  0.00  0.00     0.018 C 
ENDBRANCH   1   8
TORSDOF 1
ENDMDL
