MODEL 1
REMARK minimizedAffinity -3.57192898
REMARK minimizedRMSD -1
REMARK  1 active torsions:
REMARK  status: ('A' for Active; 'I' for Inactive)
REMARK    1  A    between atoms: C1_2  and  C2_3 
ROOT
ATOM      1  C2  UNL d   1       1.021   0.254   0.874  0.00  0.00    -0.076 A 
ATOM      2  C3  UNL d   1       0.231  -0.709   0.222  0.00  0.00     0.004 A 
ATOM      3  C4  UNL d   1       0.081  -0.696  -1.164  0.00  0.00    -0.003 A 
ATOM      4  C5  UNL d   1       0.720   0.279  -1.921  0.00  0.00     0.000 A 
ATOM      5  C6  UNL d   1       1.522   1.232  -1.293  0.00  0.00     0.000 A 
ATOM      6  C7  UNL d   1       1.696   1.224   0.102  0.00  0.00    -0.073 A 
ATOM      7  C8  UNL d   1       2.568   2.278   0.727  0.00  0.00     0.078 C 
ENDROOT
BRANCH   1   8
ATOM      8  C1  UNL d   1       1.123   0.207   2.381  0.00  0.00     0.053 C 
ATOM      9  C   UNL d   1      -0.171   0.616   3.067  0.00  0.00     0.018 C 
ENDBRANCH   1   8
TORSDOF 1
ENDMDL
