MODEL 1
REMARK minimizedAffinity -4.58781433
REMARK minimizedRMSD -1
REMARK  1 active torsions:
REMARK  status: ('A' for Active; 'I' for Inactive)
REMARK    1  A    between atoms: C1_2  and  C2_3 
ROOT
ATOM      1  C2  UNL d   1      -0.014  -0.016   0.521  0.00  0.00    -0.076 A 
ATOM      2  C3  UNL d   1       1.254   0.243   1.069  0.00  0.00     0.004 A 
ATOM      3  C4  UNL d   1       1.553  -0.109   2.384  0.00  0.00    -0.003 A 
ATOM      4  C5  UNL d   1       0.589  -0.727   3.173  0.00  0.00     0.000 A 
ATOM      5  C6  UNL d   1      -0.669  -1.008   2.640  0.00  0.00     0.000 A 
ATOM      6  C7  UNL d   1      -0.981  -0.675   1.311  0.00  0.00    -0.073 A 
ATOM      7  C8  UNL d   1      -2.355  -0.996   0.790  0.00  0.00     0.078 C 
ENDROOT
BRANCH   1   8
ATOM      8  C1  UNL d   1      -0.290   0.413  -0.902  0.00  0.00     0.053 C 
ATOM      9  C   UNL d   1       0.559  -0.343  -1.913  0.00  0.00     0.018 C 
ENDBRANCH   1   8
TORSDOF 1
ENDMDL
