MODEL 1
REMARK minimizedAffinity -0.562365115
REMARK minimizedRMSD -1
REMARK  1 active torsions:
REMARK  status: ('A' for Active; 'I' for Inactive)
REMARK    1  A    between atoms: C1_2  and  C2_3 
ROOT
ATOM      1  C2  UNL d   1       0.465   1.304   3.056  0.00  0.00    -0.076 A 
ATOM      2  C3  UNL d   1      -0.704   1.153   3.823  0.00  0.00     0.004 A 
ATOM      3  C4  UNL d   1      -1.837   0.541   3.290  0.00  0.00    -0.003 A 
ATOM      4  C5  UNL d   1      -1.820   0.070   1.981  0.00  0.00     0.000 A 
ATOM      5  C6  UNL d   1      -0.663   0.196   1.213  0.00  0.00     0.000 A 
ATOM      6  C7  UNL d   1       0.493   0.795   1.740  0.00  0.00    -0.073 A 
ATOM      7  C8  UNL d   1       1.711   0.910   0.865  0.00  0.00     0.078 C 
ENDROOT
BRANCH   1   8
ATOM      8  C1  UNL d   1       1.654   2.000   3.679  0.00  0.00     0.053 C 
ATOM      9  C   UNL d   1       1.253   3.214   4.504  0.00  0.00     0.018 C 
ENDBRANCH   1   8
TORSDOF 1
ENDMDL
