MODEL 1
REMARK minimizedAffinity -2.31520176
REMARK minimizedRMSD -1
REMARK  0 active torsions:
REMARK  status: ('A' for Active; 'I' for Inactive)
ROOT
ATOM      1  O1  BZF d   1       2.409  -2.294   0.607  0.00  0.00    -0.204 OA
ATOM      2  C2  BZF d   1       1.375  -2.815  -0.147  0.00  0.00     0.174 A 
ATOM      3  C3  BZF d   1       0.441  -1.874  -0.393  0.00  0.00    -0.012 A 
ATOM      4  C3A BZF d   1       0.965  -0.667   0.168  0.00  0.00    -0.107 A 
ATOM      5  C4  BZF d   1       0.505   0.617   0.230  0.00  0.00     0.055 A 
ATOM      6  C5  BZF d   1       1.225   1.545   0.914  0.00  0.00    -0.016 A 
ATOM      7  C6  BZF d   1       2.405   1.222   1.552  0.00  0.00     0.022 A 
ATOM      8  C7  BZF d   1       2.904  -0.037   1.514  0.00  0.00     0.029 A 
ATOM      9  C7A BZF d   1       2.196  -0.970   0.796  0.00  0.00     0.058 A 
ENDROOT
TORSDOF 0
ENDMDL
