MODEL 1
REMARK minimizedAffinity -2.25512767
REMARK minimizedRMSD -1
REMARK  0 active torsions:
REMARK  status: ('A' for Active; 'I' for Inactive)
ROOT
ATOM      1  O1  BZF d   1       0.329  -0.418  -1.847  0.00  0.00    -0.204 OA
ATOM      2  C2  BZF d   1       0.344  -0.095  -0.504  0.00  0.00     0.174 A 
ATOM      3  C3  BZF d   1      -0.848   0.406  -0.120  0.00  0.00    -0.012 A 
ATOM      4  C3A BZF d   1      -1.687   0.309  -1.275  0.00  0.00    -0.107 A 
ATOM      5  C4  BZF d   1      -2.992   0.631  -1.518  0.00  0.00     0.055 A 
ATOM      6  C5  BZF d   1      -3.487   0.480  -2.774  0.00  0.00    -0.016 A 
ATOM      7  C6  BZF d   1      -2.705   0.014  -3.811  0.00  0.00     0.022 A 
ATOM      8  C7  BZF d   1      -1.407  -0.324  -3.618  0.00  0.00     0.029 A 
ATOM      9  C7A BZF d   1      -0.913  -0.203  -2.342  0.00  0.00     0.058 A 
ENDROOT
TORSDOF 0
ENDMDL
