MODEL 1
REMARK minimizedAffinity -5.92099857
REMARK minimizedRMSD -1
REMARK  0 active torsions:
REMARK  status: ('A' for Active; 'I' for Inactive)
ROOT
ATOM      1  O1  BZF d   1      -0.911  -0.737   0.629  0.00  0.00    -0.204 OA
ATOM      2  C2  BZF d   1      -1.519   0.477   0.373  0.00  0.00     0.174 A 
ATOM      3  C3  BZF d   1      -0.600   1.460   0.273  0.00  0.00    -0.012 A 
ATOM      4  C3A BZF d   1       0.666   0.804   0.388  0.00  0.00    -0.107 A 
ATOM      5  C4  BZF d   1       1.958   1.245   0.351  0.00  0.00     0.055 A 
ATOM      6  C5  BZF d   1       2.965   0.358   0.568  0.00  0.00    -0.016 A 
ATOM      7  C6  BZF d   1       2.716  -0.973   0.830  0.00  0.00     0.022 A 
ATOM      8  C7  BZF d   1       1.451  -1.458   0.872  0.00  0.00     0.029 A 
ATOM      9  C7A BZF d   1       0.433  -0.571   0.620  0.00  0.00     0.058 A 
ENDROOT
TORSDOF 0
ENDMDL
