MODEL 1
REMARK minimizedAffinity -2.67963457
REMARK minimizedRMSD -1
REMARK  0 active torsions:
REMARK  status: ('A' for Active; 'I' for Inactive)
ROOT
ATOM      1  O1  BZF d   1      -0.109  -1.710   1.040  0.00  0.00    -0.204 OA
ATOM      2  C2  BZF d   1      -1.346  -1.352   0.539  0.00  0.00     0.174 A 
ATOM      3  C3  BZF d   1      -1.316  -0.098   0.043  0.00  0.00    -0.012 A 
ATOM      4  C3A BZF d   1       0.046   0.322   0.163  0.00  0.00    -0.107 A 
ATOM      5  C4  BZF d   1       0.708   1.468  -0.172  0.00  0.00     0.055 A 
ATOM      6  C5  BZF d   1       2.024   1.588   0.146  0.00  0.00    -0.016 A 
ATOM      7  C6  BZF d   1       2.707   0.585   0.802  0.00  0.00     0.022 A 
ATOM      8  C7  BZF d   1       2.094  -0.572   1.150  0.00  0.00     0.029 A 
ATOM      9  C7A BZF d   1       0.773  -0.710   0.801  0.00  0.00     0.058 A 
ENDROOT
TORSDOF 0
ENDMDL
