MODEL 1
REMARK minimizedAffinity -4.96012783
REMARK minimizedRMSD -1
REMARK  0 active torsions:
REMARK  status: ('A' for Active; 'I' for Inactive)
ROOT
ATOM      1  O1  BZF d   1      -2.990  -0.071  -4.000  0.00  0.00    -0.204 OA
ATOM      2  C2  BZF d   1      -2.392  -0.971  -3.139  0.00  0.00     0.174 A 
ATOM      3  C3  BZF d   1      -2.289  -0.450  -1.899  0.00  0.00    -0.012 A 
ATOM      4  C3A BZF d   1      -2.940   0.822  -1.969  0.00  0.00    -0.107 A 
ATOM      5  C4  BZF d   1      -3.178   1.807  -1.054  0.00  0.00     0.055 A 
ATOM      6  C5  BZF d   1      -3.776   2.957  -1.461  0.00  0.00    -0.016 A 
ATOM      7  C6  BZF d   1      -4.144   3.158  -2.776  0.00  0.00     0.022 A 
ATOM      8  C7  BZF d   1      -3.933   2.208  -3.719  0.00  0.00     0.029 A 
ATOM      9  C7A BZF d   1      -3.359   1.031  -3.304  0.00  0.00     0.058 A 
ENDROOT
TORSDOF 0
ENDMDL
