MODEL 1
REMARK minimizedAffinity 0.972414732
REMARK minimizedRMSD -1
REMARK  1 active torsions:
REMARK  status: ('A' for Active; 'I' for Inactive)
REMARK    1  A    between atoms: N_2  and  C1_3 
ROOT
ATOM      1  C1  UNL d   1       5.002   4.647   1.436  0.00  0.00     0.143 A 
ATOM      2  C2  UNL d   1       3.734   4.602   0.848  0.00  0.00    -0.057 A 
ATOM      3  C3  UNL d   1       3.482   5.219  -0.383  0.00  0.00     0.033 A 
ATOM      4  C4  UNL d   1       4.491   5.920  -1.036  0.00  0.00    -0.042 A 
ATOM      5  C5  UNL d   1       5.753   5.999  -0.457  0.00  0.00     0.033 A 
ATOM      6  C6  UNL d   1       6.000   5.374   0.769  0.00  0.00    -0.057 A 
ENDROOT
BRANCH   1   7
ATOM      7  N   UNL d   1       5.290   4.137   2.705  0.00  0.00    -0.732 N 
ATOM      8  C   UNL d   1       5.997   4.940   3.679  0.00  0.00     0.284 C 
ATOM      9  H3  UNL d   1       4.517   3.599   3.091  0.00  0.00     0.395 HD
ENDBRANCH   1   7
TORSDOF 1
ENDMDL
