MODEL 1
REMARK minimizedAffinity -1.21342611
REMARK minimizedRMSD -1
REMARK  1 active torsions:
REMARK  status: ('A' for Active; 'I' for Inactive)
REMARK    1  A    between atoms: N_2  and  C1_3 
ROOT
ATOM      1  C1  UNL d   1       1.276   1.121  -2.036  0.00  0.00     0.143 A 
ATOM      2  C2  UNL d   1       2.391   1.756  -1.479  0.00  0.00    -0.057 A 
ATOM      3  C3  UNL d   1       2.283   2.520  -0.310  0.00  0.00     0.033 A 
ATOM      4  C4  UNL d   1       1.048   2.687   0.307  0.00  0.00    -0.042 A 
ATOM      5  C5  UNL d   1      -0.078   2.086  -0.243  0.00  0.00     0.033 A 
ATOM      6  C6  UNL d   1       0.037   1.319  -1.407  0.00  0.00    -0.057 A 
ENDROOT
BRANCH   1   7
ATOM      7  N   UNL d   1       1.300   0.430  -3.250  0.00  0.00    -0.732 N 
ATOM      8  C   UNL d   1       1.367   1.147  -4.505  0.00  0.00     0.284 C 
ATOM      9  H3  UNL d   1       1.888  -0.399  -3.213  0.00  0.00     0.395 HD
ENDBRANCH   1   7
TORSDOF 1
ENDMDL
