MODEL 1
REMARK minimizedAffinity 11.0322227
REMARK minimizedRMSD -1
REMARK  1 active torsions:
REMARK  status: ('A' for Active; 'I' for Inactive)
REMARK    1  A    between atoms: N_2  and  C1_3 
ROOT
ATOM      1  C1  UNL d   1      -3.021   3.916   4.201  0.00  0.00     0.143 A 
ATOM      2  C2  UNL d   1      -4.260   3.926   4.853  0.00  0.00    -0.057 A 
ATOM      3  C3  UNL d   1      -4.614   4.964   5.723  0.00  0.00     0.033 A 
ATOM      4  C4  UNL d   1      -3.721   6.000   5.980  0.00  0.00    -0.042 A 
ATOM      5  C5  UNL d   1      -2.476   5.997   5.363  0.00  0.00     0.033 A 
ATOM      6  C6  UNL d   1      -2.130   4.961   4.490  0.00  0.00    -0.057 A 
ENDROOT
BRANCH   1   7
ATOM      7  N   UNL d   1      -2.572   2.863   3.402  0.00  0.00    -0.732 N 
ATOM      8  C   UNL d   1      -3.456   1.771   3.054  0.00  0.00     0.284 C 
ATOM      9  H3  UNL d   1      -1.983   3.181   2.635  0.00  0.00     0.395 HD
ENDBRANCH   1   7
TORSDOF 1
ENDMDL
