MODEL 1
REMARK minimizedAffinity 5.33773088
REMARK minimizedRMSD -1
REMARK  1 active torsions:
REMARK  status: ('A' for Active; 'I' for Inactive)
REMARK    1  A    between atoms: N_2  and  C1_3 
ROOT
ATOM      1  C1  UNL d   1      -3.292   0.477   4.391  0.00  0.00     0.143 A 
ATOM      2  C2  UNL d   1      -2.955  -0.879   4.323  0.00  0.00    -0.057 A 
ATOM      3  C3  UNL d   1      -3.609  -1.746   3.440  0.00  0.00     0.033 A 
ATOM      4  C4  UNL d   1      -4.636  -1.277   2.627  0.00  0.00    -0.042 A 
ATOM      5  C5  UNL d   1      -5.005   0.062   2.696  0.00  0.00     0.033 A 
ATOM      6  C6  UNL d   1      -4.343   0.925   3.575  0.00  0.00    -0.057 A 
ENDROOT
BRANCH   1   7
ATOM      7  N   UNL d   1      -2.747   1.369   5.318  0.00  0.00    -0.732 N 
ATOM      8  C   UNL d   1      -3.587   2.329   6.000  0.00  0.00     0.284 C 
ATOM      9  H3  UNL d   1      -2.049   0.930   5.915  0.00  0.00     0.395 HD
ENDBRANCH   1   7
TORSDOF 1
ENDMDL
