MODEL 1
REMARK minimizedAffinity 6.33876657
REMARK minimizedRMSD -1
REMARK  1 active torsions:
REMARK  status: ('A' for Active; 'I' for Inactive)
REMARK    1  A    between atoms: N_2  and  C1_3 
ROOT
ATOM      1  C1  UNL d   1       1.615   2.990  -1.605  0.00  0.00     0.143 A 
ATOM      2  C2  UNL d   1       0.783   1.909  -1.293  0.00  0.00    -0.057 A 
ATOM      3  C3  UNL d   1       0.422   0.968  -2.265  0.00  0.00     0.033 A 
ATOM      4  C4  UNL d   1       0.865   1.107  -3.576  0.00  0.00    -0.042 A 
ATOM      5  C5  UNL d   1       1.673   2.187  -3.914  0.00  0.00     0.033 A 
ATOM      6  C6  UNL d   1       2.036   3.120  -2.938  0.00  0.00    -0.057 A 
ENDROOT
BRANCH   1   7
ATOM      7  N   UNL d   1       1.930   4.013  -0.707  0.00  0.00    -0.732 N 
ATOM      8  C   UNL d   1       2.108   3.730   0.701  0.00  0.00     0.284 C 
ATOM      9  H3  UNL d   1       2.608   4.669  -1.088  0.00  0.00     0.395 HD
ENDBRANCH   1   7
TORSDOF 1
ENDMDL
