MODEL 1
REMARK minimizedAffinity 1.75384915
REMARK minimizedRMSD -1
REMARK  1 active torsions:
REMARK  status: ('A' for Active; 'I' for Inactive)
REMARK    1  A    between atoms: N_2  and  C1_3 
ROOT
ATOM      1  C1  UNL d   1       1.393   1.735  -3.273  0.00  0.00     0.143 A 
ATOM      2  C2  UNL d   1       1.539   2.806  -2.385  0.00  0.00    -0.057 A 
ATOM      3  C3  UNL d   1       0.988   2.764  -1.099  0.00  0.00     0.033 A 
ATOM      4  C4  UNL d   1       0.254   1.656  -0.686  0.00  0.00    -0.042 A 
ATOM      5  C5  UNL d   1       0.075   0.590  -1.560  0.00  0.00     0.033 A 
ATOM      6  C6  UNL d   1       0.633   0.636  -2.841  0.00  0.00    -0.057 A 
ENDROOT
BRANCH   1   7
ATOM      7  N   UNL d   1       1.832   1.758  -4.598  0.00  0.00    -0.732 N 
ATOM      8  C   UNL d   1       2.186   3.007  -5.236  0.00  0.00     0.284 C 
ATOM      9  H3  UNL d   1       2.464   0.989  -4.811  0.00  0.00     0.395 HD
ENDBRANCH   1   7
TORSDOF 1
ENDMDL
