MODEL 1
REMARK minimizedAffinity 4.16911936
REMARK minimizedRMSD -1
REMARK  1 active torsions:
REMARK  status: ('A' for Active; 'I' for Inactive)
REMARK    1  A    between atoms: N_2  and  C1_3 
ROOT
ATOM      1  C1  UNL d   1       1.295   0.813  -2.493  0.00  0.00     0.143 A 
ATOM      2  C2  UNL d   1       1.307   1.628  -3.630  0.00  0.00    -0.057 A 
ATOM      3  C3  UNL d   1       2.471   1.798  -4.389  0.00  0.00     0.033 A 
ATOM      4  C4  UNL d   1       3.655   1.177  -4.007  0.00  0.00    -0.042 A 
ATOM      5  C5  UNL d   1       3.673   0.382  -2.866  0.00  0.00     0.033 A 
ATOM      6  C6  UNL d   1       2.506   0.211  -2.116  0.00  0.00    -0.057 A 
ENDROOT
BRANCH   1   7
ATOM      7  N   UNL d   1       0.196   0.683  -1.641  0.00  0.00    -0.732 N 
ATOM      8  C   UNL d   1      -0.380   1.844  -0.997  0.00  0.00     0.284 C 
ATOM      9  H3  UNL d   1      -0.490   0.018  -1.992  0.00  0.00     0.395 HD
ENDBRANCH   1   7
TORSDOF 1
ENDMDL
