MODEL 1
REMARK minimizedAffinity 3.06035542
REMARK minimizedRMSD -1
REMARK  1 active torsions:
REMARK  status: ('A' for Active; 'I' for Inactive)
REMARK    1  A    between atoms: N_2  and  C1_3 
ROOT
ATOM      1  C1  UNL d   1       3.213   3.420  -3.045  0.00  0.00     0.143 A 
ATOM      2  C2  UNL d   1       3.701   2.582  -4.054  0.00  0.00    -0.057 A 
ATOM      3  C3  UNL d   1       3.043   1.394  -4.392  0.00  0.00     0.033 A 
ATOM      4  C4  UNL d   1       1.897   1.006  -3.706  0.00  0.00    -0.042 A 
ATOM      5  C5  UNL d   1       1.408   1.811  -2.683  0.00  0.00     0.033 A 
ATOM      6  C6  UNL d   1       2.066   3.000  -2.354  0.00  0.00    -0.057 A 
ENDROOT
BRANCH   1   7
ATOM      7  N   UNL d   1       3.877   4.564  -2.596  0.00  0.00    -0.732 N 
ATOM      8  C   UNL d   1       5.215   4.475  -2.052  0.00  0.00     0.284 C 
ATOM      9  H3  UNL d   1       3.729   5.364  -3.207  0.00  0.00     0.395 HD
ENDBRANCH   1   7
TORSDOF 1
ENDMDL
