MODEL 1
REMARK minimizedAffinity 9.63944912
REMARK minimizedRMSD -1
REMARK  1 active torsions:
REMARK  status: ('A' for Active; 'I' for Inactive)
REMARK    1  A    between atoms: N_2  and  C1_3 
ROOT
ATOM      1  C1  UNL d   1       0.473  -0.624  -3.080  0.00  0.00     0.143 A 
ATOM      2  C2  UNL d   1       1.496  -0.074  -3.859  0.00  0.00    -0.057 A 
ATOM      3  C3  UNL d   1       1.888   1.261  -3.705  0.00  0.00     0.033 A 
ATOM      4  C4  UNL d   1       1.241   2.081  -2.785  0.00  0.00    -0.042 A 
ATOM      5  C5  UNL d   1       0.205   1.562  -2.017  0.00  0.00     0.033 A 
ATOM      6  C6  UNL d   1      -0.178   0.226  -2.171  0.00  0.00    -0.057 A 
ENDROOT
BRANCH   1   7
ATOM      7  N   UNL d   1      -0.029  -1.916  -3.254  0.00  0.00    -0.732 N 
ATOM      8  C   UNL d   1       0.746  -3.069  -2.850  0.00  0.00     0.284 C 
ATOM      9  H3  UNL d   1      -1.019  -1.982  -3.030  0.00  0.00     0.395 HD
ENDBRANCH   1   7
TORSDOF 1
ENDMDL
