MODEL 1
REMARK minimizedAffinity -3.63648248
REMARK minimizedRMSD -1
REMARK  2 active torsions:
REMARK  status: ('A' for Active; 'I' for Inactive)
REMARK    1  A    between atoms: C1_2  and  C2_3 
REMARK    2  A    between atoms: C2_3  and  C3_4 
ROOT
ATOM      1  C3  UNL d   1       0.268   0.209   0.114  0.00  0.00    -0.075 A 
ATOM      2  C4  UNL d   1       1.518   0.712  -0.276  0.00  0.00     0.002 A 
ATOM      3  C5  UNL d   1       2.694   0.113   0.176  0.00  0.00     0.002 A 
ATOM      4  C6  UNL d   1       2.636  -0.987   1.029  0.00  0.00    -0.004 A 
ATOM      5  C7  UNL d   1       1.400  -1.485   1.435  0.00  0.00     0.002 A 
ATOM      6  C8  UNL d   1       0.221  -0.890   0.981  0.00  0.00     0.002 A 
ENDROOT
BRANCH   1   7
ATOM      7  C2  UNL d   1      -1.009   0.834  -0.395  0.00  0.00     0.056 C 
BRANCH   7   8
ATOM      8  C1  UNL d   1      -1.653   0.077  -1.561  0.00  0.00     0.007 C 
ATOM      9  C   UNL d   1      -2.392   0.987  -2.534  0.00  0.00     0.009 C 
ENDBRANCH   7   8
ENDBRANCH   1   7
TORSDOF 2
ENDMDL
