MODEL 1
REMARK minimizedAffinity -3.67495155
REMARK minimizedRMSD -1
REMARK  2 active torsions:
REMARK  status: ('A' for Active; 'I' for Inactive)
REMARK    1  A    between atoms: C1_2  and  C2_3 
REMARK    2  A    between atoms: C2_3  and  C3_4 
ROOT
ATOM      1  C3  UNL d   1      -0.028  -0.249   0.978  0.00  0.00    -0.075 A 
ATOM      2  C4  UNL d   1      -0.370  -0.691   2.264  0.00  0.00     0.002 A 
ATOM      3  C5  UNL d   1       0.516  -1.475   3.004  0.00  0.00     0.002 A 
ATOM      4  C6  UNL d   1       1.750  -1.834   2.464  0.00  0.00    -0.004 A 
ATOM      5  C7  UNL d   1       2.094  -1.414   1.181  0.00  0.00     0.002 A 
ATOM      6  C8  UNL d   1       1.210  -0.627   0.441  0.00  0.00     0.002 A 
ENDROOT
BRANCH   1   7
ATOM      7  C2  UNL d   1      -0.971   0.623   0.185  0.00  0.00     0.056 C 
BRANCH   7   8
ATOM      8  C1  UNL d   1      -0.781   0.528  -1.333  0.00  0.00     0.007 C 
ATOM      9  C   UNL d   1      -1.803   1.338  -2.118  0.00  0.00     0.009 C 
ENDBRANCH   7   8
ENDBRANCH   1   7
TORSDOF 2
ENDMDL
