MODEL 1
REMARK minimizedAffinity -2.92682862
REMARK minimizedRMSD -1
REMARK  2 active torsions:
REMARK  status: ('A' for Active; 'I' for Inactive)
REMARK    1  A    between atoms: C1_2  and  C2_3 
REMARK    2  A    between atoms: C2_3  and  C3_4 
ROOT
ATOM      1  C3  UNL d   1      -0.646   0.678  -0.404  0.00  0.00    -0.075 A 
ATOM      2  C4  UNL d   1       0.507  -0.118  -0.445  0.00  0.00     0.002 A 
ATOM      3  C5  UNL d   1       0.802  -0.992   0.603  0.00  0.00     0.002 A 
ATOM      4  C6  UNL d   1      -0.045  -1.073   1.706  0.00  0.00    -0.004 A 
ATOM      5  C7  UNL d   1      -1.185  -0.274   1.764  0.00  0.00     0.002 A 
ATOM      6  C8  UNL d   1      -1.485   0.598   0.716  0.00  0.00     0.002 A 
ENDROOT
BRANCH   1   7
ATOM      7  C2  UNL d   1      -0.986   1.604  -1.548  0.00  0.00     0.056 C 
BRANCH   7   8
ATOM      8  C1  UNL d   1      -2.272   1.229  -2.292  0.00  0.00     0.007 C 
ATOM      9  C   UNL d   1      -2.109   1.223  -3.806  0.00  0.00     0.009 C 
ENDBRANCH   7   8
ENDBRANCH   1   7
TORSDOF 2
ENDMDL
