MODEL 1
REMARK minimizedAffinity -4.9649477
REMARK minimizedRMSD -1
REMARK  2 active torsions:
REMARK  status: ('A' for Active; 'I' for Inactive)
REMARK    1  A    between atoms: C1_2  and  C2_3 
REMARK    2  A    between atoms: C2_3  and  C3_4 
ROOT
ATOM      1  C3  UNL d   1      -0.972   0.464  -0.616  0.00  0.00    -0.075 A 
ATOM      2  C4  UNL d   1      -2.175   0.130  -1.255  0.00  0.00     0.002 A 
ATOM      3  C5  UNL d   1      -2.784   1.028  -2.131  0.00  0.00     0.002 A 
ATOM      4  C6  UNL d   1      -2.206   2.273  -2.371  0.00  0.00    -0.004 A 
ATOM      5  C7  UNL d   1      -1.020   2.622  -1.729  0.00  0.00     0.002 A 
ATOM      6  C8  UNL d   1      -0.406   1.723  -0.855  0.00  0.00     0.002 A 
ENDROOT
BRANCH   1   7
ATOM      7  C2  UNL d   1      -0.292  -0.516   0.311  0.00  0.00     0.056 C 
BRANCH   7   8
ATOM      8  C1  UNL d   1       1.174  -0.791  -0.039  0.00  0.00     0.007 C 
ATOM      9  C   UNL d   1       1.839  -1.787   0.901  0.00  0.00     0.009 C 
ENDBRANCH   7   8
ENDBRANCH   1   7
TORSDOF 2
ENDMDL
