MODEL 1
REMARK minimizedAffinity -5.18843126
REMARK minimizedRMSD -1
REMARK  2 active torsions:
REMARK  status: ('A' for Active; 'I' for Inactive)
REMARK    1  A    between atoms: C1_2  and  C2_3 
REMARK    2  A    between atoms: C2_3  and  C3_4 
ROOT
ATOM      1  C3  UNL d   1      -0.734   0.806  -0.884  0.00  0.00    -0.075 A 
ATOM      2  C4  UNL d   1      -1.484   0.109  -1.843  0.00  0.00     0.002 A 
ATOM      3  C5  UNL d   1      -2.304   0.798  -2.738  0.00  0.00     0.002 A 
ATOM      4  C6  UNL d   1      -2.392   2.187  -2.679  0.00  0.00    -0.004 A 
ATOM      5  C7  UNL d   1      -1.664   2.888  -1.719  0.00  0.00     0.002 A 
ATOM      6  C8  UNL d   1      -0.840   2.202  -0.825  0.00  0.00     0.002 A 
ENDROOT
BRANCH   1   7
ATOM      7  C2  UNL d   1       0.177   0.069   0.068  0.00  0.00     0.056 C 
BRANCH   7   8
ATOM      8  C1  UNL d   1       1.358  -0.629  -0.614  0.00  0.00     0.007 C 
ATOM      9  C   UNL d   1       2.117  -1.569   0.314  0.00  0.00     0.009 C 
ENDBRANCH   7   8
ENDBRANCH   1   7
TORSDOF 2
ENDMDL
