MODEL 1
REMARK minimizedAffinity -2.27489448
REMARK minimizedRMSD -1
REMARK  2 active torsions:
REMARK  status: ('A' for Active; 'I' for Inactive)
REMARK    1  A    between atoms: C1_2  and  C2_3 
REMARK    2  A    between atoms: C2_3  and  C3_4 
ROOT
ATOM      1  C3  UNL d   1       0.238   0.198  -0.056  0.00  0.00    -0.075 A 
ATOM      2  C4  UNL d   1       1.611  -0.068  -0.155  0.00  0.00     0.002 A 
ATOM      3  C5  UNL d   1       2.246  -0.880   0.786  0.00  0.00     0.002 A 
ATOM      4  C6  UNL d   1       1.519  -1.425   1.842  0.00  0.00    -0.004 A 
ATOM      5  C7  UNL d   1       0.158  -1.154   1.960  0.00  0.00     0.002 A 
ATOM      6  C8  UNL d   1      -0.480  -0.346   1.017  0.00  0.00     0.002 A 
ENDROOT
BRANCH   1   7
ATOM      7  C2  UNL d   1      -0.460   1.051  -1.088  0.00  0.00     0.056 C 
BRANCH   7   8
ATOM      8  C1  UNL d   1      -1.533   0.307  -1.890  0.00  0.00     0.007 C 
ATOM      9  C   UNL d   1      -2.329   1.216  -2.816  0.00  0.00     0.009 C 
ENDBRANCH   7   8
ENDBRANCH   1   7
TORSDOF 2
ENDMDL
