MODEL 1
REMARK minimizedAffinity 9.05645943
REMARK minimizedRMSD -1
REMARK  2 active torsions:
REMARK  status: ('A' for Active; 'I' for Inactive)
REMARK    1  A    between atoms: C1_2  and  C2_3 
REMARK    2  A    between atoms: C2_3  and  C3_4 
ROOT
ATOM      1  C3  UNL d   1       0.244   0.787  -0.988  0.00  0.00    -0.075 A 
ATOM      2  C4  UNL d   1       1.501   0.378  -1.458  0.00  0.00     0.002 A 
ATOM      3  C5  UNL d   1       2.510   0.021  -0.563  0.00  0.00     0.002 A 
ATOM      4  C6  UNL d   1       2.280   0.077   0.810  0.00  0.00    -0.004 A 
ATOM      5  C7  UNL d   1       1.041   0.498   1.288  0.00  0.00     0.002 A 
ATOM      6  C8  UNL d   1       0.028   0.852   0.395  0.00  0.00     0.002 A 
ENDROOT
BRANCH   1   7
ATOM      7  C2  UNL d   1      -0.861   1.147  -1.952  0.00  0.00     0.056 C 
BRANCH   7   8
ATOM      8  C1  UNL d   1      -0.744   2.558  -2.536  0.00  0.00     0.007 C 
ATOM      9  C   UNL d   1      -1.107   2.628  -4.014  0.00  0.00     0.009 C 
ENDBRANCH   7   8
ENDBRANCH   1   7
TORSDOF 2
ENDMDL
