MODEL 1
REMARK minimizedAffinity -3.64513445
REMARK minimizedRMSD -1
REMARK  2 active torsions:
REMARK  status: ('A' for Active; 'I' for Inactive)
REMARK    1  A    between atoms: C1_2  and  C2_3 
REMARK    2  A    between atoms: C2_3  and  C3_4 
ROOT
ATOM      1  C3  UNL d   1       0.811  -0.134   0.150  0.00  0.00    -0.075 A 
ATOM      2  C4  UNL d   1       1.124  -0.928   1.262  0.00  0.00     0.002 A 
ATOM      3  C5  UNL d   1       2.317  -1.650   1.304  0.00  0.00     0.002 A 
ATOM      4  C6  UNL d   1       3.205  -1.596   0.232  0.00  0.00    -0.004 A 
ATOM      5  C7  UNL d   1       2.897  -0.824  -0.885  0.00  0.00     0.002 A 
ATOM      6  C8  UNL d   1       1.706  -0.097  -0.928  0.00  0.00     0.002 A 
ENDROOT
BRANCH   1   7
ATOM      7  C2  UNL d   1      -0.465   0.673   0.111  0.00  0.00     0.056 C 
BRANCH   7   8
ATOM      8  C1  UNL d   1      -1.720  -0.127   0.475  0.00  0.00     0.007 C 
ATOM      9  C   UNL d   1      -2.147   0.054   1.926  0.00  0.00     0.009 C 
ENDBRANCH   7   8
ENDBRANCH   1   7
TORSDOF 2
ENDMDL
