MODEL 1
REMARK minimizedAffinity -5.31050014
REMARK minimizedRMSD -1
REMARK  2 active torsions:
REMARK  status: ('A' for Active; 'I' for Inactive)
REMARK    1  A    between atoms: C1_2  and  C2_3 
REMARK    2  A    between atoms: C2_3  and  C3_4 
ROOT
ATOM      1  C3  UNL d   1      -0.121   0.050   0.339  0.00  0.00    -0.075 A 
ATOM      2  C4  UNL d   1      -0.386  -1.088   1.116  0.00  0.00     0.002 A 
ATOM      3  C5  UNL d   1       0.596  -2.059   1.308  0.00  0.00     0.002 A 
ATOM      4  C6  UNL d   1       1.851  -1.912   0.720  0.00  0.00    -0.004 A 
ATOM      5  C7  UNL d   1       2.120  -0.794  -0.067  0.00  0.00     0.002 A 
ATOM      6  C8  UNL d   1       1.140   0.182  -0.257  0.00  0.00     0.002 A 
ENDROOT
BRANCH   1   7
ATOM      7  C2  UNL d   1      -1.170   1.119   0.151  0.00  0.00     0.056 C 
BRANCH   7   8
ATOM      8  C1  UNL d   1      -1.221   1.701  -1.265  0.00  0.00     0.007 C 
ATOM      9  C   UNL d   1      -2.246   1.016  -2.159  0.00  0.00     0.009 C 
ENDBRANCH   7   8
ENDBRANCH   1   7
TORSDOF 2
ENDMDL
