MODEL 1
REMARK minimizedAffinity -0.592559218
REMARK minimizedRMSD -1
REMARK  0 active torsions:
REMARK  status: ('A' for Active; 'I' for Inactive)
ROOT
ATOM      1  N1  IND d   1       0.289   0.536  -1.628  0.00  0.00    -0.196 N 
ATOM      2  C2  IND d   1       0.341  -0.378  -2.643  0.00  0.00     0.054 A 
ATOM      3  C3  IND d   1      -0.068  -1.590  -2.205  0.00  0.00    -0.031 A 
ATOM      4  C4  IND d   1      -0.962  -2.277   0.109  0.00  0.00     0.051 A 
ATOM      5  C5  IND d   1      -1.161  -1.797   1.373  0.00  0.00    -0.031 A 
ATOM      6  C6  IND d   1      -0.884  -0.487   1.708  0.00  0.00     0.015 A 
ATOM      7  C7  IND d   1      -0.406   0.398   0.783  0.00  0.00    -0.016 A 
ATOM      8  C8  IND d   1      -0.196  -0.088  -0.499  0.00  0.00    -0.047 A 
ATOM      9  C9  IND d   1      -0.435  -1.427  -0.834  0.00  0.00    -0.096 A 
ATOM     10  HN1 IND d   1       0.521   1.362  -1.684  0.00  0.00     0.298 HD
ENDROOT
TORSDOF 0
ENDMDL
