MODEL 1
REMARK minimizedAffinity 10.5162468
REMARK minimizedRMSD -1
REMARK  0 active torsions:
REMARK  status: ('A' for Active; 'I' for Inactive)
ROOT
ATOM      1  N1  IND d   1       1.476   2.321   1.552  0.00  0.00    -0.196 N 
ATOM      2  C2  IND d   1       0.857   3.428   2.063  0.00  0.00     0.054 A 
ATOM      3  C3  IND d   1       1.458   4.553   1.613  0.00  0.00    -0.031 A 
ATOM      4  C4  IND d   1       3.408   4.813  -0.047  0.00  0.00     0.051 A 
ATOM      5  C5  IND d   1       4.324   4.087  -0.756  0.00  0.00    -0.031 A 
ATOM      6  C6  IND d   1       4.336   2.707  -0.733  0.00  0.00     0.015 A 
ATOM      7  C7  IND d   1       3.421   1.999  -0.006  0.00  0.00    -0.016 A 
ATOM      8  C8  IND d   1       2.494   2.733   0.720  0.00  0.00    -0.047 A 
ATOM      9  C9  IND d   1       2.504   4.134   0.734  0.00  0.00    -0.096 A 
ATOM     10  HN1 IND d   1       1.265   1.505   1.722  0.00  0.00     0.298 HD
ENDROOT
TORSDOF 0
ENDMDL
