MODEL 1
REMARK minimizedAffinity -0.796236932
REMARK minimizedRMSD -1
REMARK  0 active torsions:
REMARK  status: ('A' for Active; 'I' for Inactive)
ROOT
ATOM      1  N1  IND d   1       2.953   2.172   0.251  0.00  0.00    -0.196 N 
ATOM      2  C2  IND d   1       2.733   3.236   1.080  0.00  0.00     0.054 A 
ATOM      3  C3  IND d   1       1.466   3.211   1.551  0.00  0.00    -0.031 A 
ATOM      4  C4  IND d   1      -0.385   1.462   1.175  0.00  0.00     0.051 A 
ATOM      5  C5  IND d   1      -0.668   0.330   0.465  0.00  0.00    -0.031 A 
ATOM      6  C6  IND d   1       0.260  -0.260  -0.368  0.00  0.00     0.015 A 
ATOM      7  C7  IND d   1       1.517   0.256  -0.513  0.00  0.00    -0.016 A 
ATOM      8  C8  IND d   1       1.806   1.410   0.201  0.00  0.00    -0.047 A 
ATOM      9  C9  IND d   1       0.854   2.037   1.015  0.00  0.00    -0.096 A 
ATOM     10  HN1 IND d   1       3.685   2.005  -0.169  0.00  0.00     0.298 HD
ENDROOT
TORSDOF 0
ENDMDL
