MODEL 1
REMARK minimizedAffinity -2.6064508
REMARK minimizedRMSD -1
REMARK  0 active torsions:
REMARK  status: ('A' for Active; 'I' for Inactive)
ROOT
ATOM      1  N1  IND d   1       1.475  -0.027   0.422  0.00  0.00    -0.196 N 
ATOM      2  C2  IND d   1       0.254  -0.224  -0.159  0.00  0.00     0.054 A 
ATOM      3  C3  IND d   1      -0.439   0.936  -0.204  0.00  0.00    -0.031 A 
ATOM      4  C4  IND d   1       0.279   3.298   0.526  0.00  0.00     0.051 A 
ATOM      5  C5  IND d   1       1.292   3.972   1.147  0.00  0.00    -0.031 A 
ATOM      6  C6  IND d   1       2.443   3.335   1.565  0.00  0.00     0.015 A 
ATOM      7  C7  IND d   1       2.629   1.997   1.365  0.00  0.00    -0.016 A 
ATOM      8  C8  IND d   1       1.599   1.308   0.741  0.00  0.00    -0.047 A 
ATOM      9  C9  IND d   1       0.410   1.941   0.353  0.00  0.00    -0.096 A 
ATOM     10  HN1 IND d   1       2.067  -0.634   0.564  0.00  0.00     0.298 HD
ENDROOT
TORSDOF 0
ENDMDL
