MODEL 1
REMARK minimizedAffinity 6.51503229
REMARK minimizedRMSD -1
REMARK  0 active torsions:
REMARK  status: ('A' for Active; 'I' for Inactive)
ROOT
ATOM      1  N1  IND d   1      -0.433  -2.021  -2.252  0.00  0.00    -0.196 N 
ATOM      2  C2  IND d   1      -1.250  -3.063  -2.590  0.00  0.00     0.054 A 
ATOM      3  C3  IND d   1      -1.973  -3.461  -1.519  0.00  0.00    -0.031 A 
ATOM      4  C4  IND d   1      -2.050  -2.477   0.859  0.00  0.00     0.051 A 
ATOM      5  C5  IND d   1      -1.455  -1.541   1.657  0.00  0.00    -0.031 A 
ATOM      6  C6  IND d   1      -0.471  -0.698   1.183  0.00  0.00     0.015 A 
ATOM      7  C7  IND d   1      -0.051  -0.753  -0.116  0.00  0.00    -0.016 A 
ATOM      8  C8  IND d   1      -0.648  -1.707  -0.928  0.00  0.00    -0.047 A 
ATOM      9  C9  IND d   1      -1.618  -2.594  -0.441  0.00  0.00    -0.096 A 
ATOM     10  HN1 IND d   1       0.123  -1.628  -2.777  0.00  0.00     0.298 HD
ENDROOT
TORSDOF 0
ENDMDL
