MODEL 1
REMARK minimizedAffinity -1.2407279
REMARK minimizedRMSD -1
REMARK  0 active torsions:
REMARK  status: ('A' for Active; 'I' for Inactive)
ROOT
ATOM      1  N1  IND d   1      -0.789  -1.084   1.643  0.00  0.00    -0.196 N 
ATOM      2  C2  IND d   1      -0.728  -2.418   1.351  0.00  0.00     0.054 A 
ATOM      3  C3  IND d   1      -0.388  -2.601   0.056  0.00  0.00    -0.031 A 
ATOM      4  C4  IND d   1       0.214  -0.857  -1.739  0.00  0.00     0.051 A 
ATOM      5  C5  IND d   1       0.265   0.491  -1.957  0.00  0.00    -0.031 A 
ATOM      6  C6  IND d   1      -0.035   1.402  -0.965  0.00  0.00     0.015 A 
ATOM      7  C7  IND d   1      -0.389   0.996   0.291  0.00  0.00    -0.016 A 
ATOM      8  C8  IND d   1      -0.449  -0.372   0.513  0.00  0.00    -0.047 A 
ATOM      9  C9  IND d   1      -0.187  -1.301  -0.501  0.00  0.00    -0.096 A 
ATOM     10  HN1 IND d   1      -1.003  -0.746   2.404  0.00  0.00     0.298 HD
ENDROOT
TORSDOF 0
ENDMDL
