MODEL 1
REMARK minimizedAffinity -2.10973287
REMARK minimizedRMSD -1
REMARK  0 active torsions:
REMARK  status: ('A' for Active; 'I' for Inactive)
ROOT
ATOM      1  N1  IND d   1      -0.024   1.171   1.300  0.00  0.00    -0.196 N 
ATOM      2  C2  IND d   1       0.527   1.840   0.244  0.00  0.00     0.054 A 
ATOM      3  C3  IND d   1       0.608   1.030  -0.836  0.00  0.00    -0.031 A 
ATOM      4  C4  IND d   1      -0.200  -1.398  -1.123  0.00  0.00     0.051 A 
ATOM      5  C5  IND d   1      -0.735  -2.444  -0.426  0.00  0.00    -0.031 A 
ATOM      6  C6  IND d   1      -1.071  -2.336   0.908  0.00  0.00     0.015 A 
ATOM      7  C7  IND d   1      -0.892  -1.169   1.595  0.00  0.00    -0.016 A 
ATOM      8  C8  IND d   1      -0.342  -0.106   0.893  0.00  0.00    -0.047 A 
ATOM      9  C9  IND d   1       0.039  -0.223  -0.450  0.00  0.00    -0.096 A 
ATOM     10  HN1 IND d   1      -0.151   1.493   2.087  0.00  0.00     0.298 HD
ENDROOT
TORSDOF 0
ENDMDL
