MODEL 1
REMARK minimizedAffinity -3.92788243
REMARK minimizedRMSD -1
REMARK  0 active torsions:
REMARK  status: ('A' for Active; 'I' for Inactive)
ROOT
ATOM      1  N1  IND d   1       0.026  -1.305  -2.475  0.00  0.00    -0.196 N 
ATOM      2  C2  IND d   1      -0.279  -2.594  -2.815  0.00  0.00     0.054 A 
ATOM      3  C3  IND d   1      -0.684  -3.285  -1.726  0.00  0.00    -0.031 A 
ATOM      4  C4  IND d   1      -1.018  -2.473   0.694  0.00  0.00     0.051 A 
ATOM      5  C5  IND d   1      -0.836  -1.385   1.500  0.00  0.00    -0.031 A 
ATOM      6  C6  IND d   1      -0.349  -0.190   1.012  0.00  0.00     0.015 A 
ATOM      7  C7  IND d   1      -0.036  -0.034  -0.308  0.00  0.00    -0.016 A 
ATOM      8  C8  IND d   1      -0.214  -1.139  -1.129  0.00  0.00    -0.047 A 
ATOM      9  C9  IND d   1      -0.667  -2.367  -0.631  0.00  0.00    -0.096 A 
ATOM     10  HN1 IND d   1       0.319  -0.701  -3.012  0.00  0.00     0.298 HD
ENDROOT
TORSDOF 0
ENDMDL
