MODEL 1
REMARK minimizedAffinity -2.22292829
REMARK minimizedRMSD -1
REMARK  0 active torsions:
REMARK  status: ('A' for Active; 'I' for Inactive)
ROOT
ATOM      1  N1  IND d   1       0.126   0.560  -1.022  0.00  0.00    -0.196 N 
ATOM      2  C2  IND d   1      -0.107   1.628  -0.201  0.00  0.00     0.054 A 
ATOM      3  C3  IND d   1      -0.691   1.220   0.948  0.00  0.00    -0.031 A 
ATOM      4  C4  IND d   1      -1.263  -1.163   1.735  0.00  0.00     0.051 A 
ATOM      5  C5  IND d   1      -1.270  -2.464   1.315  0.00  0.00    -0.031 A 
ATOM      6  C6  IND d   1      -0.801  -2.831   0.071  0.00  0.00     0.015 A 
ATOM      7  C7  IND d   1      -0.294  -1.908  -0.800  0.00  0.00    -0.016 A 
ATOM      8  C8  IND d   1      -0.291  -0.585  -0.379  0.00  0.00    -0.047 A 
ATOM      9  C9  IND d   1      -0.805  -0.202   0.866  0.00  0.00    -0.096 A 
ATOM     10  HN1 IND d   1       0.474   0.597  -1.807  0.00  0.00     0.298 HD
ENDROOT
TORSDOF 0
ENDMDL
