MODEL 1
REMARK minimizedAffinity -5.80748463
REMARK minimizedRMSD -1
REMARK  0 active torsions:
REMARK  status: ('A' for Active; 'I' for Inactive)
ROOT
ATOM      1  N1  IND d   1      -0.047  -0.108  -1.275  0.00  0.00    -0.196 N 
ATOM      2  C2  IND d   1      -0.208   0.333   0.009  0.00  0.00     0.054 A 
ATOM      3  C3  IND d   1      -0.245  -0.713   0.864  0.00  0.00    -0.031 A 
ATOM      4  C4  IND d   1       0.040  -3.227   0.387  0.00  0.00     0.051 A 
ATOM      5  C5  IND d   1       0.175  -4.120  -0.638  0.00  0.00    -0.031 A 
ATOM      6  C6  IND d   1       0.246  -3.714  -1.955  0.00  0.00     0.015 A 
ATOM      7  C7  IND d   1       0.197  -2.391  -2.296  0.00  0.00    -0.016 A 
ATOM      8  C8  IND d   1       0.053  -1.482  -1.257  0.00  0.00    -0.047 A 
ATOM      9  C9  IND d   1      -0.062  -1.892   0.077  0.00  0.00    -0.096 A 
ATOM     10  HN1 IND d   1      -0.015   0.389  -1.976  0.00  0.00     0.298 HD
ENDROOT
TORSDOF 0
ENDMDL
