MODEL 1
REMARK minimizedAffinity -3.48665857
REMARK minimizedRMSD -1
REMARK  0 active torsions:
REMARK  status: ('A' for Active; 'I' for Inactive)
ROOT
ATOM      1  N1  IND d   1      -0.107  -1.007  -2.388  0.00  0.00    -0.196 N 
ATOM      2  C2  IND d   1      -0.481  -2.178  -2.984  0.00  0.00     0.054 A 
ATOM      3  C3  IND d   1      -0.877  -3.075  -2.053  0.00  0.00    -0.031 A 
ATOM      4  C4  IND d   1      -1.087  -2.799   0.498  0.00  0.00     0.051 A 
ATOM      5  C5  IND d   1      -0.827  -1.920   1.511  0.00  0.00    -0.031 A 
ATOM      6  C6  IND d   1      -0.305  -0.665   1.272  0.00  0.00     0.015 A 
ATOM      7  C7  IND d   1      -0.033  -0.237   0.003  0.00  0.00    -0.016 A 
ATOM      8  C8  IND d   1      -0.290  -1.129  -1.028  0.00  0.00    -0.047 A 
ATOM      9  C9  IND d   1      -0.780  -2.419  -0.788  0.00  0.00    -0.096 A 
ATOM     10  HN1 IND d   1       0.194  -0.310  -2.793  0.00  0.00     0.298 HD
ENDROOT
TORSDOF 0
ENDMDL
