MODEL 1
REMARK minimizedAffinity -2.09512663
REMARK minimizedRMSD -1
REMARK  0 active torsions:
REMARK  status: ('A' for Active; 'I' for Inactive)
ROOT
ATOM      1  N1  IND d   1      -0.247  -1.182  -2.889  0.00  0.00    -0.196 N 
ATOM      2  C2  IND d   1      -0.512  -2.504  -3.115  0.00  0.00     0.054 A 
ATOM      3  C3  IND d   1      -0.855  -3.118  -1.961  0.00  0.00    -0.031 A 
ATOM      4  C4  IND d   1      -1.145  -2.126   0.397  0.00  0.00     0.051 A 
ATOM      5  C5  IND d   1      -0.979  -0.971   1.107  0.00  0.00    -0.031 A 
ATOM      6  C6  IND d   1      -0.555   0.198   0.509  0.00  0.00     0.015 A 
ATOM      7  C7  IND d   1      -0.290   0.258  -0.830  0.00  0.00    -0.016 A 
ATOM      8  C8  IND d   1      -0.450  -0.916  -1.553  0.00  0.00    -0.047 A 
ATOM      9  C9  IND d   1      -0.840  -2.115  -0.944  0.00  0.00    -0.096 A 
ATOM     10  HN1 IND d   1       0.005  -0.612  -3.482  0.00  0.00     0.298 HD
ENDROOT
TORSDOF 0
ENDMDL
