MODEL 1
REMARK minimizedAffinity -6.25523329
REMARK minimizedRMSD -1
REMARK  0 active torsions:
REMARK  status: ('A' for Active; 'I' for Inactive)
ROOT
ATOM      1  N1  IND d   1      -0.027  -0.056  -2.233  0.00  0.00    -0.196 N 
ATOM      2  C2  IND d   1      -0.075   0.880  -1.238  0.00  0.00     0.054 A 
ATOM      3  C3  IND d   1      -0.132   0.278  -0.029  0.00  0.00    -0.031 A 
ATOM      4  C4  IND d   1      -0.055  -2.228   0.556  0.00  0.00     0.051 A 
ATOM      5  C5  IND d   1      -0.049  -3.468  -0.018  0.00  0.00    -0.031 A 
ATOM      6  C6  IND d   1      -0.033  -3.638  -1.387  0.00  0.00     0.015 A 
ATOM      7  C7  IND d   1      -0.010  -2.569  -2.237  0.00  0.00    -0.016 A 
ATOM      8  C8  IND d   1      -0.023  -1.308  -1.658  0.00  0.00    -0.047 A 
ATOM      9  C9  IND d   1      -0.083  -1.129  -0.270  0.00  0.00    -0.096 A 
ATOM     10  HN1 IND d   1      -0.004   0.110  -3.077  0.00  0.00     0.298 HD
ENDROOT
TORSDOF 0
ENDMDL
