MODEL 1
REMARK minimizedAffinity -3.10564995
REMARK minimizedRMSD -1
REMARK  0 active torsions:
REMARK  status: ('A' for Active; 'I' for Inactive)
ROOT
ATOM      1  N1  IND d   1      -0.573   1.030  -0.862  0.00  0.00    -0.196 N 
ATOM      2  C2  IND d   1       0.270   1.947  -0.297  0.00  0.00     0.054 A 
ATOM      3  C3  IND d   1       0.606   1.567   0.956  0.00  0.00    -0.031 A 
ATOM      4  C4  IND d   1      -0.028  -0.570   2.243  0.00  0.00     0.051 A 
ATOM      5  C5  IND d   1      -0.807  -1.689   2.156  0.00  0.00    -0.031 A 
ATOM      6  C6  IND d   1      -1.562  -1.966   1.034  0.00  0.00     0.015 A 
ATOM      7  C7  IND d   1      -1.556  -1.136  -0.051  0.00  0.00    -0.016 A 
ATOM      8  C8  IND d   1      -0.771   0.005   0.037  0.00  0.00    -0.047 A 
ATOM      9  C9  IND d   1      -0.036   0.313   1.189  0.00  0.00    -0.096 A 
ATOM     10  HN1 IND d   1      -0.921   1.085  -1.646  0.00  0.00     0.298 HD
ENDROOT
TORSDOF 0
ENDMDL
