MODEL 1
REMARK minimizedAffinity -2.30524397
REMARK minimizedRMSD -1
REMARK  0 active torsions:
REMARK  status: ('A' for Active; 'I' for Inactive)
ROOT
ATOM      1  N1  IND d   1       1.518   2.321   2.329  0.00  0.00    -0.196 N 
ATOM      2  C2  IND d   1       2.133   3.361   1.690  0.00  0.00     0.054 A 
ATOM      3  C3  IND d   1       1.841   3.340   0.370  0.00  0.00    -0.031 A 
ATOM      4  C4  IND d   1       0.295   1.752  -0.939  0.00  0.00     0.051 A 
ATOM      5  C5  IND d   1      -0.461   0.623  -0.794  0.00  0.00    -0.031 A 
ATOM      6  C6  IND d   1      -0.601  -0.010   0.424  0.00  0.00     0.015 A 
ATOM      7  C7  IND d   1       0.003   0.473   1.551  0.00  0.00    -0.016 A 
ATOM      8  C8  IND d   1       0.777   1.615   1.406  0.00  0.00    -0.047 A 
ATOM      9  C9  IND d   1       0.957   2.237   0.164  0.00  0.00    -0.096 A 
ATOM     10  HN1 IND d   1       1.582   2.138   3.167  0.00  0.00     0.298 HD
ENDROOT
TORSDOF 0
ENDMDL
