MODEL 1
REMARK minimizedAffinity -3.11157084
REMARK minimizedRMSD -1
REMARK  0 active torsions:
REMARK  status: ('A' for Active; 'I' for Inactive)
ROOT
ATOM      1  O1  BZF d   1       1.025   1.493  -2.194  0.00  0.00    -0.204 OA
ATOM      2  C2  BZF d   1       1.075   0.160  -1.832  0.00  0.00     0.174 A 
ATOM      3  C3  BZF d   1       1.283   0.032  -0.505  0.00  0.00    -0.012 A 
ATOM      4  C3A BZF d   1       1.277   1.368   0.007  0.00  0.00    -0.107 A 
ATOM      5  C4  BZF d   1       1.419   1.894   1.260  0.00  0.00     0.055 A 
ATOM      6  C5  BZF d   1       1.438   3.244   1.411  0.00  0.00    -0.016 A 
ATOM      7  C6  BZF d   1       1.323   4.097   0.333  0.00  0.00     0.022 A 
ATOM      8  C7  BZF d   1       1.176   3.623  -0.928  0.00  0.00     0.029 A 
ATOM      9  C7A BZF d   1       1.123   2.259  -1.080  0.00  0.00     0.058 A 
ENDROOT
TORSDOF 0
ENDMDL
