MODEL 1
REMARK minimizedAffinity 5.84301996
REMARK minimizedRMSD -1
REMARK  0 active torsions:
REMARK  status: ('A' for Active; 'I' for Inactive)
ROOT
ATOM      1  O1  BZF d   1       0.846   3.076  -2.034  0.00  0.00    -0.204 OA
ATOM      2  C2  BZF d   1       1.002   4.150  -1.178  0.00  0.00     0.174 A 
ATOM      3  C3  BZF d   1       1.322   3.730   0.063  0.00  0.00    -0.012 A 
ATOM      4  C3A BZF d   1       1.458   2.310  -0.044  0.00  0.00    -0.107 A 
ATOM      5  C4  BZF d   1       1.780   1.328   0.849  0.00  0.00     0.055 A 
ATOM      6  C5  BZF d   1       1.754   0.031   0.443  0.00  0.00    -0.016 A 
ATOM      7  C6  BZF d   1       1.407  -0.319  -0.845  0.00  0.00     0.022 A 
ATOM      8  C7  BZF d   1       1.086   0.620  -1.768  0.00  0.00     0.029 A 
ATOM      9  C7A BZF d   1       1.142   1.933  -1.370  0.00  0.00     0.058 A 
ENDROOT
TORSDOF 0
ENDMDL
