MODEL 1
REMARK minimizedAffinity 2.63769674
REMARK minimizedRMSD -1
REMARK  0 active torsions:
REMARK  status: ('A' for Active; 'I' for Inactive)
ROOT
ATOM      1  O1  BZF d   1      -3.092   3.849   2.215  0.00  0.00    -0.204 OA
ATOM      2  C2  BZF d   1      -3.399   2.759   1.423  0.00  0.00     0.174 A 
ATOM      3  C3  BZF d   1      -3.104   1.607   2.060  0.00  0.00    -0.012 A 
ATOM      4  C3A BZF d   1      -2.665   1.999   3.364  0.00  0.00    -0.107 A 
ATOM      5  C4  BZF d   1      -2.248   1.304   4.463  0.00  0.00     0.055 A 
ATOM      6  C5  BZF d   1      -1.818   1.990   5.554  0.00  0.00    -0.016 A 
ATOM      7  C6  BZF d   1      -1.787   3.369   5.579  0.00  0.00     0.022 A 
ATOM      8  C7  BZF d   1      -2.194   4.102   4.515  0.00  0.00     0.029 A 
ATOM      9  C7A BZF d   1      -2.661   3.412   3.422  0.00  0.00     0.058 A 
ENDROOT
TORSDOF 0
ENDMDL
