MODEL 1
REMARK minimizedAffinity 2.22604918
REMARK minimizedRMSD -1
REMARK  0 active torsions:
REMARK  status: ('A' for Active; 'I' for Inactive)
ROOT
ATOM      1  O1  BZF d   1       1.263  -1.307   0.198  0.00  0.00    -0.204 OA
ATOM      2  C2  BZF d   1       1.427  -2.221  -0.825  0.00  0.00     0.174 A 
ATOM      3  C3  BZF d   1       1.520  -1.595  -2.016  0.00  0.00    -0.012 A 
ATOM      4  C3A BZF d   1       1.501  -0.198  -1.709  0.00  0.00    -0.107 A 
ATOM      5  C4  BZF d   1       1.578   0.933  -2.471  0.00  0.00     0.055 A 
ATOM      6  C5  BZF d   1       1.455   2.145  -1.870  0.00  0.00    -0.016 A 
ATOM      7  C6  BZF d   1       1.249   2.264  -0.511  0.00  0.00     0.022 A 
ATOM      8  C7  BZF d   1       1.171   1.171   0.288  0.00  0.00     0.029 A 
ATOM      9  C7A BZF d   1       1.328  -0.054  -0.312  0.00  0.00     0.058 A 
ENDROOT
TORSDOF 0
ENDMDL
