MODEL 1
REMARK minimizedAffinity 6.1465168
REMARK minimizedRMSD -1
REMARK  0 active torsions:
REMARK  status: ('A' for Active; 'I' for Inactive)
ROOT
ATOM      1  O1  BZF d   1       1.203   1.044  -2.476  0.00  0.00    -0.204 OA
ATOM      2  C2  BZF d   1       1.467  -0.239  -2.039  0.00  0.00     0.174 A 
ATOM      3  C3  BZF d   1       1.692  -0.255  -0.709  0.00  0.00    -0.012 A 
ATOM      4  C3A BZF d   1       1.470   1.090  -0.274  0.00  0.00    -0.107 A 
ATOM      5  C4  BZF d   1       1.523   1.703   0.945  0.00  0.00     0.055 A 
ATOM      6  C5  BZF d   1       1.323   3.045   1.018  0.00  0.00    -0.016 A 
ATOM      7  C6  BZF d   1       1.073   3.805  -0.106  0.00  0.00     0.022 A 
ATOM      8  C7  BZF d   1       1.006   3.240  -1.336  0.00  0.00     0.029 A 
ATOM      9  C7A BZF d   1       1.174   1.879  -1.409  0.00  0.00     0.058 A 
ENDROOT
TORSDOF 0
ENDMDL
