MODEL 1
REMARK minimizedAffinity -3.35270143
REMARK minimizedRMSD -1
REMARK  0 active torsions:
REMARK  status: ('A' for Active; 'I' for Inactive)
ROOT
ATOM      1  O1  BZF d   1       1.452   1.061  -2.035  0.00  0.00    -0.204 OA
ATOM      2  C2  BZF d   1       1.475  -0.019  -1.174  0.00  0.00     0.174 A 
ATOM      3  C3  BZF d   1       1.419   0.392   0.110  0.00  0.00    -0.012 A 
ATOM      4  C3A BZF d   1       1.264   1.813   0.043  0.00  0.00    -0.107 A 
ATOM      5  C4  BZF d   1       1.135   2.788   0.990  0.00  0.00     0.055 A 
ATOM      6  C5  BZF d   1       1.076   4.088   0.596  0.00  0.00    -0.016 A 
ATOM      7  C6  BZF d   1       1.149   4.447  -0.733  0.00  0.00     0.022 A 
ATOM      8  C7  BZF d   1       1.273   3.515  -1.709  0.00  0.00     0.029 A 
ATOM      9  C7A BZF d   1       1.299   2.199  -1.317  0.00  0.00     0.058 A 
ENDROOT
TORSDOF 0
ENDMDL
