MODEL 1
REMARK minimizedAffinity 0.0332350247
REMARK minimizedRMSD -1
REMARK  0 active torsions:
REMARK  status: ('A' for Active; 'I' for Inactive)
ROOT
ATOM      1  O1  BZF d   1       1.123   1.906  -2.596  0.00  0.00    -0.204 OA
ATOM      2  C2  BZF d   1       1.251   0.594  -2.185  0.00  0.00     0.174 A 
ATOM      3  C3  BZF d   1       1.402   0.524  -0.846  0.00  0.00    -0.012 A 
ATOM      4  C3A BZF d   1       1.273   1.872  -0.383  0.00  0.00    -0.107 A 
ATOM      5  C4  BZF d   1       1.313   2.447   0.855  0.00  0.00     0.055 A 
ATOM      6  C5  BZF d   1       1.226   3.799   0.958  0.00  0.00    -0.016 A 
ATOM      7  C6  BZF d   1       1.104   4.606  -0.154  0.00  0.00     0.022 A 
ATOM      8  C7  BZF d   1       1.055   4.081  -1.402  0.00  0.00     0.029 A 
ATOM      9  C7A BZF d   1       1.109   2.713  -1.508  0.00  0.00     0.058 A 
ENDROOT
TORSDOF 0
ENDMDL
