MODEL 1
REMARK minimizedAffinity 0.832255721
REMARK minimizedRMSD -1
REMARK  0 active torsions:
REMARK  status: ('A' for Active; 'I' for Inactive)
ROOT
ATOM      1  O1  BZF d   1       1.400   2.585  -2.772  0.00  0.00    -0.204 OA
ATOM      2  C2  BZF d   1       0.987   1.360  -3.259  0.00  0.00     0.174 A 
ATOM      3  C3  BZF d   1       1.322   0.369  -2.407  0.00  0.00    -0.012 A 
ATOM      4  C3A BZF d   1       1.904   1.025  -1.277  0.00  0.00    -0.107 A 
ATOM      5  C4  BZF d   1       2.419   0.577  -0.094  0.00  0.00     0.055 A 
ATOM      6  C5  BZF d   1       2.976   1.471   0.765  0.00  0.00    -0.016 A 
ATOM      7  C6  BZF d   1       3.041   2.817   0.470  0.00  0.00     0.022 A 
ATOM      8  C7  BZF d   1       2.540   3.309  -0.689  0.00  0.00     0.029 A 
ATOM      9  C7A BZF d   1       1.946   2.413  -1.544  0.00  0.00     0.058 A 
ENDROOT
TORSDOF 0
ENDMDL
