MODEL 1
REMARK minimizedAffinity 0.199661419
REMARK minimizedRMSD -1
REMARK  0 active torsions:
REMARK  status: ('A' for Active; 'I' for Inactive)
ROOT
ATOM      1  O1  BZF d   1       1.049   0.027  -1.646  0.00  0.00    -0.204 OA
ATOM      2  C2  BZF d   1       0.929  -0.556  -0.400  0.00  0.00     0.174 A 
ATOM      3  C3  BZF d   1       0.954   0.380   0.571  0.00  0.00    -0.012 A 
ATOM      4  C3A BZF d   1       1.007   1.634  -0.116  0.00  0.00    -0.107 A 
ATOM      5  C4  BZF d   1       1.037   2.933   0.302  0.00  0.00     0.055 A 
ATOM      6  C5  BZF d   1       1.161   3.922  -0.622  0.00  0.00    -0.016 A 
ATOM      7  C6  BZF d   1       1.264   3.647  -1.970  0.00  0.00     0.022 A 
ATOM      8  C7  BZF d   1       1.235   2.374  -2.433  0.00  0.00     0.029 A 
ATOM      9  C7A BZF d   1       1.076   1.374  -1.505  0.00  0.00     0.058 A 
ENDROOT
TORSDOF 0
ENDMDL
