MODEL 1
REMARK minimizedAffinity 6.87438869
REMARK minimizedRMSD -1
REMARK  0 active torsions:
REMARK  status: ('A' for Active; 'I' for Inactive)
ROOT
ATOM      1  O1  BZF d   1       0.570   3.524  -0.994  0.00  0.00    -0.204 OA
ATOM      2  C2  BZF d   1       0.501   3.504  -2.373  0.00  0.00     0.174 A 
ATOM      3  C3  BZF d   1       0.779   2.272  -2.848  0.00  0.00    -0.012 A 
ATOM      4  C3A BZF d   1       0.948   1.451  -1.688  0.00  0.00    -0.107 A 
ATOM      5  C4  BZF d   1       1.224   0.126  -1.508  0.00  0.00     0.055 A 
ATOM      6  C5  BZF d   1       1.396  -0.347  -0.246  0.00  0.00    -0.016 A 
ATOM      7  C6  BZF d   1       1.304   0.476   0.857  0.00  0.00     0.022 A 
ATOM      8  C7  BZF d   1       1.027   1.797   0.729  0.00  0.00     0.029 A 
ATOM      9  C7A BZF d   1       0.820   2.271  -0.543  0.00  0.00     0.058 A 
ENDROOT
TORSDOF 0
ENDMDL
