MODEL 1
REMARK minimizedAffinity -0.44567582
REMARK minimizedRMSD -1
REMARK  0 active torsions:
REMARK  status: ('A' for Active; 'I' for Inactive)
ROOT
ATOM      1  O1  BZF d   1       1.390   3.033   1.284  0.00  0.00    -0.204 OA
ATOM      2  C2  BZF d   1       1.497   1.855   1.999  0.00  0.00     0.174 A 
ATOM      3  C3  BZF d   1       1.382   0.788   1.183  0.00  0.00    -0.012 A 
ATOM      4  C3A BZF d   1       1.284   1.332  -0.136  0.00  0.00    -0.107 A 
ATOM      5  C4  BZF d   1       1.166   0.771  -1.376  0.00  0.00     0.055 A 
ATOM      6  C5  BZF d   1       1.019   1.583  -2.456  0.00  0.00    -0.016 A 
ATOM      7  C6  BZF d   1       0.982   2.956  -2.333  0.00  0.00     0.022 A 
ATOM      8  C7  BZF d   1       1.101   3.558  -1.124  0.00  0.00     0.029 A 
ATOM      9  C7A BZF d   1       1.282   2.742  -0.035  0.00  0.00     0.058 A 
ENDROOT
TORSDOF 0
ENDMDL
