MODEL 1
REMARK minimizedAffinity 7.21743345
REMARK minimizedRMSD -1
REMARK  0 active torsions:
REMARK  status: ('A' for Active; 'I' for Inactive)
ROOT
ATOM      1  O1  BZF d   1       0.000   1.073  -0.630  0.00  0.00    -0.204 OA
ATOM      2  C2  BZF d   1      -0.115   2.346  -0.107  0.00  0.00     0.174 A 
ATOM      3  C3  BZF d   1       0.961   2.654   0.645  0.00  0.00    -0.012 A 
ATOM      4  C3A BZF d   1       1.844   1.536   0.513  0.00  0.00    -0.107 A 
ATOM      5  C4  BZF d   1       3.084   1.255   1.012  0.00  0.00     0.055 A 
ATOM      6  C5  BZF d   1       3.641   0.043   0.752  0.00  0.00    -0.016 A 
ATOM      7  C6  BZF d   1       2.986  -0.912   0.002  0.00  0.00     0.022 A 
ATOM      8  C7  BZF d   1       1.757  -0.676  -0.519  0.00  0.00     0.029 A 
ATOM      9  C7A BZF d   1       1.205   0.560  -0.285  0.00  0.00     0.058 A 
ENDROOT
TORSDOF 0
ENDMDL
