MODEL 1
REMARK minimizedAffinity 1.58293331
REMARK minimizedRMSD -1
REMARK  0 active torsions:
REMARK  status: ('A' for Active; 'I' for Inactive)
ROOT
ATOM      1  O1  BZF d   1       1.888   1.380  -2.511  0.00  0.00    -0.204 OA
ATOM      2  C2  BZF d   1       2.027   0.058  -2.133  0.00  0.00     0.174 A 
ATOM      3  C3  BZF d   1       1.860  -0.078  -0.802  0.00  0.00    -0.012 A 
ATOM      4  C3A BZF d   1       1.509   1.226  -0.331  0.00  0.00    -0.107 A 
ATOM      5  C4  BZF d   1       1.203   1.729   0.902  0.00  0.00     0.055 A 
ATOM      6  C5  BZF d   1       0.978   3.063   1.034  0.00  0.00    -0.016 A 
ATOM      7  C6  BZF d   1       1.056   3.922  -0.042  0.00  0.00     0.022 A 
ATOM      8  C7  BZF d   1       1.351   3.470  -1.285  0.00  0.00     0.029 A 
ATOM      9  C7A BZF d   1       1.546   2.118  -1.428  0.00  0.00     0.058 A 
ENDROOT
TORSDOF 0
ENDMDL
