MODEL 1
REMARK minimizedAffinity 3.46610475
REMARK minimizedRMSD -1
REMARK  0 active torsions:
REMARK  status: ('A' for Active; 'I' for Inactive)
ROOT
ATOM      1  O1  BZF d   1       1.004   3.370  -0.660  0.00  0.00    -0.204 OA
ATOM      2  C2  BZF d   1       0.627   3.603  -1.968  0.00  0.00     0.174 A 
ATOM      3  C3  BZF d   1       0.514   2.444  -2.647  0.00  0.00    -0.012 A 
ATOM      4  C3A BZF d   1       0.751   1.416  -1.680  0.00  0.00    -0.107 A 
ATOM      5  C4  BZF d   1       0.761   0.052  -1.743  0.00  0.00     0.055 A 
ATOM      6  C5  BZF d   1       1.101  -0.657  -0.635  0.00  0.00    -0.016 A 
ATOM      7  C6  BZF d   1       1.441  -0.036   0.549  0.00  0.00     0.022 A 
ATOM      8  C7  BZF d   1       1.441   1.315   0.661  0.00  0.00     0.029 A 
ATOM      9  C7A BZF d   1       1.065   2.034  -0.447  0.00  0.00     0.058 A 
ENDROOT
TORSDOF 0
ENDMDL
