MODEL 1
REMARK minimizedAffinity 8.11773014
REMARK minimizedRMSD -1
REMARK  0 active torsions:
REMARK  status: ('A' for Active; 'I' for Inactive)
ROOT
ATOM      1  O1  BZF d   1       0.443   3.031  -2.654  0.00  0.00    -0.204 OA
ATOM      2  C2  BZF d   1       1.033   4.018  -1.888  0.00  0.00     0.174 A 
ATOM      3  C3  BZF d   1       1.683   3.483  -0.835  0.00  0.00    -0.012 A 
ATOM      4  C3A BZF d   1       1.566   2.067  -1.001  0.00  0.00    -0.107 A 
ATOM      5  C4  BZF d   1       2.020   0.997  -0.284  0.00  0.00     0.055 A 
ATOM      6  C5  BZF d   1       1.671  -0.257  -0.675  0.00  0.00    -0.016 A 
ATOM      7  C6  BZF d   1       0.866  -0.477  -1.774  0.00  0.00     0.022 A 
ATOM      8  C7  BZF d   1       0.395   0.553  -2.519  0.00  0.00     0.029 A 
ATOM      9  C7A BZF d   1       0.774   1.819  -2.146  0.00  0.00     0.058 A 
ENDROOT
TORSDOF 0
ENDMDL
