MODEL 1
REMARK minimizedAffinity -3.38634229
REMARK minimizedRMSD -1
REMARK  0 active torsions:
REMARK  status: ('A' for Active; 'I' for Inactive)
ROOT
ATOM      1  O1  BZF d   1       1.277   1.033  -2.622  0.00  0.00    -0.204 OA
ATOM      2  C2  BZF d   1       1.341  -0.201  -2.004  0.00  0.00     0.174 A 
ATOM      3  C3  BZF d   1       1.245  -0.071  -0.665  0.00  0.00    -0.012 A 
ATOM      4  C3A BZF d   1       1.020   1.324  -0.437  0.00  0.00    -0.107 A 
ATOM      5  C4  BZF d   1       0.828   2.072   0.688  0.00  0.00     0.055 A 
ATOM      6  C5  BZF d   1       0.710   3.421   0.573  0.00  0.00    -0.016 A 
ATOM      7  C6  BZF d   1       0.785   4.054  -0.651  0.00  0.00     0.022 A 
ATOM      8  C7  BZF d   1       0.970   3.353  -1.796  0.00  0.00     0.029 A 
ATOM      9  C7A BZF d   1       1.056   1.987  -1.686  0.00  0.00     0.058 A 
ENDROOT
TORSDOF 0
ENDMDL
