MODEL 1
REMARK minimizedAffinity 3.38353252
REMARK minimizedRMSD -1
REMARK  0 active torsions:
REMARK  status: ('A' for Active; 'I' for Inactive)
ROOT
ATOM      1  O1  BZF d   1       2.015   1.234  -2.634  0.00  0.00    -0.204 OA
ATOM      2  C2  BZF d   1       2.112  -0.130  -2.437  0.00  0.00     0.174 A 
ATOM      3  C3  BZF d   1       1.810  -0.451  -1.162  0.00  0.00    -0.012 A 
ATOM      4  C3A BZF d   1       1.415   0.779  -0.547  0.00  0.00    -0.107 A 
ATOM      5  C4  BZF d   1       0.986   1.106   0.707  0.00  0.00     0.055 A 
ATOM      6  C5  BZF d   1       0.751   2.411   1.005  0.00  0.00    -0.016 A 
ATOM      7  C6  BZF d   1       0.939   3.413   0.077  0.00  0.00     0.022 A 
ATOM      8  C7  BZF d   1       1.358   3.137  -1.182  0.00  0.00     0.029 A 
ATOM      9  C7A BZF d   1       1.565   1.816  -1.497  0.00  0.00     0.058 A 
ENDROOT
TORSDOF 0
ENDMDL
