MODEL 1
REMARK minimizedAffinity 0.583664417
REMARK minimizedRMSD -1
REMARK  1 active torsions:
REMARK  status: ('A' for Active; 'I' for Inactive)
REMARK    1  A    between atoms: C3_4  and  O_7 
ROOT
ATOM      1  C   UNL d   1       0.143   0.542   1.609  0.00  0.00    -0.033 A 
ATOM      2  C1  UNL d   1      -0.742  -0.306   2.276  0.00  0.00     0.039 A 
ATOM      3  C2  UNL d   1      -1.850   0.221   2.943  0.00  0.00    -0.080 A 
ATOM      4  C3  UNL d   1      -2.061   1.597   2.933  0.00  0.00     0.150 A 
ATOM      5  C4  UNL d   1      -1.186   2.448   2.266  0.00  0.00    -0.007 A 
ATOM      6  C5  UNL d   1      -0.080   1.920   1.602  0.00  0.00     0.039 A 
ENDROOT
BRANCH   4   7
ATOM      7  O   UNL d   1      -3.126   2.159   3.573  0.00  0.00    -0.526 OA
ATOM      8  H5  UNL d   1      -3.628   1.453   4.014  0.00  0.00     0.418 HD
ENDBRANCH   4   7
TORSDOF 1
ENDMDL
