MODEL 1
REMARK minimizedAffinity 0.196360216
REMARK minimizedRMSD -1
REMARK  1 active torsions:
REMARK  status: ('A' for Active; 'I' for Inactive)
REMARK    1  A    between atoms: C3_4  and  O_7 
ROOT
ATOM      1  C   UNL d   1      -0.157   0.054   1.210  0.00  0.00    -0.033 A 
ATOM      2  C1  UNL d   1      -1.245  -0.568   1.825  0.00  0.00     0.039 A 
ATOM      3  C2  UNL d   1      -2.138   0.183   2.592  0.00  0.00    -0.080 A 
ATOM      4  C3  UNL d   1      -1.933   1.552   2.736  0.00  0.00     0.150 A 
ATOM      5  C4  UNL d   1      -0.853   2.179   2.124  0.00  0.00    -0.007 A 
ATOM      6  C5  UNL d   1       0.039   1.428   1.359  0.00  0.00     0.039 A 
ENDROOT
BRANCH   4   7
ATOM      7  O   UNL d   1      -2.775   2.325   3.479  0.00  0.00    -0.526 OA
ATOM      8  H5  UNL d   1      -3.458   1.752   3.866  0.00  0.00     0.418 HD
ENDBRANCH   4   7
TORSDOF 1
ENDMDL
