MODEL 1
REMARK minimizedAffinity 2.85628772
REMARK minimizedRMSD -1
REMARK  1 active torsions:
REMARK  status: ('A' for Active; 'I' for Inactive)
REMARK    1  A    between atoms: C3_4  and  O_7 
ROOT
ATOM      1  C   UNL d   1      -3.857  -1.801  -0.455  0.00  0.00    -0.033 A 
ATOM      2  C1  UNL d   1      -3.607  -3.130  -0.805  0.00  0.00     0.039 A 
ATOM      3  C2  UNL d   1      -3.714  -3.535  -2.137  0.00  0.00    -0.080 A 
ATOM      4  C3  UNL d   1      -4.072  -2.603  -3.107  0.00  0.00     0.150 A 
ATOM      5  C4  UNL d   1      -4.319  -1.278  -2.766  0.00  0.00    -0.007 A 
ATOM      6  C5  UNL d   1      -4.212  -0.875  -1.436  0.00  0.00     0.039 A 
ENDROOT
BRANCH   4   7
ATOM      7  O   UNL d   1      -4.194  -2.953  -4.419  0.00  0.00    -0.526 OA
ATOM      8  H5  UNL d   1      -4.022  -3.906  -4.502  0.00  0.00     0.418 HD
ENDBRANCH   4   7
TORSDOF 1
ENDMDL
