MODEL 1
REMARK minimizedAffinity -0.172948807
REMARK minimizedRMSD -1
REMARK  1 active torsions:
REMARK  status: ('A' for Active; 'I' for Inactive)
REMARK    1  A    between atoms: C3_4  and  O_7 
ROOT
ATOM      1  C   UNL d   1      -1.306   1.158   2.061  0.00  0.00    -0.033 A 
ATOM      2  C1  UNL d   1      -2.286   0.193   2.301  0.00  0.00     0.039 A 
ATOM      3  C2  UNL d   1      -3.380   0.494   3.116  0.00  0.00    -0.080 A 
ATOM      4  C3  UNL d   1      -3.482   1.761   3.682  0.00  0.00     0.150 A 
ATOM      5  C4  UNL d   1      -2.511   2.729   3.444  0.00  0.00    -0.007 A 
ATOM      6  C5  UNL d   1      -1.419   2.426   2.631  0.00  0.00     0.039 A 
ENDROOT
BRANCH   4   7
ATOM      7  O   UNL d   1      -4.528   2.100   4.487  0.00  0.00    -0.526 OA
ATOM      8  H5  UNL d   1      -5.105   1.323   4.585  0.00  0.00     0.418 HD
ENDBRANCH   4   7
TORSDOF 1
ENDMDL
