MODEL 1
REMARK minimizedAffinity -1.70540059
REMARK minimizedRMSD -1
REMARK  1 active torsions:
REMARK  status: ('A' for Active; 'I' for Inactive)
REMARK    1  A    between atoms: C3_4  and  O_7 
ROOT
ATOM      1  C   UNL d   1      -2.845   1.476   2.859  0.00  0.00    -0.033 A 
ATOM      2  C1  UNL d   1      -1.961   2.541   2.680  0.00  0.00     0.039 A 
ATOM      3  C2  UNL d   1      -0.716   2.324   2.085  0.00  0.00    -0.080 A 
ATOM      4  C3  UNL d   1      -0.369   1.040   1.674  0.00  0.00     0.150 A 
ATOM      5  C4  UNL d   1      -1.247  -0.025   1.847  0.00  0.00    -0.007 A 
ATOM      6  C5  UNL d   1      -2.489   0.193   2.442  0.00  0.00     0.039 A 
ENDROOT
BRANCH   4   7
ATOM      7  O   UNL d   1       0.836   0.779   1.093  0.00  0.00    -0.526 OA
ATOM      8  H5  UNL d   1       1.349   1.604   1.065  0.00  0.00     0.418 HD
ENDBRANCH   4   7
TORSDOF 1
ENDMDL
