MODEL 1
REMARK minimizedAffinity 2.90636826
REMARK minimizedRMSD -1
REMARK  1 active torsions:
REMARK  status: ('A' for Active; 'I' for Inactive)
REMARK    1  A    between atoms: C3_4  and  O_7 
ROOT
ATOM      1  C   UNL d   1      -4.063  -1.395  -2.030  0.00  0.00    -0.033 A 
ATOM      2  C1  UNL d   1      -3.810  -2.410  -2.955  0.00  0.00     0.039 A 
ATOM      3  C2  UNL d   1      -3.828  -3.746  -2.550  0.00  0.00    -0.080 A 
ATOM      4  C3  UNL d   1      -4.102  -4.053  -1.220  0.00  0.00     0.150 A 
ATOM      5  C4  UNL d   1      -4.359  -3.047  -0.294  0.00  0.00    -0.007 A 
ATOM      6  C5  UNL d   1      -4.339  -1.714  -0.700  0.00  0.00     0.039 A 
ENDROOT
BRANCH   4   7
ATOM      7  O   UNL d   1      -4.126  -5.342  -0.777  0.00  0.00    -0.526 OA
ATOM      8  H5  UNL d   1      -3.903  -5.928  -1.519  0.00  0.00     0.418 HD
ENDBRANCH   4   7
TORSDOF 1
ENDMDL
