MODEL 1
REMARK minimizedAffinity -4.09918261
REMARK minimizedRMSD -1
REMARK  1 active torsions:
REMARK  status: ('A' for Active; 'I' for Inactive)
REMARK    1  A    between atoms: C3_4  and  O_7 
ROOT
ATOM      1  C   UNL d   1       0.942   0.514   1.186  0.00  0.00    -0.033 A 
ATOM      2  C1  UNL d   1       0.061  -0.345   1.846  0.00  0.00     0.039 A 
ATOM      3  C2  UNL d   1      -1.069   0.168   2.486  0.00  0.00    -0.080 A 
ATOM      4  C3  UNL d   1      -1.307   1.540   2.458  0.00  0.00     0.150 A 
ATOM      5  C4  UNL d   1      -0.436   2.401   1.799  0.00  0.00    -0.007 A 
ATOM      6  C5  UNL d   1       0.692   1.887   1.161  0.00  0.00     0.039 A 
ENDROOT
BRANCH   4   7
ATOM      7  O   UNL d   1      -2.394   2.087   3.072  0.00  0.00    -0.526 OA
ATOM      8  H5  UNL d   1      -2.890   1.376   3.511  0.00  0.00     0.418 HD
ENDBRANCH   4   7
TORSDOF 1
ENDMDL
