MODEL 1
REMARK minimizedAffinity -0.661724627
REMARK minimizedRMSD -1
REMARK  1 active torsions:
REMARK  status: ('A' for Active; 'I' for Inactive)
REMARK    1  A    between atoms: C3_4  and  O_7 
ROOT
ATOM      1  C   UNL d   1       0.705  -0.110   0.755  0.00  0.00    -0.033 A 
ATOM      2  C1  UNL d   1      -0.292  -0.538   1.634  0.00  0.00     0.039 A 
ATOM      3  C2  UNL d   1      -1.219   0.376   2.138  0.00  0.00    -0.080 A 
ATOM      4  C3  UNL d   1      -1.140   1.712   1.755  0.00  0.00     0.150 A 
ATOM      5  C4  UNL d   1      -0.153   2.144   0.876  0.00  0.00    -0.007 A 
ATOM      6  C5  UNL d   1       0.773   1.231   0.374  0.00  0.00     0.039 A 
ENDROOT
BRANCH   4   7
ATOM      7  O   UNL d   1      -2.021   2.641   2.224  0.00  0.00    -0.526 OA
ATOM      8  H5  UNL d   1      -2.628   2.204   2.844  0.00  0.00     0.418 HD
ENDBRANCH   4   7
TORSDOF 1
ENDMDL
