MODEL 1
REMARK minimizedAffinity -3.30221534
REMARK minimizedRMSD -1
REMARK  1 active torsions:
REMARK  status: ('A' for Active; 'I' for Inactive)
REMARK    1  A    between atoms: C3_4  and  O_7 
ROOT
ATOM      1  C   UNL d   1       0.461   0.372   1.151  0.00  0.00    -0.033 A 
ATOM      2  C1  UNL d   1      -0.355  -0.459   1.921  0.00  0.00     0.039 A 
ATOM      3  C2  UNL d   1      -1.427   0.079   2.636  0.00  0.00    -0.080 A 
ATOM      4  C3  UNL d   1      -1.672   1.447   2.572  0.00  0.00     0.150 A 
ATOM      5  C4  UNL d   1      -0.866   2.281   1.804  0.00  0.00    -0.007 A 
ATOM      6  C5  UNL d   1       0.204   1.742   1.092  0.00  0.00     0.039 A 
ENDROOT
BRANCH   4   7
ATOM      7  O   UNL d   1      -2.704   2.019   3.256  0.00  0.00    -0.526 OA
ATOM      8  H5  UNL d   1      -3.157   1.326   3.765  0.00  0.00     0.418 HD
ENDBRANCH   4   7
TORSDOF 1
ENDMDL
