MODEL 1
REMARK minimizedAffinity -3.56999135
REMARK minimizedRMSD -1
REMARK  1 active torsions:
REMARK  status: ('A' for Active; 'I' for Inactive)
REMARK    1  A    between atoms: C3_4  and  O_7 
ROOT
ATOM      1  C   UNL d   1      -0.179   0.327   0.904  0.00  0.00    -0.033 A 
ATOM      2  C1  UNL d   1      -1.221  -0.419   1.460  0.00  0.00     0.039 A 
ATOM      3  C2  UNL d   1      -2.160   0.200   2.287  0.00  0.00    -0.080 A 
ATOM      4  C3  UNL d   1      -2.047   1.563   2.550  0.00  0.00     0.150 A 
ATOM      5  C4  UNL d   1      -1.014   2.312   1.996  0.00  0.00    -0.007 A 
ATOM      6  C5  UNL d   1      -0.077   1.692   1.171  0.00  0.00     0.039 A 
ENDROOT
BRANCH   4   7
ATOM      7  O   UNL d   1      -2.937   2.210   3.355  0.00  0.00    -0.526 OA
ATOM      8  H5  UNL d   1      -3.578   1.561   3.688  0.00  0.00     0.418 HD
ENDBRANCH   4   7
TORSDOF 1
ENDMDL
