MODEL 1
REMARK minimizedAffinity -0.972711742
REMARK minimizedRMSD -1
REMARK  1 active torsions:
REMARK  status: ('A' for Active; 'I' for Inactive)
REMARK    1  A    between atoms: C3_4  and  O_7 
ROOT
ATOM      1  C   UNL d   1      -0.570   1.288   0.744  0.00  0.00    -0.033 A 
ATOM      2  C1  UNL d   1       0.697   0.730   0.928  0.00  0.00     0.039 A 
ATOM      3  C2  UNL d   1       0.825  -0.562   1.440  0.00  0.00    -0.080 A 
ATOM      4  C3  UNL d   1      -0.320  -1.286   1.762  0.00  0.00     0.150 A 
ATOM      5  C4  UNL d   1      -1.585  -0.738   1.578  0.00  0.00    -0.007 A 
ATOM      6  C5  UNL d   1      -1.711   0.554   1.067  0.00  0.00     0.039 A 
ENDROOT
BRANCH   4   7
ATOM      7  O   UNL d   1      -0.246  -2.549   2.269  0.00  0.00    -0.526 OA
ATOM      8  H5  UNL d   1       0.692  -2.786   2.369  0.00  0.00     0.418 HD
ENDBRANCH   4   7
TORSDOF 1
ENDMDL
