MODEL 1
REMARK minimizedAffinity -1.69408989
REMARK minimizedRMSD -1
REMARK  1 active torsions:
REMARK  status: ('A' for Active; 'I' for Inactive)
REMARK    1  A    between atoms: C3_4  and  O_7 
ROOT
ATOM      1  C   UNL d   1      -0.141   0.072   1.215  0.00  0.00    -0.033 A 
ATOM      2  C1  UNL d   1      -1.227  -0.608   1.771  0.00  0.00     0.039 A 
ATOM      3  C2  UNL d   1      -2.204   0.094   2.479  0.00  0.00    -0.080 A 
ATOM      4  C3  UNL d   1      -2.085   1.474   2.623  0.00  0.00     0.150 A 
ATOM      5  C4  UNL d   1      -1.008   2.158   2.069  0.00  0.00    -0.007 A 
ATOM      6  C5  UNL d   1      -0.032   1.455   1.364  0.00  0.00     0.039 A 
ENDROOT
BRANCH   4   7
ATOM      7  O   UNL d   1      -3.011   2.201   3.310  0.00  0.00    -0.526 OA
ATOM      8  H5  UNL d   1      -3.682   1.592   3.660  0.00  0.00     0.418 HD
ENDBRANCH   4   7
TORSDOF 1
ENDMDL
