MODEL 1
REMARK minimizedAffinity -2.56283975
REMARK minimizedRMSD -1
REMARK  1 active torsions:
REMARK  status: ('A' for Active; 'I' for Inactive)
REMARK    1  A    between atoms: C3_4  and  O_7 
ROOT
ATOM      1  C   UNL d   1       0.234   0.338   1.186  0.00  0.00    -0.033 A 
ATOM      2  C1  UNL d   1      -0.832  -0.431   1.658  0.00  0.00     0.039 A 
ATOM      3  C2  UNL d   1      -1.907   0.184   2.303  0.00  0.00    -0.080 A 
ATOM      4  C3  UNL d   1      -1.904   1.566   2.469  0.00  0.00     0.150 A 
ATOM      5  C4  UNL d   1      -0.847   2.339   1.998  0.00  0.00    -0.007 A 
ATOM      6  C5  UNL d   1       0.225   1.723   1.354  0.00  0.00     0.039 A 
ENDROOT
BRANCH   4   7
ATOM      7  O   UNL d   1      -2.929   2.211   3.096  0.00  0.00    -0.526 OA
ATOM      8  H5  UNL d   1      -3.573   1.548   3.393  0.00  0.00     0.418 HD
ENDBRANCH   4   7
TORSDOF 1
ENDMDL
