MODEL 1
REMARK minimizedAffinity -1.49695659
REMARK minimizedRMSD -1
REMARK  1 active torsions:
REMARK  status: ('A' for Active; 'I' for Inactive)
REMARK    1  A    between atoms: C3_4  and  O_7 
ROOT
ATOM      1  C   UNL d   1      -0.151   0.322   1.083  0.00  0.00    -0.033 A 
ATOM      2  C1  UNL d   1      -1.136  -0.278   1.870  0.00  0.00     0.039 A 
ATOM      3  C2  UNL d   1      -2.014   0.512   2.614  0.00  0.00    -0.080 A 
ATOM      4  C3  UNL d   1      -1.898   1.898   2.563  0.00  0.00     0.150 A 
ATOM      5  C4  UNL d   1      -0.921   2.502   1.778  0.00  0.00    -0.007 A 
ATOM      6  C5  UNL d   1      -0.044   1.712   1.036  0.00  0.00     0.039 A 
ENDROOT
BRANCH   4   7
ATOM      7  O   UNL d   1      -2.729   2.710   3.276  0.00  0.00    -0.526 OA
ATOM      8  H5  UNL d   1      -3.334   2.153   3.793  0.00  0.00     0.418 HD
ENDBRANCH   4   7
TORSDOF 1
ENDMDL
