MODEL 1
REMARK minimizedAffinity -1.93700814
REMARK minimizedRMSD -1
REMARK  1 active torsions:
REMARK  status: ('A' for Active; 'I' for Inactive)
REMARK    1  A    between atoms: C3_4  and  O_7 
ROOT
ATOM      1  C   UNL d   1      -1.892   1.381   1.737  0.00  0.00    -0.033 A 
ATOM      2  C1  UNL d   1      -1.663   0.041   1.417  0.00  0.00     0.039 A 
ATOM      3  C2  UNL d   1      -0.411  -0.363   0.951  0.00  0.00    -0.080 A 
ATOM      4  C3  UNL d   1       0.603   0.581   0.809  0.00  0.00     0.150 A 
ATOM      5  C4  UNL d   1       0.383   1.917   1.130  0.00  0.00    -0.007 A 
ATOM      6  C5  UNL d   1      -0.868   2.319   1.595  0.00  0.00     0.039 A 
ENDROOT
BRANCH   4   7
ATOM      7  O   UNL d   1       1.840   0.235   0.353  0.00  0.00    -0.526 OA
ATOM      8  H5  UNL d   1       1.837  -0.714   0.144  0.00  0.00     0.418 HD
ENDBRANCH   4   7
TORSDOF 1
ENDMDL
