MODEL 1
REMARK minimizedAffinity -4.47313547
REMARK minimizedRMSD -1
REMARK  1 active torsions:
REMARK  status: ('A' for Active; 'I' for Inactive)
REMARK    1  A    between atoms: C3_4  and  O_7 
ROOT
ATOM      1  C   UNL d   1      -0.533   0.048   1.261  0.00  0.00    -0.033 A 
ATOM      2  C1  UNL d   1      -0.310   1.426   1.291  0.00  0.00     0.039 A 
ATOM      3  C2  UNL d   1      -1.162   2.257   2.020  0.00  0.00    -0.080 A 
ATOM      4  C3  UNL d   1      -2.232   1.699   2.715  0.00  0.00     0.150 A 
ATOM      5  C4  UNL d   1      -2.458   0.327   2.692  0.00  0.00    -0.007 A 
ATOM      6  C5  UNL d   1      -1.606  -0.502   1.963  0.00  0.00     0.039 A 
ENDROOT
BRANCH   4   7
ATOM      7  O   UNL d   1      -3.093   2.471   3.437  0.00  0.00    -0.526 OA
ATOM      8  H5  UNL d   1      -2.831   3.401   3.337  0.00  0.00     0.418 HD
ENDBRANCH   4   7
TORSDOF 1
ENDMDL
