MODEL 1
REMARK minimizedAffinity -5.86322117
REMARK minimizedRMSD -1
REMARK  0 active torsions:
REMARK  status: ('A' for Active; 'I' for Inactive)
ROOT
ATOM      1  C   UNL d   1       0.741  -1.637  -0.945  0.00  0.00     0.077 C 
ATOM      2  C1  UNL d   1       0.086  -0.361  -0.505  0.00  0.00    -0.074 A 
ATOM      3  C2  UNL d   1      -0.800  -0.343   0.577  0.00  0.00    -0.005 A 
ATOM      4  C3  UNL d   1      -1.393   0.853   0.980  0.00  0.00     0.006 A 
ATOM      5  C4  UNL d   1      -1.107   2.041   0.307  0.00  0.00    -0.005 A 
ATOM      6  C5  UNL d   1      -0.223   2.043  -0.776  0.00  0.00    -0.074 A 
ATOM      7  C6  UNL d   1       0.103   3.313  -1.505  0.00  0.00     0.077 C 
ATOM      8  C7  UNL d   1       0.375   0.839  -1.171  0.00  0.00    -0.001 A 
ENDROOT
TORSDOF 0
ENDMDL
