MODEL 1
REMARK minimizedAffinity -1.90578914
REMARK minimizedRMSD -1
REMARK  0 active torsions:
REMARK  status: ('A' for Active; 'I' for Inactive)
ROOT
ATOM      1  C   UNL d   1       1.969  -3.767  -0.429  0.00  0.00     0.077 C 
ATOM      2  C1  UNL d   1       1.183  -2.762  -1.218  0.00  0.00    -0.074 A 
ATOM      3  C2  UNL d   1       0.526  -3.128  -2.397  0.00  0.00    -0.005 A 
ATOM      4  C3  UNL d   1      -0.209  -2.184  -3.114  0.00  0.00     0.006 A 
ATOM      5  C4  UNL d   1      -0.293  -0.867  -2.661  0.00  0.00    -0.005 A 
ATOM      6  C5  UNL d   1       0.357  -0.483  -1.484  0.00  0.00    -0.074 A 
ATOM      7  C6  UNL d   1       0.268   0.926  -0.978  0.00  0.00     0.077 C 
ATOM      8  C7  UNL d   1       1.087  -1.439  -0.765  0.00  0.00    -0.001 A 
ENDROOT
TORSDOF 0
ENDMDL
