MODEL 1
REMARK minimizedAffinity -5.72675133
REMARK minimizedRMSD -1
REMARK  0 active torsions:
REMARK  status: ('A' for Active; 'I' for Inactive)
ROOT
ATOM      1  C   UNL d   1      -1.401  -0.836   2.865  0.00  0.00     0.077 C 
ATOM      2  C1  UNL d   1      -0.967   0.103   1.778  0.00  0.00    -0.074 A 
ATOM      3  C2  UNL d   1      -1.636   1.312   1.563  0.00  0.00    -0.005 A 
ATOM      4  C3  UNL d   1      -1.215   2.179   0.555  0.00  0.00     0.006 A 
ATOM      5  C4  UNL d   1      -0.122   1.847  -0.247  0.00  0.00    -0.005 A 
ATOM      6  C5  UNL d   1       0.560   0.642  -0.046  0.00  0.00    -0.074 A 
ATOM      7  C6  UNL d   1       1.743   0.274  -0.892  0.00  0.00     0.077 C 
ATOM      8  C7  UNL d   1       0.135  -0.220   0.974  0.00  0.00    -0.001 A 
ENDROOT
TORSDOF 0
ENDMDL
