MODEL 1
REMARK minimizedAffinity -4.00450993
REMARK minimizedRMSD -1
REMARK  0 active torsions:
REMARK  status: ('A' for Active; 'I' for Inactive)
ROOT
ATOM      1  C   UNL d   1       0.437  -0.987  -1.294  0.00  0.00     0.077 C 
ATOM      2  C1  UNL d   1      -0.118  -0.410  -0.025  0.00  0.00    -0.074 A 
ATOM      3  C2  UNL d   1       0.119  -1.025   1.208  0.00  0.00    -0.005 A 
ATOM      4  C3  UNL d   1      -0.396  -0.472   2.381  0.00  0.00     0.006 A 
ATOM      5  C4  UNL d   1      -1.151   0.700   2.332  0.00  0.00    -0.005 A 
ATOM      6  C5  UNL d   1      -1.398   1.330   1.107  0.00  0.00    -0.074 A 
ATOM      7  C6  UNL d   1      -2.200   2.595   1.038  0.00  0.00     0.077 C 
ATOM      8  C7  UNL d   1      -0.871   0.771  -0.065  0.00  0.00    -0.001 A 
ENDROOT
TORSDOF 0
ENDMDL
