MODEL 1
REMARK minimizedAffinity -5.59234571
REMARK minimizedRMSD -1
REMARK  0 active torsions:
REMARK  status: ('A' for Active; 'I' for Inactive)
ROOT
ATOM      1  C   UNL d   1      -2.183   2.507   1.302  0.00  0.00     0.077 C 
ATOM      2  C1  UNL d   1      -1.299   1.298   1.217  0.00  0.00    -0.074 A 
ATOM      3  C2  UNL d   1      -1.259   0.363   2.256  0.00  0.00    -0.005 A 
ATOM      4  C3  UNL d   1      -0.439  -0.762   2.159  0.00  0.00     0.006 A 
ATOM      5  C4  UNL d   1       0.348  -0.962   1.024  0.00  0.00    -0.005 A 
ATOM      6  C5  UNL d   1       0.320  -0.038  -0.025  0.00  0.00    -0.074 A 
ATOM      7  C6  UNL d   1       1.152  -0.242  -1.256  0.00  0.00     0.077 C 
ATOM      8  C7  UNL d   1      -0.512   1.086   0.077  0.00  0.00    -0.001 A 
ENDROOT
TORSDOF 0
ENDMDL
