MODEL 1
REMARK minimizedAffinity -5.47887611
REMARK minimizedRMSD -1
REMARK  0 active torsions:
REMARK  status: ('A' for Active; 'I' for Inactive)
ROOT
ATOM      1  C   UNL d   1      -2.468   1.830   1.063  0.00  0.00     0.077 C 
ATOM      2  C1  UNL d   1      -1.171   1.264   0.565  0.00  0.00    -0.074 A 
ATOM      3  C2  UNL d   1      -0.677   0.055   1.064  0.00  0.00    -0.005 A 
ATOM      4  C3  UNL d   1       0.526  -0.464   0.585  0.00  0.00     0.006 A 
ATOM      5  C4  UNL d   1       1.245   0.220  -0.396  0.00  0.00    -0.005 A 
ATOM      6  C5  UNL d   1       0.765   1.430  -0.908  0.00  0.00    -0.074 A 
ATOM      7  C6  UNL d   1       1.521   2.173  -1.969  0.00  0.00     0.077 C 
ATOM      8  C7  UNL d   1      -0.447   1.941  -0.426  0.00  0.00    -0.001 A 
ENDROOT
TORSDOF 0
ENDMDL
