MODEL 1
REMARK minimizedAffinity -2.43532348
REMARK minimizedRMSD -1
REMARK  0 active torsions:
REMARK  status: ('A' for Active; 'I' for Inactive)
ROOT
ATOM      1  C   UNL d   1      -2.398   1.938   1.165  0.00  0.00     0.077 C 
ATOM      2  C1  UNL d   1      -1.114   1.601   0.467  0.00  0.00    -0.074 A 
ATOM      3  C2  UNL d   1      -0.699   2.318  -0.660  0.00  0.00    -0.005 A 
ATOM      4  C3  UNL d   1       0.502   2.000  -1.293  0.00  0.00     0.006 A 
ATOM      5  C4  UNL d   1       1.300   0.963  -0.807  0.00  0.00    -0.005 A 
ATOM      6  C5  UNL d   1       0.902   0.236   0.320  0.00  0.00    -0.074 A 
ATOM      7  C6  UNL d   1       1.752  -0.875   0.861  0.00  0.00     0.077 C 
ATOM      8  C7  UNL d   1      -0.304   0.566   0.954  0.00  0.00    -0.001 A 
ENDROOT
TORSDOF 0
ENDMDL
