MODEL 1
REMARK minimizedAffinity -2.01156664
REMARK minimizedRMSD -1
REMARK  0 active torsions:
REMARK  status: ('A' for Active; 'I' for Inactive)
ROOT
ATOM      1  C   UNL d   1       0.012   3.475  -1.312  0.00  0.00     0.077 C 
ATOM      2  C1  UNL d   1      -0.504   2.702  -0.135  0.00  0.00    -0.074 A 
ATOM      3  C2  UNL d   1      -1.349   3.303   0.804  0.00  0.00    -0.005 A 
ATOM      4  C3  UNL d   1      -1.829   2.569   1.889  0.00  0.00     0.006 A 
ATOM      5  C4  UNL d   1      -1.469   1.230   2.046  0.00  0.00    -0.005 A 
ATOM      6  C5  UNL d   1      -0.625   0.613   1.117  0.00  0.00    -0.074 A 
ATOM      7  C6  UNL d   1      -0.236  -0.828   1.266  0.00  0.00     0.077 C 
ATOM      8  C7  UNL d   1      -0.153   1.354   0.026  0.00  0.00    -0.001 A 
ENDROOT
TORSDOF 0
ENDMDL
