MODEL 1
REMARK minimizedAffinity -3.85358953
REMARK minimizedRMSD -1
REMARK  0 active torsions:
REMARK  status: ('A' for Active; 'I' for Inactive)
ROOT
ATOM      1  C   UNL d   1      -0.868   3.815   0.047  0.00  0.00     0.077 C 
ATOM      2  C1  UNL d   1      -1.002   2.421   0.585  0.00  0.00    -0.074 A 
ATOM      3  C2  UNL d   1      -1.970   2.111   1.545  0.00  0.00    -0.005 A 
ATOM      4  C3  UNL d   1      -2.089   0.808   2.029  0.00  0.00     0.006 A 
ATOM      5  C4  UNL d   1      -1.242  -0.196   1.559  0.00  0.00    -0.005 A 
ATOM      6  C5  UNL d   1      -0.268   0.095   0.598  0.00  0.00    -0.074 A 
ATOM      7  C6  UNL d   1       0.643  -0.975   0.074  0.00  0.00     0.077 C 
ATOM      8  C7  UNL d   1      -0.160   1.405   0.111  0.00  0.00    -0.001 A 
ENDROOT
TORSDOF 0
ENDMDL
