MODEL 1
REMARK minimizedAffinity -1.73031712
REMARK minimizedRMSD -1
REMARK  0 active torsions:
REMARK  status: ('A' for Active; 'I' for Inactive)
ROOT
ATOM      1  C   UNL d   1       1.486  -5.224  -1.041  0.00  0.00     0.077 C 
ATOM      2  C1  UNL d   1       1.068  -3.899  -1.607  0.00  0.00    -0.074 A 
ATOM      3  C2  UNL d   1       0.576  -3.798  -2.912  0.00  0.00    -0.005 A 
ATOM      4  C3  UNL d   1       0.181  -2.561  -3.421  0.00  0.00     0.006 A 
ATOM      5  C4  UNL d   1       0.276  -1.414  -2.632  0.00  0.00    -0.005 A 
ATOM      6  C5  UNL d   1       0.765  -1.496  -1.324  0.00  0.00    -0.074 A 
ATOM      7  C6  UNL d   1       0.864  -0.275  -0.459  0.00  0.00     0.077 C 
ATOM      8  C7  UNL d   1       1.153  -2.744  -0.818  0.00  0.00    -0.001 A 
ENDROOT
TORSDOF 0
ENDMDL
