MODEL 1
REMARK minimizedAffinity -4.01592159
REMARK minimizedRMSD -1
REMARK  0 active torsions:
REMARK  status: ('A' for Active; 'I' for Inactive)
ROOT
ATOM      1  C   UNL d   1       0.814  -1.404   2.160  0.00  0.00     0.077 C 
ATOM      2  C1  UNL d   1       0.421  -0.349   1.169  0.00  0.00    -0.074 A 
ATOM      3  C2  UNL d   1       1.117  -0.197  -0.035  0.00  0.00    -0.005 A 
ATOM      4  C3  UNL d   1       0.733   0.782  -0.950  0.00  0.00     0.006 A 
ATOM      5  C4  UNL d   1      -0.348   1.620  -0.672  0.00  0.00    -0.005 A 
ATOM      6  C5  UNL d   1      -1.056   1.483   0.526  0.00  0.00    -0.074 A 
ATOM      7  C6  UNL d   1      -2.226   2.368   0.836  0.00  0.00     0.077 C 
ATOM      8  C7  UNL d   1      -0.669   0.491   1.438  0.00  0.00    -0.001 A 
ENDROOT
TORSDOF 0
ENDMDL
