MODEL 1
REMARK minimizedAffinity -4.25849247
REMARK minimizedRMSD -1
REMARK  0 active torsions:
REMARK  status: ('A' for Active; 'I' for Inactive)
ROOT
ATOM      1  C   UNL d   1      -2.240   2.175   0.989  0.00  0.00     0.077 C 
ATOM      2  C1  UNL d   1      -1.273   1.031   1.051  0.00  0.00    -0.074 A 
ATOM      3  C2  UNL d   1      -0.997   0.388   2.262  0.00  0.00    -0.005 A 
ATOM      4  C3  UNL d   1      -0.102  -0.681   2.303  0.00  0.00     0.006 A 
ATOM      5  C4  UNL d   1       0.524  -1.118   1.135  0.00  0.00    -0.005 A 
ATOM      6  C5  UNL d   1       0.260  -0.488  -0.086  0.00  0.00    -0.074 A 
ATOM      7  C6  UNL d   1       0.917  -0.951  -1.352  0.00  0.00     0.077 C 
ATOM      8  C7  UNL d   1      -0.646   0.581  -0.119  0.00  0.00    -0.001 A 
ENDROOT
TORSDOF 0
ENDMDL
