MODEL 1
REMARK minimizedAffinity -3.13560319
REMARK minimizedRMSD -1
REMARK  0 active torsions:
REMARK  status: ('A' for Active; 'I' for Inactive)
ROOT
ATOM      1  C   UNL d   1       1.210  -0.051  -2.139  0.00  0.00     0.077 C 
ATOM      2  C1  UNL d   1       0.481  -0.112  -0.829  0.00  0.00    -0.074 A 
ATOM      3  C2  UNL d   1       0.756  -1.120   0.100  0.00  0.00    -0.005 A 
ATOM      4  C3  UNL d   1       0.077  -1.158   1.318  0.00  0.00     0.006 A 
ATOM      5  C4  UNL d   1      -0.882  -0.190   1.618  0.00  0.00    -0.005 A 
ATOM      6  C5  UNL d   1      -1.169   0.826   0.702  0.00  0.00    -0.074 A 
ATOM      7  C6  UNL d   1      -2.190   1.880   1.013  0.00  0.00     0.077 C 
ATOM      8  C7  UNL d   1      -0.478   0.862  -0.517  0.00  0.00    -0.001 A 
ENDROOT
TORSDOF 0
ENDMDL
