MODEL 1
REMARK minimizedAffinity -5.05704927
REMARK minimizedRMSD -1
REMARK  0 active torsions:
REMARK  status: ('A' for Active; 'I' for Inactive)
ROOT
ATOM      1  C   UNL d   1      -2.601   2.611   0.959  0.00  0.00     0.077 C 
ATOM      2  C1  UNL d   1      -1.438   1.692   0.734  0.00  0.00    -0.074 A 
ATOM      3  C2  UNL d   1      -1.121   0.694   1.661  0.00  0.00    -0.005 A 
ATOM      4  C3  UNL d   1      -0.042  -0.160   1.434  0.00  0.00     0.006 A 
ATOM      5  C4  UNL d   1       0.730  -0.025   0.279  0.00  0.00    -0.005 A 
ATOM      6  C5  UNL d   1       0.427   0.966  -0.660  0.00  0.00    -0.074 A 
ATOM      7  C6  UNL d   1       1.240   1.118  -1.911  0.00  0.00     0.077 C 
ATOM      8  C7  UNL d   1      -0.663   1.816  -0.428  0.00  0.00    -0.001 A 
ENDROOT
TORSDOF 0
ENDMDL
