MODEL 1
REMARK minimizedAffinity -3.10852385
REMARK minimizedRMSD -1
REMARK  0 active torsions:
REMARK  status: ('A' for Active; 'I' for Inactive)
ROOT
ATOM      1  C   UNL d   1      -0.757   2.915   2.468  0.00  0.00     0.077 C 
ATOM      2  C1  UNL d   1      -0.844   1.513   1.942  0.00  0.00    -0.074 A 
ATOM      3  C2  UNL d   1      -1.708   0.579   2.523  0.00  0.00    -0.005 A 
ATOM      4  C3  UNL d   1      -1.785  -0.718   2.017  0.00  0.00     0.006 A 
ATOM      5  C4  UNL d   1      -1.000  -1.095   0.927  0.00  0.00    -0.005 A 
ATOM      6  C5  UNL d   1      -0.130  -0.175   0.333  0.00  0.00    -0.074 A 
ATOM      7  C6  UNL d   1       0.713  -0.561  -0.846  0.00  0.00     0.077 C 
ATOM      8  C7  UNL d   1      -0.064   1.129   0.842  0.00  0.00    -0.001 A 
ENDROOT
TORSDOF 0
ENDMDL
