MODEL 1
REMARK minimizedAffinity -2.56265569
REMARK minimizedRMSD -1
REMARK  0 active torsions:
REMARK  status: ('A' for Active; 'I' for Inactive)
ROOT
ATOM      1  C   UNL d   1      -1.413  -0.843  -2.030  0.00  0.00     0.172 C 
ATOM      2  N   UNL d   1      -0.280  -0.267  -1.344  0.00  0.00    -0.070 N 
ATOM      3  C1  UNL d   1      -0.103   1.064  -1.073  0.00  0.00    -0.004 A 
ATOM      4  C2  UNL d   1       1.096   1.203  -0.407  0.00  0.00    -0.047 A 
ATOM      5  C3  UNL d   1       1.659  -0.089  -0.274  0.00  0.00    -0.047 A 
ATOM      6  C4  UNL d   1       0.786  -0.980  -0.863  0.00  0.00    -0.004 A 
ENDROOT
TORSDOF 0
ENDMDL
