MODEL 1
REMARK minimizedAffinity 0.0738229081
REMARK minimizedRMSD -1
REMARK  0 active torsions:
REMARK  status: ('A' for Active; 'I' for Inactive)
ROOT
ATOM      1  C   UNL d   1      -0.922   5.999  -2.501  0.00  0.00     0.172 C 
ATOM      2  N   UNL d   1      -2.350   5.999  -2.719  0.00  0.00    -0.070 N 
ATOM      3  C1  UNL d   1      -3.307   5.997  -1.740  0.00  0.00    -0.004 A 
ATOM      4  C2  UNL d   1      -4.540   5.998  -2.355  0.00  0.00    -0.047 A 
ATOM      5  C3  UNL d   1      -4.316   5.999  -3.752  0.00  0.00    -0.047 A 
ATOM      6  C4  UNL d   1      -2.952   6.000  -3.949  0.00  0.00    -0.004 A 
ENDROOT
TORSDOF 0
ENDMDL
