MODEL 1
REMARK minimizedAffinity 3.88081908
REMARK minimizedRMSD -1
REMARK  0 active torsions:
REMARK  status: ('A' for Active; 'I' for Inactive)
ROOT
ATOM      1  C   UNL d   1      -0.988   5.999  -4.350  0.00  0.00     0.172 C 
ATOM      2  N   UNL d   1       0.401   5.854  -4.715  0.00  0.00    -0.070 N 
ATOM      3  C1  UNL d   1       1.441   5.673  -3.843  0.00  0.00    -0.004 A 
ATOM      4  C2  UNL d   1       2.600   5.579  -4.582  0.00  0.00    -0.047 A 
ATOM      5  C3  UNL d   1       2.245   5.709  -5.946  0.00  0.00    -0.047 A 
ATOM      6  C4  UNL d   1       0.878   5.879  -5.999  0.00  0.00    -0.004 A 
ENDROOT
TORSDOF 0
ENDMDL
