MODEL 1
REMARK minimizedAffinity 2.09966016
REMARK minimizedRMSD -1
REMARK  0 active torsions:
REMARK  status: ('A' for Active; 'I' for Inactive)
ROOT
ATOM      1  C   UNL d   1       0.216  -1.250   0.982  0.00  0.00     0.172 C 
ATOM      2  N   UNL d   1       0.565   0.088   0.566  0.00  0.00    -0.070 N 
ATOM      3  C1  UNL d   1       0.599   0.538  -0.727  0.00  0.00    -0.004 A 
ATOM      4  C2  UNL d   1       0.976   1.864  -0.703  0.00  0.00    -0.047 A 
ATOM      5  C3  UNL d   1       1.176   2.222   0.652  0.00  0.00    -0.047 A 
ATOM      6  C4  UNL d   1       0.915   1.104   1.415  0.00  0.00    -0.004 A 
ENDROOT
TORSDOF 0
ENDMDL
