MODEL 1
REMARK minimizedAffinity 1.33196664
REMARK minimizedRMSD -1
REMARK  0 active torsions:
REMARK  status: ('A' for Active; 'I' for Inactive)
ROOT
ATOM      1  C   UNL d   1      -0.398  -0.065   2.637  0.00  0.00     0.172 C 
ATOM      2  N   UNL d   1       0.337   0.432   1.498  0.00  0.00    -0.070 N 
ATOM      3  C1  UNL d   1      -0.014   0.263   0.185  0.00  0.00    -0.004 A 
ATOM      4  C2  UNL d   1       0.941   0.884  -0.591  0.00  0.00    -0.047 A 
ATOM      5  C3  UNL d   1       1.900   1.445   0.286  0.00  0.00    -0.047 A 
ATOM      6  C4  UNL d   1       1.502   1.150   1.573  0.00  0.00    -0.004 A 
ENDROOT
TORSDOF 0
ENDMDL
