MODEL 1
REMARK minimizedAffinity -2.35967803
REMARK minimizedRMSD -1
REMARK  0 active torsions:
REMARK  status: ('A' for Active; 'I' for Inactive)
ROOT
ATOM      1  C   UNL d   1       1.143   5.984  -4.557  0.00  0.00     0.172 C 
ATOM      2  N   UNL d   1      -0.166   5.989  -3.946  0.00  0.00    -0.070 N 
ATOM      3  C1  UNL d   1      -0.418   5.989  -2.600  0.00  0.00    -0.004 A 
ATOM      4  C2  UNL d   1      -1.785   5.996  -2.427  0.00  0.00    -0.047 A 
ATOM      5  C3  UNL d   1      -2.375   6.000  -3.713  0.00  0.00    -0.047 A 
ATOM      6  C4  UNL d   1      -1.350   5.995  -4.635  0.00  0.00    -0.004 A 
ENDROOT
TORSDOF 0
ENDMDL
