MODEL 1
REMARK minimizedAffinity -1.52857876
REMARK minimizedRMSD -1
REMARK  0 active torsions:
REMARK  status: ('A' for Active; 'I' for Inactive)
ROOT
ATOM      1  C   UNL d   1      -3.594   5.990  -3.437  0.00  0.00     0.172 C 
ATOM      2  N   UNL d   1      -2.224   5.993  -3.895  0.00  0.00    -0.070 N 
ATOM      3  C1  UNL d   1      -1.114   6.000  -3.093  0.00  0.00    -0.004 A 
ATOM      4  C2  UNL d   1      -0.004   6.000  -3.910  0.00  0.00    -0.047 A 
ATOM      5  C3  UNL d   1      -0.463   5.993  -5.249  0.00  0.00    -0.047 A 
ATOM      6  C4  UNL d   1      -1.841   5.989  -5.210  0.00  0.00    -0.004 A 
ENDROOT
TORSDOF 0
ENDMDL
