MODEL 1
REMARK minimizedAffinity 3.05571985
REMARK minimizedRMSD -1
REMARK  0 active torsions:
REMARK  status: ('A' for Active; 'I' for Inactive)
ROOT
ATOM      1  C   UNL d   1       0.060  -1.662   0.894  0.00  0.00     0.172 C 
ATOM      2  N   UNL d   1       0.713  -0.449   0.460  0.00  0.00    -0.070 N 
ATOM      3  C1  UNL d   1       1.429   0.402   1.259  0.00  0.00    -0.004 A 
ATOM      4  C2  UNL d   1       1.888   1.435   0.470  0.00  0.00    -0.047 A 
ATOM      5  C3  UNL d   1       1.432   1.197  -0.848  0.00  0.00    -0.047 A 
ATOM      6  C4  UNL d   1       0.707   0.024  -0.825  0.00  0.00    -0.004 A 
ENDROOT
TORSDOF 0
ENDMDL
