MODEL 1
REMARK minimizedAffinity -2.31466913
REMARK minimizedRMSD -1
REMARK  0 active torsions:
REMARK  status: ('A' for Active; 'I' for Inactive)
ROOT
ATOM      1  C   UNL d   1       0.032  -0.360   0.366  0.00  0.00     0.172 C 
ATOM      2  N   UNL d   1       0.775   0.825   0.725  0.00  0.00    -0.070 N 
ATOM      3  C1  UNL d   1       1.718   0.906   1.714  0.00  0.00    -0.004 A 
ATOM      4  C2  UNL d   1       2.192   2.200   1.741  0.00  0.00    -0.047 A 
ATOM      5  C3  UNL d   1       1.508   2.922   0.734  0.00  0.00    -0.047 A 
ATOM      6  C4  UNL d   1       0.637   2.046   0.120  0.00  0.00    -0.004 A 
ENDROOT
TORSDOF 0
ENDMDL
