MODEL 1
REMARK minimizedAffinity -0.912840962
REMARK minimizedRMSD -1
REMARK  0 active torsions:
REMARK  status: ('A' for Active; 'I' for Inactive)
ROOT
ATOM      1  C   UNL d   1       1.759   5.999  -3.700  0.00  0.00     0.172 C 
ATOM      2  N   UNL d   1       0.381   5.998  -3.268  0.00  0.00    -0.070 N 
ATOM      3  C1  UNL d   1      -0.714   5.997  -4.090  0.00  0.00    -0.004 A 
ATOM      4  C2  UNL d   1      -1.839   5.996  -3.295  0.00  0.00    -0.047 A 
ATOM      5  C3  UNL d   1      -1.406   5.997  -1.948  0.00  0.00    -0.047 A 
ATOM      6  C4  UNL d   1      -0.027   5.998  -1.960  0.00  0.00    -0.004 A 
ENDROOT
TORSDOF 0
ENDMDL
