MODEL 1
REMARK minimizedAffinity -0.0349531174
REMARK minimizedRMSD -1
REMARK  0 active torsions:
REMARK  status: ('A' for Active; 'I' for Inactive)
ROOT
ATOM      1  C   UNL d   1      -4.137   2.621   4.197  0.00  0.00     0.172 C 
ATOM      2  N   UNL d   1      -4.692   3.854   4.705  0.00  0.00    -0.070 N 
ATOM      3  C1  UNL d   1      -4.549   5.090   4.131  0.00  0.00    -0.004 A 
ATOM      4  C2  UNL d   1      -5.224   6.000   4.916  0.00  0.00    -0.047 A 
ATOM      5  C3  UNL d   1      -5.790   5.287   5.999  0.00  0.00    -0.047 A 
ATOM      6  C4  UNL d   1      -5.446   3.961   5.844  0.00  0.00    -0.004 A 
ENDROOT
TORSDOF 0
ENDMDL
