MODEL 1
REMARK minimizedAffinity -1.95536888
REMARK minimizedRMSD -1
REMARK  0 active torsions:
REMARK  status: ('A' for Active; 'I' for Inactive)
ROOT
ATOM      1  C   UNL d   1      -0.196   5.956  -4.280  0.00  0.00     0.172 C 
ATOM      2  N   UNL d   1       1.182   5.859  -4.701  0.00  0.00    -0.070 N 
ATOM      3  C1  UNL d   1       2.252   5.620  -3.881  0.00  0.00    -0.004 A 
ATOM      4  C2  UNL d   1       3.387   5.602  -4.662  0.00  0.00    -0.047 A 
ATOM      5  C3  UNL d   1       2.985   5.839  -5.998  0.00  0.00    -0.047 A 
ATOM      6  C4  UNL d   1       1.615   5.995  -5.993  0.00  0.00    -0.004 A 
ENDROOT
TORSDOF 0
ENDMDL
