MODEL 1
REMARK minimizedAffinity -0.178318828
REMARK minimizedRMSD -1
REMARK  0 active torsions:
REMARK  status: ('A' for Active; 'I' for Inactive)
ROOT
ATOM      1  C   UNL d   1      -2.101  -0.492   2.867  0.00  0.00     0.172 C 
ATOM      2  N   UNL d   1      -1.057   0.028   2.015  0.00  0.00    -0.070 N 
ATOM      3  C1  UNL d   1      -0.091   0.923   2.392  0.00  0.00    -0.004 A 
ATOM      4  C2  UNL d   1       0.711   1.163   1.297  0.00  0.00    -0.047 A 
ATOM      5  C3  UNL d   1       0.209   0.387   0.226  0.00  0.00    -0.047 A 
ATOM      6  C4  UNL d   1      -0.885  -0.307   0.698  0.00  0.00    -0.004 A 
ENDROOT
TORSDOF 0
ENDMDL
