MODEL 1
REMARK minimizedAffinity -2.83861518
REMARK minimizedRMSD -1
REMARK  0 active torsions:
REMARK  status: ('A' for Active; 'I' for Inactive)
ROOT
ATOM      1  C   UNL d   1      -0.000   5.612  -3.003  0.00  0.00     0.172 C 
ATOM      2  N   UNL d   1      -1.350   5.721  -3.504  0.00  0.00    -0.070 N 
ATOM      3  C1  UNL d   1      -1.727   5.594  -4.814  0.00  0.00    -0.004 A 
ATOM      4  C2  UNL d   1      -3.093   5.763  -4.878  0.00  0.00    -0.047 A 
ATOM      5  C3  UNL d   1      -3.553   6.000  -3.561  0.00  0.00    -0.047 A 
ATOM      6  C4  UNL d   1      -2.453   5.968  -2.730  0.00  0.00    -0.004 A 
ENDROOT
TORSDOF 0
ENDMDL
