MODEL 1
REMARK minimizedAffinity -2.87895489
REMARK minimizedRMSD -1
REMARK  0 active torsions:
REMARK  status: ('A' for Active; 'I' for Inactive)
ROOT
ATOM      1  C   UNL d   1      -1.810   5.936  -4.403  0.00  0.00     0.172 C 
ATOM      2  N   UNL d   1      -0.394   5.956  -4.688  0.00  0.00    -0.070 N 
ATOM      3  C1  UNL d   1       0.607   5.991  -3.754  0.00  0.00    -0.004 A 
ATOM      4  C2  UNL d   1       1.811   5.999  -4.426  0.00  0.00    -0.047 A 
ATOM      5  C3  UNL d   1       1.522   5.968  -5.812  0.00  0.00    -0.047 A 
ATOM      6  C4  UNL d   1       0.150   5.942  -5.945  0.00  0.00    -0.004 A 
ENDROOT
TORSDOF 0
ENDMDL
