MODEL 1
REMARK minimizedAffinity 0.223144963
REMARK minimizedRMSD -1
REMARK  0 active torsions:
REMARK  status: ('A' for Active; 'I' for Inactive)
ROOT
ATOM      1  C   UNL d   1       2.248   3.147   1.266  0.00  0.00     0.172 C 
ATOM      2  N   UNL d   1       1.604   1.965   0.744  0.00  0.00    -0.070 N 
ATOM      3  C1  UNL d   1       1.157   0.905   1.487  0.00  0.00    -0.004 A 
ATOM      4  C2  UNL d   1       0.606  -0.015   0.621  0.00  0.00    -0.047 A 
ATOM      5  C3  UNL d   1       0.727   0.510  -0.688  0.00  0.00    -0.047 A 
ATOM      6  C4  UNL d   1       1.349   1.736  -0.582  0.00  0.00    -0.004 A 
ENDROOT
TORSDOF 0
ENDMDL
