MODEL 1
REMARK minimizedAffinity -1.20062327
REMARK minimizedRMSD -1
REMARK  0 active torsions:
REMARK  status: ('A' for Active; 'I' for Inactive)
ROOT
ATOM      1  C   UNL d   1      -1.659   5.937  -3.372  0.00  0.00     0.172 C 
ATOM      2  N   UNL d   1      -3.033   5.959  -2.930  0.00  0.00    -0.070 N 
ATOM      3  C1  UNL d   1      -3.453   5.958  -1.626  0.00  0.00    -0.004 A 
ATOM      4  C2  UNL d   1      -4.831   5.984  -1.626  0.00  0.00    -0.047 A 
ATOM      5  C3  UNL d   1      -5.254   6.000  -2.976  0.00  0.00    -0.047 A 
ATOM      6  C4  UNL d   1      -4.121   5.984  -3.762  0.00  0.00    -0.004 A 
ENDROOT
TORSDOF 0
ENDMDL
