MODEL 1
REMARK minimizedAffinity -2.72591734
REMARK minimizedRMSD -1
REMARK  0 active torsions:
REMARK  status: ('A' for Active; 'I' for Inactive)
ROOT
ATOM      1  C   UNL d   1       1.107   5.955  -3.958  0.00  0.00     0.172 C 
ATOM      2  N   UNL d   1      -0.292   5.973  -3.602  0.00  0.00    -0.070 N 
ATOM      3  C1  UNL d   1      -1.340   5.984  -4.483  0.00  0.00    -0.004 A 
ATOM      4  C2  UNL d   1      -2.508   6.000  -3.751  0.00  0.00    -0.047 A 
ATOM      5  C3  UNL d   1      -2.148   6.000  -2.382  0.00  0.00    -0.047 A 
ATOM      6  C4  UNL d   1      -0.771   5.983  -2.319  0.00  0.00    -0.004 A 
ENDROOT
TORSDOF 0
ENDMDL
