MODEL 1
REMARK minimizedAffinity 10.0988903
REMARK minimizedRMSD -1
REMARK  0 active torsions:
REMARK  status: ('A' for Active; 'I' for Inactive)
ROOT
ATOM      1  C4' PXY d   1       1.834   0.002   0.810  0.00  0.00     0.077 C 
ATOM      2  C1' PXY d   1      -2.660   3.472   1.899  0.00  0.00     0.077 C 
ATOM      3  C1  PXY d   1      -1.488   2.555   1.604  0.00  0.00    -0.082 A 
ATOM      4  C2  PXY d   1      -0.536   2.400   2.509  0.00  0.00     0.003 A 
ATOM      5  C3  PXY d   1       0.547   1.601   2.247  0.00  0.00     0.003 A 
ATOM      6  C4  PXY d   1       0.628   0.910   1.068  0.00  0.00    -0.082 A 
ATOM      7  C5  PXY d   1      -0.345   1.055   0.143  0.00  0.00     0.003 A 
ATOM      8  C6  PXY d   1      -1.415   1.903   0.412  0.00  0.00     0.003 A 
ENDROOT
TORSDOF 0
ENDMDL
