MODEL 1
REMARK minimizedAffinity 9.164011
REMARK minimizedRMSD -1
REMARK  0 active torsions:
REMARK  status: ('A' for Active; 'I' for Inactive)
ROOT
ATOM      1  C4' PXY d   1      -2.770   2.948  -2.981  0.00  0.00     0.077 C 
ATOM      2  C1' PXY d   1       0.876   2.414   1.473  0.00  0.00     0.077 C 
ATOM      3  C1  PXY d   1      -0.071   2.560   0.298  0.00  0.00    -0.082 A 
ATOM      4  C2  PXY d   1      -1.377   2.592   0.509  0.00  0.00     0.003 A 
ATOM      5  C3  PXY d   1      -2.248   2.691  -0.544  0.00  0.00     0.003 A 
ATOM      6  C4  PXY d   1      -1.777   2.812  -1.824  0.00  0.00    -0.082 A 
ATOM      7  C5  PXY d   1      -0.446   2.790  -2.048  0.00  0.00     0.003 A 
ATOM      8  C6  PXY d   1       0.421   2.648  -0.968  0.00  0.00     0.003 A 
ENDROOT
TORSDOF 0
ENDMDL
