MODEL 1
REMARK minimizedAffinity 11.706049
REMARK minimizedRMSD -1
REMARK  0 active torsions:
REMARK  status: ('A' for Active; 'I' for Inactive)
ROOT
ATOM      1  C4' PXY d   1      -3.188   3.618  -4.185  0.00  0.00     0.077 C 
ATOM      2  C1' PXY d   1       0.544   1.664  -0.227  0.00  0.00     0.077 C 
ATOM      3  C1  PXY d   1      -0.442   2.166  -1.263  0.00  0.00    -0.082 A 
ATOM      4  C2  PXY d   1      -0.046   3.041  -2.173  0.00  0.00     0.003 A 
ATOM      5  C3  PXY d   1      -0.933   3.529  -3.098  0.00  0.00     0.003 A 
ATOM      6  C4  PXY d   1      -2.225   3.077  -3.125  0.00  0.00    -0.082 A 
ATOM      7  C5  PXY d   1      -2.634   2.176  -2.207  0.00  0.00     0.003 A 
ATOM      8  C6  PXY d   1      -1.729   1.724  -1.251  0.00  0.00     0.003 A 
ENDROOT
TORSDOF 0
ENDMDL
