MODEL 1
REMARK minimizedAffinity 12.7957029
REMARK minimizedRMSD -1
REMARK  0 active torsions:
REMARK  status: ('A' for Active; 'I' for Inactive)
ROOT
ATOM      1  C4' PXY d   1       0.115   2.814  -2.277  0.00  0.00     0.077 C 
ATOM      2  C1' PXY d   1      -5.080   0.314  -1.850  0.00  0.00     0.077 C 
ATOM      3  C1  PXY d   1      -3.716   0.968  -1.949  0.00  0.00    -0.082 A 
ATOM      4  C2  PXY d   1      -3.438   1.747  -2.982  0.00  0.00     0.003 A 
ATOM      5  C3  PXY d   1      -2.198   2.322  -3.104  0.00  0.00     0.003 A 
ATOM      6  C4  PXY d   1      -1.252   2.140  -2.131  0.00  0.00    -0.082 A 
ATOM      7  C5  PXY d   1      -1.532   1.355  -1.069  0.00  0.00     0.003 A 
ATOM      8  C6  PXY d   1      -2.782   0.748  -0.985  0.00  0.00     0.003 A 
ENDROOT
TORSDOF 0
ENDMDL
