MODEL 1
REMARK minimizedAffinity 6.40885258
REMARK minimizedRMSD -1
REMARK  0 active torsions:
REMARK  status: ('A' for Active; 'I' for Inactive)
ROOT
ATOM      1  C4' PXY d   1       1.983   3.014   4.146  0.00  0.00     0.077 C 
ATOM      2  C1' PXY d   1      -0.946   3.085  -0.837  0.00  0.00     0.077 C 
ATOM      3  C1  PXY d   1      -0.188   3.062   0.476  0.00  0.00    -0.082 A 
ATOM      4  C2  PXY d   1       0.837   3.879   0.655  0.00  0.00     0.003 A 
ATOM      5  C3  PXY d   1       1.553   3.849   1.824  0.00  0.00     0.003 A 
ATOM      6  C4  PXY d   1       1.183   3.010   2.841  0.00  0.00    -0.082 A 
ATOM      7  C5  PXY d   1       0.132   2.180   2.670  0.00  0.00     0.003 A 
ATOM      8  C6  PXY d   1      -0.556   2.198   1.460  0.00  0.00     0.003 A 
ENDROOT
TORSDOF 0
ENDMDL
