MODEL 1
REMARK minimizedAffinity 9.71934891
REMARK minimizedRMSD -1
REMARK  0 active torsions:
REMARK  status: ('A' for Active; 'I' for Inactive)
ROOT
ATOM      1  C4' PXY d   1      -0.830  -3.586  -4.627  0.00  0.00     0.077 C 
ATOM      2  C1' PXY d   1      -6.000  -5.999  -5.558  0.00  0.00     0.077 C 
ATOM      3  C1  PXY d   1      -4.644  -5.372  -5.301  0.00  0.00    -0.082 A 
ATOM      4  C2  PXY d   1      -4.284  -4.293  -5.978  0.00  0.00     0.003 A 
ATOM      5  C3  PXY d   1      -3.049  -3.731  -5.782  0.00  0.00     0.003 A 
ATOM      6  C4  PXY d   1      -2.193  -4.248  -4.845  0.00  0.00    -0.082 A 
ATOM      7  C5  PXY d   1      -2.557  -5.342  -4.144  0.00  0.00     0.003 A 
ATOM      8  C6  PXY d   1      -3.799  -5.922  -4.387  0.00  0.00     0.003 A 
ENDROOT
TORSDOF 0
ENDMDL
