MODEL 1
REMARK minimizedAffinity 2.20517945
REMARK minimizedRMSD -1
REMARK  0 active torsions:
REMARK  status: ('A' for Active; 'I' for Inactive)
ROOT
ATOM      1  C4' PXY d   1       1.914   3.322   3.947  0.00  0.00     0.077 C 
ATOM      2  C1' PXY d   1      -0.821   3.375  -1.145  0.00  0.00     0.077 C 
ATOM      3  C1  PXY d   1      -0.114   3.357   0.196  0.00  0.00    -0.082 A 
ATOM      4  C2  PXY d   1       0.935   4.139   0.394  0.00  0.00     0.003 A 
ATOM      5  C3  PXY d   1       1.605   4.111   1.590  0.00  0.00     0.003 A 
ATOM      6  C4  PXY d   1       1.164   3.314   2.612  0.00  0.00    -0.082 A 
ATOM      7  C5  PXY d   1       0.089   2.522   2.422  0.00  0.00     0.003 A 
ATOM      8  C6  PXY d   1      -0.553   2.534   1.187  0.00  0.00     0.003 A 
ENDROOT
TORSDOF 0
ENDMDL
