MODEL 1
REMARK minimizedAffinity 6.3370533
REMARK minimizedRMSD -1
REMARK  0 active torsions:
REMARK  status: ('A' for Active; 'I' for Inactive)
ROOT
ATOM      1  C4' PXY d   1      -1.046   1.926  -0.848  0.00  0.00     0.077 C 
ATOM      2  C1' PXY d   1       1.734   3.705   3.898  0.00  0.00     0.077 C 
ATOM      3  C1  PXY d   1       1.004   3.251   2.649  0.00  0.00    -0.082 A 
ATOM      4  C2  PXY d   1       0.366   2.092   2.650  0.00  0.00     0.003 A 
ATOM      5  C3  PXY d   1      -0.272   1.651   1.519  0.00  0.00     0.003 A 
ATOM      6  C4  PXY d   1      -0.303   2.429   0.393  0.00  0.00    -0.082 A 
ATOM      7  C5  PXY d   1       0.336   3.618   0.388  0.00  0.00     0.003 A 
ATOM      8  C6  PXY d   1       1.013   4.029   1.533  0.00  0.00     0.003 A 
ENDROOT
TORSDOF 0
ENDMDL
