MODEL 1
REMARK minimizedAffinity 6.8791256
REMARK minimizedRMSD -1
REMARK  0 active torsions:
REMARK  status: ('A' for Active; 'I' for Inactive)
ROOT
ATOM      1  C4' PXY d   1       0.046   1.501   2.988  0.00  0.00     0.077 C 
ATOM      2  C1' PXY d   1      -0.506   4.035  -2.178  0.00  0.00     0.077 C 
ATOM      3  C1  PXY d   1      -0.353   3.380  -0.819  0.00  0.00    -0.082 A 
ATOM      4  C2  PXY d   1      -0.635   2.095  -0.678  0.00  0.00     0.003 A 
ATOM      5  C3  PXY d   1      -0.532   1.494   0.550  0.00  0.00     0.003 A 
ATOM      6  C4  PXY d   1      -0.086   2.202   1.633  0.00  0.00    -0.082 A 
ATOM      7  C5  PXY d   1       0.214   3.511   1.495  0.00  0.00     0.003 A 
ATOM      8  C6  PXY d   1       0.064   4.113   0.249  0.00  0.00     0.003 A 
ENDROOT
TORSDOF 0
ENDMDL
