MODEL 1
REMARK minimizedAffinity 10.557518
REMARK minimizedRMSD -1
REMARK  0 active torsions:
REMARK  status: ('A' for Active; 'I' for Inactive)
ROOT
ATOM      1  C4' PXY d   1       4.480  -2.284  -4.724  0.00  0.00     0.077 C 
ATOM      2  C1' PXY d   1       5.223  -5.788  -0.187  0.00  0.00     0.077 C 
ATOM      3  C1  PXY d   1       5.031  -4.879  -1.385  0.00  0.00    -0.082 A 
ATOM      4  C2  PXY d   1       5.214  -3.575  -1.253  0.00  0.00     0.003 A 
ATOM      5  C3  PXY d   1       5.014  -2.735  -2.318  0.00  0.00     0.003 A 
ATOM      6  C4  PXY d   1       4.673  -3.241  -3.544  0.00  0.00    -0.082 A 
ATOM      7  C5  PXY d   1       4.494  -4.571  -3.689  0.00  0.00     0.003 A 
ATOM      8  C6  PXY d   1       4.662  -5.402  -2.586  0.00  0.00     0.003 A 
ENDROOT
TORSDOF 0
ENDMDL
