MODEL 1
REMARK minimizedAffinity 1.49477601
REMARK minimizedRMSD -1
REMARK  0 active torsions:
REMARK  status: ('A' for Active; 'I' for Inactive)
ROOT
ATOM      1  C4' PXY d   1      -3.775   3.206   1.395  0.00  0.00     0.077 C 
ATOM      2  C1' PXY d   1      -5.519   2.491  -4.070  0.00  0.00     0.077 C 
ATOM      3  C1  PXY d   1      -5.073   2.684  -2.634  0.00  0.00    -0.082 A 
ATOM      4  C2  PXY d   1      -3.781   2.723  -2.349  0.00  0.00     0.003 A 
ATOM      5  C3  PXY d   1      -3.361   2.864  -1.052  0.00  0.00     0.003 A 
ATOM      6  C4  PXY d   1      -4.271   3.022  -0.042  0.00  0.00    -0.082 A 
ATOM      7  C5  PXY d   1      -5.591   2.995  -0.325  0.00  0.00     0.003 A 
ATOM      8  C6  PXY d   1      -5.997   2.809  -1.643  0.00  0.00     0.003 A 
ENDROOT
TORSDOF 0
ENDMDL
