MODEL 1
REMARK minimizedAffinity 8.26380253
REMARK minimizedRMSD -1
REMARK  0 active torsions:
REMARK  status: ('A' for Active; 'I' for Inactive)
ROOT
ATOM      1  C4' PXY d   1       2.240  -1.247   2.756  0.00  0.00     0.077 C 
ATOM      2  C1' PXY d   1       1.663  -5.999   5.997  0.00  0.00     0.077 C 
ATOM      3  C1  PXY d   1       1.825  -4.758   5.141  0.00  0.00    -0.082 A 
ATOM      4  C2  PXY d   1       1.336  -3.603   5.564  0.00  0.00     0.003 A 
ATOM      5  C3  PXY d   1       1.445  -2.478   4.788  0.00  0.00     0.003 A 
ATOM      6  C4  PXY d   1       2.109  -2.523   3.591  0.00  0.00    -0.082 A 
ATOM      7  C5  PXY d   1       2.620  -3.695   3.158  0.00  0.00     0.003 A 
ATOM      8  C6  PXY d   1       2.463  -4.835   3.942  0.00  0.00     0.003 A 
ENDROOT
TORSDOF 0
ENDMDL
