MODEL 1
REMARK minimizedAffinity 14.7453814
REMARK minimizedRMSD -1
REMARK  0 active torsions:
REMARK  status: ('A' for Active; 'I' for Inactive)
ROOT
ATOM      1  C4' PXY d   1       5.473  -2.252   4.680  0.00  0.00     0.077 C 
ATOM      2  C1' PXY d   1       0.843  -5.641   3.978  0.00  0.00     0.077 C 
ATOM      3  C1  PXY d   1       2.053  -4.745   4.152  0.00  0.00    -0.082 A 
ATOM      4  C2  PXY d   1       3.147  -5.226   4.721  0.00  0.00     0.003 A 
ATOM      5  C3  PXY d   1       4.239  -4.420   4.916  0.00  0.00     0.003 A 
ATOM      6  C4  PXY d   1       4.231  -3.123   4.475  0.00  0.00    -0.082 A 
ATOM      7  C5  PXY d   1       3.123  -2.629   3.884  0.00  0.00     0.003 A 
ATOM      8  C6  PXY d   1       2.010  -3.451   3.733  0.00  0.00     0.003 A 
ENDROOT
TORSDOF 0
ENDMDL
