MODEL 1
REMARK minimizedAffinity 8.72954559
REMARK minimizedRMSD -1
REMARK  0 active torsions:
REMARK  status: ('A' for Active; 'I' for Inactive)
ROOT
ATOM      1  C4' PXY d   1       3.116  -4.475   4.811  0.00  0.00     0.077 C 
ATOM      2  C1' PXY d   1       2.258   0.448   1.904  0.00  0.00     0.077 C 
ATOM      3  C1  PXY d   1       2.493  -0.846   2.659  0.00  0.00    -0.082 A 
ATOM      4  C2  PXY d   1       1.492  -1.413   3.312  0.00  0.00     0.003 A 
ATOM      5  C3  PXY d   1       1.695  -2.566   4.025  0.00  0.00     0.003 A 
ATOM      6  C4  PXY d   1       2.922  -3.173   4.028  0.00  0.00    -0.082 A 
ATOM      7  C5  PXY d   1       3.946  -2.606   3.355  0.00  0.00     0.003 A 
ATOM      8  C6  PXY d   1       3.730  -1.413   2.671  0.00  0.00     0.003 A 
ENDROOT
TORSDOF 0
ENDMDL
