MODEL 1
REMARK minimizedAffinity 12.0549984
REMARK minimizedRMSD -1
REMARK  0 active torsions:
REMARK  status: ('A' for Active; 'I' for Inactive)
ROOT
ATOM      1  C4' PXY d   1       1.769  -5.928   4.849  0.00  0.00     0.077 C 
ATOM      2  C1' PXY d   1       1.972  -0.560   2.715  0.00  0.00     0.077 C 
ATOM      3  C1  PXY d   1       1.929  -1.971   3.268  0.00  0.00    -0.082 A 
ATOM      4  C2  PXY d   1       0.783  -2.470   3.699  0.00  0.00     0.003 A 
ATOM      5  C3  PXY d   1       0.732  -3.732   4.232  0.00  0.00     0.003 A 
ATOM      6  C4  PXY d   1       1.857  -4.512   4.274  0.00  0.00    -0.082 A 
ATOM      7  C5  PXY d   1       3.029  -4.014   3.826  0.00  0.00     0.003 A 
ATOM      8  C6  PXY d   1       3.067  -2.715   3.328  0.00  0.00     0.003 A 
ENDROOT
TORSDOF 0
ENDMDL
