MODEL 1
REMARK minimizedAffinity 4.02662563
REMARK minimizedRMSD -1
REMARK  0 active torsions:
REMARK  status: ('A' for Active; 'I' for Inactive)
ROOT
ATOM      1  C4' PXY d   1       3.010   1.554   1.915  0.00  0.00     0.077 C 
ATOM      2  C1' PXY d   1       1.408  -3.171   4.834  0.00  0.00     0.077 C 
ATOM      3  C1  PXY d   1       1.822  -1.924   4.077  0.00  0.00    -0.082 A 
ATOM      4  C2  PXY d   1       2.082  -2.001   2.782  0.00  0.00     0.003 A 
ATOM      5  C3  PXY d   1       2.489  -0.890   2.089  0.00  0.00     0.003 A 
ATOM      6  C4  PXY d   1       2.579   0.323   2.717  0.00  0.00    -0.082 A 
ATOM      7  C5  PXY d   1       2.305   0.412   4.036  0.00  0.00     0.003 A 
ATOM      8  C6  PXY d   1       1.934  -0.736   4.730  0.00  0.00     0.003 A 
ENDROOT
TORSDOF 0
ENDMDL
