MODEL 1
REMARK minimizedAffinity 4.94181871
REMARK minimizedRMSD -1
REMARK  0 active torsions:
REMARK  status: ('A' for Active; 'I' for Inactive)
ROOT
ATOM      1  C4' PXY d   1       2.245  -6.000   6.000  0.00  0.00     0.077 C 
ATOM      2  C1' PXY d   1       1.836  -1.100   2.960  0.00  0.00     0.077 C 
ATOM      3  C1  PXY d   1       1.930  -2.386   3.758  0.00  0.00    -0.082 A 
ATOM      4  C2  PXY d   1       3.026  -2.646   4.452  0.00  0.00     0.003 A 
ATOM      5  C3  PXY d   1       3.141  -3.819   5.153  0.00  0.00     0.003 A 
ATOM      6  C4  PXY d   1       2.102  -4.710   5.187  0.00  0.00    -0.082 A 
ATOM      7  C5  PXY d   1       0.976  -4.447   4.490  0.00  0.00     0.003 A 
ATOM      8  C6  PXY d   1       0.896  -3.270   3.751  0.00  0.00     0.003 A 
ENDROOT
TORSDOF 0
ENDMDL
