MODEL 1
REMARK minimizedAffinity 10.8469639
REMARK minimizedRMSD -1
REMARK  0 active torsions:
REMARK  status: ('A' for Active; 'I' for Inactive)
ROOT
ATOM      1  C4' PXY d   1       2.281  -0.506   2.032  0.00  0.00     0.077 C 
ATOM      2  C1' PXY d   1      -1.913  -1.928  -1.683  0.00  0.00     0.077 C 
ATOM      3  C1  PXY d   1      -0.819  -1.544  -0.706  0.00  0.00    -0.082 A 
ATOM      4  C2  PXY d   1       0.382  -2.086  -0.823  0.00  0.00     0.003 A 
ATOM      5  C3  PXY d   1       1.374  -1.774   0.071  0.00  0.00     0.003 A 
ATOM      6  C4  PXY d   1       1.149  -0.857   1.063  0.00  0.00    -0.082 A 
ATOM      7  C5  PXY d   1      -0.071  -0.291   1.182  0.00  0.00     0.003 A 
ATOM      8  C6  PXY d   1      -1.076  -0.652   0.289  0.00  0.00     0.003 A 
ENDROOT
TORSDOF 0
ENDMDL
