MODEL 1
REMARK minimizedAffinity 6.31094742
REMARK minimizedRMSD -1
REMARK  0 active torsions:
REMARK  status: ('A' for Active; 'I' for Inactive)
ROOT
ATOM      1  C4' PXY d   1       5.999  -1.772   2.617  0.00  0.00     0.077 C 
ATOM      2  C1' PXY d   1       0.653   0.166   1.580  0.00  0.00     0.077 C 
ATOM      3  C1  PXY d   1       2.052  -0.344   1.864  0.00  0.00    -0.082 A 
ATOM      4  C2  PXY d   1       3.054   0.022   1.081  0.00  0.00     0.003 A 
ATOM      5  C3  PXY d   1       4.319  -0.455   1.305  0.00  0.00     0.003 A 
ATOM      6  C4  PXY d   1       4.572  -1.274   2.373  0.00  0.00    -0.082 A 
ATOM      7  C5  PXY d   1       3.558  -1.644   3.183  0.00  0.00     0.003 A 
ATOM      8  C6  PXY d   1       2.273  -1.182   2.914  0.00  0.00     0.003 A 
ENDROOT
TORSDOF 0
ENDMDL
