MODEL 1
REMARK minimizedAffinity 2.37540221
REMARK minimizedRMSD -1
REMARK  0 active torsions:
REMARK  status: ('A' for Active; 'I' for Inactive)
ROOT
ATOM      1  C4' PXY d   1       2.207  -5.973  -0.381  0.00  0.00     0.077 C 
ATOM      2  C1' PXY d   1       4.547  -5.998  -5.666  0.00  0.00     0.077 C 
ATOM      3  C1  PXY d   1       3.923  -5.986  -4.285  0.00  0.00    -0.082 A 
ATOM      4  C2  PXY d   1       4.701  -5.976  -3.215  0.00  0.00     0.003 A 
ATOM      5  C3  PXY d   1       4.153  -5.997  -1.958  0.00  0.00     0.003 A 
ATOM      6  C4  PXY d   1       2.794  -5.976  -1.795  0.00  0.00    -0.082 A 
ATOM      7  C5  PXY d   1       1.993  -5.976  -2.881  0.00  0.00     0.003 A 
ATOM      8  C6  PXY d   1       2.569  -5.995  -4.148  0.00  0.00     0.003 A 
ENDROOT
TORSDOF 0
ENDMDL
