MODEL 1
REMARK minimizedAffinity 10.0724058
REMARK minimizedRMSD -1
REMARK  0 active torsions:
REMARK  status: ('A' for Active; 'I' for Inactive)
ROOT
ATOM      1  C4' PXY d   1       2.324  -5.894   5.829  0.00  0.00     0.077 C 
ATOM      2  C1' PXY d   1       2.549  -1.097   2.612  0.00  0.00     0.077 C 
ATOM      3  C1  PXY d   1       2.491  -2.362   3.445  0.00  0.00    -0.082 A 
ATOM      4  C2  PXY d   1       1.934  -2.330   4.645  0.00  0.00     0.003 A 
ATOM      5  C3  PXY d   1       1.902  -3.458   5.425  0.00  0.00     0.003 A 
ATOM      6  C4  PXY d   1       2.396  -4.643   4.950  0.00  0.00    -0.082 A 
ATOM      7  C5  PXY d   1       2.956  -4.686   3.722  0.00  0.00     0.003 A 
ATOM      8  C6  PXY d   1       3.017  -3.521   2.963  0.00  0.00     0.003 A 
ENDROOT
TORSDOF 0
ENDMDL
