MODEL 1
REMARK minimizedAffinity -2.74548912
REMARK minimizedRMSD -1
REMARK  3 active torsions:
REMARK  status: ('A' for Active; 'I' for Inactive)
REMARK    1  A    between atoms: C3'_2  and  C2'_3 
REMARK    2  A    between atoms: C2'_3  and  C1'_4 
REMARK    3  A    between atoms: C1'_4  and  C1_5 
ROOT
ATOM      1  C1  N4B d   1       0.071  -0.413   0.259  0.00  0.00    -0.075 A 
ATOM      2  C2  N4B d   1      -0.764  -0.521   1.393  0.00  0.00     0.002 A 
ATOM      3  C3  N4B d   1      -0.228  -0.863   2.610  0.00  0.00     0.002 A 
ATOM      4  C4  N4B d   1       1.131  -1.118   2.714  0.00  0.00    -0.004 A 
ATOM      5  C5  N4B d   1       1.935  -0.986   1.619  0.00  0.00     0.002 A 
ATOM      6  C6  N4B d   1       1.411  -0.640   0.391  0.00  0.00     0.002 A 
ENDROOT
BRANCH   1   7
ATOM      7  C1' N4B d   1      -0.482  -0.126  -1.110  0.00  0.00     0.057 C 
BRANCH   7   8
ATOM      8  C2' N4B d   1      -0.125   1.304  -1.505  0.00  0.00     0.009 C 
BRANCH   8   9
ATOM      9  C3' N4B d   1      -1.288   2.015  -2.176  0.00  0.00     0.004 C 
ATOM     10  C4' N4B d   1      -0.958   3.423  -2.570  0.00  0.00     0.003 C 
ENDBRANCH   8   9
ENDBRANCH   7   8
ENDBRANCH   1   7
TORSDOF 3
ENDMDL
