MODEL 1
REMARK minimizedAffinity -4.33435059
REMARK minimizedRMSD -1
REMARK  3 active torsions:
REMARK  status: ('A' for Active; 'I' for Inactive)
REMARK    1  A    between atoms: C3'_2  and  C2'_3 
REMARK    2  A    between atoms: C2'_3  and  C1'_4 
REMARK    3  A    between atoms: C1'_4  and  C1_5 
ROOT
ATOM      1  C1  N4B d   1      -1.022   0.210  -1.066  0.00  0.00    -0.075 A 
ATOM      2  C2  N4B d   1      -0.166   0.434   0.036  0.00  0.00     0.002 A 
ATOM      3  C3  N4B d   1      -0.574   0.094   1.302  0.00  0.00     0.002 A 
ATOM      4  C4  N4B d   1      -1.835  -0.451   1.493  0.00  0.00    -0.004 A 
ATOM      5  C5  N4B d   1      -2.645  -0.687   0.421  0.00  0.00     0.002 A 
ATOM      6  C6  N4B d   1      -2.247  -0.354  -0.857  0.00  0.00     0.002 A 
ENDROOT
BRANCH   1   7
ATOM      7  C1' N4B d   1      -0.653   0.644  -2.458  0.00  0.00     0.057 C 
BRANCH   7   8
ATOM      8  C2' N4B d   1      -1.164   2.063  -2.692  0.00  0.00     0.009 C 
BRANCH   8   9
ATOM      9  C3' N4B d   1      -0.047   3.090  -2.603  0.00  0.00     0.004 C 
ATOM     10  C4' N4B d   1      -0.260   4.085  -1.502  0.00  0.00     0.003 C 
ENDBRANCH   8   9
ENDBRANCH   7   8
ENDBRANCH   1   7
TORSDOF 3
ENDMDL
