MODEL 1
REMARK minimizedAffinity -4.34564066
REMARK minimizedRMSD -1
REMARK  3 active torsions:
REMARK  status: ('A' for Active; 'I' for Inactive)
REMARK    1  A    between atoms: C3'_2  and  C2'_3 
REMARK    2  A    between atoms: C2'_3  and  C1'_4 
REMARK    3  A    between atoms: C1'_4  and  C1_5 
ROOT
ATOM      1  C1  N4B d   1       0.362  -0.345   0.084  0.00  0.00    -0.075 A 
ATOM      2  C2  N4B d   1       1.138  -1.290   0.790  0.00  0.00     0.002 A 
ATOM      3  C3  N4B d   1       0.797  -1.636   2.074  0.00  0.00     0.002 A 
ATOM      4  C4  N4B d   1      -0.299  -1.038   2.678  0.00  0.00    -0.004 A 
ATOM      5  C5  N4B d   1      -1.058  -0.145   1.980  0.00  0.00     0.002 A 
ATOM      6  C6  N4B d   1      -0.730   0.209   0.687  0.00  0.00     0.002 A 
ENDROOT
BRANCH   1   7
ATOM      7  C1' N4B d   1       0.744   0.129  -1.292  0.00  0.00     0.057 C 
BRANCH   7   8
ATOM      8  C2' N4B d   1      -0.360   1.029  -1.837  0.00  0.00     0.009 C 
BRANCH   8   9
ATOM      9  C3' N4B d   1       0.199   2.204  -2.621  0.00  0.00     0.004 C 
ATOM     10  C4' N4B d   1      -0.865   3.156  -3.079  0.00  0.00     0.003 C 
ENDBRANCH   8   9
ENDBRANCH   7   8
ENDBRANCH   1   7
TORSDOF 3
ENDMDL
