MODEL 1
REMARK minimizedAffinity -2.83873582
REMARK minimizedRMSD -1
REMARK  3 active torsions:
REMARK  status: ('A' for Active; 'I' for Inactive)
REMARK    1  A    between atoms: C3'_2  and  C2'_3 
REMARK    2  A    between atoms: C2'_3  and  C1'_4 
REMARK    3  A    between atoms: C1'_4  and  C1_5 
ROOT
ATOM      1  C1  N4B d   1      -0.363   0.135  -0.483  0.00  0.00    -0.075 A 
ATOM      2  C2  N4B d   1      -1.432   0.738   0.215  0.00  0.00     0.002 A 
ATOM      3  C3  N4B d   1      -1.536   0.586   1.576  0.00  0.00     0.002 A 
ATOM      4  C4  N4B d   1      -0.599  -0.178   2.254  0.00  0.00    -0.004 A 
ATOM      5  C5  N4B d   1       0.445  -0.737   1.576  0.00  0.00     0.002 A 
ATOM      6  C6  N4B d   1       0.565  -0.588   0.209  0.00  0.00     0.002 A 
ENDROOT
BRANCH   1   7
ATOM      7  C1' N4B d   1      -0.255   0.202  -1.982  0.00  0.00     0.057 C 
BRANCH   7   8
ATOM      8  C2' N4B d   1      -1.204   1.276  -2.505  0.00  0.00     0.009 C 
BRANCH   8   9
ATOM      9  C3' N4B d   1      -0.467   2.547  -2.889  0.00  0.00     0.004 C 
ATOM     10  C4' N4B d   1      -1.110   3.783  -2.334  0.00  0.00     0.003 C 
ENDBRANCH   8   9
ENDBRANCH   7   8
ENDBRANCH   1   7
TORSDOF 3
ENDMDL
