MODEL 1
REMARK minimizedAffinity -5.87100363
REMARK minimizedRMSD -1
REMARK  3 active torsions:
REMARK  status: ('A' for Active; 'I' for Inactive)
REMARK    1  A    between atoms: C3'_2  and  C2'_3 
REMARK    2  A    between atoms: C2'_3  and  C1'_4 
REMARK    3  A    between atoms: C1'_4  and  C1_5 
ROOT
ATOM      1  C1  N4B d   1       0.443   0.471   0.109  0.00  0.00    -0.075 A 
ATOM      2  C2  N4B d   1       1.797   0.148   0.349  0.00  0.00     0.002 A 
ATOM      3  C3  N4B d   1       2.179  -0.344   1.573  0.00  0.00     0.002 A 
ATOM      4  C4  N4B d   1       1.232  -0.502   2.574  0.00  0.00    -0.004 A 
ATOM      5  C5  N4B d   1      -0.077  -0.211   2.326  0.00  0.00     0.002 A 
ATOM      6  C6  N4B d   1      -0.476   0.280   1.100  0.00  0.00     0.002 A 
ENDROOT
BRANCH   1   7
ATOM      7  C1' N4B d   1      -0.008   1.093  -1.185  0.00  0.00     0.057 C 
BRANCH   7   8
ATOM      8  C2' N4B d   1       0.774   2.381  -1.421  0.00  0.00     0.009 C 
BRANCH   8   9
ATOM      9  C3' N4B d   1      -0.133   3.599  -1.451  0.00  0.00     0.004 C 
ATOM     10  C4' N4B d   1      -1.318   3.419  -2.352  0.00  0.00     0.003 C 
ENDBRANCH   8   9
ENDBRANCH   7   8
ENDBRANCH   1   7
TORSDOF 3
ENDMDL
