MODEL 1
REMARK minimizedAffinity -5.95104122
REMARK minimizedRMSD -1
REMARK  3 active torsions:
REMARK  status: ('A' for Active; 'I' for Inactive)
REMARK    1  A    between atoms: C3'_2  and  C2'_3 
REMARK    2  A    between atoms: C2'_3  and  C1'_4 
REMARK    3  A    between atoms: C1'_4  and  C1_5 
ROOT
ATOM      1  C1  N4B d   1       0.108  -0.367   0.088  0.00  0.00    -0.075 A 
ATOM      2  C2  N4B d   1       1.391  -0.956   0.122  0.00  0.00     0.002 A 
ATOM      3  C3  N4B d   1       1.833  -1.573   1.266  0.00  0.00     0.002 A 
ATOM      4  C4  N4B d   1       1.021  -1.596   2.390  0.00  0.00    -0.004 A 
ATOM      5  C5  N4B d   1      -0.226  -1.047   2.341  0.00  0.00     0.002 A 
ATOM      6  C6  N4B d   1      -0.686  -0.428   1.197  0.00  0.00     0.002 A 
ENDROOT
BRANCH   1   7
ATOM      7  C1' N4B d   1      -0.385   0.394  -1.113  0.00  0.00     0.057 C 
BRANCH   7   8
ATOM      8  C2' N4B d   1       0.028   1.857  -0.983  0.00  0.00     0.009 C 
BRANCH   8   9
ATOM      9  C3' N4B d   1      -0.071   2.594  -2.308  0.00  0.00     0.004 C 
ATOM     10  C4' N4B d   1      -1.463   2.601  -2.865  0.00  0.00     0.003 C 
ENDBRANCH   8   9
ENDBRANCH   7   8
ENDBRANCH   1   7
TORSDOF 3
ENDMDL
