MODEL 1
REMARK minimizedAffinity -4.70664406
REMARK minimizedRMSD -1
REMARK  0 active torsions:
REMARK  status: ('A' for Active; 'I' for Inactive)
ROOT
ATOM      1  C   UNL d   1      -1.517   0.715   1.482  0.00  0.00     0.124 A 
ATOM      2  C1  UNL d   1      -1.658  -0.143   0.400  0.00  0.00     0.062 A 
ATOM      3  C2  UNL d   1      -0.551  -0.813  -0.112  0.00  0.00     0.162 A 
ATOM      4  C3  UNL d   1       0.709  -0.629   0.459  0.00  0.00    -0.034 A 
ATOM      5  C4  UNL d   1       0.843   0.236   1.547  0.00  0.00     0.162 A 
ATOM      6  C5  UNL d   1      -0.267   0.904   2.054  0.00  0.00     0.062 A 
ATOM      7  F   UNL d   1      -0.128   1.732   3.100  0.00  0.00    -0.097 F 
ATOM      8  F1  UNL d   1       2.040   0.436   2.119  0.00  0.00    -0.096 F 
ATOM      9  I   UNL d   1       2.367  -1.629  -0.303  0.00  0.00    -0.060 I 
ATOM     10  F2  UNL d   1      -0.717  -1.636  -1.158  0.00  0.00    -0.096 F 
ATOM     11  F3  UNL d   1      -2.865  -0.326  -0.155  0.00  0.00    -0.097 F 
ATOM     12  F4  UNL d   1      -2.584   1.359   1.972  0.00  0.00    -0.092 F 
ENDROOT
TORSDOF 0
ENDMDL
