MODEL 1
REMARK minimizedAffinity 2.68953323
REMARK minimizedRMSD -1
REMARK  0 active torsions:
REMARK  status: ('A' for Active; 'I' for Inactive)
ROOT
ATOM      1  C   UNL d   1       0.856   0.817   1.203  0.00  0.00     0.124 A 
ATOM      2  C1  UNL d   1       1.215  -0.472   0.831  0.00  0.00     0.062 A 
ATOM      3  C2  UNL d   1       1.026  -0.900  -0.479  0.00  0.00     0.162 A 
ATOM      4  C3  UNL d   1       0.475  -0.040  -1.429  0.00  0.00    -0.034 A 
ATOM      5  C4  UNL d   1       0.116   1.254  -1.047  0.00  0.00     0.162 A 
ATOM      6  C5  UNL d   1       0.307   1.678   0.264  0.00  0.00     0.062 A 
ATOM      7  F   UNL d   1      -0.041   2.923   0.621  0.00  0.00    -0.097 F 
ATOM      8  F1  UNL d   1      -0.416   2.108  -1.935  0.00  0.00    -0.096 F 
ATOM      9  I   UNL d   1       0.191  -0.677  -3.390  0.00  0.00    -0.060 I 
ATOM     10  F2  UNL d   1       1.382  -2.151  -0.810  0.00  0.00    -0.096 F 
ATOM     11  F3  UNL d   1       1.745  -1.306   1.737  0.00  0.00    -0.097 F 
ATOM     12  F4  UNL d   1       1.038   1.226   2.465  0.00  0.00    -0.092 F 
ENDROOT
TORSDOF 0
ENDMDL
