MODEL 1
REMARK minimizedAffinity -2.51199818
REMARK minimizedRMSD -1
REMARK  0 active torsions:
REMARK  status: ('A' for Active; 'I' for Inactive)
ROOT
ATOM      1  C   UNL d   1      -0.718   0.650   2.287  0.00  0.00     0.124 A 
ATOM      2  C1  UNL d   1       0.620   0.548   1.934  0.00  0.00     0.062 A 
ATOM      3  C2  UNL d   1       0.982   0.394   0.598  0.00  0.00     0.162 A 
ATOM      4  C3  UNL d   1       0.003   0.341  -0.394  0.00  0.00    -0.034 A 
ATOM      5  C4  UNL d   1      -1.341   0.444  -0.031  0.00  0.00     0.162 A 
ATOM      6  C5  UNL d   1      -1.697   0.598   1.305  0.00  0.00     0.062 A 
ATOM      7  F   UNL d   1      -2.990   0.696   1.645  0.00  0.00    -0.097 F 
ATOM      8  F1  UNL d   1      -2.307   0.397  -0.960  0.00  0.00    -0.096 F 
ATOM      9  I   UNL d   1       0.540   0.111  -2.392  0.00  0.00    -0.060 I 
ATOM     10  F2  UNL d   1       2.283   0.298   0.286  0.00  0.00    -0.096 F 
ATOM     11  F3  UNL d   1       1.568   0.597   2.881  0.00  0.00    -0.097 F 
ATOM     12  F4  UNL d   1      -1.063   0.797   3.573  0.00  0.00    -0.092 F 
ENDROOT
TORSDOF 0
ENDMDL
