MODEL 1
REMARK minimizedAffinity -3.91867566
REMARK minimizedRMSD -1
REMARK  0 active torsions:
REMARK  status: ('A' for Active; 'I' for Inactive)
ROOT
ATOM      1  C   UNL d   1      -0.518   0.179   0.922  0.00  0.00     0.124 A 
ATOM      2  C1  UNL d   1      -0.515  -0.798  -0.064  0.00  0.00     0.062 A 
ATOM      3  C2  UNL d   1       0.126  -0.566  -1.277  0.00  0.00     0.162 A 
ATOM      4  C3  UNL d   1       0.772   0.648  -1.511  0.00  0.00    -0.034 A 
ATOM      5  C4  UNL d   1       0.764   1.626  -0.515  0.00  0.00     0.162 A 
ATOM      6  C5  UNL d   1       0.122   1.390   0.696  0.00  0.00     0.062 A 
ATOM      7  F   UNL d   1       0.120   2.335   1.647  0.00  0.00    -0.097 F 
ATOM      8  F1  UNL d   1       1.375   2.805  -0.707  0.00  0.00    -0.096 F 
ATOM      9  I   UNL d   1       1.732   0.999  -3.324  0.00  0.00    -0.060 I 
ATOM     10  F2  UNL d   1       0.112  -1.528  -2.212  0.00  0.00    -0.096 F 
ATOM     11  F3  UNL d   1      -1.133  -1.968   0.152  0.00  0.00    -0.097 F 
ATOM     12  F4  UNL d   1      -1.137  -0.046   2.088  0.00  0.00    -0.092 F 
ENDROOT
TORSDOF 0
ENDMDL
