MODEL 1
REMARK minimizedAffinity -0.0170625262
REMARK minimizedRMSD -1
REMARK  0 active torsions:
REMARK  status: ('A' for Active; 'I' for Inactive)
ROOT
ATOM      1  C   UNL d   1      -0.401  -0.201   1.811  0.00  0.00     0.124 A 
ATOM      2  C1  UNL d   1      -1.309   0.290   0.883  0.00  0.00     0.062 A 
ATOM      3  C2  UNL d   1      -0.990   0.298  -0.472  0.00  0.00     0.162 A 
ATOM      4  C3  UNL d   1       0.243  -0.188  -0.908  0.00  0.00    -0.034 A 
ATOM      5  C4  UNL d   1       1.151  -0.680   0.032  0.00  0.00     0.162 A 
ATOM      6  C5  UNL d   1       0.828  -0.685   1.385  0.00  0.00     0.062 A 
ATOM      7  F   UNL d   1       1.706  -1.160   2.280  0.00  0.00    -0.097 F 
ATOM      8  F1  UNL d   1       2.346  -1.154  -0.353  0.00  0.00    -0.096 F 
ATOM      9  I   UNL d   1       0.724  -0.178  -2.932  0.00  0.00    -0.060 I 
ATOM     10  F2  UNL d   1      -1.886   0.778  -1.346  0.00  0.00    -0.096 F 
ATOM     11  F3  UNL d   1      -2.496   0.759   1.292  0.00  0.00    -0.097 F 
ATOM     12  F4  UNL d   1      -0.710  -0.207   3.114  0.00  0.00    -0.092 F 
ENDROOT
TORSDOF 0
ENDMDL
