MODEL 1
REMARK minimizedAffinity 8.21749783
REMARK minimizedRMSD -1
REMARK  0 active torsions:
REMARK  status: ('A' for Active; 'I' for Inactive)
ROOT
ATOM      1  C   UNL d   1       1.963  -0.566  -5.613  0.00  0.00     0.124 A 
ATOM      2  C1  UNL d   1       0.976  -1.533  -5.752  0.00  0.00     0.062 A 
ATOM      3  C2  UNL d   1      -0.366  -1.185  -5.635  0.00  0.00     0.162 A 
ATOM      4  C3  UNL d   1      -0.731   0.137  -5.378  0.00  0.00    -0.034 A 
ATOM      5  C4  UNL d   1       0.267   1.103  -5.238  0.00  0.00     0.162 A 
ATOM      6  C5  UNL d   1       1.608   0.750  -5.356  0.00  0.00     0.062 A 
ATOM      7  F   UNL d   1       2.559   1.685  -5.221  0.00  0.00    -0.097 F 
ATOM      8  F1  UNL d   1      -0.048   2.383  -4.990  0.00  0.00    -0.096 F 
ATOM      9  I   UNL d   1      -2.737   0.662  -5.202  0.00  0.00    -0.060 I 
ATOM     10  F2  UNL d   1      -1.298  -2.139  -5.774  0.00  0.00    -0.096 F 
ATOM     11  F3  UNL d   1       1.317  -2.806  -6.000  0.00  0.00    -0.097 F 
ATOM     12  F4  UNL d   1       3.254  -0.904  -5.725  0.00  0.00    -0.092 F 
ENDROOT
TORSDOF 0
ENDMDL
