MODEL 1
REMARK minimizedAffinity -3.91726446
REMARK minimizedRMSD -1
REMARK  0 active torsions:
REMARK  status: ('A' for Active; 'I' for Inactive)
ROOT
ATOM      1  C   UNL d   1       1.051  -0.102   1.907  0.00  0.00     0.124 A 
ATOM      2  C1  UNL d   1       0.876  -0.602   0.624  0.00  0.00     0.062 A 
ATOM      3  C2  UNL d   1      -0.313  -0.373  -0.061  0.00  0.00     0.162 A 
ATOM      4  C3  UNL d   1      -1.339   0.361   0.536  0.00  0.00    -0.034 A 
ATOM      5  C4  UNL d   1      -1.156   0.860   1.827  0.00  0.00     0.162 A 
ATOM      6  C5  UNL d   1       0.035   0.628   2.507  0.00  0.00     0.062 A 
ATOM      7  F   UNL d   1       0.201   1.112   3.747  0.00  0.00    -0.097 F 
ATOM      8  F1  UNL d   1      -2.121   1.569   2.430  0.00  0.00    -0.096 F 
ATOM      9  I   UNL d   1      -3.119   0.706  -0.485  0.00  0.00    -0.060 I 
ATOM     10  F2  UNL d   1      -0.454  -0.868  -1.299  0.00  0.00    -0.096 F 
ATOM     11  F3  UNL d   1       1.856  -1.309   0.043  0.00  0.00    -0.097 F 
ATOM     12  F4  UNL d   1       2.196  -0.325   2.564  0.00  0.00    -0.092 F 
ENDROOT
TORSDOF 0
ENDMDL
