MODEL 1
REMARK minimizedAffinity -4.33587742
REMARK minimizedRMSD -1
REMARK  0 active torsions:
REMARK  status: ('A' for Active; 'I' for Inactive)
ROOT
ATOM      1  C   UNL d   1      -0.427  -0.259   2.428  0.00  0.00     0.124 A 
ATOM      2  C1  UNL d   1       0.779  -0.812   2.020  0.00  0.00     0.062 A 
ATOM      3  C2  UNL d   1       1.113  -0.842   0.669  0.00  0.00     0.162 A 
ATOM      4  C3  UNL d   1       0.241  -0.316  -0.284  0.00  0.00    -0.034 A 
ATOM      5  C4  UNL d   1      -0.971   0.237   0.134  0.00  0.00     0.162 A 
ATOM      6  C5  UNL d   1      -1.301   0.265   1.485  0.00  0.00     0.062 A 
ATOM      7  F   UNL d   1      -2.467   0.799   1.878  0.00  0.00    -0.097 F 
ATOM      8  F1  UNL d   1      -1.833   0.751  -0.756  0.00  0.00    -0.096 F 
ATOM      9  I   UNL d   1       0.737  -0.359  -2.305  0.00  0.00    -0.060 I 
ATOM     10  F2  UNL d   1       2.285  -1.382   0.303  0.00  0.00    -0.096 F 
ATOM     11  F3  UNL d   1       1.624  -1.319   2.929  0.00  0.00    -0.097 F 
ATOM     12  F4  UNL d   1      -0.747  -0.232   3.728  0.00  0.00    -0.092 F 
ENDROOT
TORSDOF 0
ENDMDL
