MODEL 1
REMARK minimizedAffinity -3.21338582
REMARK minimizedRMSD -1
REMARK  0 active torsions:
REMARK  status: ('A' for Active; 'I' for Inactive)
ROOT
ATOM      1  C   UNL d   1       0.966   0.838   1.639  0.00  0.00     0.124 A 
ATOM      2  C1  UNL d   1       0.151   1.574   0.790  0.00  0.00     0.062 A 
ATOM      3  C2  UNL d   1      -0.046   1.161  -0.524  0.00  0.00     0.162 A 
ATOM      4  C3  UNL d   1       0.571   0.003  -0.998  0.00  0.00    -0.034 A 
ATOM      5  C4  UNL d   1       1.390  -0.732  -0.139  0.00  0.00     0.162 A 
ATOM      6  C5  UNL d   1       1.584  -0.314   1.174  0.00  0.00     0.062 A 
ATOM      7  F   UNL d   1       2.372  -1.027   1.992  0.00  0.00    -0.097 F 
ATOM      8  F1  UNL d   1       1.999  -1.849  -0.562  0.00  0.00    -0.096 F 
ATOM      9  I   UNL d   1       0.279  -0.619  -2.962  0.00  0.00    -0.060 I 
ATOM     10  F2  UNL d   1      -0.839   1.892  -1.322  0.00  0.00    -0.096 F 
ATOM     11  F3  UNL d   1      -0.447   2.688   1.237  0.00  0.00    -0.097 F 
ATOM     12  F4  UNL d   1       1.155   1.239   2.903  0.00  0.00    -0.092 F 
ENDROOT
TORSDOF 0
ENDMDL
