MODEL 1
REMARK minimizedAffinity -4.44386244
REMARK minimizedRMSD -1
REMARK  1 active torsions:
REMARK  status: ('A' for Active; 'I' for Inactive)
REMARK    1  A    between atoms: C1_2  and  C2_3 
ROOT
ATOM      1  C2  UNL d   1      -0.478   1.390  -0.653  0.00  0.00    -0.081 A 
ATOM      2  C3  UNL d   1       0.913   1.359  -0.817  0.00  0.00     0.006 A 
ATOM      3  C4  UNL d   1       1.672   0.339  -0.239  0.00  0.00     0.002 A 
ATOM      4  C5  UNL d   1       1.053  -0.671   0.506  0.00  0.00    -0.080 A 
ATOM      5  C6  UNL d   1       1.853  -1.788   1.106  0.00  0.00     0.076 C 
ATOM      6  C7  UNL d   1      -0.334  -0.630   0.685  0.00  0.00     0.002 A 
ATOM      7  C8  UNL d   1      -1.093   0.390   0.108  0.00  0.00     0.006 A 
ENDROOT
BRANCH   1   8
ATOM      8  C1  UNL d   1      -1.306   2.453  -1.329  0.00  0.00     0.054 C 
ATOM      9  C   UNL d   1      -2.699   1.939  -1.663  0.00  0.00     0.018 C 
ENDBRANCH   1   8
TORSDOF 1
ENDMDL
