MODEL 1
REMARK minimizedAffinity 2.0665791
REMARK minimizedRMSD -1
REMARK  1 active torsions:
REMARK  status: ('A' for Active; 'I' for Inactive)
REMARK    1  A    between atoms: C1_2  and  C2_3 
ROOT
ATOM      1  C2  UNL d   1      -0.443  -1.438   0.971  0.00  0.00    -0.081 A 
ATOM      2  C3  UNL d   1       0.612  -2.357   0.952  0.00  0.00     0.006 A 
ATOM      3  C4  UNL d   1       1.772  -2.089   0.220  0.00  0.00     0.002 A 
ATOM      4  C5  UNL d   1       1.898  -0.895  -0.497  0.00  0.00    -0.080 A 
ATOM      5  C6  UNL d   1       3.150  -0.582  -1.262  0.00  0.00     0.076 C 
ATOM      6  C7  UNL d   1       0.837   0.016  -0.492  0.00  0.00     0.002 A 
ATOM      7  C8  UNL d   1      -0.323  -0.252   0.238  0.00  0.00     0.006 A 
ENDROOT
BRANCH   1   8
ATOM      8  C1  UNL d   1      -1.669  -1.694   1.811  0.00  0.00     0.054 C 
ATOM      9  C   UNL d   1      -2.089  -0.445   2.572  0.00  0.00     0.018 C 
ENDBRANCH   1   8
TORSDOF 1
ENDMDL
