MODEL 1
REMARK minimizedAffinity -3.85797858
REMARK minimizedRMSD -1
REMARK  1 active torsions:
REMARK  status: ('A' for Active; 'I' for Inactive)
REMARK    1  A    between atoms: C1_2  and  C2_3 
ROOT
ATOM      1  C2  UNL d   1      -1.242   0.327  -0.794  0.00  0.00    -0.081 A 
ATOM      2  C3  UNL d   1      -0.198  -0.203  -1.561  0.00  0.00     0.006 A 
ATOM      3  C4  UNL d   1       0.788  -0.993  -0.965  0.00  0.00     0.002 A 
ATOM      4  C5  UNL d   1       0.742  -1.273   0.405  0.00  0.00    -0.080 A 
ATOM      5  C6  UNL d   1       1.777  -2.145   1.051  0.00  0.00     0.076 C 
ATOM      6  C7  UNL d   1      -0.292  -0.729   1.175  0.00  0.00     0.002 A 
ATOM      7  C8  UNL d   1      -1.278   0.062   0.580  0.00  0.00     0.006 A 
ENDROOT
BRANCH   1   8
ATOM      8  C1  UNL d   1      -2.343   1.126  -1.445  0.00  0.00     0.054 C 
ATOM      9  C   UNL d   1      -1.829   1.889  -2.657  0.00  0.00     0.018 C 
ENDBRANCH   1   8
TORSDOF 1
ENDMDL
