MODEL 1
REMARK minimizedAffinity -2.86938739
REMARK minimizedRMSD -1
REMARK  1 active torsions:
REMARK  status: ('A' for Active; 'I' for Inactive)
REMARK    1  A    between atoms: C1_2  and  C2_3 
ROOT
ATOM      1  C2  UNL d   1      -0.609   0.656  -0.494  0.00  0.00    -0.081 A 
ATOM      2  C3  UNL d   1       0.746   0.548  -0.830  0.00  0.00     0.006 A 
ATOM      3  C4  UNL d   1       1.517  -0.504  -0.333  0.00  0.00     0.002 A 
ATOM      4  C5  UNL d   1       0.946  -1.471   0.501  0.00  0.00    -0.080 A 
ATOM      5  C6  UNL d   1       1.756  -2.623   1.017  0.00  0.00     0.076 C 
ATOM      6  C7  UNL d   1      -0.404  -1.354   0.851  0.00  0.00     0.002 A 
ATOM      7  C8  UNL d   1      -1.176  -0.301   0.355  0.00  0.00     0.006 A 
ENDROOT
BRANCH   1   8
ATOM      8  C1  UNL d   1      -1.460   1.754  -1.081  0.00  0.00     0.054 C 
ATOM      9  C   UNL d   1      -0.788   2.387  -2.291  0.00  0.00     0.018 C 
ENDBRANCH   1   8
TORSDOF 1
ENDMDL
