MODEL 1
REMARK minimizedAffinity -3.09932089
REMARK minimizedRMSD -1
REMARK  1 active torsions:
REMARK  status: ('A' for Active; 'I' for Inactive)
REMARK    1  A    between atoms: C1_2  and  C2_3 
ROOT
ATOM      1  C2  UNL d   1      -0.369   0.547  -0.772  0.00  0.00    -0.081 A 
ATOM      2  C3  UNL d   1       0.921   0.157  -1.152  0.00  0.00     0.006 A 
ATOM      3  C4  UNL d   1       1.582  -0.865  -0.467  0.00  0.00     0.002 A 
ATOM      4  C5  UNL d   1       0.962  -1.519   0.604  0.00  0.00    -0.080 A 
ATOM      5  C6  UNL d   1       1.649  -2.638   1.328  0.00  0.00     0.076 C 
ATOM      6  C7  UNL d   1      -0.320  -1.117   0.995  0.00  0.00     0.002 A 
ATOM      7  C8  UNL d   1      -0.981  -0.095   0.310  0.00  0.00     0.006 A 
ENDROOT
BRANCH   1   8
ATOM      8  C1  UNL d   1      -1.110   1.605  -1.550  0.00  0.00     0.054 C 
ATOM      9  C   UNL d   1      -2.480   1.109  -1.991  0.00  0.00     0.018 C 
ENDBRANCH   1   8
TORSDOF 1
ENDMDL
