MODEL 1
REMARK minimizedAffinity -3.56008887
REMARK minimizedRMSD -1
REMARK  1 active torsions:
REMARK  status: ('A' for Active; 'I' for Inactive)
REMARK    1  A    between atoms: C1_2  and  C2_3 
ROOT
ATOM      1  C2  UNL d   1      -0.598   0.634  -0.083  0.00  0.00    -0.081 A 
ATOM      2  C3  UNL d   1      -1.113  -0.171   0.940  0.00  0.00     0.006 A 
ATOM      3  C4  UNL d   1      -0.432  -1.322   1.346  0.00  0.00     0.002 A 
ATOM      4  C5  UNL d   1       0.777  -1.682   0.742  0.00  0.00    -0.080 A 
ATOM      5  C6  UNL d   1       1.533  -2.897   1.189  0.00  0.00     0.076 C 
ATOM      6  C7  UNL d   1       1.283  -0.886  -0.292  0.00  0.00     0.002 A 
ATOM      7  C8  UNL d   1       0.603   0.264  -0.699  0.00  0.00     0.006 A 
ENDROOT
BRANCH   1   8
ATOM      8  C1  UNL d   1      -1.296   1.910  -0.479  0.00  0.00     0.054 C 
ATOM      9  C   UNL d   1      -1.059   2.238  -1.946  0.00  0.00     0.018 C 
ENDBRANCH   1   8
TORSDOF 1
ENDMDL
