MODEL 1
REMARK minimizedAffinity -3.78167009
REMARK minimizedRMSD -1
REMARK  1 active torsions:
REMARK  status: ('A' for Active; 'I' for Inactive)
REMARK    1  A    between atoms: C1_2  and  C2_3 
ROOT
ATOM      1  C2  UNL d   1       1.172  -0.683   0.094  0.00  0.00    -0.081 A 
ATOM      2  C3  UNL d   1       0.444   0.391   0.621  0.00  0.00     0.006 A 
ATOM      3  C4  UNL d   1      -0.518   1.042  -0.154  0.00  0.00     0.002 A 
ATOM      4  C5  UNL d   1      -0.774   0.627  -1.465  0.00  0.00    -0.080 A 
ATOM      5  C6  UNL d   1      -1.825   1.298  -2.297  0.00  0.00     0.076 C 
ATOM      6  C7  UNL d   1      -0.035  -0.435  -1.998  0.00  0.00     0.002 A 
ATOM      7  C8  UNL d   1       0.928  -1.086  -1.223  0.00  0.00     0.006 A 
ENDROOT
BRANCH   1   8
ATOM      8  C1  UNL d   1       2.164  -1.430   0.949  0.00  0.00     0.054 C 
ATOM      9  C   UNL d   1       1.705  -2.856   1.213  0.00  0.00     0.018 C 
ENDBRANCH   1   8
TORSDOF 1
ENDMDL
