MODEL 1
REMARK minimizedAffinity -3.13423133
REMARK minimizedRMSD -1
REMARK  1 active torsions:
REMARK  status: ('A' for Active; 'I' for Inactive)
REMARK    1  A    between atoms: C1_2  and  C2_3 
ROOT
ATOM      1  C2  UNL d   1       0.601  -0.724   0.209  0.00  0.00    -0.081 A 
ATOM      2  C3  UNL d   1      -0.281  -0.822   1.293  0.00  0.00     0.006 A 
ATOM      3  C4  UNL d   1      -0.159  -1.866   2.212  0.00  0.00     0.002 A 
ATOM      4  C5  UNL d   1       0.851  -2.824   2.069  0.00  0.00    -0.080 A 
ATOM      5  C6  UNL d   1       1.012  -3.933   3.066  0.00  0.00     0.076 C 
ATOM      6  C7  UNL d   1       1.721  -2.736   0.977  0.00  0.00     0.002 A 
ATOM      7  C8  UNL d   1       1.599  -1.692   0.056  0.00  0.00     0.006 A 
ENDROOT
BRANCH   1   8
ATOM      8  C1  UNL d   1       0.512   0.438  -0.748  0.00  0.00     0.054 C 
ATOM      9  C   UNL d   1      -0.815   1.169  -0.609  0.00  0.00     0.018 C 
ENDBRANCH   1   8
TORSDOF 1
ENDMDL
