MODEL 1
REMARK minimizedAffinity -4.12116623
REMARK minimizedRMSD -1
REMARK  1 active torsions:
REMARK  status: ('A' for Active; 'I' for Inactive)
REMARK    1  A    between atoms: C1_2  and  C2_3 
ROOT
ATOM      1  C2  UNL d   1      -0.123  -1.351   0.946  0.00  0.00    -0.081 A 
ATOM      2  C3  UNL d   1      -1.268  -0.618   1.281  0.00  0.00     0.006 A 
ATOM      3  C4  UNL d   1      -1.626   0.513   0.543  0.00  0.00     0.002 A 
ATOM      4  C5  UNL d   1      -0.850   0.925  -0.546  0.00  0.00    -0.080 A 
ATOM      5  C6  UNL d   1      -1.240   2.120  -1.364  0.00  0.00     0.076 C 
ATOM      6  C7  UNL d   1       0.303   0.204  -0.870  0.00  0.00     0.002 A 
ATOM      7  C8  UNL d   1       0.662  -0.927  -0.132  0.00  0.00     0.006 A 
ENDROOT
BRANCH   1   8
ATOM      8  C1  UNL d   1       0.230  -2.608   1.699  0.00  0.00     0.054 C 
ATOM      9  C   UNL d   1       1.727  -2.695   1.958  0.00  0.00     0.018 C 
ENDBRANCH   1   8
TORSDOF 1
ENDMDL
