MODEL 1
REMARK minimizedAffinity -1.49189532
REMARK minimizedRMSD -1
REMARK  1 active torsions:
REMARK  status: ('A' for Active; 'I' for Inactive)
REMARK    1  A    between atoms: C1_2  and  C2_3 
ROOT
ATOM      1  C2  UNL d   1      -0.334   0.882  -0.228  0.00  0.00    -0.081 A 
ATOM      2  C3  UNL d   1       0.951   0.637  -0.727  0.00  0.00     0.006 A 
ATOM      3  C4  UNL d   1       1.665  -0.492  -0.320  0.00  0.00     0.002 A 
ATOM      4  C5  UNL d   1       1.104  -1.399   0.585  0.00  0.00    -0.080 A 
ATOM      5  C6  UNL d   1       1.847  -2.631   1.007  0.00  0.00     0.076 C 
ATOM      6  C7  UNL d   1      -0.173  -1.145   1.097  0.00  0.00     0.002 A 
ATOM      7  C8  UNL d   1      -0.887  -0.015   0.691  0.00  0.00     0.006 A 
ENDROOT
BRANCH   1   8
ATOM      8  C1  UNL d   1      -1.132   2.065  -0.714  0.00  0.00     0.054 C 
ATOM      9  C   UNL d   1      -1.484   1.927  -2.189  0.00  0.00     0.018 C 
ENDBRANCH   1   8
TORSDOF 1
ENDMDL
