MODEL 1
REMARK minimizedAffinity -4.74141598
REMARK minimizedRMSD -1
REMARK  1 active torsions:
REMARK  status: ('A' for Active; 'I' for Inactive)
REMARK    1  A    between atoms: C1_2  and  C2_3 
ROOT
ATOM      1  C2  UNL d   1      -0.433   0.445  -0.196  0.00  0.00    -0.081 A 
ATOM      2  C3  UNL d   1      -0.970  -0.382   0.798  0.00  0.00     0.006 A 
ATOM      3  C4  UNL d   1      -0.304  -1.547   1.186  0.00  0.00     0.002 A 
ATOM      4  C5  UNL d   1       0.912  -1.900   0.593  0.00  0.00    -0.080 A 
ATOM      5  C6  UNL d   1       1.652  -3.132   1.021  0.00  0.00     0.076 C 
ATOM      6  C7  UNL d   1       1.440  -1.083  -0.413  0.00  0.00     0.002 A 
ATOM      7  C8  UNL d   1       0.774   0.082  -0.802  0.00  0.00     0.006 A 
ENDROOT
BRANCH   1   8
ATOM      8  C1  UNL d   1      -1.116   1.736  -0.571  0.00  0.00     0.054 C 
ATOM      9  C   UNL d   1      -1.582   1.715  -2.020  0.00  0.00     0.018 C 
ENDBRANCH   1   8
TORSDOF 1
ENDMDL
