MODEL 1
REMARK minimizedAffinity 0.87756443
REMARK minimizedRMSD -1
REMARK  1 active torsions:
REMARK  status: ('A' for Active; 'I' for Inactive)
REMARK    1  A    between atoms: C1_2  and  C2_3 
ROOT
ATOM      1  C2  UNL d   1      -0.607   0.455  -0.401  0.00  0.00    -0.081 A 
ATOM      2  C3  UNL d   1       0.702   0.177  -0.813  0.00  0.00     0.006 A 
ATOM      3  C4  UNL d   1       1.447  -0.820  -0.178  0.00  0.00     0.002 A 
ATOM      4  C5  UNL d   1       0.895  -1.559   0.873  0.00  0.00    -0.080 A 
ATOM      5  C6  UNL d   1       1.674  -2.651   1.543  0.00  0.00     0.076 C 
ATOM      6  C7  UNL d   1      -0.407  -1.269   1.296  0.00  0.00     0.002 A 
ATOM      7  C8  UNL d   1      -1.153  -0.273   0.662  0.00  0.00     0.006 A 
ENDROOT
BRANCH   1   8
ATOM      8  C1  UNL d   1      -1.437   1.484  -1.126  0.00  0.00     0.054 C 
ATOM      9  C   UNL d   1      -1.928   0.954  -2.466  0.00  0.00     0.018 C 
ENDBRANCH   1   8
TORSDOF 1
ENDMDL
