MODEL 1
REMARK minimizedAffinity -0.185211077
REMARK minimizedRMSD -1
REMARK  1 active torsions:
REMARK  status: ('A' for Active; 'I' for Inactive)
REMARK    1  A    between atoms: C1_2  and  C2_3 
ROOT
ATOM      1  C2  UNL d   1       1.795   0.606  -0.471  0.00  0.00    -0.081 A 
ATOM      2  C3  UNL d   1       0.801   1.591  -0.507  0.00  0.00     0.006 A 
ATOM      3  C4  UNL d   1      -0.391   1.421   0.201  0.00  0.00     0.002 A 
ATOM      4  C5  UNL d   1      -0.605   0.268   0.963  0.00  0.00    -0.080 A 
ATOM      5  C6  UNL d   1      -1.868   0.087   1.752  0.00  0.00     0.076 C 
ATOM      6  C7  UNL d   1       0.380  -0.725   0.985  0.00  0.00     0.002 A 
ATOM      7  C8  UNL d   1       1.572  -0.556   0.277  0.00  0.00     0.006 A 
ENDROOT
BRANCH   1   8
ATOM      8  C1  UNL d   1       3.108   0.815  -1.181  0.00  0.00     0.054 C 
ATOM      9  C   UNL d   1       3.629   2.230  -0.976  0.00  0.00     0.018 C 
ENDBRANCH   1   8
TORSDOF 1
ENDMDL
