MODEL 1
REMARK minimizedAffinity -5.26819277
REMARK minimizedRMSD -1
REMARK  1 active torsions:
REMARK  status: ('A' for Active; 'I' for Inactive)
REMARK    1  A    between atoms: C1_2  and  C2_3 
ROOT
ATOM      1  C2  UNL d   1      -1.347   0.954  -2.529  0.00  0.00    -0.081 A 
ATOM      2  C3  UNL d   1      -2.063  -0.230  -2.315  0.00  0.00     0.006 A 
ATOM      3  C4  UNL d   1      -1.709  -1.093  -1.274  0.00  0.00     0.002 A 
ATOM      4  C5  UNL d   1      -0.641  -0.782  -0.426  0.00  0.00    -0.080 A 
ATOM      5  C6  UNL d   1      -0.270  -1.684   0.713  0.00  0.00     0.076 C 
ATOM      6  C7  UNL d   1       0.085   0.392  -0.651  0.00  0.00     0.002 A 
ATOM      7  C8  UNL d   1      -0.267   1.255  -1.692  0.00  0.00     0.006 A 
ENDROOT
BRANCH   1   8
ATOM      8  C1  UNL d   1      -1.766   1.918  -3.610  0.00  0.00     0.054 C 
ATOM      9  C   UNL d   1      -1.900   3.333  -3.067  0.00  0.00     0.018 C 
ENDBRANCH   1   8
TORSDOF 1
ENDMDL
