MODEL 1
REMARK minimizedAffinity 6.43262911
REMARK minimizedRMSD -1
REMARK  0 active torsions:
REMARK  status: ('A' for Active; 'I' for Inactive)
ROOT
ATOM      1  C   UNL d   1      -5.696  -5.966  -2.809  0.00  0.00     0.172 C 
ATOM      2  N   UNL d   1      -5.189  -5.974  -1.457  0.00  0.00    -0.070 N 
ATOM      3  C1  UNL d   1      -3.868  -5.999  -1.099  0.00  0.00    -0.004 A 
ATOM      4  C2  UNL d   1      -3.803  -5.998   0.277  0.00  0.00    -0.047 A 
ATOM      5  C3  UNL d   1      -5.131  -5.971   0.764  0.00  0.00    -0.047 A 
ATOM      6  C4  UNL d   1      -5.969  -5.957  -0.331  0.00  0.00    -0.004 A 
ENDROOT
TORSDOF 0
ENDMDL
