MODEL 1
REMARK minimizedAffinity 5.47037935
REMARK minimizedRMSD -1
REMARK  0 active torsions:
REMARK  status: ('A' for Active; 'I' for Inactive)
ROOT
ATOM      1  C   UNL d   1      -4.968   4.488  -0.711  0.00  0.00     0.172 C 
ATOM      2  N   UNL d   1      -3.947   4.150  -1.674  0.00  0.00    -0.070 N 
ATOM      3  C1  UNL d   1      -3.657   2.889  -2.122  0.00  0.00    -0.004 A 
ATOM      4  C2  UNL d   1      -2.625   2.991  -3.030  0.00  0.00    -0.047 A 
ATOM      5  C3  UNL d   1      -2.282   4.360  -3.130  0.00  0.00    -0.047 A 
ATOM      6  C4  UNL d   1      -3.116   5.055  -2.280  0.00  0.00    -0.004 A 
ENDROOT
TORSDOF 0
ENDMDL
