MODEL 1
REMARK minimizedAffinity 6.22576046
REMARK minimizedRMSD -1
REMARK  0 active torsions:
REMARK  status: ('A' for Active; 'I' for Inactive)
ROOT
ATOM      1  C   UNL d   1       0.063   2.710  -1.559  0.00  0.00     0.172 C 
ATOM      2  N   UNL d   1      -1.232   3.068  -2.088  0.00  0.00    -0.070 N 
ATOM      3  C1  UNL d   1      -2.373   3.250  -1.353  0.00  0.00    -0.004 A 
ATOM      4  C2  UNL d   1      -3.388   3.582  -2.224  0.00  0.00    -0.047 A 
ATOM      5  C3  UNL d   1      -2.838   3.598  -3.528  0.00  0.00    -0.047 A 
ATOM      6  C4  UNL d   1      -1.502   3.276  -3.415  0.00  0.00    -0.004 A 
ENDROOT
TORSDOF 0
ENDMDL
