MODEL 1
REMARK minimizedAffinity 8.35443974
REMARK minimizedRMSD -1
REMARK  0 active torsions:
REMARK  status: ('A' for Active; 'I' for Inactive)
ROOT
ATOM      1  C   UNL d   1       0.843   5.154  -0.056  0.00  0.00     0.172 C 
ATOM      2  N   UNL d   1       0.801   3.793  -0.536  0.00  0.00    -0.070 N 
ATOM      3  C1  UNL d   1       1.651   2.787  -0.161  0.00  0.00    -0.004 A 
ATOM      4  C2  UNL d   1       1.281   1.646  -0.840  0.00  0.00    -0.047 A 
ATOM      5  C3  UNL d   1       0.171   1.978  -1.653  0.00  0.00    -0.047 A 
ATOM      6  C4  UNL d   1      -0.106   3.313  -1.445  0.00  0.00    -0.004 A 
ENDROOT
TORSDOF 0
ENDMDL
