MODEL 1
REMARK minimizedAffinity 9.14568424
REMARK minimizedRMSD -1
REMARK  0 active torsions:
REMARK  status: ('A' for Active; 'I' for Inactive)
ROOT
ATOM      1  C   UNL d   1      -4.789   4.560  -1.053  0.00  0.00     0.172 C 
ATOM      2  N   UNL d   1      -3.711   3.964  -1.806  0.00  0.00    -0.070 N 
ATOM      3  C1  UNL d   1      -2.737   4.647  -2.484  0.00  0.00    -0.004 A 
ATOM      4  C2  UNL d   1      -1.901   3.721  -3.069  0.00  0.00    -0.047 A 
ATOM      5  C3  UNL d   1      -2.390   2.437  -2.732  0.00  0.00    -0.047 A 
ATOM      6  C4  UNL d   1      -3.511   2.616  -1.950  0.00  0.00    -0.004 A 
ENDROOT
TORSDOF 0
ENDMDL
