MODEL 1
REMARK minimizedAffinity 5.24913597
REMARK minimizedRMSD -1
REMARK  0 active torsions:
REMARK  status: ('A' for Active; 'I' for Inactive)
ROOT
ATOM      1  C   UNL d   1      -1.909  -3.218   2.957  0.00  0.00     0.172 C 
ATOM      2  N   UNL d   1      -0.756  -2.355   2.839  0.00  0.00    -0.070 N 
ATOM      3  C1  UNL d   1       0.308  -2.556   2.001  0.00  0.00    -0.004 A 
ATOM      4  C2  UNL d   1       1.193  -1.515   2.186  0.00  0.00    -0.047 A 
ATOM      5  C3  UNL d   1       0.641  -0.660   3.170  0.00  0.00    -0.047 A 
ATOM      6  C4  UNL d   1      -0.566  -1.204   3.556  0.00  0.00    -0.004 A 
ENDROOT
TORSDOF 0
ENDMDL
