MODEL 1
REMARK minimizedAffinity 1.67164147
REMARK minimizedRMSD -1
REMARK  0 active torsions:
REMARK  status: ('A' for Active; 'I' for Inactive)
ROOT
ATOM      1  C   UNL d   1      -2.568   3.623  -5.996  0.00  0.00     0.172 C 
ATOM      2  N   UNL d   1      -2.656   3.952  -4.592  0.00  0.00    -0.070 N 
ATOM      3  C1  UNL d   1      -2.934   3.071  -3.582  0.00  0.00    -0.004 A 
ATOM      4  C2  UNL d   1      -2.927   3.772  -2.396  0.00  0.00    -0.047 A 
ATOM      5  C3  UNL d   1      -2.635   5.122  -2.704  0.00  0.00    -0.047 A 
ATOM      6  C4  UNL d   1      -2.472   5.205  -4.071  0.00  0.00    -0.004 A 
ENDROOT
TORSDOF 0
ENDMDL
