MODEL 1
REMARK minimizedAffinity 7.3976903
REMARK minimizedRMSD -1
REMARK  0 active torsions:
REMARK  status: ('A' for Active; 'I' for Inactive)
ROOT
ATOM      1  C   UNL d   1       1.507  -1.877   1.504  0.00  0.00     0.172 C 
ATOM      2  N   UNL d   1       0.374  -1.862   2.400  0.00  0.00    -0.070 N 
ATOM      3  C1  UNL d   1      -0.485  -2.905   2.618  0.00  0.00    -0.004 A 
ATOM      4  C2  UNL d   1      -1.426  -2.492   3.537  0.00  0.00    -0.047 A 
ATOM      5  C3  UNL d   1      -1.122  -1.154   3.883  0.00  0.00    -0.047 A 
ATOM      6  C4  UNL d   1      -0.003  -0.789   3.164  0.00  0.00    -0.004 A 
ENDROOT
TORSDOF 0
ENDMDL
