MODEL 1
REMARK minimizedAffinity 3.49194312
REMARK minimizedRMSD -1
REMARK  0 active torsions:
REMARK  status: ('A' for Active; 'I' for Inactive)
ROOT
ATOM      1  C   UNL d   1      -0.437  -0.597   4.246  0.00  0.00     0.172 C 
ATOM      2  N   UNL d   1       0.366  -1.088   3.150  0.00  0.00    -0.070 N 
ATOM      3  C1  UNL d   1       0.242  -2.316   2.558  0.00  0.00    -0.004 A 
ATOM      4  C2  UNL d   1       1.186  -2.399   1.557  0.00  0.00    -0.047 A 
ATOM      5  C3  UNL d   1       1.902  -1.179   1.548  0.00  0.00    -0.047 A 
ATOM      6  C4  UNL d   1       1.374  -0.385   2.545  0.00  0.00    -0.004 A 
ENDROOT
TORSDOF 0
ENDMDL
