MODEL 1
REMARK minimizedAffinity 6.69181395
REMARK minimizedRMSD -1
REMARK  0 active torsions:
REMARK  status: ('A' for Active; 'I' for Inactive)
ROOT
ATOM      1  C   UNL d   1      -0.768  -0.545   3.727  0.00  0.00     0.172 C 
ATOM      2  N   UNL d   1       0.182  -1.038   2.757  0.00  0.00    -0.070 N 
ATOM      3  C1  UNL d   1       0.115  -2.246   2.116  0.00  0.00    -0.004 A 
ATOM      4  C2  UNL d   1       1.203  -2.338   1.275  0.00  0.00    -0.047 A 
ATOM      5  C3  UNL d   1       1.950  -1.144   1.416  0.00  0.00    -0.047 A 
ATOM      6  C4  UNL d   1       1.295  -0.357   2.340  0.00  0.00    -0.004 A 
ENDROOT
TORSDOF 0
ENDMDL
