MODEL 1
REMARK minimizedAffinity 5.31353331
REMARK minimizedRMSD -1
REMARK  0 active torsions:
REMARK  status: ('A' for Active; 'I' for Inactive)
ROOT
ATOM      1  C   UNL d   1       0.227  -0.884   3.334  0.00  0.00     0.172 C 
ATOM      2  N   UNL d   1       1.140  -1.326   2.306  0.00  0.00    -0.070 N 
ATOM      3  C1  UNL d   1       1.169  -2.577   1.748  0.00  0.00    -0.004 A 
ATOM      4  C2  UNL d   1       2.178  -2.597   0.810  0.00  0.00    -0.047 A 
ATOM      5  C3  UNL d   1       2.776  -1.315   0.804  0.00  0.00    -0.047 A 
ATOM      6  C4  UNL d   1       2.115  -0.548   1.739  0.00  0.00    -0.004 A 
ENDROOT
TORSDOF 0
ENDMDL
