MODEL 1
REMARK minimizedAffinity 0.675125659
REMARK minimizedRMSD -1
REMARK  0 active torsions:
REMARK  status: ('A' for Active; 'I' for Inactive)
ROOT
ATOM      1  C   UNL d   1       1.079  -2.231   1.783  0.00  0.00     0.172 C 
ATOM      2  N   UNL d   1      -0.064  -1.960   2.622  0.00  0.00    -0.070 N 
ATOM      3  C1  UNL d   1      -1.208  -2.710   2.678  0.00  0.00    -0.004 A 
ATOM      4  C2  UNL d   1      -2.053  -2.123   3.596  0.00  0.00    -0.047 A 
ATOM      5  C3  UNL d   1      -1.393  -0.981   4.109  0.00  0.00    -0.047 A 
ATOM      6  C4  UNL d   1      -0.164  -0.904   3.489  0.00  0.00    -0.004 A 
ENDROOT
TORSDOF 0
ENDMDL
