MODEL 1
REMARK minimizedAffinity 12.2147083
REMARK minimizedRMSD -1
REMARK  0 active torsions:
REMARK  status: ('A' for Active; 'I' for Inactive)
ROOT
ATOM      1  C   UNL d   1      -1.526   6.000  -5.712  0.00  0.00     0.172 C 
ATOM      2  N   UNL d   1      -1.694   5.080  -4.611  0.00  0.00    -0.070 N 
ATOM      3  C1  UNL d   1      -1.967   3.743  -4.724  0.00  0.00    -0.004 A 
ATOM      4  C2  UNL d   1      -2.051   3.221  -3.451  0.00  0.00    -0.047 A 
ATOM      5  C3  UNL d   1      -1.821   4.281  -2.542  0.00  0.00    -0.047 A 
ATOM      6  C4  UNL d   1      -1.603   5.421  -3.288  0.00  0.00    -0.004 A 
ENDROOT
TORSDOF 0
ENDMDL
