MODEL 1
REMARK minimizedAffinity 4.91140127
REMARK minimizedRMSD -1
REMARK  0 active torsions:
REMARK  status: ('A' for Active; 'I' for Inactive)
ROOT
ATOM      1  C   UNL d   1      -1.569   2.425  -2.870  0.00  0.00     0.172 C 
ATOM      2  N   UNL d   1      -2.467   3.434  -2.360  0.00  0.00    -0.070 N 
ATOM      3  C1  UNL d   1      -3.620   3.198  -1.660  0.00  0.00    -0.004 A 
ATOM      4  C2  UNL d   1      -4.185   4.416  -1.354  0.00  0.00    -0.047 A 
ATOM      5  C3  UNL d   1      -3.344   5.420  -1.889  0.00  0.00    -0.047 A 
ATOM      6  C4  UNL d   1      -2.287   4.785  -2.506  0.00  0.00    -0.004 A 
ENDROOT
TORSDOF 0
ENDMDL
