MODEL 1
REMARK minimizedAffinity 4.04711914
REMARK minimizedRMSD -1
REMARK  0 active torsions:
REMARK  status: ('A' for Active; 'I' for Inactive)
ROOT
ATOM      1  C   UNL d   1       0.971  -2.338   2.148  0.00  0.00     0.172 C 
ATOM      2  N   UNL d   1       0.020  -2.016   3.186  0.00  0.00    -0.070 N 
ATOM      3  C1  UNL d   1       0.060  -0.908   3.990  0.00  0.00    -0.004 A 
ATOM      4  C2  UNL d   1      -1.019  -0.968   4.845  0.00  0.00    -0.047 A 
ATOM      5  C3  UNL d   1      -1.732  -2.153   4.546  0.00  0.00    -0.047 A 
ATOM      6  C4  UNL d   1      -1.067  -2.783   3.515  0.00  0.00    -0.004 A 
ENDROOT
TORSDOF 0
ENDMDL
