MODEL 1
REMARK minimizedAffinity 8.35683537
REMARK minimizedRMSD -1
REMARK  0 active torsions:
REMARK  status: ('A' for Active; 'I' for Inactive)
ROOT
ATOM      1  C   UNL d   1      -4.402   3.813  -1.061  0.00  0.00     0.172 C 
ATOM      2  N   UNL d   1      -3.337   4.072  -2.001  0.00  0.00    -0.070 N 
ATOM      3  C1  UNL d   1      -2.754   5.290  -2.231  0.00  0.00    -0.004 A 
ATOM      4  C2  UNL d   1      -1.784   5.117  -3.194  0.00  0.00    -0.047 A 
ATOM      5  C3  UNL d   1      -1.784   3.749  -3.556  0.00  0.00    -0.047 A 
ATOM      6  C4  UNL d   1      -2.755   3.125  -2.802  0.00  0.00    -0.004 A 
ENDROOT
TORSDOF 0
ENDMDL
