MODEL 1
REMARK minimizedAffinity 4.6181426
REMARK minimizedRMSD -1
REMARK  0 active torsions:
REMARK  status: ('A' for Active; 'I' for Inactive)
ROOT
ATOM      1  C   UNL d   1       1.281  -1.900   1.915  0.00  0.00     0.172 C 
ATOM      2  N   UNL d   1       0.041  -1.947   2.654  0.00  0.00    -0.070 N 
ATOM      3  C1  UNL d   1      -0.797  -3.027   2.740  0.00  0.00    -0.004 A 
ATOM      4  C2  UNL d   1      -1.866  -2.670   3.533  0.00  0.00    -0.047 A 
ATOM      5  C3  UNL d   1      -1.664  -1.329   3.938  0.00  0.00    -0.047 A 
ATOM      6  C4  UNL d   1      -0.476  -0.906   3.379  0.00  0.00    -0.004 A 
ENDROOT
TORSDOF 0
ENDMDL
