MODEL 1
REMARK minimizedAffinity 7.36593628
REMARK minimizedRMSD -1
REMARK  0 active torsions:
REMARK  status: ('A' for Active; 'I' for Inactive)
ROOT
ATOM      1  C   UNL d   1      -1.888   5.906  -3.375  0.00  0.00     0.172 C 
ATOM      2  N   UNL d   1      -2.371   4.605  -2.974  0.00  0.00    -0.070 N 
ATOM      3  C1  UNL d   1      -3.284   4.363  -1.983  0.00  0.00    -0.004 A 
ATOM      4  C2  UNL d   1      -3.477   3.000  -1.911  0.00  0.00    -0.047 A 
ATOM      5  C3  UNL d   1      -2.652   2.403  -2.893  0.00  0.00    -0.047 A 
ATOM      6  C4  UNL d   1      -1.978   3.419  -3.537  0.00  0.00    -0.004 A 
ENDROOT
TORSDOF 0
ENDMDL
