MODEL 1
REMARK minimizedAffinity -3.91451931
REMARK minimizedRMSD -1
REMARK  0 active torsions:
REMARK  status: ('A' for Active; 'I' for Inactive)
ROOT
ATOM      1  C2' OXE d   1      -2.629   0.249   0.428  0.00  0.00     0.078 C 
ATOM      2  C1' OXE d   1      -1.518   1.202   2.824  0.00  0.00     0.078 C 
ATOM      3  C1  OXE d   1      -0.577   0.652   1.782  0.00  0.00    -0.078 A 
ATOM      4  C2  OXE d   1      -1.133   0.145   0.632  0.00  0.00    -0.078 A 
ATOM      5  C3  OXE d   1      -0.306  -0.324  -0.385  0.00  0.00     0.003 A 
ATOM      6  C4  OXE d   1       1.076  -0.426  -0.184  0.00  0.00    -0.002 A 
ATOM      7  C5  OXE d   1       1.659   0.048   0.995  0.00  0.00    -0.002 A 
ATOM      8  C6  OXE d   1       0.853   0.628   1.969  0.00  0.00     0.003 A 
ENDROOT
TORSDOF 0
ENDMDL
