MODEL 1
REMARK minimizedAffinity -0.499117821
REMARK minimizedRMSD -1
REMARK  0 active torsions:
REMARK  status: ('A' for Active; 'I' for Inactive)
ROOT
ATOM      1  C2' OXE d   1      -4.331   1.116  -0.410  0.00  0.00     0.078 C 
ATOM      2  C1' OXE d   1      -3.789  -1.572  -1.010  0.00  0.00     0.078 C 
ATOM      3  C1  OXE d   1      -2.649  -0.718  -0.515  0.00  0.00    -0.078 A 
ATOM      4  C2  OXE d   1      -2.912   0.608  -0.268  0.00  0.00    -0.078 A 
ATOM      5  C3  OXE d   1      -1.909   1.427   0.243  0.00  0.00     0.003 A 
ATOM      6  C4  OXE d   1      -0.598   0.951   0.362  0.00  0.00    -0.002 A 
ATOM      7  C5  OXE d   1      -0.299  -0.386   0.078  0.00  0.00    -0.002 A 
ATOM      8  C6  OXE d   1      -1.320  -1.243  -0.320  0.00  0.00     0.003 A 
ENDROOT
TORSDOF 0
ENDMDL
