MODEL 1
REMARK minimizedAffinity -5.17162132
REMARK minimizedRMSD -1
REMARK  0 active torsions:
REMARK  status: ('A' for Active; 'I' for Inactive)
ROOT
ATOM      1  C2' OXE d   1       0.737  -0.239  -1.190  0.00  0.00     0.078 C 
ATOM      2  C1' OXE d   1       2.122  -0.804   1.185  0.00  0.00     0.078 C 
ATOM      3  C1  OXE d   1       0.698  -0.318   1.299  0.00  0.00    -0.078 A 
ATOM      4  C2  OXE d   1       0.044   0.001   0.134  0.00  0.00    -0.078 A 
ATOM      5  C3  OXE d   1      -1.289   0.401   0.179  0.00  0.00     0.003 A 
ATOM      6  C4  OXE d   1      -1.919   0.629   1.408  0.00  0.00    -0.002 A 
ATOM      7  C5  OXE d   1      -1.257   0.349   2.608  0.00  0.00    -0.002 A 
ATOM      8  C6  OXE d   1       0.034  -0.165   2.570  0.00  0.00     0.003 A 
ENDROOT
TORSDOF 0
ENDMDL
