MODEL 1
REMARK minimizedAffinity -3.98856068
REMARK minimizedRMSD -1
REMARK  0 active torsions:
REMARK  status: ('A' for Active; 'I' for Inactive)
ROOT
ATOM      1  C2' OXE d   1       1.095  -0.862  -0.804  0.00  0.00     0.078 C 
ATOM      2  C1' OXE d   1       2.238   0.019   1.604  0.00  0.00     0.078 C 
ATOM      3  C1  OXE d   1       0.767   0.275   1.388  0.00  0.00    -0.078 A 
ATOM      4  C2  OXE d   1       0.227  -0.117   0.187  0.00  0.00    -0.078 A 
ATOM      5  C3  OXE d   1      -1.136   0.046  -0.041  0.00  0.00     0.003 A 
ATOM      6  C4  OXE d   1      -1.930   0.745   0.876  0.00  0.00    -0.002 A 
ATOM      7  C5  OXE d   1      -1.391   1.188   2.088  0.00  0.00    -0.002 A 
ATOM      8  C6  OXE d   1      -0.056   0.925   2.378  0.00  0.00     0.003 A 
ENDROOT
TORSDOF 0
ENDMDL
