MODEL 1
REMARK minimizedAffinity -5.20959902
REMARK minimizedRMSD -1
REMARK  0 active torsions:
REMARK  status: ('A' for Active; 'I' for Inactive)
ROOT
ATOM      1  C2' OXE d   1      -1.992   0.217   0.092  0.00  0.00     0.078 C 
ATOM      2  C1' OXE d   1      -0.781   1.040   2.487  0.00  0.00     0.078 C 
ATOM      3  C1  OXE d   1       0.087   0.360   1.457  0.00  0.00    -0.078 A 
ATOM      4  C2  OXE d   1      -0.524  -0.081   0.308  0.00  0.00    -0.078 A 
ATOM      5  C3  OXE d   1       0.240  -0.666  -0.698  0.00  0.00     0.003 A 
ATOM      6  C4  OXE d   1       1.595  -0.947  -0.486  0.00  0.00    -0.002 A 
ATOM      7  C5  OXE d   1       2.228  -0.542   0.694  0.00  0.00    -0.002 A 
ATOM      8  C6  OXE d   1       1.500   0.149   1.655  0.00  0.00     0.003 A 
ENDROOT
TORSDOF 0
ENDMDL
