MODEL 1
REMARK minimizedAffinity -6.01988935
REMARK minimizedRMSD -1
REMARK  0 active torsions:
REMARK  status: ('A' for Active; 'I' for Inactive)
ROOT
ATOM      1  C2' OXE d   1      -1.580   0.107   0.280  0.00  0.00     0.078 C 
ATOM      2  C1' OXE d   1       1.081  -0.736  -0.019  0.00  0.00     0.078 C 
ATOM      3  C1  OXE d   1       0.689  -0.096   1.289  0.00  0.00    -0.078 A 
ATOM      4  C2  OXE d   1      -0.604   0.356   1.409  0.00  0.00    -0.078 A 
ATOM      5  C3  OXE d   1      -1.032   0.905   2.614  0.00  0.00     0.003 A 
ATOM      6  C4  OXE d   1      -0.120   1.141   3.650  0.00  0.00    -0.002 A 
ATOM      7  C5  OXE d   1       1.210   0.725   3.533  0.00  0.00    -0.002 A 
ATOM      8  C6  OXE d   1       1.619   0.068   2.378  0.00  0.00     0.003 A 
ENDROOT
TORSDOF 0
ENDMDL
