MODEL 1
REMARK minimizedAffinity 1.30576301
REMARK minimizedRMSD -1
REMARK  0 active torsions:
REMARK  status: ('A' for Active; 'I' for Inactive)
ROOT
ATOM      1  C2' OXE d   1      -0.913   0.132  -4.384  0.00  0.00     0.078 C 
ATOM      2  C1' OXE d   1       1.778  -0.364  -3.756  0.00  0.00     0.078 C 
ATOM      3  C1  OXE d   1       0.755  -0.544  -2.662  0.00  0.00    -0.078 A 
ATOM      4  C2  OXE d   1      -0.553  -0.254  -2.965  0.00  0.00    -0.078 A 
ATOM      5  C3  OXE d   1      -1.544  -0.455  -2.008  0.00  0.00     0.003 A 
ATOM      6  C4  OXE d   1      -1.201  -0.802  -0.696  0.00  0.00    -0.002 A 
ATOM      7  C5  OXE d   1       0.130  -1.063  -0.355  0.00  0.00    -0.002 A 
ATOM      8  C6  OXE d   1       1.113  -0.980  -1.335  0.00  0.00     0.003 A 
ENDROOT
TORSDOF 0
ENDMDL
