MODEL 1
REMARK minimizedAffinity -3.9062748
REMARK minimizedRMSD -1
REMARK  0 active torsions:
REMARK  status: ('A' for Active; 'I' for Inactive)
ROOT
ATOM      1  C2' OXE d   1       1.858  -0.328   2.581  0.00  0.00     0.078 C 
ATOM      2  C1' OXE d   1      -0.789   0.454   3.095  0.00  0.00     0.078 C 
ATOM      3  C1  OXE d   1      -0.437   0.044   1.687  0.00  0.00    -0.078 A 
ATOM      4  C2  OXE d   1       0.871  -0.292   1.434  0.00  0.00    -0.078 A 
ATOM      5  C3  OXE d   1       1.237  -0.731   0.165  0.00  0.00     0.003 A 
ATOM      6  C4  OXE d   1       0.320  -0.685  -0.893  0.00  0.00    -0.002 A 
ATOM      7  C5  OXE d   1      -1.007  -0.308  -0.666  0.00  0.00    -0.002 A 
ATOM      8  C6  OXE d   1      -1.412   0.018   0.624  0.00  0.00     0.003 A 
ENDROOT
TORSDOF 0
ENDMDL
