MODEL 1
REMARK minimizedAffinity -5.1676898
REMARK minimizedRMSD -1
REMARK  0 active torsions:
REMARK  status: ('A' for Active; 'I' for Inactive)
ROOT
ATOM      1  C2' OXE d   1       0.041  -0.003  -1.276  0.00  0.00     0.078 C 
ATOM      2  C1' OXE d   1      -2.456  -0.733  -0.219  0.00  0.00     0.078 C 
ATOM      3  C1  OXE d   1      -1.436  -0.148   0.726  0.00  0.00    -0.078 A 
ATOM      4  C2  OXE d   1      -0.201   0.163   0.209  0.00  0.00    -0.078 A 
ATOM      5  C3  OXE d   1       0.758   0.756   1.025  0.00  0.00     0.003 A 
ATOM      6  C4  OXE d   1       0.530   0.897   2.400  0.00  0.00    -0.002 A 
ATOM      7  C5  OXE d   1      -0.706   0.550   2.954  0.00  0.00    -0.002 A 
ATOM      8  C6  OXE d   1      -1.713   0.067   2.125  0.00  0.00     0.003 A 
ENDROOT
TORSDOF 0
ENDMDL
