MODEL 1
REMARK minimizedAffinity -4.75488663
REMARK minimizedRMSD -1
REMARK  0 active torsions:
REMARK  status: ('A' for Active; 'I' for Inactive)
ROOT
ATOM      1  C2' OXE d   1      -2.005  -0.188  -0.432  0.00  0.00     0.078 C 
ATOM      2  C1' OXE d   1       0.726  -0.490  -1.007  0.00  0.00     0.078 C 
ATOM      3  C1  OXE d   1       0.350   0.152   0.305  0.00  0.00    -0.078 A 
ATOM      4  C2  OXE d   1      -0.988   0.338   0.557  0.00  0.00    -0.078 A 
ATOM      5  C3  OXE d   1      -1.391   0.876   1.776  0.00  0.00     0.003 A 
ATOM      6  C4  OXE d   1      -0.444   1.370   2.681  0.00  0.00    -0.002 A 
ATOM      7  C5  OXE d   1       0.924   1.227   2.426  0.00  0.00    -0.002 A 
ATOM      8  C6  OXE d   1       1.337   0.583   1.264  0.00  0.00     0.003 A 
ENDROOT
TORSDOF 0
ENDMDL
