MODEL 1
REMARK minimizedAffinity 18.6515427
REMARK minimizedRMSD -1
REMARK  0 active torsions:
REMARK  status: ('A' for Active; 'I' for Inactive)
ROOT
ATOM      1  C1  DEN d   1       5.706   3.690  -5.922  0.00  0.00     0.130 A 
ATOM      2  C2  DEN d   1       5.913   5.136  -5.961  0.00  0.00    -0.031 A 
ATOM      3  C3  DEN d   1       4.588   5.786  -6.000  0.00  0.00     0.027 A 
ATOM      4  C4  DEN d   1       2.248   4.702  -5.999  0.00  0.00     0.027 A 
ATOM      5  C5  DEN d   1       1.564   3.506  -5.986  0.00  0.00    -0.003 A 
ATOM      6  C6  DEN d   1       2.209   2.297  -5.985  0.00  0.00     0.001 A 
ATOM      7  C7  DEN d   1       3.578   2.257  -5.951  0.00  0.00     0.017 A 
ATOM      8  C8  DEN d   1       4.273   3.459  -5.972  0.00  0.00    -0.094 A 
ATOM      9  C9  DEN d   1       3.604   4.671  -5.961  0.00  0.00    -0.072 A 
ENDROOT
TORSDOF 0
ENDMDL
