MODEL 1
REMARK minimizedAffinity -1.78459406
REMARK minimizedRMSD -1
REMARK  0 active torsions:
REMARK  status: ('A' for Active; 'I' for Inactive)
ROOT
ATOM      1  C1  DEN d   1       4.840   4.898  -5.999  0.00  0.00     0.130 A 
ATOM      2  C2  DEN d   1       5.956   3.957  -5.966  0.00  0.00    -0.031 A 
ATOM      3  C3  DEN d   1       5.401   2.589  -5.951  0.00  0.00     0.027 A 
ATOM      4  C4  DEN d   1       2.933   1.840  -5.980  0.00  0.00     0.027 A 
ATOM      5  C5  DEN d   1       1.627   2.277  -5.996  0.00  0.00    -0.003 A 
ATOM      6  C6  DEN d   1       1.303   3.608  -5.980  0.00  0.00     0.001 A 
ATOM      7  C7  DEN d   1       2.298   4.549  -5.992  0.00  0.00     0.017 A 
ATOM      8  C8  DEN d   1       3.617   4.116  -5.969  0.00  0.00    -0.094 A 
ATOM      9  C9  DEN d   1       3.924   2.766  -5.998  0.00  0.00    -0.072 A 
ENDROOT
TORSDOF 0
ENDMDL
