MODEL 1
REMARK minimizedAffinity 7.93434048
REMARK minimizedRMSD -1
REMARK  0 active torsions:
REMARK  status: ('A' for Active; 'I' for Inactive)
ROOT
ATOM      1  C1  DEN d   1       4.279  -2.944   3.086  0.00  0.00     0.130 A 
ATOM      2  C2  DEN d   1       5.020  -4.193   2.934  0.00  0.00    -0.031 A 
ATOM      3  C3  DEN d   1       4.616  -4.811   1.655  0.00  0.00     0.027 A 
ATOM      4  C4  DEN d   1       2.928  -3.956  -0.098  0.00  0.00     0.027 A 
ATOM      5  C5  DEN d   1       2.041  -2.948  -0.403  0.00  0.00    -0.003 A 
ATOM      6  C6  DEN d   1       1.814  -1.894   0.442  0.00  0.00     0.001 A 
ATOM      7  C7  DEN d   1       2.517  -1.800   1.614  0.00  0.00     0.017 A 
ATOM      8  C8  DEN d   1       3.408  -2.817   1.932  0.00  0.00    -0.094 A 
ATOM      9  C9  DEN d   1       3.632  -3.868   1.059  0.00  0.00    -0.072 A 
ENDROOT
TORSDOF 0
ENDMDL
