MODEL 1
REMARK minimizedAffinity 11.3116159
REMARK minimizedRMSD -1
REMARK  0 active torsions:
REMARK  status: ('A' for Active; 'I' for Inactive)
ROOT
ATOM      1  C1  DEN d   1       4.620  -3.318   2.925  0.00  0.00     0.130 A 
ATOM      2  C2  DEN d   1       4.637  -2.501   4.135  0.00  0.00    -0.031 A 
ATOM      3  C3  DEN d   1       3.558  -1.499   4.024  0.00  0.00     0.027 A 
ATOM      4  C4  DEN d   1       1.867  -1.140   2.109  0.00  0.00     0.027 A 
ATOM      5  C5  DEN d   1       1.468  -1.581   0.867  0.00  0.00    -0.003 A 
ATOM      6  C6  DEN d   1       2.108  -2.601   0.214  0.00  0.00     0.001 A 
ATOM      7  C7  DEN d   1       3.154  -3.245   0.820  0.00  0.00     0.017 A 
ATOM      8  C8  DEN d   1       3.567  -2.801   2.070  0.00  0.00    -0.094 A 
ATOM      9  C9  DEN d   1       2.900  -1.776   2.719  0.00  0.00    -0.072 A 
ENDROOT
TORSDOF 0
ENDMDL
