MODEL 1
REMARK minimizedAffinity -0.00863321871
REMARK minimizedRMSD -1
REMARK  0 active torsions:
REMARK  status: ('A' for Active; 'I' for Inactive)
ROOT
ATOM      1  C1  DEN d   1       1.902   2.107  -5.959  0.00  0.00     0.130 A 
ATOM      2  C2  DEN d   1       1.248   3.413  -5.950  0.00  0.00    -0.031 A 
ATOM      3  C3  DEN d   1       2.300   4.449  -5.963  0.00  0.00     0.027 A 
ATOM      4  C4  DEN d   1       4.862   4.161  -5.998  0.00  0.00     0.027 A 
ATOM      5  C5  DEN d   1       5.889   3.242  -6.000  0.00  0.00    -0.003 A 
ATOM      6  C6  DEN d   1       5.661   1.892  -5.954  0.00  0.00     0.001 A 
ATOM      7  C7  DEN d   1       4.374   1.421  -5.950  0.00  0.00     0.017 A 
ATOM      8  C8  DEN d   1       3.334   2.342  -5.941  0.00  0.00    -0.094 A 
ATOM      9  C9  DEN d   1       3.585   3.702  -6.000  0.00  0.00    -0.072 A 
ENDROOT
TORSDOF 0
ENDMDL
