MODEL 1
REMARK minimizedAffinity 5.26553249
REMARK minimizedRMSD -1
REMARK  0 active torsions:
REMARK  status: ('A' for Active; 'I' for Inactive)
ROOT
ATOM      1  C1  DEN d   1       1.651  -2.280   2.273  0.00  0.00     0.130 A 
ATOM      2  C2  DEN d   1       1.285  -1.829   0.933  0.00  0.00    -0.031 A 
ATOM      3  C3  DEN d   1       2.251  -2.405  -0.023  0.00  0.00     0.027 A 
ATOM      4  C4  DEN d   1       4.266  -3.948   0.438  0.00  0.00     0.027 A 
ATOM      5  C5  DEN d   1       4.984  -4.594   1.421  0.00  0.00    -0.003 A 
ATOM      6  C6  DEN d   1       4.664  -4.487   2.748  0.00  0.00     0.001 A 
ATOM      7  C7  DEN d   1       3.571  -3.753   3.126  0.00  0.00     0.017 A 
ATOM      8  C8  DEN d   1       2.847  -3.093   2.142  0.00  0.00    -0.094 A 
ATOM      9  C9  DEN d   1       3.179  -3.224   0.804  0.00  0.00    -0.072 A 
ENDROOT
TORSDOF 0
ENDMDL
