MODEL 1
REMARK minimizedAffinity 5.70076704
REMARK minimizedRMSD -1
REMARK  0 active torsions:
REMARK  status: ('A' for Active; 'I' for Inactive)
ROOT
ATOM      1  C   UNL d   1       2.674  -1.498  -0.514  0.00  0.00     0.172 C 
ATOM      2  N   UNL d   1       3.925  -1.055   0.054  0.00  0.00    -0.070 N 
ATOM      3  C1  UNL d   1       4.225   0.229   0.421  0.00  0.00    -0.004 A 
ATOM      4  C2  UNL d   1       5.510   0.237   0.919  0.00  0.00    -0.047 A 
ATOM      5  C3  UNL d   1       6.000  -1.089   0.848  0.00  0.00    -0.047 A 
ATOM      6  C4  UNL d   1       4.998  -1.868   0.309  0.00  0.00    -0.004 A 
ENDROOT
TORSDOF 0
ENDMDL
