MODEL 1
REMARK minimizedAffinity 3.37282729
REMARK minimizedRMSD -1
REMARK  0 active torsions:
REMARK  status: ('A' for Active; 'I' for Inactive)
ROOT
ATOM      1  C   UNL d   1       0.799  -1.863   2.408  0.00  0.00     0.172 C 
ATOM      2  N   UNL d   1      -0.257  -0.894   2.592  0.00  0.00    -0.070 N 
ATOM      3  C1  UNL d   1      -1.362  -0.758   1.796  0.00  0.00    -0.004 A 
ATOM      4  C2  UNL d   1      -2.123   0.273   2.304  0.00  0.00    -0.047 A 
ATOM      5  C3  UNL d   1      -1.451   0.773   3.444  0.00  0.00    -0.047 A 
ATOM      6  C4  UNL d   1      -0.299   0.033   3.600  0.00  0.00    -0.004 A 
ENDROOT
TORSDOF 0
ENDMDL
