MODEL 1
REMARK minimizedAffinity 3.81900334
REMARK minimizedRMSD -1
REMARK  0 active torsions:
REMARK  status: ('A' for Active; 'I' for Inactive)
ROOT
ATOM      1  C   UNL d   1      -5.849   3.575  -4.834  0.00  0.00     0.172 C 
ATOM      2  N   UNL d   1      -5.458   2.203  -5.058  0.00  0.00    -0.070 N 
ATOM      3  C1  UNL d   1      -4.530   1.776  -5.969  0.00  0.00    -0.004 A 
ATOM      4  C2  UNL d   1      -4.444   0.404  -5.873  0.00  0.00    -0.047 A 
ATOM      5  C3  UNL d   1      -5.354  -0.008  -4.871  0.00  0.00    -0.047 A 
ATOM      6  C4  UNL d   1      -5.968   1.126  -4.383  0.00  0.00    -0.004 A 
ENDROOT
TORSDOF 0
ENDMDL
