MODEL 1
REMARK minimizedAffinity 1.3312695
REMARK minimizedRMSD -1
REMARK  0 active torsions:
REMARK  status: ('A' for Active; 'I' for Inactive)
ROOT
ATOM      1  C   UNL d   1       0.776   3.554   3.339  0.00  0.00     0.172 C 
ATOM      2  N   UNL d   1       1.305   4.549   4.242  0.00  0.00    -0.070 N 
ATOM      3  C1  UNL d   1       2.560   5.093   4.183  0.00  0.00    -0.004 A 
ATOM      4  C2  UNL d   1       2.676   6.000   5.215  0.00  0.00    -0.047 A 
ATOM      5  C3  UNL d   1       1.448   6.000   5.918  0.00  0.00    -0.047 A 
ATOM      6  C4  UNL d   1       0.618   5.093   5.295  0.00  0.00    -0.004 A 
ENDROOT
TORSDOF 0
ENDMDL
