MODEL 1
REMARK minimizedAffinity 4.45875263
REMARK minimizedRMSD -1
REMARK  0 active torsions:
REMARK  status: ('A' for Active; 'I' for Inactive)
ROOT
ATOM      1  C   UNL d   1      -6.000   1.616  -4.950  0.00  0.00     0.172 C 
ATOM      2  N   UNL d   1      -4.853   0.741  -5.015  0.00  0.00    -0.070 N 
ATOM      3  C1  UNL d   1      -4.604  -0.177  -6.000  0.00  0.00    -0.004 A 
ATOM      4  C2  UNL d   1      -3.416  -0.807  -5.699  0.00  0.00    -0.047 A 
ATOM      5  C3  UNL d   1      -2.935  -0.250  -4.491  0.00  0.00    -0.047 A 
ATOM      6  C4  UNL d   1      -3.844   0.706  -4.089  0.00  0.00    -0.004 A 
ENDROOT
TORSDOF 0
ENDMDL
