MODEL 1
REMARK minimizedAffinity 3.7959919
REMARK minimizedRMSD -1
REMARK  0 active torsions:
REMARK  status: ('A' for Active; 'I' for Inactive)
ROOT
ATOM      1  C   UNL d   1      -4.215   2.628   5.413  0.00  0.00     0.172 C 
ATOM      2  N   UNL d   1      -4.323   1.737   4.282  0.00  0.00    -0.070 N 
ATOM      3  C1  UNL d   1      -5.490   1.248   3.759  0.00  0.00    -0.004 A 
ATOM      4  C2  UNL d   1      -5.167   0.437   2.692  0.00  0.00    -0.047 A 
ATOM      5  C3  UNL d   1      -3.757   0.439   2.570  0.00  0.00    -0.047 A 
ATOM      6  C4  UNL d   1      -3.260   1.252   3.566  0.00  0.00    -0.004 A 
ENDROOT
TORSDOF 0
ENDMDL
