MODEL 1
REMARK minimizedAffinity 2.95769739
REMARK minimizedRMSD -1
REMARK  0 active torsions:
REMARK  status: ('A' for Active; 'I' for Inactive)
ROOT
ATOM      1  C1  DEN d   1       0.185  -0.796  -0.317  0.00  0.00     0.130 A 
ATOM      2  C2  DEN d   1       0.319   0.599   0.093  0.00  0.00    -0.031 A 
ATOM      3  C3  DEN d   1      -0.151   1.449  -1.019  0.00  0.00     0.027 A 
ATOM      4  C4  DEN d   1      -1.073   0.744  -3.322  0.00  0.00     0.027 A 
ATOM      5  C5  DEN d   1      -1.366  -0.330  -4.133  0.00  0.00    -0.003 A 
ATOM      6  C6  DEN d   1      -1.133  -1.623  -3.745  0.00  0.00     0.001 A 
ATOM      7  C7  DEN d   1      -0.633  -1.877  -2.496  0.00  0.00     0.017 A 
ATOM      8  C8  DEN d   1      -0.328  -0.799  -1.675  0.00  0.00    -0.094 A 
ATOM      9  C9  DEN d   1      -0.583   0.500  -2.081  0.00  0.00    -0.072 A 
ENDROOT
TORSDOF 0
ENDMDL
