MODEL 1
REMARK minimizedAffinity -0.733199358
REMARK minimizedRMSD -1
REMARK  0 active torsions:
REMARK  status: ('A' for Active; 'I' for Inactive)
ROOT
ATOM      1  C1  DEN d   1      -5.998  -0.022   0.361  0.00  0.00     0.130 A 
ATOM      2  C2  DEN d   1      -5.438  -0.531  -0.887  0.00  0.00    -0.031 A 
ATOM      3  C3  DEN d   1      -3.971  -0.370  -0.829  0.00  0.00     0.027 A 
ATOM      4  C4  DEN d   1      -2.520   0.609   1.066  0.00  0.00     0.027 A 
ATOM      5  C5  DEN d   1      -2.547   1.181   2.318  0.00  0.00    -0.003 A 
ATOM      6  C6  DEN d   1      -3.718   1.421   2.987  0.00  0.00     0.001 A 
ATOM      7  C7  DEN d   1      -4.910   1.046   2.425  0.00  0.00     0.017 A 
ATOM      8  C8  DEN d   1      -4.892   0.476   1.159  0.00  0.00    -0.094 A 
ATOM      9  C9  DEN d   1      -3.696   0.230   0.504  0.00  0.00    -0.072 A 
ENDROOT
TORSDOF 0
ENDMDL
