MODEL 1
REMARK minimizedAffinity -1.21535921
REMARK minimizedRMSD -1
REMARK  0 active torsions:
REMARK  status: ('A' for Active; 'I' for Inactive)
ROOT
ATOM      1  C1  DEN d   1      -0.934   0.108   0.112  0.00  0.00     0.130 A 
ATOM      2  C2  DEN d   1      -1.398  -0.343  -1.197  0.00  0.00    -0.031 A 
ATOM      3  C3  DEN d   1      -0.365  -1.232  -1.766  0.00  0.00     0.027 A 
ATOM      4  C4  DEN d   1       1.893  -1.954  -0.751  0.00  0.00     0.027 A 
ATOM      5  C5  DEN d   1       2.730  -1.819   0.335  0.00  0.00    -0.003 A 
ATOM      6  C6  DEN d   1       2.422  -1.014   1.399  0.00  0.00     0.001 A 
ATOM      7  C7  DEN d   1       1.226  -0.345   1.420  0.00  0.00     0.017 A 
ATOM      8  C8  DEN d   1       0.381  -0.470   0.326  0.00  0.00    -0.094 A 
ATOM      9  C9  DEN d   1       0.704  -1.299  -0.735  0.00  0.00    -0.072 A 
ENDROOT
TORSDOF 0
ENDMDL
