MODEL 1
REMARK minimizedAffinity -0.501546502
REMARK minimizedRMSD -1
REMARK  0 active torsions:
REMARK  status: ('A' for Active; 'I' for Inactive)
ROOT
ATOM      1  C1  DEN d   1      -0.795  -0.290  -0.981  0.00  0.00     0.130 A 
ATOM      2  C2  DEN d   1      -1.225   1.097  -0.826  0.00  0.00    -0.031 A 
ATOM      3  C3  DEN d   1      -0.279   1.769   0.088  0.00  0.00     0.027 A 
ATOM      4  C4  DEN d   1       1.801   0.802   1.268  0.00  0.00     0.027 A 
ATOM      5  C5  DEN d   1       2.561  -0.332   1.452  0.00  0.00    -0.003 A 
ATOM      6  C6  DEN d   1       2.240  -1.529   0.871  0.00  0.00     0.001 A 
ATOM      7  C7  DEN d   1       1.153  -1.610   0.040  0.00  0.00     0.017 A 
ATOM      8  C8  DEN d   1       0.378  -0.473  -0.145  0.00  0.00    -0.094 A 
ATOM      9  C9  DEN d   1       0.727   0.731   0.442  0.00  0.00    -0.072 A 
ENDROOT
TORSDOF 0
ENDMDL
