MODEL 1
REMARK minimizedAffinity -3.55228662
REMARK minimizedRMSD -1
REMARK  0 active torsions:
REMARK  status: ('A' for Active; 'I' for Inactive)
ROOT
ATOM      1  C1  DEN d   1       1.022   1.579  -0.088  0.00  0.00     0.130 A 
ATOM      2  C2  DEN d   1       1.078   0.170   0.293  0.00  0.00    -0.031 A 
ATOM      3  C3  DEN d   1      -0.257  -0.223   0.787  0.00  0.00     0.027 A 
ATOM      4  C4  DEN d   1      -2.396   1.204   0.993  0.00  0.00     0.027 A 
ATOM      5  C5  DEN d   1      -2.930   2.459   0.804  0.00  0.00    -0.003 A 
ATOM      6  C6  DEN d   1      -2.182   3.509   0.340  0.00  0.00     0.001 A 
ATOM      7  C7  DEN d   1      -0.868   3.311   0.007  0.00  0.00     0.017 A 
ATOM      8  C8  DEN d   1      -0.320   2.050   0.202  0.00  0.00    -0.094 A 
ATOM      9  C9  DEN d   1      -1.096   0.999   0.660  0.00  0.00    -0.072 A 
ENDROOT
TORSDOF 0
ENDMDL
