MODEL 1
REMARK minimizedAffinity 4.90203905
REMARK minimizedRMSD -1
REMARK  0 active torsions:
REMARK  status: ('A' for Active; 'I' for Inactive)
ROOT
ATOM      1  C1  DEN d   1       3.496  -1.234  -0.612  0.00  0.00     0.130 A 
ATOM      2  C2  DEN d   1       3.237  -2.081  -1.772  0.00  0.00    -0.031 A 
ATOM      3  C3  DEN d   1       1.783  -2.074  -2.028  0.00  0.00     0.027 A 
ATOM      4  C4  DEN d   1      -0.083  -0.835  -0.749  0.00  0.00     0.027 A 
ATOM      5  C5  DEN d   1      -0.353  -0.002   0.314  0.00  0.00    -0.003 A 
ATOM      6  C6  DEN d   1       0.629   0.447   1.157  0.00  0.00     0.001 A 
ATOM      7  C7  DEN d   1       1.934   0.103   0.924  0.00  0.00     0.017 A 
ATOM      8  C8  DEN d   1       2.213  -0.743  -0.142  0.00  0.00    -0.094 A 
ATOM      9  C9  DEN d   1       1.208  -1.177  -0.990  0.00  0.00    -0.072 A 
ENDROOT
TORSDOF 0
ENDMDL
