MODEL 1
REMARK minimizedAffinity -0.899949551
REMARK minimizedRMSD -1
REMARK  0 active torsions:
REMARK  status: ('A' for Active; 'I' for Inactive)
ROOT
ATOM      1  C   UNL d   1       2.296   2.875   2.992  0.00  0.00     0.078 C 
ATOM      2  C1  UNL d   1       1.704   3.335   1.694  0.00  0.00    -0.077 A 
ATOM      3  C2  UNL d   1       0.404   2.968   1.324  0.00  0.00    -0.001 A 
ATOM      4  C3  UNL d   1      -0.132   3.396   0.108  0.00  0.00     0.003 A 
ATOM      5  C4  UNL d   1       0.627   4.191  -0.749  0.00  0.00    -0.005 A 
ATOM      6  C5  UNL d   1       1.922   4.559  -0.391  0.00  0.00     0.003 A 
ATOM      7  C6  UNL d   1       2.459   4.133   0.825  0.00  0.00    -0.001 A 
ENDROOT
TORSDOF 0
ENDMDL
