MODEL 1
REMARK minimizedAffinity 9.72131634
REMARK minimizedRMSD -1
REMARK  0 active torsions:
REMARK  status: ('A' for Active; 'I' for Inactive)
ROOT
ATOM      1  C   UNL d   1       4.504  -5.611  -4.845  0.00  0.00     0.078 C 
ATOM      2  C1  UNL d   1       4.561  -5.124  -3.428  0.00  0.00    -0.077 A 
ATOM      3  C2  UNL d   1       4.859  -5.999  -2.376  0.00  0.00    -0.001 A 
ATOM      4  C3  UNL d   1       4.899  -5.534  -1.061  0.00  0.00     0.003 A 
ATOM      5  C4  UNL d   1       4.640  -4.193  -0.785  0.00  0.00    -0.005 A 
ATOM      6  C5  UNL d   1       4.340  -3.315  -1.825  0.00  0.00     0.003 A 
ATOM      7  C6  UNL d   1       4.300  -3.778  -3.141  0.00  0.00    -0.001 A 
ENDROOT
TORSDOF 0
ENDMDL
