MODEL 1
REMARK minimizedAffinity 5.92961359
REMARK minimizedRMSD -1
REMARK  0 active torsions:
REMARK  status: ('A' for Active; 'I' for Inactive)
ROOT
ATOM      1  C   UNL d   1       0.069   2.602   1.761  0.00  0.00     0.078 C 
ATOM      2  C1  UNL d   1       0.057   3.176   0.376  0.00  0.00    -0.077 A 
ATOM      3  C2  UNL d   1      -0.620   2.531  -0.666  0.00  0.00    -0.001 A 
ATOM      4  C3  UNL d   1      -0.615   3.072  -1.953  0.00  0.00     0.003 A 
ATOM      5  C4  UNL d   1       0.067   4.260  -2.210  0.00  0.00    -0.005 A 
ATOM      6  C5  UNL d   1       0.745   4.908  -1.180  0.00  0.00     0.003 A 
ATOM      7  C6  UNL d   1       0.741   4.368   0.108  0.00  0.00    -0.001 A 
ENDROOT
TORSDOF 0
ENDMDL
