MODEL 1
REMARK minimizedAffinity 1.88423574
REMARK minimizedRMSD -1
REMARK  0 active torsions:
REMARK  status: ('A' for Active; 'I' for Inactive)
ROOT
ATOM      1  C   UNL d   1      -1.017  -3.747  -2.129  0.00  0.00     0.078 C 
ATOM      2  C1  UNL d   1      -0.034  -2.957  -1.318  0.00  0.00    -0.077 A 
ATOM      3  C2  UNL d   1       1.033  -3.587  -0.665  0.00  0.00    -0.001 A 
ATOM      4  C3  UNL d   1       1.935  -2.841   0.095  0.00  0.00     0.003 A 
ATOM      5  C4  UNL d   1       1.780  -1.461   0.210  0.00  0.00    -0.005 A 
ATOM      6  C5  UNL d   1       0.720  -0.826  -0.434  0.00  0.00     0.003 A 
ATOM      7  C6  UNL d   1      -0.183  -1.570  -1.194  0.00  0.00    -0.001 A 
ENDROOT
TORSDOF 0
ENDMDL
