MODEL 1
REMARK minimizedAffinity 16.9254379
REMARK minimizedRMSD -1
REMARK  0 active torsions:
REMARK  status: ('A' for Active; 'I' for Inactive)
ROOT
ATOM      1  C   UNL d   1       4.140  -5.238  -4.538  0.00  0.00     0.078 C 
ATOM      2  C1  UNL d   1       4.500  -5.044  -3.095  0.00  0.00    -0.077 A 
ATOM      3  C2  UNL d   1       4.149  -5.997  -2.130  0.00  0.00    -0.001 A 
ATOM      4  C3  UNL d   1       4.481  -5.799  -0.789  0.00  0.00     0.003 A 
ATOM      5  C4  UNL d   1       5.165  -4.648  -0.400  0.00  0.00    -0.005 A 
ATOM      6  C5  UNL d   1       5.516  -3.694  -1.353  0.00  0.00     0.003 A 
ATOM      7  C6  UNL d   1       5.184  -3.890  -2.694  0.00  0.00    -0.001 A 
ENDROOT
TORSDOF 0
ENDMDL
