MODEL 1
REMARK minimizedAffinity 9.90563393
REMARK minimizedRMSD -1
REMARK  0 active torsions:
REMARK  status: ('A' for Active; 'I' for Inactive)
ROOT
ATOM      1  C   UNL d   1       0.176   2.289   0.081  0.00  0.00     0.078 C 
ATOM      2  C1  UNL d   1      -0.190   3.586  -0.577  0.00  0.00    -0.077 A 
ATOM      3  C2  UNL d   1       0.357   4.797  -0.136  0.00  0.00    -0.001 A 
ATOM      4  C3  UNL d   1       0.001   5.998  -0.751  0.00  0.00     0.003 A 
ATOM      5  C4  UNL d   1      -0.906   6.000  -1.810  0.00  0.00    -0.005 A 
ATOM      6  C5  UNL d   1      -1.457   4.800  -2.254  0.00  0.00     0.003 A 
ATOM      7  C6  UNL d   1      -1.102   3.598  -1.640  0.00  0.00    -0.001 A 
ENDROOT
TORSDOF 0
ENDMDL
