MODEL 1
REMARK minimizedAffinity 4.5114584
REMARK minimizedRMSD -1
REMARK  0 active torsions:
REMARK  status: ('A' for Active; 'I' for Inactive)
ROOT
ATOM      1  C   UNL d   1       1.340  -6.000  -1.145  0.00  0.00     0.078 C 
ATOM      2  C1  UNL d   1       0.329  -5.356  -2.046  0.00  0.00    -0.077 A 
ATOM      3  C2  UNL d   1      -0.250  -4.125  -1.717  0.00  0.00    -0.001 A 
ATOM      4  C3  UNL d   1      -1.197  -3.542  -2.561  0.00  0.00     0.003 A 
ATOM      5  C4  UNL d   1      -1.575  -4.185  -3.738  0.00  0.00    -0.005 A 
ATOM      6  C5  UNL d   1      -1.006  -5.412  -4.072  0.00  0.00     0.003 A 
ATOM      7  C6  UNL d   1      -0.058  -5.996  -3.230  0.00  0.00    -0.001 A 
ENDROOT
TORSDOF 0
ENDMDL
