MODEL 1
REMARK minimizedAffinity 4.64778948
REMARK minimizedRMSD -1
REMARK  0 active torsions:
REMARK  status: ('A' for Active; 'I' for Inactive)
ROOT
ATOM      1  C   UNL d   1      -4.144   0.742   2.757  0.00  0.00     0.078 C 
ATOM      2  C1  UNL d   1      -4.799   0.006   3.888  0.00  0.00    -0.077 A 
ATOM      3  C2  UNL d   1      -5.396   0.697   4.949  0.00  0.00    -0.001 A 
ATOM      4  C3  UNL d   1      -5.994  -0.001   5.999  0.00  0.00     0.003 A 
ATOM      5  C4  UNL d   1      -5.999  -1.395   6.000  0.00  0.00    -0.005 A 
ATOM      6  C5  UNL d   1      -5.405  -2.091   4.949  0.00  0.00     0.003 A 
ATOM      7  C6  UNL d   1      -4.807  -1.395   3.898  0.00  0.00    -0.001 A 
ENDROOT
TORSDOF 0
ENDMDL
