MODEL 1
REMARK minimizedAffinity 10.2056446
REMARK minimizedRMSD -1
REMARK  0 active torsions:
REMARK  status: ('A' for Active; 'I' for Inactive)
ROOT
ATOM      1  O1  BZF d   1      -4.674  -1.345   1.275  0.00  0.00    -0.204 OA
ATOM      2  C2  BZF d   1      -3.574  -2.145   1.515  0.00  0.00     0.174 A 
ATOM      3  C3  BZF d   1      -2.500  -1.397   1.838  0.00  0.00    -0.012 A 
ATOM      4  C3A BZF d   1      -2.980  -0.050   1.888  0.00  0.00    -0.107 A 
ATOM      5  C4  BZF d   1      -2.389   1.148   2.172  0.00  0.00     0.055 A 
ATOM      6  C5  BZF d   1      -3.120   2.288   2.061  0.00  0.00    -0.016 A 
ATOM      7  C6  BZF d   1      -4.441   2.268   1.664  0.00  0.00     0.022 A 
ATOM      8  C7  BZF d   1      -5.072   1.103   1.376  0.00  0.00     0.029 A 
ATOM      9  C7A BZF d   1      -4.345  -0.053   1.519  0.00  0.00     0.058 A 
ENDROOT
TORSDOF 0
ENDMDL
