MODEL 1
REMARK minimizedAffinity 6.26595783
REMARK minimizedRMSD -1
REMARK  0 active torsions:
REMARK  status: ('A' for Active; 'I' for Inactive)
ROOT
ATOM      1  O1  BZF d   1      -2.839   2.496  -3.750  0.00  0.00    -0.204 OA
ATOM      2  C2  BZF d   1      -3.955   3.041  -3.144  0.00  0.00     0.174 A 
ATOM      3  C3  BZF d   1      -3.623   4.124  -2.414  0.00  0.00    -0.012 A 
ATOM      4  C3A BZF d   1      -2.225   4.321  -2.647  0.00  0.00    -0.107 A 
ATOM      5  C4  BZF d   1      -1.321   5.247  -2.211  0.00  0.00     0.055 A 
ATOM      6  C5  BZF d   1      -0.016   5.115  -2.567  0.00  0.00    -0.016 A 
ATOM      7  C6  BZF d   1       0.420   4.067  -3.351  0.00  0.00     0.022 A 
ATOM      8  C7  BZF d   1      -0.440   3.127  -3.811  0.00  0.00     0.029 A 
ATOM      9  C7A BZF d   1      -1.765   3.276  -3.481  0.00  0.00     0.058 A 
ENDROOT
TORSDOF 0
ENDMDL
