MODEL 1
REMARK minimizedAffinity 9.73743248
REMARK minimizedRMSD -1
REMARK  0 active torsions:
REMARK  status: ('A' for Active; 'I' for Inactive)
ROOT
ATOM      1  O1  BZF d   1      -2.362   1.504   1.895  0.00  0.00    -0.204 OA
ATOM      2  C2  BZF d   1      -2.619   0.727   3.008  0.00  0.00     0.174 A 
ATOM      3  C3  BZF d   1      -3.895   0.882   3.415  0.00  0.00    -0.012 A 
ATOM      4  C3A BZF d   1      -4.498   1.744   2.445  0.00  0.00    -0.107 A 
ATOM      5  C4  BZF d   1      -5.756   2.252   2.294  0.00  0.00     0.055 A 
ATOM      6  C5  BZF d   1      -5.999   3.123   1.279  0.00  0.00    -0.016 A 
ATOM      7  C6  BZF d   1      -5.008   3.509   0.401  0.00  0.00     0.022 A 
ATOM      8  C7  BZF d   1      -3.746   3.027   0.507  0.00  0.00     0.029 A 
ATOM      9  C7A BZF d   1      -3.505   2.122   1.512  0.00  0.00     0.058 A 
ENDROOT
TORSDOF 0
ENDMDL
