MODEL 1
REMARK minimizedAffinity 5.35289812
REMARK minimizedRMSD -1
REMARK  0 active torsions:
REMARK  status: ('A' for Active; 'I' for Inactive)
ROOT
ATOM      1  O1  BZF d   1       3.951  -2.692  -1.416  0.00  0.00    -0.204 OA
ATOM      2  C2  BZF d   1       2.761  -2.500  -0.740  0.00  0.00     0.174 A 
ATOM      3  C3  BZF d   1       2.457  -1.188  -0.671  0.00  0.00    -0.012 A 
ATOM      4  C3A BZF d   1       3.476  -0.525  -1.425  0.00  0.00    -0.107 A 
ATOM      5  C4  BZF d   1       3.713   0.784  -1.737  0.00  0.00     0.055 A 
ATOM      6  C5  BZF d   1       4.837   1.105  -2.430  0.00  0.00    -0.016 A 
ATOM      7  C6  BZF d   1       5.747   0.145  -2.822  0.00  0.00     0.022 A 
ATOM      8  C7  BZF d   1       5.553  -1.166  -2.541  0.00  0.00     0.029 A 
ATOM      9  C7A BZF d   1       4.402  -1.498  -1.869  0.00  0.00     0.058 A 
ENDROOT
TORSDOF 0
ENDMDL
