MODEL 1
REMARK minimizedAffinity 6.73784781
REMARK minimizedRMSD -1
REMARK  0 active torsions:
REMARK  status: ('A' for Active; 'I' for Inactive)
ROOT
ATOM      1  O1  BZF d   1      -2.658   2.461  -4.036  0.00  0.00    -0.204 OA
ATOM      2  C2  BZF d   1      -2.090   1.315  -4.559  0.00  0.00     0.174 A 
ATOM      3  C3  BZF d   1      -0.746   1.420  -4.593  0.00  0.00    -0.012 A 
ATOM      4  C3A BZF d   1      -0.450   2.675  -3.973  0.00  0.00    -0.107 A 
ATOM      5  C4  BZF d   1       0.713   3.335  -3.697  0.00  0.00     0.055 A 
ATOM      6  C5  BZF d   1       0.653   4.578  -3.149  0.00  0.00    -0.016 A 
ATOM      7  C6  BZF d   1      -0.550   5.191  -2.871  0.00  0.00     0.022 A 
ATOM      8  C7  BZF d   1      -1.730   4.574  -3.123  0.00  0.00     0.029 A 
ATOM      9  C7A BZF d   1      -1.673   3.305  -3.645  0.00  0.00     0.058 A 
ENDROOT
TORSDOF 0
ENDMDL
