MODEL 1
REMARK minimizedAffinity -1.59774995
REMARK minimizedRMSD -1
REMARK  0 active torsions:
REMARK  status: ('A' for Active; 'I' for Inactive)
ROOT
ATOM      1  O1  BZF d   1      -2.711   2.428   1.716  0.00  0.00    -0.204 OA
ATOM      2  C2  BZF d   1      -3.739   1.721   1.124  0.00  0.00     0.174 A 
ATOM      3  C3  BZF d   1      -4.439   2.508   0.281  0.00  0.00    -0.012 A 
ATOM      4  C3A BZF d   1      -3.751   3.763   0.280  0.00  0.00    -0.107 A 
ATOM      5  C4  BZF d   1      -3.955   4.944  -0.373  0.00  0.00     0.055 A 
ATOM      6  C5  BZF d   1      -3.145   6.000  -0.097  0.00  0.00    -0.016 A 
ATOM      7  C6  BZF d   1      -2.127   5.911   0.830  0.00  0.00     0.022 A 
ATOM      8  C7  BZF d   1      -1.884   4.759   1.500  0.00  0.00     0.029 A 
ATOM      9  C7A BZF d   1      -2.679   3.680   1.199  0.00  0.00     0.058 A 
ENDROOT
TORSDOF 0
ENDMDL
