MODEL 1
REMARK minimizedAffinity 7.44461298
REMARK minimizedRMSD -1
REMARK  0 active torsions:
REMARK  status: ('A' for Active; 'I' for Inactive)
ROOT
ATOM      1  O1  BZF d   1      -1.812   4.258  -2.659  0.00  0.00    -0.204 OA
ATOM      2  C2  BZF d   1      -1.002   5.146  -3.341  0.00  0.00     0.174 A 
ATOM      3  C3  BZF d   1      -0.403   5.999  -2.486  0.00  0.00    -0.012 A 
ATOM      4  C3A BZF d   1      -0.795   5.562  -1.181  0.00  0.00    -0.107 A 
ATOM      5  C4  BZF d   1      -0.510   6.000   0.081  0.00  0.00     0.055 A 
ATOM      6  C5  BZF d   1      -1.113   5.399   1.140  0.00  0.00    -0.016 A 
ATOM      7  C6  BZF d   1      -2.009   4.364   0.975  0.00  0.00     0.022 A 
ATOM      8  C7  BZF d   1      -2.320   3.892  -0.257  0.00  0.00     0.029 A 
ATOM      9  C7A BZF d   1      -1.687   4.475  -1.328  0.00  0.00     0.058 A 
ENDROOT
TORSDOF 0
ENDMDL
