MODEL 1
REMARK minimizedAffinity 3.62154078
REMARK minimizedRMSD -1
REMARK  0 active torsions:
REMARK  status: ('A' for Active; 'I' for Inactive)
ROOT
ATOM      1  O1  BZF d   1      -0.392   5.241  -1.800  0.00  0.00    -0.204 OA
ATOM      2  C2  BZF d   1      -1.404   5.334  -2.735  0.00  0.00     0.174 A 
ATOM      3  C3  BZF d   1      -2.589   5.572  -2.136  0.00  0.00    -0.012 A 
ATOM      4  C3A BZF d   1      -2.284   5.723  -0.746  0.00  0.00    -0.107 A 
ATOM      5  C4  BZF d   1      -3.042   5.990   0.358  0.00  0.00     0.055 A 
ATOM      6  C5  BZF d   1      -2.449   6.000   1.580  0.00  0.00    -0.016 A 
ATOM      7  C6  BZF d   1      -1.103   5.742   1.736  0.00  0.00     0.022 A 
ATOM      8  C7  BZF d   1      -0.309   5.477   0.670  0.00  0.00     0.029 A 
ATOM      9  C7A BZF d   1      -0.899   5.499  -0.570  0.00  0.00     0.058 A 
ENDROOT
TORSDOF 0
ENDMDL
