MODEL 1
REMARK minimizedAffinity 8.80710602
REMARK minimizedRMSD -1
REMARK  0 active torsions:
REMARK  status: ('A' for Active; 'I' for Inactive)
ROOT
ATOM      1  O1  BZF d   1      -2.779   5.080  -1.234  0.00  0.00    -0.204 OA
ATOM      2  C2  BZF d   1      -2.056   6.000  -0.500  0.00  0.00     0.174 A 
ATOM      3  C3  BZF d   1      -0.745   5.932  -0.805  0.00  0.00    -0.012 A 
ATOM      4  C3A BZF d   1      -0.653   4.969  -1.859  0.00  0.00    -0.107 A 
ATOM      5  C4  BZF d   1       0.388   4.478  -2.594  0.00  0.00     0.055 A 
ATOM      6  C5  BZF d   1       0.151   3.491  -3.498  0.00  0.00    -0.016 A 
ATOM      7  C6  BZF d   1      -1.112   2.969  -3.688  0.00  0.00     0.022 A 
ATOM      8  C7  BZF d   1      -2.177   3.428  -2.986  0.00  0.00     0.029 A 
ATOM      9  C7A BZF d   1      -1.946   4.448  -2.096  0.00  0.00     0.058 A 
ENDROOT
TORSDOF 0
ENDMDL
