MODEL 1
REMARK minimizedAffinity 9.80375767
REMARK minimizedRMSD -1
REMARK  0 active torsions:
REMARK  status: ('A' for Active; 'I' for Inactive)
ROOT
ATOM      1  O1  BZF d   1      -3.177  -2.292   0.246  0.00  0.00    -0.204 OA
ATOM      2  C2  BZF d   1      -3.729  -1.535   1.262  0.00  0.00     0.174 A 
ATOM      3  C3  BZF d   1      -4.394  -2.318   2.135  0.00  0.00    -0.012 A 
ATOM      4  C3A BZF d   1      -4.171  -3.658   1.685  0.00  0.00    -0.107 A 
ATOM      5  C4  BZF d   1      -4.561  -4.881   2.149  0.00  0.00     0.055 A 
ATOM      6  C5  BZF d   1      -4.236  -5.992   1.437  0.00  0.00    -0.016 A 
ATOM      7  C6  BZF d   1      -3.527  -5.916   0.256  0.00  0.00     0.022 A 
ATOM      8  C7  BZF d   1      -3.113  -4.725  -0.241  0.00  0.00     0.029 A 
ATOM      9  C7A BZF d   1      -3.412  -3.603   0.493  0.00  0.00     0.058 A 
ENDROOT
TORSDOF 0
ENDMDL
