MODEL 1
REMARK minimizedAffinity 5.70204353
REMARK minimizedRMSD -1
REMARK  0 active torsions:
REMARK  status: ('A' for Active; 'I' for Inactive)
ROOT
ATOM      1  O1  BZF d   1      -3.085   4.915  -2.436  0.00  0.00    -0.204 OA
ATOM      2  C2  BZF d   1      -2.415   6.000  -1.903  0.00  0.00     0.174 A 
ATOM      3  C3  BZF d   1      -1.088   5.895  -2.117  0.00  0.00    -0.012 A 
ATOM      4  C3A BZF d   1      -0.926   4.713  -2.907  0.00  0.00    -0.107 A 
ATOM      5  C4  BZF d   1       0.160   4.089  -3.452  0.00  0.00     0.055 A 
ATOM      6  C5  BZF d   1      -0.015   2.912  -4.108  0.00  0.00    -0.016 A 
ATOM      7  C6  BZF d   1      -1.259   2.329  -4.234  0.00  0.00     0.022 A 
ATOM      8  C7  BZF d   1      -2.366   2.913  -3.715  0.00  0.00     0.029 A 
ATOM      9  C7A BZF d   1      -2.197   4.119  -3.080  0.00  0.00     0.058 A 
ENDROOT
TORSDOF 0
ENDMDL
