MODEL 1
REMARK minimizedAffinity 10.9427376
REMARK minimizedRMSD -1
REMARK  0 active torsions:
REMARK  status: ('A' for Active; 'I' for Inactive)
ROOT
ATOM      1  O1  BZF d   1      -0.484   4.465  -3.001  0.00  0.00    -0.204 OA
ATOM      2  C2  BZF d   1      -0.265   3.105  -3.093  0.00  0.00     0.174 A 
ATOM      3  C3  BZF d   1      -0.314   2.529  -1.874  0.00  0.00    -0.012 A 
ATOM      4  C3A BZF d   1      -0.672   3.582  -0.974  0.00  0.00    -0.107 A 
ATOM      5  C4  BZF d   1      -0.891   3.632   0.373  0.00  0.00     0.055 A 
ATOM      6  C5  BZF d   1      -1.153   4.832   0.955  0.00  0.00    -0.016 A 
ATOM      7  C6  BZF d   1      -1.199   6.000   0.223  0.00  0.00     0.022 A 
ATOM      8  C7  BZF d   1      -0.993   6.000  -1.117  0.00  0.00     0.029 A 
ATOM      9  C7A BZF d   1      -0.760   4.784  -1.713  0.00  0.00     0.058 A 
ENDROOT
TORSDOF 0
ENDMDL
