MODEL 1
REMARK minimizedAffinity 10.2484083
REMARK minimizedRMSD -1
REMARK  0 active torsions:
REMARK  status: ('A' for Active; 'I' for Inactive)
ROOT
ATOM      1  O1  BZF d   1       4.980  -2.166  -2.567  0.00  0.00    -0.204 OA
ATOM      2  C2  BZF d   1       6.000  -1.461  -3.176  0.00  0.00     0.174 A 
ATOM      3  C3  BZF d   1       5.884  -0.141  -2.926  0.00  0.00    -0.012 A 
ATOM      4  C3A BZF d   1       4.772  -0.023  -2.033  0.00  0.00    -0.107 A 
ATOM      5  C4  BZF d   1       4.173   1.037  -1.414  0.00  0.00     0.055 A 
ATOM      6  C5  BZF d   1       3.061   0.821  -0.664  0.00  0.00    -0.016 A 
ATOM      7  C6  BZF d   1       2.518  -0.439  -0.515  0.00  0.00     0.022 A 
ATOM      8  C7  BZF d   1       3.080  -1.522  -1.106  0.00  0.00     0.029 A 
ATOM      9  C7A BZF d   1       4.223  -1.312  -1.838  0.00  0.00     0.058 A 
ENDROOT
TORSDOF 0
ENDMDL
