MODEL 1
REMARK minimizedAffinity 3.40993667
REMARK minimizedRMSD -1
REMARK  0 active torsions:
REMARK  status: ('A' for Active; 'I' for Inactive)
ROOT
ATOM      1  O1  BZF d   1       3.848  -2.359  -0.985  0.00  0.00    -0.204 OA
ATOM      2  C2  BZF d   1       2.668  -2.222  -0.281  0.00  0.00     0.174 A 
ATOM      3  C3  BZF d   1       2.230  -0.947  -0.324  0.00  0.00    -0.012 A 
ATOM      4  C3A BZF d   1       3.148  -0.263  -1.181  0.00  0.00    -0.107 A 
ATOM      5  C4  BZF d   1       3.235   1.025  -1.627  0.00  0.00     0.055 A 
ATOM      6  C5  BZF d   1       4.296   1.388  -2.396  0.00  0.00    -0.016 A 
ATOM      7  C6  BZF d   1       5.288   0.491  -2.733  0.00  0.00     0.022 A 
ATOM      8  C7  BZF d   1       5.243  -0.799  -2.319  0.00  0.00     0.029 A 
ATOM      9  C7A BZF d   1       4.155  -1.177  -1.570  0.00  0.00     0.058 A 
ENDROOT
TORSDOF 0
ENDMDL
