MODEL 1
REMARK minimizedAffinity 8.89670372
REMARK minimizedRMSD -1
REMARK  0 active torsions:
REMARK  status: ('A' for Active; 'I' for Inactive)
ROOT
ATOM      1  O1  BZF d   1       0.883   4.427  -2.352  0.00  0.00    -0.204 OA
ATOM      2  C2  BZF d   1      -0.033   4.848  -1.407  0.00  0.00     0.174 A 
ATOM      3  C3  BZF d   1      -1.150   4.093  -1.453  0.00  0.00    -0.012 A 
ATOM      4  C3A BZF d   1      -0.880   3.082  -2.429  0.00  0.00    -0.107 A 
ATOM      5  C4  BZF d   1      -1.599   2.025  -2.910  0.00  0.00     0.055 A 
ATOM      6  C5  BZF d   1      -1.077   1.273  -3.914  0.00  0.00    -0.016 A 
ATOM      7  C6  BZF d   1       0.157   1.551  -4.463  0.00  0.00     0.022 A 
ATOM      8  C7  BZF d   1       0.910   2.586  -4.016  0.00  0.00     0.029 A 
ATOM      9  C7A BZF d   1       0.399   3.328  -2.979  0.00  0.00     0.058 A 
ENDROOT
TORSDOF 0
ENDMDL
