MODEL 1
REMARK minimizedAffinity 18.0693855
REMARK minimizedRMSD -1
REMARK  0 active torsions:
REMARK  status: ('A' for Active; 'I' for Inactive)
ROOT
ATOM      1  O1  BZF d   1       0.071   4.715  -2.963  0.00  0.00    -0.204 OA
ATOM      2  C2  BZF d   1      -1.126   4.966  -2.321  0.00  0.00     0.174 A 
ATOM      3  C3  BZF d   1      -1.915   3.872  -2.336  0.00  0.00    -0.012 A 
ATOM      4  C3A BZF d   1      -1.127   2.848  -2.950  0.00  0.00    -0.107 A 
ATOM      5  C4  BZF d   1      -1.354   1.532  -3.235  0.00  0.00     0.055 A 
ATOM      6  C5  BZF d   1      -0.405   0.827  -3.905  0.00  0.00    -0.016 A 
ATOM      7  C6  BZF d   1       0.779   1.408  -4.309  0.00  0.00     0.022 A 
ATOM      8  C7  BZF d   1       1.052   2.708  -4.045  0.00  0.00     0.029 A 
ATOM      9  C7A BZF d   1       0.109   3.414  -3.339  0.00  0.00     0.058 A 
ENDROOT
TORSDOF 0
ENDMDL
