MODEL 1
REMARK minimizedAffinity 4.45764208
REMARK minimizedRMSD -1
REMARK  0 active torsions:
REMARK  status: ('A' for Active; 'I' for Inactive)
ROOT
ATOM      1  O1  BZF d   1       5.067  -1.726  -3.907  0.00  0.00    -0.204 OA
ATOM      2  C2  BZF d   1       5.990  -0.735  -3.634  0.00  0.00     0.174 A 
ATOM      3  C3  BZF d   1       5.696  -0.113  -2.475  0.00  0.00    -0.012 A 
ATOM      4  C3A BZF d   1       4.568  -0.817  -1.946  0.00  0.00    -0.107 A 
ATOM      5  C4  BZF d   1       3.826  -0.680  -0.807  0.00  0.00     0.055 A 
ATOM      6  C5  BZF d   1       2.744  -1.482  -0.624  0.00  0.00    -0.016 A 
ATOM      7  C6  BZF d   1       2.373  -2.426  -1.559  0.00  0.00     0.022 A 
ATOM      8  C7  BZF d   1       3.081  -2.602  -2.701  0.00  0.00     0.029 A 
ATOM      9  C7A BZF d   1       4.194  -1.815  -2.874  0.00  0.00     0.058 A 
ENDROOT
TORSDOF 0
ENDMDL
