MODEL 1
REMARK minimizedAffinity -0.93040967
REMARK minimizedRMSD -1
REMARK  1 active torsions:
REMARK  status: ('A' for Active; 'I' for Inactive)
REMARK    1  A    between atoms: C1_2  and  C2_3 
ROOT
ATOM      1  C2  UNL d   1       3.520  -3.231  -4.190  0.00  0.00    -0.073 A 
ATOM      2  C3  UNL d   1       3.593  -3.953  -5.387  0.00  0.00    -0.002 A 
ATOM      3  C4  UNL d   1       3.374  -5.331  -5.393  0.00  0.00     0.004 A 
ATOM      4  C5  UNL d   1       3.075  -6.000  -4.207  0.00  0.00    -0.004 A 
ATOM      5  C6  UNL d   1       2.987  -5.295  -3.002  0.00  0.00    -0.075 A 
ATOM      6  C7  UNL d   1       2.668  -6.000  -1.717  0.00  0.00     0.076 C 
ATOM      7  C8  UNL d   1       3.210  -3.911  -3.003  0.00  0.00     0.001 A 
ENDROOT
BRANCH   1   8
ATOM      8  C1  UNL d   1       3.749  -1.742  -4.179  0.00  0.00     0.053 C 
ATOM      9  C   UNL d   1       3.819  -1.165  -5.584  0.00  0.00     0.018 C 
ENDBRANCH   1   8
TORSDOF 1
ENDMDL
