MODEL 1
REMARK minimizedAffinity 3.35167575
REMARK minimizedRMSD -1
REMARK  1 active torsions:
REMARK  status: ('A' for Active; 'I' for Inactive)
REMARK    1  A    between atoms: C1_2  and  C2_3 
ROOT
ATOM      1  C2  UNL d   1       1.613   0.449   1.385  0.00  0.00    -0.073 A 
ATOM      2  C3  UNL d   1       2.338   0.281   2.570  0.00  0.00    -0.002 A 
ATOM      3  C4  UNL d   1       2.202  -0.889   3.319  0.00  0.00     0.004 A 
ATOM      4  C5  UNL d   1       1.347  -1.903   2.889  0.00  0.00    -0.004 A 
ATOM      5  C6  UNL d   1       0.623  -1.758   1.701  0.00  0.00    -0.075 A 
ATOM      6  C7  UNL d   1      -0.302  -2.839   1.225  0.00  0.00     0.076 C 
ATOM      7  C8  UNL d   1       0.763  -0.580   0.955  0.00  0.00     0.001 A 
ENDROOT
BRANCH   1   8
ATOM      8  C1  UNL d   1       1.762   1.707   0.569  0.00  0.00     0.053 C 
ATOM      9  C   UNL d   1       0.431   2.181   0.005  0.00  0.00     0.018 C 
ENDBRANCH   1   8
TORSDOF 1
ENDMDL
