MODEL 1
REMARK minimizedAffinity 10.4396067
REMARK minimizedRMSD -1
REMARK  1 active torsions:
REMARK  status: ('A' for Active; 'I' for Inactive)
REMARK    1  A    between atoms: C1_2  and  C2_3 
ROOT
ATOM      1  C2  UNL d   1      -3.431   0.973  -3.724  0.00  0.00    -0.073 A 
ATOM      2  C3  UNL d   1      -3.899   1.699  -4.825  0.00  0.00    -0.002 A 
ATOM      3  C4  UNL d   1      -4.745   2.793  -4.639  0.00  0.00     0.004 A 
ATOM      4  C5  UNL d   1      -5.126   3.176  -3.353  0.00  0.00    -0.004 A 
ATOM      5  C6  UNL d   1      -4.660   2.469  -2.240  0.00  0.00    -0.075 A 
ATOM      6  C7  UNL d   1      -5.062   2.866  -0.850  0.00  0.00     0.076 C 
ATOM      7  C8  UNL d   1      -3.812   1.370  -2.435  0.00  0.00     0.001 A 
ENDROOT
BRANCH   1   8
ATOM      8  C1  UNL d   1      -2.512  -0.205  -3.920  0.00  0.00     0.053 C 
ATOM      9  C   UNL d   1      -2.936  -1.404  -3.086  0.00  0.00     0.018 C 
ENDBRANCH   1   8
TORSDOF 1
ENDMDL
