MODEL 1
REMARK minimizedAffinity 7.01869631
REMARK minimizedRMSD -1
REMARK  1 active torsions:
REMARK  status: ('A' for Active; 'I' for Inactive)
REMARK    1  A    between atoms: C1_2  and  C2_3 
ROOT
ATOM      1  C2  UNL d   1       3.592  -1.661  -5.806  0.00  0.00    -0.073 A 
ATOM      2  C3  UNL d   1       4.870  -2.228  -5.884  0.00  0.00    -0.002 A 
ATOM      3  C4  UNL d   1       5.998  -1.412  -5.983  0.00  0.00     0.004 A 
ATOM      4  C5  UNL d   1       5.861  -0.024  -5.998  0.00  0.00    -0.004 A 
ATOM      5  C6  UNL d   1       4.594   0.561  -5.909  0.00  0.00    -0.075 A 
ATOM      6  C7  UNL d   1       4.431   2.053  -5.927  0.00  0.00     0.076 C 
ATOM      7  C8  UNL d   1       3.466  -0.264  -5.813  0.00  0.00     0.001 A 
ENDROOT
BRANCH   1   8
ATOM      8  C1  UNL d   1       2.372  -2.537  -5.692  0.00  0.00     0.053 C 
ATOM      9  C   UNL d   1       2.675  -3.848  -4.984  0.00  0.00     0.018 C 
ENDBRANCH   1   8
TORSDOF 1
ENDMDL
