MODEL 1
REMARK minimizedAffinity 4.05924845
REMARK minimizedRMSD -1
REMARK  1 active torsions:
REMARK  status: ('A' for Active; 'I' for Inactive)
REMARK    1  A    between atoms: C1_2  and  C2_3 
ROOT
ATOM      1  C2  UNL d   1       0.650  -0.341   0.402  0.00  0.00    -0.073 A 
ATOM      2  C3  UNL d   1       1.202   0.881   0.002  0.00  0.00    -0.002 A 
ATOM      3  C4  UNL d   1       2.084   1.564   0.841  0.00  0.00     0.004 A 
ATOM      4  C5  UNL d   1       2.427   1.030   2.084  0.00  0.00    -0.004 A 
ATOM      5  C6  UNL d   1       1.894  -0.196   2.496  0.00  0.00    -0.075 A 
ATOM      6  C7  UNL d   1       2.251  -0.783   3.830  0.00  0.00     0.076 C 
ATOM      7  C8  UNL d   1       1.008  -0.874   1.649  0.00  0.00     0.001 A 
ENDROOT
BRANCH   1   8
ATOM      8  C1  UNL d   1      -0.297  -1.086  -0.503  0.00  0.00     0.053 C 
ATOM      9  C   UNL d   1       0.307  -2.383  -1.018  0.00  0.00     0.018 C 
ENDBRANCH   1   8
TORSDOF 1
ENDMDL
