MODEL 1
REMARK minimizedAffinity -0.649262488
REMARK minimizedRMSD -1
REMARK  1 active torsions:
REMARK  status: ('A' for Active; 'I' for Inactive)
REMARK    1  A    between atoms: C1_2  and  C2_3 
ROOT
ATOM      1  C2  UNL d   1       2.437   0.022   2.799  0.00  0.00    -0.073 A 
ATOM      2  C3  UNL d   1       2.776   1.229   2.177  0.00  0.00    -0.002 A 
ATOM      3  C4  UNL d   1       2.014   1.712   1.112  0.00  0.00     0.004 A 
ATOM      4  C5  UNL d   1       0.903   0.998   0.664  0.00  0.00    -0.004 A 
ATOM      5  C6  UNL d   1       0.541  -0.204   1.280  0.00  0.00    -0.075 A 
ATOM      6  C7  UNL d   1      -0.650  -0.985   0.808  0.00  0.00     0.076 C 
ATOM      7  C8  UNL d   1       1.313  -0.684   2.347  0.00  0.00     0.001 A 
ENDROOT
BRANCH   1   8
ATOM      8  C1  UNL d   1       3.253  -0.500   3.954  0.00  0.00     0.053 C 
ATOM      9  C   UNL d   1       2.489  -1.529   4.772  0.00  0.00     0.018 C 
ENDBRANCH   1   8
TORSDOF 1
ENDMDL
