MODEL 1
REMARK minimizedAffinity 4.57460308
REMARK minimizedRMSD -1
REMARK  1 active torsions:
REMARK  status: ('A' for Active; 'I' for Inactive)
REMARK    1  A    between atoms: C1_2  and  C2_3 
ROOT
ATOM      1  C2  UNL d   1       0.115   3.541   0.633  0.00  0.00    -0.073 A 
ATOM      2  C3  UNL d   1      -0.447   2.608  -0.246  0.00  0.00    -0.002 A 
ATOM      3  C4  UNL d   1       0.122   1.342  -0.388  0.00  0.00     0.004 A 
ATOM      4  C5  UNL d   1       1.252   0.994   0.352  0.00  0.00    -0.004 A 
ATOM      5  C6  UNL d   1       1.821   1.908   1.244  0.00  0.00    -0.075 A 
ATOM      6  C7  UNL d   1       3.038   1.550   2.045  0.00  0.00     0.076 C 
ATOM      7  C8  UNL d   1       1.246   3.179   1.378  0.00  0.00     0.001 A 
ENDROOT
BRANCH   1   8
ATOM      8  C1  UNL d   1      -0.499   4.908   0.794  0.00  0.00     0.053 C 
ATOM      9  C   UNL d   1       0.323   5.987   0.108  0.00  0.00     0.018 C 
ENDBRANCH   1   8
TORSDOF 1
ENDMDL
