MODEL 1
REMARK minimizedAffinity -3.59498
REMARK minimizedRMSD -1
REMARK  0 active torsions:
REMARK  status: ('A' for Active; 'I' for Inactive)
ROOT
ATOM      1  C   UNL d   1       0.406   0.123  -0.965  0.00  0.00     0.172 C 
ATOM      2  N   UNL d   1       0.042  -0.079   0.417  0.00  0.00    -0.070 N 
ATOM      3  C1  UNL d   1      -1.122  -0.648   0.861  0.00  0.00    -0.004 A 
ATOM      4  C2  UNL d   1      -1.088  -0.659   2.239  0.00  0.00    -0.047 A 
ATOM      5  C3  UNL d   1       0.138  -0.076   2.637  0.00  0.00    -0.047 A 
ATOM      6  C4  UNL d   1       0.818   0.274   1.489  0.00  0.00    -0.004 A 
ENDROOT
TORSDOF 0
ENDMDL
