MODEL 1
REMARK minimizedAffinity -1.59064472
REMARK minimizedRMSD -1
REMARK  0 active torsions:
REMARK  status: ('A' for Active; 'I' for Inactive)
ROOT
ATOM      1  C   UNL d   1       0.322  -0.084  -1.652  0.00  0.00     0.172 C 
ATOM      2  N   UNL d   1      -0.074  -0.228  -0.271  0.00  0.00    -0.070 N 
ATOM      3  C1  UNL d   1      -1.274  -0.720   0.169  0.00  0.00    -0.004 A 
ATOM      4  C2  UNL d   1      -1.261  -0.695   1.547  0.00  0.00    -0.047 A 
ATOM      5  C3  UNL d   1      -0.011  -0.168   1.949  0.00  0.00    -0.047 A 
ATOM      6  C4  UNL d   1       0.704   0.113   0.804  0.00  0.00    -0.004 A 
ENDROOT
TORSDOF 0
ENDMDL
