MODEL 1
REMARK minimizedAffinity -3.72441483
REMARK minimizedRMSD -1
REMARK  0 active torsions:
REMARK  status: ('A' for Active; 'I' for Inactive)
ROOT
ATOM      1  C   UNL d   1       0.720  -0.009  -1.090  0.00  0.00     0.172 C 
ATOM      2  N   UNL d   1       0.237   0.012   0.270  0.00  0.00    -0.070 N 
ATOM      3  C1  UNL d   1       1.011  -0.100   1.394  0.00  0.00    -0.004 A 
ATOM      4  C2  UNL d   1       0.177  -0.033   2.490  0.00  0.00    -0.047 A 
ATOM      5  C3  UNL d   1      -1.144   0.123   2.007  0.00  0.00    -0.047 A 
ATOM      6  C4  UNL d   1      -1.078   0.148   0.630  0.00  0.00    -0.004 A 
ENDROOT
TORSDOF 0
ENDMDL
