MODEL 1
REMARK minimizedAffinity -3.82372332
REMARK minimizedRMSD -1
REMARK  0 active torsions:
REMARK  status: ('A' for Active; 'I' for Inactive)
ROOT
ATOM      1  C   UNL d   1      -0.883   0.570  -0.665  0.00  0.00     0.172 C 
ATOM      2  N   UNL d   1      -0.872   0.013   0.668  0.00  0.00    -0.070 N 
ATOM      3  C1  UNL d   1       0.130   0.164   1.588  0.00  0.00    -0.004 A 
ATOM      4  C2  UNL d   1      -0.239  -0.516   2.729  0.00  0.00    -0.047 A 
ATOM      5  C3  UNL d   1      -1.507  -1.095   2.486  0.00  0.00    -0.047 A 
ATOM      6  C4  UNL d   1      -1.876  -0.751   1.202  0.00  0.00    -0.004 A 
ENDROOT
TORSDOF 0
ENDMDL
