MODEL 1
REMARK minimizedAffinity -3.35239601
REMARK minimizedRMSD -1
REMARK  0 active torsions:
REMARK  status: ('A' for Active; 'I' for Inactive)
ROOT
ATOM      1  C   UNL d   1      -0.730  -0.955   2.884  0.00  0.00     0.172 C 
ATOM      2  N   UNL d   1      -0.229  -0.541   1.595  0.00  0.00    -0.070 N 
ATOM      3  C1  UNL d   1      -0.938  -0.543   0.423  0.00  0.00    -0.004 A 
ATOM      4  C2  UNL d   1      -0.108  -0.079  -0.574  0.00  0.00    -0.047 A 
ATOM      5  C3  UNL d   1       1.144   0.212   0.018  0.00  0.00    -0.047 A 
ATOM      6  C4  UNL d   1       1.041  -0.083   1.361  0.00  0.00    -0.004 A 
ENDROOT
TORSDOF 0
ENDMDL
