MODEL 1
REMARK minimizedAffinity -3.67596006
REMARK minimizedRMSD -1
REMARK  0 active torsions:
REMARK  status: ('A' for Active; 'I' for Inactive)
ROOT
ATOM      1  C   UNL d   1       0.099   0.000  -0.871  0.00  0.00     0.172 C 
ATOM      2  N   UNL d   1      -0.221  -0.162   0.528  0.00  0.00    -0.070 N 
ATOM      3  C1  UNL d   1      -1.401  -0.647   1.027  0.00  0.00    -0.004 A 
ATOM      4  C2  UNL d   1      -1.310  -0.645   2.402  0.00  0.00    -0.047 A 
ATOM      5  C3  UNL d   1      -0.032  -0.142   2.742  0.00  0.00    -0.047 A 
ATOM      6  C4  UNL d   1       0.621   0.149   1.563  0.00  0.00    -0.004 A 
ENDROOT
TORSDOF 0
ENDMDL
