MODEL 1
REMARK minimizedAffinity -3.39552522
REMARK minimizedRMSD -1
REMARK  0 active torsions:
REMARK  status: ('A' for Active; 'I' for Inactive)
ROOT
ATOM      1  C   UNL d   1       0.665   0.085  -1.636  0.00  0.00     0.172 C 
ATOM      2  N   UNL d   1       0.328  -0.092  -0.244  0.00  0.00    -0.070 N 
ATOM      3  C1  UNL d   1      -0.801  -0.703   0.233  0.00  0.00    -0.004 A 
ATOM      4  C2  UNL d   1      -0.750  -0.670   1.610  0.00  0.00    -0.047 A 
ATOM      5  C3  UNL d   1       0.451  -0.015   1.973  0.00  0.00    -0.047 A 
ATOM      6  C4  UNL d   1       1.099   0.332   0.807  0.00  0.00    -0.004 A 
ENDROOT
TORSDOF 0
ENDMDL
