MODEL 1
REMARK minimizedAffinity -3.17401576
REMARK minimizedRMSD -1
REMARK  0 active torsions:
REMARK  status: ('A' for Active; 'I' for Inactive)
ROOT
ATOM      1  C   UNL d   1       0.257  -0.121  -1.401  0.00  0.00     0.172 C 
ATOM      2  N   UNL d   1      -0.459  -0.201  -0.150  0.00  0.00    -0.070 N 
ATOM      3  C1  UNL d   1       0.061  -0.635   1.041  0.00  0.00    -0.004 A 
ATOM      4  C2  UNL d   1      -0.937  -0.560   1.989  0.00  0.00    -0.047 A 
ATOM      5  C3  UNL d   1      -2.096  -0.065   1.345  0.00  0.00    -0.047 A 
ATOM      6  C4  UNL d   1      -1.772   0.148   0.022  0.00  0.00    -0.004 A 
ENDROOT
TORSDOF 0
ENDMDL
