MODEL 1
REMARK minimizedAffinity -3.54871488
REMARK minimizedRMSD -1
REMARK  0 active torsions:
REMARK  status: ('A' for Active; 'I' for Inactive)
ROOT
ATOM      1  C   UNL d   1       0.140   0.192  -1.189  0.00  0.00     0.172 C 
ATOM      2  N   UNL d   1       0.192  -0.117   0.221  0.00  0.00    -0.070 N 
ATOM      3  C1  UNL d   1       1.198   0.237   1.080  0.00  0.00    -0.004 A 
ATOM      4  C2  UNL d   1       0.874  -0.242   2.331  0.00  0.00    -0.047 A 
ATOM      5  C3  UNL d   1      -0.370  -0.908   2.220  0.00  0.00    -0.047 A 
ATOM      6  C4  UNL d   1      -0.769  -0.816   0.903  0.00  0.00    -0.004 A 
ENDROOT
TORSDOF 0
ENDMDL
