MODEL 1
REMARK minimizedAffinity -4.11614323
REMARK minimizedRMSD -1
REMARK  0 active torsions:
REMARK  status: ('A' for Active; 'I' for Inactive)
ROOT
ATOM      1  C   UNL d   1       0.680   0.085   1.079  0.00  0.00     0.172 C 
ATOM      2  N   UNL d   1      -0.445  -0.021   1.979  0.00  0.00    -0.070 N 
ATOM      3  C1  UNL d   1      -0.389   0.086   3.343  0.00  0.00    -0.004 A 
ATOM      4  C2  UNL d   1      -1.668  -0.072   3.831  0.00  0.00    -0.047 A 
ATOM      5  C3  UNL d   1      -2.522  -0.283   2.722  0.00  0.00    -0.047 A 
ATOM      6  C4  UNL d   1      -1.739  -0.246   1.588  0.00  0.00    -0.004 A 
ENDROOT
TORSDOF 0
ENDMDL
