MODEL 1
REMARK minimizedAffinity -3.88764048
REMARK minimizedRMSD -1
REMARK  0 active torsions:
REMARK  status: ('A' for Active; 'I' for Inactive)
ROOT
ATOM      1  C   UNL d   1      -0.024  -0.065   0.236  0.00  0.00     0.172 C 
ATOM      2  N   UNL d   1      -1.016   0.062   1.277  0.00  0.00    -0.070 N 
ATOM      3  C1  UNL d   1      -2.364   0.207   1.082  0.00  0.00    -0.004 A 
ATOM      4  C2  UNL d   1      -2.963   0.293   2.320  0.00  0.00    -0.047 A 
ATOM      5  C3  UNL d   1      -1.940   0.199   3.293  0.00  0.00    -0.047 A 
ATOM      6  C4  UNL d   1      -0.745   0.057   2.620  0.00  0.00    -0.004 A 
ENDROOT
TORSDOF 0
ENDMDL
