MODEL 1
REMARK minimizedAffinity -3.97192335
REMARK minimizedRMSD -1
REMARK  0 active torsions:
REMARK  status: ('A' for Active; 'I' for Inactive)
ROOT
ATOM      1  C   UNL d   1      -0.415   0.742  -0.960  0.00  0.00     0.172 C 
ATOM      2  N   UNL d   1      -0.306   0.269   0.401  0.00  0.00    -0.070 N 
ATOM      3  C1  UNL d   1      -1.270  -0.420   1.086  0.00  0.00    -0.004 A 
ATOM      4  C2  UNL d   1      -0.782  -0.687   2.347  0.00  0.00    -0.047 A 
ATOM      5  C3  UNL d   1       0.520  -0.138   2.422  0.00  0.00    -0.047 A 
ATOM      6  C4  UNL d   1       0.789   0.448   1.204  0.00  0.00    -0.004 A 
ENDROOT
TORSDOF 0
ENDMDL
