MODEL 1
REMARK minimizedAffinity -3.17304587
REMARK minimizedRMSD -1
REMARK  0 active torsions:
REMARK  status: ('A' for Active; 'I' for Inactive)
ROOT
ATOM      1  C   UNL d   1       0.707   0.308  -2.202  0.00  0.00     0.172 C 
ATOM      2  N   UNL d   1      -0.205   0.228  -1.085  0.00  0.00    -0.070 N 
ATOM      3  C1  UNL d   1      -1.373   0.932  -0.956  0.00  0.00    -0.004 A 
ATOM      4  C2  UNL d   1      -1.950   0.575   0.243  0.00  0.00    -0.047 A 
ATOM      5  C3  UNL d   1      -1.100  -0.376   0.857  0.00  0.00    -0.047 A 
ATOM      6  C4  UNL d   1      -0.027  -0.572   0.013  0.00  0.00    -0.004 A 
ENDROOT
TORSDOF 0
ENDMDL
