MODEL 1
REMARK minimizedAffinity -2.1650269
REMARK minimizedRMSD -1
REMARK  0 active torsions:
REMARK  status: ('A' for Active; 'I' for Inactive)
ROOT
ATOM      1  C   UNL d   1      -0.155   0.371  -1.639  0.00  0.00     0.172 C 
ATOM      2  N   UNL d   1       0.620  -0.355  -2.618  0.00  0.00    -0.070 N 
ATOM      3  C1  UNL d   1       0.195  -1.453  -3.317  0.00  0.00    -0.004 A 
ATOM      4  C2  UNL d   1       1.221  -1.848  -4.147  0.00  0.00    -0.047 A 
ATOM      5  C3  UNL d   1       2.300  -0.957  -3.940  0.00  0.00    -0.047 A 
ATOM      6  C4  UNL d   1       1.901  -0.042  -2.989  0.00  0.00    -0.004 A 
ENDROOT
TORSDOF 0
ENDMDL
