MODEL 1
REMARK minimizedAffinity -2.42305899
REMARK minimizedRMSD -1
REMARK  0 active torsions:
REMARK  status: ('A' for Active; 'I' for Inactive)
ROOT
ATOM      1  C   UNL d   1      -2.498   0.047   0.249  0.00  0.00     0.172 C 
ATOM      2  N   UNL d   1      -1.057   0.119   0.312  0.00  0.00    -0.070 N 
ATOM      3  C1  UNL d   1      -0.226   0.421  -0.735  0.00  0.00    -0.004 A 
ATOM      4  C2  UNL d   1       1.070   0.387  -0.268  0.00  0.00    -0.047 A 
ATOM      5  C3  UNL d   1       1.017   0.053   1.107  0.00  0.00    -0.047 A 
ATOM      6  C4  UNL d   1      -0.312  -0.107   1.439  0.00  0.00    -0.004 A 
ENDROOT
TORSDOF 0
ENDMDL
