MODEL 1
REMARK minimizedAffinity 1.50737619
REMARK minimizedRMSD -1
REMARK  2 active torsions:
REMARK  status: ('A' for Active; 'I' for Inactive)
REMARK    1  A    between atoms: C1_2  and  C2_3 
REMARK    2  A    between atoms: C2_3  and  C3_4 
ROOT
ATOM      1  C3  UNL d   1       3.821   0.851  -3.684  0.00  0.00    -0.075 A 
ATOM      2  C4  UNL d   1       3.407   1.399  -4.908  0.00  0.00     0.002 A 
ATOM      3  C5  UNL d   1       4.277   1.436  -5.998  0.00  0.00     0.002 A 
ATOM      4  C6  UNL d   1       5.572   0.937  -5.876  0.00  0.00    -0.004 A 
ATOM      5  C7  UNL d   1       6.000   0.406  -4.661  0.00  0.00     0.002 A 
ATOM      6  C8  UNL d   1       5.130   0.364  -3.570  0.00  0.00     0.002 A 
ENDROOT
BRANCH   1   7
ATOM      7  C2  UNL d   1       2.875   0.781  -2.510  0.00  0.00     0.056 C 
BRANCH   7   8
ATOM      8  C1  UNL d   1       1.565   1.549  -2.718  0.00  0.00     0.007 C 
ATOM      9  C   UNL d   1       0.339   0.646  -2.747  0.00  0.00     0.009 C 
ENDBRANCH   7   8
ENDBRANCH   1   7
TORSDOF 2
ENDMDL
