MODEL 1
REMARK minimizedAffinity -0.478592455
REMARK minimizedRMSD -1
REMARK  2 active torsions:
REMARK  status: ('A' for Active; 'I' for Inactive)
REMARK    1  A    between atoms: C1_2  and  C2_3 
REMARK    2  A    between atoms: C2_3  and  C3_4 
ROOT
ATOM      1  C3  UNL d   1      -3.094   0.313   1.728  0.00  0.00    -0.075 A 
ATOM      2  C4  UNL d   1      -2.421   1.541   1.801  0.00  0.00     0.002 A 
ATOM      3  C5  UNL d   1      -2.298   2.350   0.671  0.00  0.00     0.002 A 
ATOM      4  C6  UNL d   1      -2.836   1.938  -0.546  0.00  0.00    -0.004 A 
ATOM      5  C7  UNL d   1      -3.493   0.713  -0.634  0.00  0.00     0.002 A 
ATOM      6  C8  UNL d   1      -3.621  -0.097   0.496  0.00  0.00     0.002 A 
ENDROOT
BRANCH   1   7
ATOM      7  C2  UNL d   1      -3.256  -0.554   2.954  0.00  0.00     0.056 C 
BRANCH   7   8
ATOM      8  C1  UNL d   1      -2.492  -0.047   4.181  0.00  0.00     0.007 C 
ATOM      9  C   UNL d   1      -3.326   0.862   5.074  0.00  0.00     0.009 C 
ENDBRANCH   7   8
ENDBRANCH   1   7
TORSDOF 2
ENDMDL
