MODEL 1
REMARK minimizedAffinity -2.07911468
REMARK minimizedRMSD -1
REMARK  2 active torsions:
REMARK  status: ('A' for Active; 'I' for Inactive)
REMARK    1  A    between atoms: C1_2  and  C2_3 
REMARK    2  A    between atoms: C2_3  and  C3_4 
ROOT
ATOM      1  C3  UNL d   1      -2.875   0.758   1.081  0.00  0.00    -0.075 A 
ATOM      2  C4  UNL d   1      -3.387   0.987   2.366  0.00  0.00     0.002 A 
ATOM      3  C5  UNL d   1      -3.302   0.000   3.349  0.00  0.00     0.002 A 
ATOM      4  C6  UNL d   1      -2.715  -1.229   3.056  0.00  0.00    -0.004 A 
ATOM      5  C7  UNL d   1      -2.219  -1.474   1.778  0.00  0.00     0.002 A 
ATOM      6  C8  UNL d   1      -2.298  -0.486   0.794  0.00  0.00     0.002 A 
ENDROOT
BRANCH   1   7
ATOM      7  C2  UNL d   1      -2.937   1.833   0.022  0.00  0.00     0.056 C 
BRANCH   7   8
ATOM      8  C1  UNL d   1      -2.811   3.258   0.571  0.00  0.00     0.007 C 
ATOM      9  C   UNL d   1      -3.703   4.260  -0.149  0.00  0.00     0.009 C 
ENDBRANCH   7   8
ENDBRANCH   1   7
TORSDOF 2
ENDMDL
