MODEL 1
REMARK minimizedAffinity -5.40105486
REMARK minimizedRMSD -1
REMARK  2 active torsions:
REMARK  status: ('A' for Active; 'I' for Inactive)
REMARK    1  A    between atoms: C1_2  and  C2_3 
REMARK    2  A    between atoms: C2_3  and  C3_4 
ROOT
ATOM      1  C3  UNL d   1       3.180  -0.090  -4.786  0.00  0.00    -0.075 A 
ATOM      2  C4  UNL d   1       4.036  -0.992  -4.137  0.00  0.00     0.002 A 
ATOM      3  C5  UNL d   1       5.418  -0.809  -4.177  0.00  0.00     0.002 A 
ATOM      4  C6  UNL d   1       5.962   0.267  -4.874  0.00  0.00    -0.004 A 
ATOM      5  C7  UNL d   1       5.122   1.159  -5.536  0.00  0.00     0.002 A 
ATOM      6  C8  UNL d   1       3.738   0.982  -5.494  0.00  0.00     0.002 A 
ENDROOT
BRANCH   1   7
ATOM      7  C2  UNL d   1       1.681  -0.265  -4.722  0.00  0.00     0.056 C 
BRANCH   7   8
ATOM      8  C1  UNL d   1       1.094  -0.100  -3.316  0.00  0.00     0.007 C 
ATOM      9  C   UNL d   1       1.064   1.348  -2.844  0.00  0.00     0.009 C 
ENDBRANCH   7   8
ENDBRANCH   1   7
TORSDOF 2
ENDMDL
