MODEL 1
REMARK minimizedAffinity 2.56850886
REMARK minimizedRMSD -1
REMARK  2 active torsions:
REMARK  status: ('A' for Active; 'I' for Inactive)
REMARK    1  A    between atoms: C1_2  and  C2_3 
REMARK    2  A    between atoms: C2_3  and  C3_4 
ROOT
ATOM      1  C3  UNL d   1      -3.622  -1.162   2.423  0.00  0.00    -0.075 A 
ATOM      2  C4  UNL d   1      -2.705  -1.296   1.371  0.00  0.00     0.002 A 
ATOM      3  C5  UNL d   1      -3.141  -1.289   0.045  0.00  0.00     0.002 A 
ATOM      4  C6  UNL d   1      -4.497  -1.159  -0.244  0.00  0.00    -0.004 A 
ATOM      5  C7  UNL d   1      -5.419  -1.042   0.794  0.00  0.00     0.002 A 
ATOM      6  C8  UNL d   1      -4.985  -1.044   2.120  0.00  0.00     0.002 A 
ENDROOT
BRANCH   1   7
ATOM      7  C2  UNL d   1      -3.154  -1.140   3.858  0.00  0.00     0.056 C 
BRANCH   7   8
ATOM      8  C1  UNL d   1      -1.941  -0.236   4.104  0.00  0.00     0.007 C 
ATOM      9  C   UNL d   1      -1.989   1.063   3.312  0.00  0.00     0.009 C 
ENDBRANCH   7   8
ENDBRANCH   1   7
TORSDOF 2
ENDMDL
