MODEL 1
REMARK minimizedAffinity -3.4177618
REMARK minimizedRMSD -1
REMARK  2 active torsions:
REMARK  status: ('A' for Active; 'I' for Inactive)
REMARK    1  A    between atoms: C1_2  and  C2_3 
REMARK    2  A    between atoms: C2_3  and  C3_4 
ROOT
ATOM      1  C3  UNL d   1      -2.400   0.581   0.991  0.00  0.00    -0.075 A 
ATOM      2  C4  UNL d   1      -3.059  -0.655   1.061  0.00  0.00     0.002 A 
ATOM      3  C5  UNL d   1      -3.570  -1.117   2.274  0.00  0.00     0.002 A 
ATOM      4  C6  UNL d   1      -3.420  -0.357   3.432  0.00  0.00    -0.004 A 
ATOM      5  C7  UNL d   1      -2.753   0.865   3.377  0.00  0.00     0.002 A 
ATOM      6  C8  UNL d   1      -2.244   1.332   2.164  0.00  0.00     0.002 A 
ENDROOT
BRANCH   1   7
ATOM      7  C2  UNL d   1      -1.871   1.101  -0.324  0.00  0.00     0.056 C 
BRANCH   7   8
ATOM      8  C1  UNL d   1      -0.824   0.193  -0.978  0.00  0.00     0.007 C 
ATOM      9  C   UNL d   1      -0.024   0.889  -2.072  0.00  0.00     0.009 C 
ENDBRANCH   7   8
ENDBRANCH   1   7
TORSDOF 2
ENDMDL
