MODEL 1
REMARK minimizedAffinity 6.94261646
REMARK minimizedRMSD -1
REMARK  2 active torsions:
REMARK  status: ('A' for Active; 'I' for Inactive)
REMARK    1  A    between atoms: C1_2  and  C2_3 
REMARK    2  A    between atoms: C2_3  and  C3_4 
ROOT
ATOM      1  C3  UNL d   1       4.971   1.899   3.379  0.00  0.00    -0.075 A 
ATOM      2  C4  UNL d   1       4.786   0.563   2.992  0.00  0.00     0.002 A 
ATOM      3  C5  UNL d   1       5.192  -0.478   3.827  0.00  0.00     0.002 A 
ATOM      4  C6  UNL d   1       5.796  -0.199   5.051  0.00  0.00    -0.004 A 
ATOM      5  C7  UNL d   1       6.000   1.123   5.438  0.00  0.00     0.002 A 
ATOM      6  C8  UNL d   1       5.590   2.168   4.607  0.00  0.00     0.002 A 
ENDROOT
BRANCH   1   7
ATOM      7  C2  UNL d   1       4.507   3.031   2.494  0.00  0.00     0.056 C 
BRANCH   7   8
ATOM      8  C1  UNL d   1       2.998   3.035   2.226  0.00  0.00     0.007 C 
ATOM      9  C   UNL d   1       2.643   3.410   0.794  0.00  0.00     0.009 C 
ENDBRANCH   7   8
ENDBRANCH   1   7
TORSDOF 2
ENDMDL
