MODEL 1
REMARK minimizedAffinity -5.25700378
REMARK minimizedRMSD -1
REMARK  2 active torsions:
REMARK  status: ('A' for Active; 'I' for Inactive)
REMARK    1  A    between atoms: C1_2  and  C2_3 
REMARK    2  A    between atoms: C2_3  and  C3_4 
ROOT
ATOM      1  C3  UNL d   1      -2.726   0.627   2.582  0.00  0.00    -0.075 A 
ATOM      2  C4  UNL d   1      -2.498   1.985   2.313  0.00  0.00     0.002 A 
ATOM      3  C5  UNL d   1      -2.495   2.455   1.000  0.00  0.00     0.002 A 
ATOM      4  C6  UNL d   1      -2.707   1.576  -0.059  0.00  0.00    -0.004 A 
ATOM      5  C7  UNL d   1      -2.918   0.222   0.196  0.00  0.00     0.002 A 
ATOM      6  C8  UNL d   1      -2.927  -0.251   1.509  0.00  0.00     0.002 A 
ENDROOT
BRANCH   1   7
ATOM      7  C2  UNL d   1      -2.760   0.117   4.003  0.00  0.00     0.056 C 
BRANCH   7   8
ATOM      8  C1  UNL d   1      -4.150   0.158   4.647  0.00  0.00     0.007 C 
ATOM      9  C   UNL d   1      -4.465   1.492   5.311  0.00  0.00     0.009 C 
ENDBRANCH   7   8
ENDBRANCH   1   7
TORSDOF 2
ENDMDL
