MODEL 1
REMARK minimizedAffinity 0.555888772
REMARK minimizedRMSD -1
REMARK  2 active torsions:
REMARK  status: ('A' for Active; 'I' for Inactive)
REMARK    1  A    between atoms: C1_2  and  C2_3 
REMARK    2  A    between atoms: C2_3  and  C3_4 
ROOT
ATOM      1  C3  UNL d   1      -2.402   0.623   0.708  0.00  0.00    -0.075 A 
ATOM      2  C4  UNL d   1      -3.534  -0.144   0.397  0.00  0.00     0.002 A 
ATOM      3  C5  UNL d   1      -4.331  -0.674   1.412  0.00  0.00     0.002 A 
ATOM      4  C6  UNL d   1      -4.002  -0.454   2.748  0.00  0.00    -0.004 A 
ATOM      5  C7  UNL d   1      -2.870   0.293   3.068  0.00  0.00     0.002 A 
ATOM      6  C8  UNL d   1      -2.073   0.828   2.054  0.00  0.00     0.002 A 
ENDROOT
BRANCH   1   7
ATOM      7  C2  UNL d   1      -1.552   1.223  -0.386  0.00  0.00     0.056 C 
BRANCH   7   8
ATOM      8  C1  UNL d   1      -0.685   0.205  -1.133  0.00  0.00     0.007 C 
ATOM      9  C   UNL d   1       0.390   0.850  -1.997  0.00  0.00     0.009 C 
ENDBRANCH   7   8
ENDBRANCH   1   7
TORSDOF 2
ENDMDL
