MODEL 1
REMARK minimizedAffinity 5.4645443
REMARK minimizedRMSD -1
REMARK  2 active torsions:
REMARK  status: ('A' for Active; 'I' for Inactive)
REMARK    1  A    between atoms: C1_2  and  C2_3 
REMARK    2  A    between atoms: C2_3  and  C3_4 
ROOT
ATOM      1  C3  UNL d   1      -2.520   0.376   0.588  0.00  0.00    -0.075 A 
ATOM      2  C4  UNL d   1      -2.588   1.441   1.498  0.00  0.00     0.002 A 
ATOM      3  C5  UNL d   1      -2.949   1.215   2.827  0.00  0.00     0.002 A 
ATOM      4  C6  UNL d   1      -3.257  -0.073   3.259  0.00  0.00    -0.004 A 
ATOM      5  C7  UNL d   1      -3.209  -1.136   2.360  0.00  0.00     0.002 A 
ATOM      6  C8  UNL d   1      -2.843  -0.914   1.031  0.00  0.00     0.002 A 
ENDROOT
BRANCH   1   7
ATOM      7  C2  UNL d   1      -2.101   0.609  -0.844  0.00  0.00     0.056 C 
BRANCH   7   8
ATOM      8  C1  UNL d   1      -0.914  -0.251  -1.294  0.00  0.00     0.007 C 
ATOM      9  C   UNL d   1       0.186   0.554  -1.974  0.00  0.00     0.009 C 
ENDBRANCH   7   8
ENDBRANCH   1   7
TORSDOF 2
ENDMDL
