MODEL 1
REMARK minimizedAffinity 0.989424825
REMARK minimizedRMSD -1
REMARK  2 active torsions:
REMARK  status: ('A' for Active; 'I' for Inactive)
REMARK    1  A    between atoms: C1_2  and  C2_3 
REMARK    2  A    between atoms: C2_3  and  C3_4 
ROOT
ATOM      1  C3  UNL d   1      -2.742   1.567   0.386  0.00  0.00    -0.075 A 
ATOM      2  C4  UNL d   1      -1.593   1.630  -0.415  0.00  0.00     0.002 A 
ATOM      3  C5  UNL d   1      -1.351   2.744  -1.220  0.00  0.00     0.002 A 
ATOM      4  C6  UNL d   1      -2.258   3.802  -1.241  0.00  0.00    -0.004 A 
ATOM      5  C7  UNL d   1      -3.411   3.742  -0.461  0.00  0.00     0.002 A 
ATOM      6  C8  UNL d   1      -3.653   2.631   0.348  0.00  0.00     0.002 A 
ENDROOT
BRANCH   1   7
ATOM      7  C2  UNL d   1      -2.994   0.377   1.281  0.00  0.00     0.056 C 
BRANCH   7   8
ATOM      8  C1  UNL d   1      -2.978   0.708   2.778  0.00  0.00     0.007 C 
ATOM      9  C   UNL d   1      -2.954  -0.529   3.666  0.00  0.00     0.009 C 
ENDBRANCH   7   8
ENDBRANCH   1   7
TORSDOF 2
ENDMDL
