MODEL 1
REMARK minimizedAffinity 2.03318858
REMARK minimizedRMSD -1
REMARK  2 active torsions:
REMARK  status: ('A' for Active; 'I' for Inactive)
REMARK    1  A    between atoms: C1_2  and  C2_3 
REMARK    2  A    between atoms: C2_3  and  C3_4 
ROOT
ATOM      1  C3  UNL d   1      -4.459  -0.750   1.365  0.00  0.00    -0.075 A 
ATOM      2  C4  UNL d   1      -5.750  -0.414   0.934  0.00  0.00     0.002 A 
ATOM      3  C5  UNL d   1      -6.000  -0.144  -0.412  0.00  0.00     0.002 A 
ATOM      4  C6  UNL d   1      -4.962  -0.196  -1.340  0.00  0.00    -0.004 A 
ATOM      5  C7  UNL d   1      -3.672  -0.512  -0.920  0.00  0.00     0.002 A 
ATOM      6  C8  UNL d   1      -3.420  -0.787   0.425  0.00  0.00     0.002 A 
ENDROOT
BRANCH   1   7
ATOM      7  C2  UNL d   1      -4.188  -1.072   2.815  0.00  0.00     0.056 C 
BRANCH   7   8
ATOM      8  C1  UNL d   1      -2.704  -1.035   3.196  0.00  0.00     0.007 C 
ATOM      9  C   UNL d   1      -2.346   0.132   4.105  0.00  0.00     0.009 C 
ENDBRANCH   7   8
ENDBRANCH   1   7
TORSDOF 2
ENDMDL
