MODEL 1
REMARK minimizedAffinity -5.20229721
REMARK minimizedRMSD -1
REMARK  0 active torsions:
REMARK  status: ('A' for Active; 'I' for Inactive)
ROOT
ATOM      1  N1  IND d   1      -4.117   3.014   4.428  0.00  0.00    -0.196 N 
ATOM      2  C2  IND d   1      -2.971   3.469   5.019  0.00  0.00     0.054 A 
ATOM      3  C3  IND d   1      -1.893   2.839   4.501  0.00  0.00    -0.031 A 
ATOM      4  C4  IND d   1      -1.767   1.101   2.606  0.00  0.00     0.051 A 
ATOM      5  C5  IND d   1      -2.555   0.347   1.783  0.00  0.00    -0.031 A 
ATOM      6  C6  IND d   1      -3.931   0.446   1.798  0.00  0.00     0.015 A 
ATOM      7  C7  IND d   1      -4.573   1.317   2.632  0.00  0.00    -0.016 A 
ATOM      8  C8  IND d   1      -3.777   2.080   3.474  0.00  0.00    -0.047 A 
ATOM      9  C9  IND d   1      -2.382   1.952   3.494  0.00  0.00    -0.096 A 
ATOM     10  HN1 IND d   1      -4.915   3.269   4.620  0.00  0.00     0.298 HD
ENDROOT
TORSDOF 0
ENDMDL
