MODEL 1
REMARK minimizedAffinity -0.546278179
REMARK minimizedRMSD -1
REMARK  0 active torsions:
REMARK  status: ('A' for Active; 'I' for Inactive)
ROOT
ATOM      1  N1  IND d   1      -3.219  -0.624   1.105  0.00  0.00    -0.196 N 
ATOM      2  C2  IND d   1      -3.437   0.497   1.856  0.00  0.00     0.054 A 
ATOM      3  C3  IND d   1      -2.343   1.291   1.844  0.00  0.00    -0.031 A 
ATOM      4  C4  IND d   1      -0.121   0.997   0.578  0.00  0.00     0.051 A 
ATOM      5  C5  IND d   1       0.561   0.112  -0.209  0.00  0.00    -0.031 A 
ATOM      6  C6  IND d   1       0.006  -1.086  -0.609  0.00  0.00     0.015 A 
ATOM      7  C7  IND d   1      -1.262  -1.441  -0.244  0.00  0.00    -0.016 A 
ATOM      8  C8  IND d   1      -1.955  -0.548   0.561  0.00  0.00    -0.047 A 
ATOM      9  C9  IND d   1      -1.381   0.650   1.005  0.00  0.00    -0.096 A 
ATOM     10  HN1 IND d   1      -3.777  -1.268   0.991  0.00  0.00     0.298 HD
ENDROOT
TORSDOF 0
ENDMDL
