MODEL 1
REMARK minimizedAffinity -2.41656017
REMARK minimizedRMSD -1
REMARK  0 active torsions:
REMARK  status: ('A' for Active; 'I' for Inactive)
ROOT
ATOM      1  N1  IND d   1       0.749  -1.281  -2.117  0.00  0.00    -0.196 N 
ATOM      2  C2  IND d   1       1.380  -0.271  -2.789  0.00  0.00     0.054 A 
ATOM      3  C3  IND d   1       1.355   0.867  -2.059  0.00  0.00    -0.031 A 
ATOM      4  C4  IND d   1       0.423   1.273   0.306  0.00  0.00     0.051 A 
ATOM      5  C5  IND d   1      -0.278   0.661   1.307  0.00  0.00    -0.031 A 
ATOM      6  C6  IND d   1      -0.679  -0.657   1.218  0.00  0.00     0.015 A 
ATOM      7  C7  IND d   1      -0.381  -1.418   0.123  0.00  0.00    -0.016 A 
ATOM      8  C8  IND d   1       0.324  -0.798  -0.898  0.00  0.00    -0.047 A 
ATOM      9  C9  IND d   1       0.696   0.550  -0.831  0.00  0.00    -0.096 A 
ATOM     10  HN1 IND d   1       0.637  -2.082  -2.407  0.00  0.00     0.298 HD
ENDROOT
TORSDOF 0
ENDMDL
