MODEL 1
REMARK minimizedAffinity -3.11378336
REMARK minimizedRMSD -1
REMARK  0 active torsions:
REMARK  status: ('A' for Active; 'I' for Inactive)
ROOT
ATOM      1  N1  IND d   1      -4.241   1.066   2.628  0.00  0.00    -0.196 N 
ATOM      2  C2  IND d   1      -3.687   2.081   3.357  0.00  0.00     0.054 A 
ATOM      3  C3  IND d   1      -2.339   1.982   3.353  0.00  0.00    -0.031 A 
ATOM      4  C4  IND d   1      -0.826   0.293   2.133  0.00  0.00     0.051 A 
ATOM      5  C5  IND d   1      -0.873  -0.842   1.373  0.00  0.00    -0.031 A 
ATOM      6  C6  IND d   1      -2.069  -1.408   0.982  0.00  0.00     0.015 A 
ATOM      7  C7  IND d   1      -3.268  -0.853   1.329  0.00  0.00    -0.016 A 
ATOM      8  C8  IND d   1      -3.224   0.296   2.106  0.00  0.00    -0.047 A 
ATOM      9  C9  IND d   1      -2.014   0.852   2.542  0.00  0.00    -0.096 A 
ATOM     10  HN1 IND d   1      -5.082   0.931   2.514  0.00  0.00     0.298 HD
ENDROOT
TORSDOF 0
ENDMDL
