MODEL 1
REMARK minimizedAffinity 0.398230791
REMARK minimizedRMSD -1
REMARK  0 active torsions:
REMARK  status: ('A' for Active; 'I' for Inactive)
ROOT
ATOM      1  N1  IND d   1       1.407  -2.816  -0.957  0.00  0.00    -0.196 N 
ATOM      2  C2  IND d   1       2.528  -3.200  -1.639  0.00  0.00     0.054 A 
ATOM      3  C3  IND d   1       3.177  -2.118  -2.124  0.00  0.00    -0.031 A 
ATOM      4  C4  IND d   1       2.635   0.381  -1.831  0.00  0.00     0.051 A 
ATOM      5  C5  IND d   1       1.691   1.226  -1.319  0.00  0.00    -0.031 A 
ATOM      6  C6  IND d   1       0.582   0.757  -0.643  0.00  0.00     0.015 A 
ATOM      7  C7  IND d   1       0.382  -0.580  -0.445  0.00  0.00    -0.016 A 
ATOM      8  C8  IND d   1       1.336  -1.441  -0.970  0.00  0.00    -0.047 A 
ATOM      9  C9  IND d   1       2.440  -0.973  -1.693  0.00  0.00    -0.096 A 
ATOM     10  HN1 IND d   1       0.842  -3.345  -0.583  0.00  0.00     0.298 HD
ENDROOT
TORSDOF 0
ENDMDL
