MODEL 1
REMARK minimizedAffinity 4.63910627
REMARK minimizedRMSD -1
REMARK  0 active torsions:
REMARK  status: ('A' for Active; 'I' for Inactive)
ROOT
ATOM      1  N1  IND d   1       1.180  -2.163  -0.694  0.00  0.00    -0.196 N 
ATOM      2  C2  IND d   1       0.162  -2.742   0.012  0.00  0.00     0.054 A 
ATOM      3  C3  IND d   1      -0.557  -1.798   0.659  0.00  0.00    -0.031 A 
ATOM      4  C4  IND d   1      -0.306   0.764   0.618  0.00  0.00     0.051 A 
ATOM      5  C5  IND d   1       0.501   1.760   0.144  0.00  0.00    -0.031 A 
ATOM      6  C6  IND d   1       1.596   1.494  -0.652  0.00  0.00     0.015 A 
ATOM      7  C7  IND d   1       1.920   0.217  -1.015  0.00  0.00    -0.016 A 
ATOM      8  C8  IND d   1       1.107  -0.798  -0.529  0.00  0.00    -0.047 A 
ATOM      9  C9  IND d   1       0.019  -0.537   0.314  0.00  0.00    -0.096 A 
ATOM     10  HN1 IND d   1       1.767  -2.582  -1.163  0.00  0.00     0.298 HD
ENDROOT
TORSDOF 0
ENDMDL
