MODEL 1
REMARK minimizedAffinity -2.59265304
REMARK minimizedRMSD -1
REMARK  0 active torsions:
REMARK  status: ('A' for Active; 'I' for Inactive)
ROOT
ATOM      1  N1  IND d   1      -0.571  -0.781  -0.183  0.00  0.00    -0.196 N 
ATOM      2  C2  IND d   1       0.583  -0.140   0.173  0.00  0.00     0.054 A 
ATOM      3  C3  IND d   1       0.399   0.561   1.314  0.00  0.00    -0.031 A 
ATOM      4  C4  IND d   1      -1.683   0.719   2.820  0.00  0.00     0.051 A 
ATOM      5  C5  IND d   1      -2.993   0.338   2.889  0.00  0.00    -0.031 A 
ATOM      6  C6  IND d   1      -3.574  -0.454   1.920  0.00  0.00     0.015 A 
ATOM      7  C7  IND d   1      -2.860  -0.906   0.846  0.00  0.00    -0.016 A 
ATOM      8  C8  IND d   1      -1.531  -0.514   0.769  0.00  0.00    -0.047 A 
ATOM      9  C9  IND d   1      -0.947   0.324   1.727  0.00  0.00    -0.096 A 
ATOM     10  HN1 IND d   1      -0.679  -1.268  -0.883  0.00  0.00     0.298 HD
ENDROOT
TORSDOF 0
ENDMDL
