MODEL 1
REMARK minimizedAffinity -4.19164228
REMARK minimizedRMSD -1
REMARK  0 active torsions:
REMARK  status: ('A' for Active; 'I' for Inactive)
ROOT
ATOM      1  N1  IND d   1      -3.789   1.312  -5.648  0.00  0.00    -0.196 N 
ATOM      2  C2  IND d   1      -5.010   0.698  -5.656  0.00  0.00     0.054 A 
ATOM      3  C3  IND d   1      -6.000   1.618  -5.611  0.00  0.00    -0.031 A 
ATOM      4  C4  IND d   1      -5.845   4.187  -5.622  0.00  0.00     0.051 A 
ATOM      5  C5  IND d   1      -4.943   5.213  -5.574  0.00  0.00    -0.031 A 
ATOM      6  C6  IND d   1      -3.582   4.985  -5.549  0.00  0.00     0.015 A 
ATOM      7  C7  IND d   1      -3.070   3.719  -5.585  0.00  0.00    -0.016 A 
ATOM      8  C8  IND d   1      -3.984   2.675  -5.627  0.00  0.00    -0.047 A 
ATOM      9  C9  IND d   1      -5.367   2.899  -5.609  0.00  0.00    -0.096 A 
ATOM     10  HN1 IND d   1      -3.027   0.913  -5.654  0.00  0.00     0.298 HD
ENDROOT
TORSDOF 0
ENDMDL
