MODEL 1
REMARK minimizedAffinity -3.27238059
REMARK minimizedRMSD -1
REMARK  0 active torsions:
REMARK  status: ('A' for Active; 'I' for Inactive)
ROOT
ATOM      1  N1  IND d   1      -0.608  -0.586   0.223  0.00  0.00    -0.196 N 
ATOM      2  C2  IND d   1      -0.381   0.575   0.907  0.00  0.00     0.054 A 
ATOM      3  C3  IND d   1       0.609   1.283   0.316  0.00  0.00    -0.031 A 
ATOM      4  C4  IND d   1       1.923   0.773  -1.837  0.00  0.00     0.051 A 
ATOM      5  C5  IND d   1       2.095  -0.190  -2.792  0.00  0.00    -0.031 A 
ATOM      6  C6  IND d   1       1.358  -1.356  -2.792  0.00  0.00     0.015 A 
ATOM      7  C7  IND d   1       0.409  -1.600  -1.839  0.00  0.00    -0.016 A 
ATOM      8  C8  IND d   1       0.237  -0.627  -0.864  0.00  0.00    -0.047 A 
ATOM      9  C9  IND d   1       1.012   0.540  -0.835  0.00  0.00    -0.096 A 
ATOM     10  HN1 IND d   1      -1.182  -1.190   0.436  0.00  0.00     0.298 HD
ENDROOT
TORSDOF 0
ENDMDL
