MODEL 1
REMARK minimizedAffinity 3.55713034
REMARK minimizedRMSD -1
REMARK  0 active torsions:
REMARK  status: ('A' for Active; 'I' for Inactive)
ROOT
ATOM      1  N1  IND d   1       2.217   1.972   1.454  0.00  0.00    -0.196 N 
ATOM      2  C2  IND d   1       1.196   1.745   2.334  0.00  0.00     0.054 A 
ATOM      3  C3  IND d   1       0.393   0.758   1.877  0.00  0.00    -0.031 A 
ATOM      4  C4  IND d   1       0.624  -0.691  -0.238  0.00  0.00     0.051 A 
ATOM      5  C5  IND d   1       1.376  -0.832  -1.371  0.00  0.00    -0.031 A 
ATOM      6  C6  IND d   1       2.470  -0.031  -1.623  0.00  0.00     0.015 A 
ATOM      7  C7  IND d   1       2.862   0.938  -0.743  0.00  0.00    -0.016 A 
ATOM      8  C8  IND d   1       2.097   1.088   0.404  0.00  0.00    -0.047 A 
ATOM      9  C9  IND d   1       0.960   0.307   0.646  0.00  0.00    -0.096 A 
ATOM     10  HN1 IND d   1       2.832   2.568   1.542  0.00  0.00     0.298 HD
ENDROOT
TORSDOF 0
ENDMDL
