MODEL 1
REMARK minimizedAffinity -5.05962515
REMARK minimizedRMSD -1
REMARK  0 active torsions:
REMARK  status: ('A' for Active; 'I' for Inactive)
ROOT
ATOM      1  N1  IND d   1       1.110  -1.135  -2.291  0.00  0.00    -0.196 N 
ATOM      2  C2  IND d   1       1.808  -0.069  -2.787  0.00  0.00     0.054 A 
ATOM      3  C3  IND d   1       1.693   0.994  -1.961  0.00  0.00    -0.031 A 
ATOM      4  C4  IND d   1       0.492   1.181   0.308  0.00  0.00     0.051 A 
ATOM      5  C5  IND d   1      -0.317   0.481   1.159  0.00  0.00    -0.031 A 
ATOM      6  C6  IND d   1      -0.697  -0.819   0.900  0.00  0.00     0.015 A 
ATOM      7  C7  IND d   1      -0.271  -1.476  -0.220  0.00  0.00    -0.016 A 
ATOM      8  C8  IND d   1       0.544  -0.767  -1.090  0.00  0.00    -0.047 A 
ATOM      9  C9  IND d   1       0.899   0.567  -0.853  0.00  0.00    -0.096 A 
ATOM     10  HN1 IND d   1       1.035  -1.905  -2.667  0.00  0.00     0.298 HD
ENDROOT
TORSDOF 0
ENDMDL
