MODEL 1
REMARK minimizedAffinity -1.00588918
REMARK minimizedRMSD -1
REMARK  0 active torsions:
REMARK  status: ('A' for Active; 'I' for Inactive)
ROOT
ATOM      1  N1  IND d   1      -2.360   2.319  -5.787  0.00  0.00    -0.196 N 
ATOM      2  C2  IND d   1      -1.389   3.281  -5.794  0.00  0.00     0.054 A 
ATOM      3  C3  IND d   1      -1.945   4.509  -5.890  0.00  0.00    -0.031 A 
ATOM      4  C4  IND d   1      -4.430   5.181  -5.944  0.00  0.00     0.051 A 
ATOM      5  C5  IND d   1      -5.688   4.650  -5.997  0.00  0.00    -0.031 A 
ATOM      6  C6  IND d   1      -5.906   3.287  -5.980  0.00  0.00     0.015 A 
ATOM      7  C7  IND d   1      -4.869   2.401  -5.897  0.00  0.00    -0.016 A 
ATOM      8  C8  IND d   1      -3.590   2.936  -5.850  0.00  0.00    -0.047 A 
ATOM      9  C9  IND d   1      -3.360   4.317  -5.910  0.00  0.00    -0.096 A 
ATOM     10  HN1 IND d   1      -2.226   1.470  -5.750  0.00  0.00     0.298 HD
ENDROOT
TORSDOF 0
ENDMDL
