MODEL 1
REMARK minimizedAffinity -3.23388195
REMARK minimizedRMSD -1
REMARK  0 active torsions:
REMARK  status: ('A' for Active; 'I' for Inactive)
ROOT
ATOM      1  N1  IND d   1       0.075  -2.390   1.139  0.00  0.00    -0.196 N 
ATOM      2  C2  IND d   1       0.541  -3.006   0.011  0.00  0.00     0.054 A 
ATOM      3  C3  IND d   1       0.837  -2.089  -0.937  0.00  0.00    -0.031 A 
ATOM      4  C4  IND d   1       0.732   0.481  -0.817  0.00  0.00     0.051 A 
ATOM      5  C5  IND d   1       0.335   1.506  -0.005  0.00  0.00    -0.031 A 
ATOM      6  C6  IND d   1      -0.177   1.280   1.257  0.00  0.00     0.015 A 
ATOM      7  C7  IND d   1      -0.301   0.016   1.760  0.00  0.00    -0.016 A 
ATOM      8  C8  IND d   1       0.095  -1.028   0.935  0.00  0.00    -0.047 A 
ATOM      9  C9  IND d   1       0.576  -0.807  -0.362  0.00  0.00    -0.096 A 
ATOM     10  HN1 IND d   1      -0.186  -2.787   1.856  0.00  0.00     0.298 HD
ENDROOT
TORSDOF 0
ENDMDL
