MODEL 1
REMARK minimizedAffinity -0.724681735
REMARK minimizedRMSD -1
REMARK  0 active torsions:
REMARK  status: ('A' for Active; 'I' for Inactive)
ROOT
ATOM      1  N1  IND d   1       1.390   0.367  -1.397  0.00  0.00    -0.196 N 
ATOM      2  C2  IND d   1       1.197  -0.875  -1.933  0.00  0.00     0.054 A 
ATOM      3  C3  IND d   1       0.307  -1.574  -1.193  0.00  0.00    -0.031 A 
ATOM      4  C4  IND d   1      -1.030  -0.839   0.880  0.00  0.00     0.051 A 
ATOM      5  C5  IND d   1      -1.166   0.195   1.763  0.00  0.00    -0.031 A 
ATOM      6  C6  IND d   1      -0.445   1.364   1.634  0.00  0.00     0.015 A 
ATOM      7  C7  IND d   1       0.436   1.547   0.606  0.00  0.00    -0.016 A 
ATOM      8  C8  IND d   1       0.582   0.497  -0.289  0.00  0.00    -0.047 A 
ATOM      9  C9  IND d   1      -0.116  -0.708  -0.139  0.00  0.00    -0.096 A 
ATOM     10  HN1 IND d   1       1.927   0.966  -1.700  0.00  0.00     0.298 HD
ENDROOT
TORSDOF 0
ENDMDL
