MODEL 1
REMARK minimizedAffinity -3.00199437
REMARK minimizedRMSD -1
REMARK  0 active torsions:
REMARK  status: ('A' for Active; 'I' for Inactive)
ROOT
ATOM      1  N1  IND d   1      -3.472   0.867  -5.780  0.00  0.00    -0.196 N 
ATOM      2  C2  IND d   1      -4.735   0.367  -5.939  0.00  0.00     0.054 A 
ATOM      3  C3  IND d   1      -5.635   1.374  -6.000  0.00  0.00    -0.031 A 
ATOM      4  C4  IND d   1      -5.248   3.919  -5.964  0.00  0.00     0.051 A 
ATOM      5  C5  IND d   1      -4.268   4.857  -5.797  0.00  0.00    -0.031 A 
ATOM      6  C6  IND d   1      -2.946   4.507  -5.615  0.00  0.00     0.015 A 
ATOM      7  C7  IND d   1      -2.551   3.199  -5.605  0.00  0.00    -0.016 A 
ATOM      8  C8  IND d   1      -3.544   2.243  -5.766  0.00  0.00    -0.047 A 
ATOM      9  C9  IND d   1      -4.893   2.592  -5.909  0.00  0.00    -0.096 A 
ATOM     10  HN1 IND d   1      -2.754   0.401  -5.701  0.00  0.00     0.298 HD
ENDROOT
TORSDOF 0
ENDMDL
