MODEL 1
REMARK minimizedAffinity -4.50480843
REMARK minimizedRMSD -1
REMARK  0 active torsions:
REMARK  status: ('A' for Active; 'I' for Inactive)
ROOT
ATOM      1  N1  IND d   1      -0.565  -1.467   0.263  0.00  0.00    -0.196 N 
ATOM      2  C2  IND d   1      -0.897  -0.710   1.352  0.00  0.00     0.054 A 
ATOM      3  C3  IND d   1      -0.318   0.509   1.272  0.00  0.00    -0.031 A 
ATOM      4  C4  IND d   1       1.131   1.511  -0.606  0.00  0.00     0.051 A 
ATOM      5  C5  IND d   1       1.736   1.188  -1.788  0.00  0.00    -0.031 A 
ATOM      6  C6  IND d   1       1.600  -0.061  -2.360  0.00  0.00     0.015 A 
ATOM      7  C7  IND d   1       0.841  -1.034  -1.773  0.00  0.00    -0.016 A 
ATOM      8  C8  IND d   1       0.231  -0.712  -0.569  0.00  0.00    -0.047 A 
ATOM      9  C9  IND d   1       0.400   0.540   0.037  0.00  0.00    -0.096 A 
ATOM     10  HN1 IND d   1      -0.812  -2.279   0.123  0.00  0.00     0.298 HD
ENDROOT
TORSDOF 0
ENDMDL
