MODEL 1
REMARK minimizedAffinity -6.33363056
REMARK minimizedRMSD -1
REMARK  0 active torsions:
REMARK  status: ('A' for Active; 'I' for Inactive)
ROOT
ATOM      1  N1  IND d   1      -0.259  -0.882   0.538  0.00  0.00    -0.196 N 
ATOM      2  C2  IND d   1      -0.243   0.418   0.961  0.00  0.00     0.054 A 
ATOM      3  C3  IND d   1       0.582   1.155   0.183  0.00  0.00    -0.031 A 
ATOM      4  C4  IND d   1       1.927   0.455  -1.897  0.00  0.00     0.051 A 
ATOM      5  C5  IND d   1       2.260  -0.638  -2.647  0.00  0.00    -0.031 A 
ATOM      6  C6  IND d   1       1.758  -1.893  -2.369  0.00  0.00     0.015 A 
ATOM      7  C7  IND d   1       0.892  -2.100  -1.334  0.00  0.00    -0.016 A 
ATOM      8  C8  IND d   1       0.557  -0.994  -0.566  0.00  0.00    -0.047 A 
ATOM      9  C9  IND d   1       1.096   0.274  -0.816  0.00  0.00    -0.096 A 
ATOM     10  HN1 IND d   1      -0.704  -1.522   0.902  0.00  0.00     0.298 HD
ENDROOT
TORSDOF 0
ENDMDL
