MODEL 1
REMARK minimizedAffinity -0.918687165
REMARK minimizedRMSD -1
REMARK  0 active torsions:
REMARK  status: ('A' for Active; 'I' for Inactive)
ROOT
ATOM      1  C1  BNZ d   1       5.874  -1.057   3.597  0.00  0.00     0.000 A 
ATOM      2  C2  BNZ d   1       5.867   0.311   3.660  0.00  0.00     0.000 A 
ATOM      3  C3  BNZ d   1       5.951   0.957   4.861  0.00  0.00     0.000 A 
ATOM      4  C4  BNZ d   1       6.000   0.236   6.000  0.00  0.00     0.000 A 
ATOM      5  C5  BNZ d   1       5.998  -1.144   5.954  0.00  0.00     0.000 A 
ATOM      6  C6  BNZ d   1       5.953  -1.791   4.740  0.00  0.00     0.000 A 
ENDROOT
TORSDOF 0
ENDMDL
