MODEL 1
REMARK minimizedAffinity -2.56743908
REMARK minimizedRMSD -1
REMARK  0 active torsions:
REMARK  status: ('A' for Active; 'I' for Inactive)
ROOT
ATOM      1  C1  BNZ d   1       5.832  -0.297   5.775  0.00  0.00     0.000 A 
ATOM      2  C2  BNZ d   1       5.999   1.044   6.000  0.00  0.00     0.000 A 
ATOM      3  C3  BNZ d   1       5.962   1.937   4.966  0.00  0.00     0.000 A 
ATOM      4  C4  BNZ d   1       5.798   1.486   3.706  0.00  0.00     0.000 A 
ATOM      5  C5  BNZ d   1       5.638   0.137   3.461  0.00  0.00     0.000 A 
ATOM      6  C6  BNZ d   1       5.637  -0.756   4.509  0.00  0.00     0.000 A 
ENDROOT
TORSDOF 0
ENDMDL
