MODEL 1
REMARK minimizedAffinity -0.892878473
REMARK minimizedRMSD -1
REMARK  0 active torsions:
REMARK  status: ('A' for Active; 'I' for Inactive)
ROOT
ATOM      1  C1  BNZ d   1       5.985   1.199   2.570  0.00  0.00     0.000 A 
ATOM      2  C2  BNZ d   1       5.998   0.005   3.241  0.00  0.00     0.000 A 
ATOM      3  C3  BNZ d   1       5.985  -0.031   4.607  0.00  0.00     0.000 A 
ATOM      4  C4  BNZ d   1       6.000   1.126   5.301  0.00  0.00     0.000 A 
ATOM      5  C5  BNZ d   1       5.996   2.338   4.639  0.00  0.00     0.000 A 
ATOM      6  C6  BNZ d   1       5.970   2.369   3.263  0.00  0.00     0.000 A 
ENDROOT
TORSDOF 0
ENDMDL
