MODEL 1
REMARK minimizedAffinity -1.94781017
REMARK minimizedRMSD -1
REMARK  0 active torsions:
REMARK  status: ('A' for Active; 'I' for Inactive)
ROOT
ATOM      1  C1  BNZ d   1       5.199   0.688   3.759  0.00  0.00     0.000 A 
ATOM      2  C2  BNZ d   1       5.239   2.057   3.780  0.00  0.00     0.000 A 
ATOM      3  C3  BNZ d   1       5.658   2.728   4.895  0.00  0.00     0.000 A 
ATOM      4  C4  BNZ d   1       5.997   2.031   5.999  0.00  0.00     0.000 A 
ATOM      5  C5  BNZ d   1       5.953   0.651   5.997  0.00  0.00     0.000 A 
ATOM      6  C6  BNZ d   1       5.568  -0.021   4.859  0.00  0.00     0.000 A 
ENDROOT
TORSDOF 0
ENDMDL
