MODEL 1
REMARK minimizedAffinity -2.61718583
REMARK minimizedRMSD -1
REMARK  0 active torsions:
REMARK  status: ('A' for Active; 'I' for Inactive)
ROOT
ATOM      1  C1  BNZ d   1       5.223   2.063   5.245  0.00  0.00     0.000 A 
ATOM      2  C2  BNZ d   1       5.245   0.811   5.801  0.00  0.00     0.000 A 
ATOM      3  C3  BNZ d   1       5.653  -0.271   5.073  0.00  0.00     0.000 A 
ATOM      4  C4  BNZ d   1       6.000  -0.108   3.780  0.00  0.00     0.000 A 
ATOM      5  C5  BNZ d   1       5.974   1.145   3.202  0.00  0.00     0.000 A 
ATOM      6  C6  BNZ d   1       5.600   2.239   3.949  0.00  0.00     0.000 A 
ENDROOT
TORSDOF 0
ENDMDL
