MODEL 1
REMARK minimizedAffinity -0.436240852
REMARK minimizedRMSD -1
REMARK  0 active torsions:
REMARK  status: ('A' for Active; 'I' for Inactive)
ROOT
ATOM      1  C1  BNZ d   1       5.123   1.506   3.042  0.00  0.00     0.000 A 
ATOM      2  C2  BNZ d   1       5.146   0.252   3.593  0.00  0.00     0.000 A 
ATOM      3  C3  BNZ d   1       5.566   0.061   4.880  0.00  0.00     0.000 A 
ATOM      4  C4  BNZ d   1       6.000   1.115   5.600  0.00  0.00     0.000 A 
ATOM      5  C5  BNZ d   1       5.992   2.384   5.055  0.00  0.00     0.000 A 
ATOM      6  C6  BNZ d   1       5.532   2.579   3.773  0.00  0.00     0.000 A 
ENDROOT
TORSDOF 0
ENDMDL
