MODEL 1
REMARK minimizedAffinity -2.05662298
REMARK minimizedRMSD -1
REMARK  0 active torsions:
REMARK  status: ('A' for Active; 'I' for Inactive)
ROOT
ATOM      1  C1  BNZ d   1       5.976  -0.548   5.329  0.00  0.00     0.000 A 
ATOM      2  C2  BNZ d   1       5.971  -0.573   3.960  0.00  0.00     0.000 A 
ATOM      3  C3  BNZ d   1       5.999   0.588   3.239  0.00  0.00     0.000 A 
ATOM      4  C4  BNZ d   1       5.992   1.771   3.887  0.00  0.00     0.000 A 
ATOM      5  C5  BNZ d   1       5.988   1.812   5.267  0.00  0.00     0.000 A 
ATOM      6  C6  BNZ d   1       5.999   0.641   5.990  0.00  0.00     0.000 A 
ENDROOT
TORSDOF 0
ENDMDL
