MODEL 1
REMARK minimizedAffinity -0.84308213
REMARK minimizedRMSD -1
REMARK  0 active torsions:
REMARK  status: ('A' for Active; 'I' for Inactive)
ROOT
ATOM      1  C1  BNZ d   1       6.000   0.450   3.449  0.00  0.00     0.000 A 
ATOM      2  C2  BNZ d   1       5.992  -0.361   4.552  0.00  0.00     0.000 A 
ATOM      3  C3  BNZ d   1       5.962   0.170   5.811  0.00  0.00     0.000 A 
ATOM      4  C4  BNZ d   1       5.980   1.509   5.967  0.00  0.00     0.000 A 
ATOM      5  C5  BNZ d   1       5.997   2.341   4.864  0.00  0.00     0.000 A 
ATOM      6  C6  BNZ d   1       5.988   1.803   3.598  0.00  0.00     0.000 A 
ENDROOT
TORSDOF 0
ENDMDL
