MODEL 1
REMARK minimizedAffinity -2.11264825
REMARK minimizedRMSD -1
REMARK  0 active torsions:
REMARK  status: ('A' for Active; 'I' for Inactive)
ROOT
ATOM      1  C1  BNZ d   1       5.369   1.123   5.990  0.00  0.00     0.000 A 
ATOM      2  C2  BNZ d   1       5.700   2.303   5.378  0.00  0.00     0.000 A 
ATOM      3  C3  BNZ d   1       5.995   2.341   4.044  0.00  0.00     0.000 A 
ATOM      4  C4  BNZ d   1       5.997   1.195   3.333  0.00  0.00     0.000 A 
ATOM      5  C5  BNZ d   1       5.674  -0.004   3.937  0.00  0.00     0.000 A 
ATOM      6  C6  BNZ d   1       5.340  -0.032   5.272  0.00  0.00     0.000 A 
ENDROOT
TORSDOF 0
ENDMDL
