MODEL 1
REMARK minimizedAffinity -2.4117229
REMARK minimizedRMSD -1
REMARK  0 active torsions:
REMARK  status: ('A' for Active; 'I' for Inactive)
ROOT
ATOM      1  C1  BNZ d   1       5.304  -0.109   3.417  0.00  0.00     0.000 A 
ATOM      2  C2  BNZ d   1       5.630   1.171   3.780  0.00  0.00     0.000 A 
ATOM      3  C3  BNZ d   1       5.997   1.462   5.064  0.00  0.00     0.000 A 
ATOM      4  C4  BNZ d   1       6.000   0.483   5.991  0.00  0.00     0.000 A 
ATOM      5  C5  BNZ d   1       5.665  -0.811   5.643  0.00  0.00     0.000 A 
ATOM      6  C6  BNZ d   1       5.333  -1.108   4.341  0.00  0.00     0.000 A 
ENDROOT
TORSDOF 0
ENDMDL
