MODEL 1
REMARK minimizedAffinity -2.60568309
REMARK minimizedRMSD -1
REMARK  0 active torsions:
REMARK  status: ('A' for Active; 'I' for Inactive)
ROOT
ATOM      1  C1  BNZ d   1       6.000   0.338   4.889  0.00  0.00     0.000 A 
ATOM      2  C2  BNZ d   1       5.991   1.707   4.938  0.00  0.00     0.000 A 
ATOM      3  C3  BNZ d   1       5.765   2.445   3.810  0.00  0.00     0.000 A 
ATOM      4  C4  BNZ d   1       5.588   1.817   2.630  0.00  0.00     0.000 A 
ATOM      5  C5  BNZ d   1       5.604   0.438   2.563  0.00  0.00     0.000 A 
ATOM      6  C6  BNZ d   1       5.793  -0.303   3.707  0.00  0.00     0.000 A 
ENDROOT
TORSDOF 0
ENDMDL
