MODEL 1
REMARK minimizedAffinity 1.71959496
REMARK minimizedRMSD -1
REMARK  0 active torsions:
REMARK  status: ('A' for Active; 'I' for Inactive)
ROOT
ATOM      1  C1  BNZ d   1       5.957   5.131   5.158  0.00  0.00     0.000 A 
ATOM      2  C2  BNZ d   1       5.948   3.864   5.677  0.00  0.00     0.000 A 
ATOM      3  C3  BNZ d   1       5.988   2.771   4.857  0.00  0.00     0.000 A 
ATOM      4  C4  BNZ d   1       5.997   2.946   3.519  0.00  0.00     0.000 A 
ATOM      5  C5  BNZ d   1       5.997   4.217   2.981  0.00  0.00     0.000 A 
ATOM      6  C6  BNZ d   1       5.996   5.315   3.810  0.00  0.00     0.000 A 
ENDROOT
TORSDOF 0
ENDMDL
