MODEL 1
REMARK minimizedAffinity -2.68949294
REMARK minimizedRMSD -1
REMARK  0 active torsions:
REMARK  status: ('A' for Active; 'I' for Inactive)
ROOT
ATOM      1  C1  BNZ d   1       5.990   1.229   4.846  0.00  0.00     0.000 A 
ATOM      2  C2  BNZ d   1       5.828   0.510   6.000  0.00  0.00     0.000 A 
ATOM      3  C3  BNZ d   1       5.685  -0.849   5.963  0.00  0.00     0.000 A 
ATOM      4  C4  BNZ d   1       5.664  -1.482   4.772  0.00  0.00     0.000 A 
ATOM      5  C5  BNZ d   1       5.817  -0.770   3.600  0.00  0.00     0.000 A 
ATOM      6  C6  BNZ d   1       6.000   0.594   3.642  0.00  0.00     0.000 A 
ENDROOT
TORSDOF 0
ENDMDL
