MODEL 1
REMARK minimizedAffinity 2.70088935
REMARK minimizedRMSD -1
REMARK  0 active torsions:
REMARK  status: ('A' for Active; 'I' for Inactive)
ROOT
ATOM      1  C1  BNZ d   1       5.987   3.599   3.906  0.00  0.00     0.000 A 
ATOM      2  C2  BNZ d   1       6.000   4.821   4.524  0.00  0.00     0.000 A 
ATOM      3  C3  BNZ d   1       5.984   5.975   3.792  0.00  0.00     0.000 A 
ATOM      4  C4  BNZ d   1       5.996   5.907   2.445  0.00  0.00     0.000 A 
ATOM      5  C5  BNZ d   1       5.993   4.682   1.808  0.00  0.00     0.000 A 
ATOM      6  C6  BNZ d   1       5.969   3.522   2.548  0.00  0.00     0.000 A 
ENDROOT
TORSDOF 0
ENDMDL
