MODEL 1
REMARK minimizedAffinity -0.559943318
REMARK minimizedRMSD -1
REMARK  0 active torsions:
REMARK  status: ('A' for Active; 'I' for Inactive)
ROOT
ATOM      1  C1  BNZ d   1       5.978   4.639   3.923  0.00  0.00     0.000 A 
ATOM      2  C2  BNZ d   1       5.993   5.875   3.333  0.00  0.00     0.000 A 
ATOM      3  C3  BNZ d   1       5.983   6.000   1.971  0.00  0.00     0.000 A 
ATOM      4  C4  BNZ d   1       6.000   4.891   1.204  0.00  0.00     0.000 A 
ATOM      5  C5  BNZ d   1       5.994   3.639   1.784  0.00  0.00     0.000 A 
ATOM      6  C6  BNZ d   1       5.964   3.517   3.154  0.00  0.00     0.000 A 
ENDROOT
TORSDOF 0
ENDMDL
