MODEL 1
REMARK minimizedAffinity -2.88661742
REMARK minimizedRMSD -1
REMARK  0 active torsions:
REMARK  status: ('A' for Active; 'I' for Inactive)
ROOT
ATOM      1  C   UNL d   1       6.000  -1.128  -5.269  0.00  0.00     0.077 C 
ATOM      2  C1  UNL d   1       5.358  -2.483  -5.248  0.00  0.00    -0.074 A 
ATOM      3  C2  UNL d   1       4.189  -2.736  -5.974  0.00  0.00    -0.005 A 
ATOM      4  C3  UNL d   1       3.609  -4.004  -5.953  0.00  0.00     0.006 A 
ATOM      5  C4  UNL d   1       4.189  -5.030  -5.207  0.00  0.00    -0.005 A 
ATOM      6  C5  UNL d   1       5.358  -4.796  -4.475  0.00  0.00    -0.074 A 
ATOM      7  C6  UNL d   1       6.000  -5.891  -3.675  0.00  0.00     0.077 C 
ATOM      8  C7  UNL d   1       5.939  -3.521  -4.507  0.00  0.00    -0.001 A 
ENDROOT
TORSDOF 0
ENDMDL
