MODEL 1
REMARK minimizedAffinity -0.955349445
REMARK minimizedRMSD -1
REMARK  0 active torsions:
REMARK  status: ('A' for Active; 'I' for Inactive)
ROOT
ATOM      1  C   UNL d   1       5.997  -5.991  -3.009  0.00  0.00     0.077 C 
ATOM      2  C1  UNL d   1       5.556  -4.962  -4.006  0.00  0.00    -0.074 A 
ATOM      3  C2  UNL d   1       4.728  -5.309  -5.079  0.00  0.00    -0.005 A 
ATOM      4  C3  UNL d   1       4.318  -4.338  -5.993  0.00  0.00     0.006 A 
ATOM      5  C4  UNL d   1       4.730  -3.014  -5.844  0.00  0.00    -0.005 A 
ATOM      6  C5  UNL d   1       5.556  -2.648  -4.777  0.00  0.00    -0.074 A 
ATOM      7  C6  UNL d   1       6.000  -1.227  -4.596  0.00  0.00     0.077 C 
ATOM      8  C7  UNL d   1       5.959  -3.627  -3.858  0.00  0.00    -0.001 A 
ENDROOT
TORSDOF 0
ENDMDL
