MODEL 1
REMARK minimizedAffinity -3.03577948
REMARK minimizedRMSD -1
REMARK  0 active torsions:
REMARK  status: ('A' for Active; 'I' for Inactive)
ROOT
ATOM      1  C   UNL d   1       6.000  -0.816  -5.999  0.00  0.00     0.077 C 
ATOM      2  C1  UNL d   1       5.436  -2.107  -5.485  0.00  0.00    -0.074 A 
ATOM      3  C2  UNL d   1       4.389  -2.115  -4.558  0.00  0.00    -0.005 A 
ATOM      4  C3  UNL d   1       3.868  -3.323  -4.095  0.00  0.00     0.006 A 
ATOM      5  C4  UNL d   1       4.389  -4.534  -4.554  0.00  0.00    -0.005 A 
ATOM      6  C5  UNL d   1       5.435  -4.546  -5.482  0.00  0.00    -0.074 A 
ATOM      7  C6  UNL d   1       6.000  -5.838  -5.992  0.00  0.00     0.077 C 
ATOM      8  C7  UNL d   1       5.948  -3.327  -5.947  0.00  0.00    -0.001 A 
ENDROOT
TORSDOF 0
ENDMDL
