MODEL 1
REMARK minimizedAffinity -2.44926882
REMARK minimizedRMSD -1
REMARK  0 active torsions:
REMARK  status: ('A' for Active; 'I' for Inactive)
ROOT
ATOM      1  C   UNL d   1       5.668  -1.323  -5.265  0.00  0.00     0.077 C 
ATOM      2  C1  UNL d   1       5.150  -2.730  -5.219  0.00  0.00    -0.074 A 
ATOM      3  C2  UNL d   1       4.056  -3.119  -5.999  0.00  0.00    -0.005 A 
ATOM      4  C3  UNL d   1       3.592  -4.434  -5.953  0.00  0.00     0.006 A 
ATOM      5  C4  UNL d   1       4.216  -5.371  -5.129  0.00  0.00    -0.005 A 
ATOM      6  C5  UNL d   1       5.312  -5.000  -4.342  0.00  0.00    -0.074 A 
ATOM      7  C6  UNL d   1       6.000  -5.997  -3.458  0.00  0.00     0.077 C 
ATOM      8  C7  UNL d   1       5.776  -3.679  -4.399  0.00  0.00    -0.001 A 
ENDROOT
TORSDOF 0
ENDMDL
