MODEL 1
REMARK minimizedAffinity -3.6163466
REMARK minimizedRMSD -1
REMARK  0 active torsions:
REMARK  status: ('A' for Active; 'I' for Inactive)
ROOT
ATOM      1  C   UNL d   1       5.991  -0.577  -6.000  0.00  0.00     0.077 C 
ATOM      2  C1  UNL d   1       5.261  -1.869  -5.785  0.00  0.00    -0.074 A 
ATOM      3  C2  UNL d   1       3.913  -1.880  -5.413  0.00  0.00    -0.005 A 
ATOM      4  C3  UNL d   1       3.244  -3.090  -5.227  0.00  0.00     0.006 A 
ATOM      5  C4  UNL d   1       3.916  -4.299  -5.410  0.00  0.00    -0.005 A 
ATOM      6  C5  UNL d   1       5.264  -4.308  -5.783  0.00  0.00    -0.074 A 
ATOM      7  C6  UNL d   1       5.998  -5.599  -5.994  0.00  0.00     0.077 C 
ATOM      8  C7  UNL d   1       5.926  -3.088  -5.975  0.00  0.00    -0.001 A 
ENDROOT
TORSDOF 0
ENDMDL
