MODEL 1
REMARK minimizedAffinity -0.912550688
REMARK minimizedRMSD -1
REMARK  0 active torsions:
REMARK  status: ('A' for Active; 'I' for Inactive)
ROOT
ATOM      1  C   UNL d   1       5.924  -1.064  -5.072  0.00  0.00     0.077 C 
ATOM      2  C1  UNL d   1       5.240  -2.398  -5.023  0.00  0.00    -0.074 A 
ATOM      3  C2  UNL d   1       3.943  -2.523  -4.515  0.00  0.00    -0.005 A 
ATOM      4  C3  UNL d   1       3.316  -3.769  -4.485  0.00  0.00     0.006 A 
ATOM      5  C4  UNL d   1       3.979  -4.901  -4.962  0.00  0.00    -0.005 A 
ATOM      6  C5  UNL d   1       5.276  -4.795  -5.474  0.00  0.00    -0.074 A 
ATOM      7  C6  UNL d   1       5.999  -6.000  -5.999  0.00  0.00     0.077 C 
ATOM      8  C7  UNL d   1       5.896  -3.539  -5.507  0.00  0.00    -0.001 A 
ENDROOT
TORSDOF 0
ENDMDL
