MODEL 1
REMARK minimizedAffinity -3.809623
REMARK minimizedRMSD -1
REMARK  0 active torsions:
REMARK  status: ('A' for Active; 'I' for Inactive)
ROOT
ATOM      1  C   UNL d   1       6.000  -1.064  -4.870  0.00  0.00     0.077 C 
ATOM      2  C1  UNL d   1       5.270  -2.374  -4.837  0.00  0.00    -0.074 A 
ATOM      3  C2  UNL d   1       3.937  -2.465  -5.250  0.00  0.00    -0.005 A 
ATOM      4  C3  UNL d   1       3.275  -3.692  -5.223  0.00  0.00     0.006 A 
ATOM      5  C4  UNL d   1       3.937  -4.838  -4.782  0.00  0.00    -0.005 A 
ATOM      6  C5  UNL d   1       5.270  -4.767  -4.365  0.00  0.00    -0.074 A 
ATOM      7  C6  UNL d   1       6.000  -5.991  -3.898  0.00  0.00     0.077 C 
ATOM      8  C7  UNL d   1       5.931  -3.531  -4.403  0.00  0.00    -0.001 A 
ENDROOT
TORSDOF 0
ENDMDL
