MODEL 1
REMARK minimizedAffinity -3.58910775
REMARK minimizedRMSD -1
REMARK  0 active torsions:
REMARK  status: ('A' for Active; 'I' for Inactive)
ROOT
ATOM      1  C   UNL d   1       5.996  -0.750  -5.310  0.00  0.00     0.077 C 
ATOM      2  C1  UNL d   1       5.232  -2.030  -5.145  0.00  0.00    -0.074 A 
ATOM      3  C2  UNL d   1       3.837  -2.051  -5.234  0.00  0.00    -0.005 A 
ATOM      4  C3  UNL d   1       3.141  -3.251  -5.087  0.00  0.00     0.006 A 
ATOM      5  C4  UNL d   1       3.832  -4.440  -4.851  0.00  0.00    -0.005 A 
ATOM      6  C5  UNL d   1       5.227  -4.438  -4.760  0.00  0.00    -0.074 A 
ATOM      7  C6  UNL d   1       5.986  -5.709  -4.516  0.00  0.00     0.077 C 
ATOM      8  C7  UNL d   1       5.920  -3.230  -4.915  0.00  0.00    -0.001 A 
ENDROOT
TORSDOF 0
ENDMDL
