MODEL 1
REMARK minimizedAffinity -3.52356553
REMARK minimizedRMSD -1
REMARK  0 active torsions:
REMARK  status: ('A' for Active; 'I' for Inactive)
ROOT
ATOM      1  C   UNL d   1       5.950  -5.999  -2.961  0.00  0.00     0.077 C 
ATOM      2  C1  UNL d   1       5.224  -5.204  -4.005  0.00  0.00    -0.074 A 
ATOM      3  C2  UNL d   1       4.532  -5.840  -5.041  0.00  0.00    -0.005 A 
ATOM      4  C3  UNL d   1       3.853  -5.087  -5.999  0.00  0.00     0.006 A 
ATOM      5  C4  UNL d   1       3.860  -3.694  -5.933  0.00  0.00    -0.005 A 
ATOM      6  C5  UNL d   1       4.547  -3.040  -4.904  0.00  0.00    -0.074 A 
ATOM      7  C6  UNL d   1       4.556  -1.543  -4.812  0.00  0.00     0.077 C 
ATOM      8  C7  UNL d   1       5.220  -3.803  -3.941  0.00  0.00    -0.001 A 
ENDROOT
TORSDOF 0
ENDMDL
