MODEL 1
REMARK minimizedAffinity -3.65805936
REMARK minimizedRMSD -1
REMARK  0 active torsions:
REMARK  status: ('A' for Active; 'I' for Inactive)
ROOT
ATOM      1  C   UNL d   1       6.000  -5.965  -3.784  0.00  0.00     0.077 C 
ATOM      2  C1  UNL d   1       5.301  -4.770  -4.361  0.00  0.00    -0.074 A 
ATOM      3  C2  UNL d   1       4.011  -4.878  -4.891  0.00  0.00    -0.005 A 
ATOM      4  C3  UNL d   1       3.370  -3.756  -5.415  0.00  0.00     0.006 A 
ATOM      5  C4  UNL d   1       4.011  -2.517  -5.416  0.00  0.00    -0.005 A 
ATOM      6  C5  UNL d   1       5.300  -2.389  -4.891  0.00  0.00    -0.074 A 
ATOM      7  C6  UNL d   1       6.000  -1.063  -4.875  0.00  0.00     0.077 C 
ATOM      8  C7  UNL d   1       5.935  -3.520  -4.359  0.00  0.00    -0.001 A 
ENDROOT
TORSDOF 0
ENDMDL
