MODEL 1
REMARK minimizedAffinity 5.57457542
REMARK minimizedRMSD -1
REMARK  0 active torsions:
REMARK  status: ('A' for Active; 'I' for Inactive)
ROOT
ATOM      1  C4' PXY d   1       3.364   5.436  -6.000  0.00  0.00     0.077 C 
ATOM      2  C1' PXY d   1       5.972   5.985  -0.870  0.00  0.00     0.077 C 
ATOM      3  C1  PXY d   1       5.277   5.836  -2.210  0.00  0.00    -0.082 A 
ATOM      4  C2  PXY d   1       6.000   5.756  -3.315  0.00  0.00     0.003 A 
ATOM      5  C3  PXY d   1       5.387   5.653  -4.538  0.00  0.00     0.003 A 
ATOM      6  C4  PXY d   1       4.023   5.578  -4.625  0.00  0.00    -0.082 A 
ATOM      7  C5  PXY d   1       3.279   5.648  -3.500  0.00  0.00     0.003 A 
ATOM      8  C6  PXY d   1       3.919   5.794  -2.273  0.00  0.00     0.003 A 
ENDROOT
TORSDOF 0
ENDMDL
