MODEL 1
REMARK minimizedAffinity 8.75090981
REMARK minimizedRMSD -1
REMARK  0 active torsions:
REMARK  status: ('A' for Active; 'I' for Inactive)
ROOT
ATOM      1  C4' PXY d   1       3.006  -2.403  -4.119  0.00  0.00     0.077 C 
ATOM      2  C1' PXY d   1      -1.696  -1.913  -0.793  0.00  0.00     0.077 C 
ATOM      3  C1  PXY d   1      -0.470  -2.040  -1.676  0.00  0.00    -0.082 A 
ATOM      4  C2  PXY d   1       0.608  -2.653  -1.214  0.00  0.00     0.003 A 
ATOM      5  C3  PXY d   1       1.736  -2.749  -1.988  0.00  0.00     0.003 A 
ATOM      6  C4  PXY d   1       1.743  -2.260  -3.266  0.00  0.00    -0.082 A 
ATOM      7  C5  PXY d   1       0.643  -1.643  -3.749  0.00  0.00     0.003 A 
ATOM      8  C6  PXY d   1      -0.478  -1.519  -2.933  0.00  0.00     0.003 A 
ENDROOT
TORSDOF 0
ENDMDL
