MODEL 1
REMARK minimizedAffinity 10.1855879
REMARK minimizedRMSD -1
REMARK  0 active torsions:
REMARK  status: ('A' for Active; 'I' for Inactive)
ROOT
ATOM      1  C4' PXY d   1       5.325   5.994  -0.720  0.00  0.00     0.077 C 
ATOM      2  C1' PXY d   1       4.201   2.719  -5.349  0.00  0.00     0.077 C 
ATOM      3  C1  PXY d   1       4.485   3.585  -4.138  0.00  0.00    -0.082 A 
ATOM      4  C2  PXY d   1       5.724   3.695  -3.688  0.00  0.00     0.003 A 
ATOM      5  C3  PXY d   1       5.994   4.448  -2.574  0.00  0.00     0.003 A 
ATOM      6  C4  PXY d   1       4.993   5.138  -1.946  0.00  0.00    -0.082 A 
ATOM      7  C5  PXY d   1       3.727   5.040  -2.405  0.00  0.00     0.003 A 
ATOM      8  C6  PXY d   1       3.468   4.238  -3.512  0.00  0.00     0.003 A 
ENDROOT
TORSDOF 0
ENDMDL
