MODEL 1
REMARK minimizedAffinity 5.44540882
REMARK minimizedRMSD -1
REMARK  0 active torsions:
REMARK  status: ('A' for Active; 'I' for Inactive)
ROOT
ATOM      1  C4' PXY d   1      -1.516  -2.555  -3.512  0.00  0.00     0.077 C 
ATOM      2  C1' PXY d   1       3.781  -1.349  -1.536  0.00  0.00     0.077 C 
ATOM      3  C1  PXY d   1       2.387  -1.667  -2.042  0.00  0.00    -0.082 A 
ATOM      4  C2  PXY d   1       2.225  -2.096  -3.283  0.00  0.00     0.003 A 
ATOM      5  C3  PXY d   1       0.969  -2.358  -3.767  0.00  0.00     0.003 A 
ATOM      6  C4  PXY d   1      -0.127  -2.230  -2.956  0.00  0.00    -0.082 A 
ATOM      7  C5  PXY d   1       0.032  -1.803  -1.685  0.00  0.00     0.003 A 
ATOM      8  C6  PXY d   1       1.311  -1.503  -1.226  0.00  0.00     0.003 A 
ENDROOT
TORSDOF 0
ENDMDL
