MODEL 1
REMARK minimizedAffinity 1.12285256
REMARK minimizedRMSD -1
REMARK  0 active torsions:
REMARK  status: ('A' for Active; 'I' for Inactive)
ROOT
ATOM      1  C4' PXY d   1       3.453   5.993  -4.710  0.00  0.00     0.077 C 
ATOM      2  C1' PXY d   1       6.000   4.213   0.165  0.00  0.00     0.077 C 
ATOM      3  C1  PXY d   1       5.325   4.669  -1.114  0.00  0.00    -0.082 A 
ATOM      4  C2  PXY d   1       5.928   5.553  -1.892  0.00  0.00     0.003 A 
ATOM      5  C3  PXY d   1       5.317   6.000  -3.036  0.00  0.00     0.003 A 
ATOM      6  C4  PXY d   1       4.101   5.497  -3.414  0.00  0.00    -0.082 A 
ATOM      7  C5  PXY d   1       3.485   4.587  -2.631  0.00  0.00     0.003 A 
ATOM      8  C6  PXY d   1       4.103   4.177  -1.453  0.00  0.00     0.003 A 
ENDROOT
TORSDOF 0
ENDMDL
