MODEL 1
REMARK minimizedAffinity 2.88445783
REMARK minimizedRMSD -1
REMARK  0 active torsions:
REMARK  status: ('A' for Active; 'I' for Inactive)
ROOT
ATOM      1  C4' PXY d   1       5.995   6.000  -0.954  0.00  0.00     0.077 C 
ATOM      2  C1' PXY d   1       4.161   3.518  -5.842  0.00  0.00     0.077 C 
ATOM      3  C1  PXY d   1       4.638   4.180  -4.565  0.00  0.00    -0.082 A 
ATOM      4  C2  PXY d   1       5.578   3.599  -3.838  0.00  0.00     0.003 A 
ATOM      5  C3  PXY d   1       5.999   4.168  -2.664  0.00  0.00     0.003 A 
ATOM      6  C4  PXY d   1       5.490   5.372  -2.256  0.00  0.00    -0.082 A 
ATOM      7  C5  PXY d   1       4.538   5.977  -2.998  0.00  0.00     0.003 A 
ATOM      8  C6  PXY d   1       4.095   5.362  -4.165  0.00  0.00     0.003 A 
ENDROOT
TORSDOF 0
ENDMDL
