MODEL 1
REMARK minimizedAffinity -1.18919539
REMARK minimizedRMSD -1
REMARK  0 active torsions:
REMARK  status: ('A' for Active; 'I' for Inactive)
ROOT
ATOM      1  C4' PXY d   1       4.269   4.685  -5.982  0.00  0.00     0.077 C 
ATOM      2  C1' PXY d   1       5.995   5.236  -0.493  0.00  0.00     0.077 C 
ATOM      3  C1  PXY d   1       5.553   5.084  -1.935  0.00  0.00    -0.082 A 
ATOM      4  C2  PXY d   1       4.765   5.998  -2.477  0.00  0.00     0.003 A 
ATOM      5  C3  PXY d   1       4.330   5.860  -3.770  0.00  0.00     0.003 A 
ATOM      6  C4  PXY d   1       4.748   4.803  -4.533  0.00  0.00    -0.082 A 
ATOM      7  C5  PXY d   1       5.561   3.871  -3.990  0.00  0.00     0.003 A 
ATOM      8  C6  PXY d   1       5.958   4.008  -2.663  0.00  0.00     0.003 A 
ENDROOT
TORSDOF 0
ENDMDL
