MODEL 1
REMARK minimizedAffinity 7.29331398
REMARK minimizedRMSD -1
REMARK  0 active torsions:
REMARK  status: ('A' for Active; 'I' for Inactive)
ROOT
ATOM      1  C4' PXY d   1       3.324   5.955  -1.397  0.00  0.00     0.077 C 
ATOM      2  C1' PXY d   1       5.997   3.474  -5.883  0.00  0.00     0.077 C 
ATOM      3  C1  PXY d   1       5.286   4.128  -4.714  0.00  0.00    -0.082 A 
ATOM      4  C2  PXY d   1       5.986   4.534  -3.667  0.00  0.00     0.003 A 
ATOM      5  C3  PXY d   1       5.356   5.099  -2.588  0.00  0.00     0.003 A 
ATOM      6  C4  PXY d   1       4.001   5.298  -2.604  0.00  0.00    -0.082 A 
ATOM      7  C5  PXY d   1       3.281   4.896  -3.673  0.00  0.00     0.003 A 
ATOM      8  C6  PXY d   1       3.935   4.287  -4.740  0.00  0.00     0.003 A 
ENDROOT
TORSDOF 0
ENDMDL
