MODEL 1
REMARK minimizedAffinity 0.719675183
REMARK minimizedRMSD -1
REMARK  0 active torsions:
REMARK  status: ('A' for Active; 'I' for Inactive)
ROOT
ATOM      1  C4' PXY d   1       5.999   5.892  -0.479  0.00  0.00     0.077 C 
ATOM      2  C1' PXY d   1       3.004   3.301  -4.690  0.00  0.00     0.077 C 
ATOM      3  C1  PXY d   1       3.800   3.974  -3.589  0.00  0.00    -0.082 A 
ATOM      4  C2  PXY d   1       3.174   4.445  -2.523  0.00  0.00     0.003 A 
ATOM      5  C3  PXY d   1       3.875   5.085  -1.533  0.00  0.00     0.003 A 
ATOM      6  C4  PXY d   1       5.237   5.196  -1.610  0.00  0.00    -0.082 A 
ATOM      7  C5  PXY d   1       5.885   4.709  -2.690  0.00  0.00     0.003 A 
ATOM      8  C6  PXY d   1       5.150   4.099  -3.703  0.00  0.00     0.003 A 
ENDROOT
TORSDOF 0
ENDMDL
