MODEL 1
REMARK minimizedAffinity -0.54527092
REMARK minimizedRMSD -1
REMARK  0 active torsions:
REMARK  status: ('A' for Active; 'I' for Inactive)
ROOT
ATOM      1  C4' PXY d   1       5.950   1.252  -5.920  0.00  0.00     0.077 C 
ATOM      2  C1' PXY d   1       3.777   5.998  -3.437  0.00  0.00     0.077 C 
ATOM      3  C1  PXY d   1       4.335   4.750  -4.093  0.00  0.00    -0.082 A 
ATOM      4  C2  PXY d   1       5.442   4.201  -3.619  0.00  0.00     0.003 A 
ATOM      5  C3  PXY d   1       5.978   3.091  -4.220  0.00  0.00     0.003 A 
ATOM      6  C4  PXY d   1       5.345   2.506  -5.284  0.00  0.00    -0.082 A 
ATOM      7  C5  PXY d   1       4.210   3.054  -5.767  0.00  0.00     0.003 A 
ATOM      8  C6  PXY d   1       3.705   4.205  -5.168  0.00  0.00     0.003 A 
ENDROOT
TORSDOF 0
ENDMDL
