MODEL 1
REMARK minimizedAffinity -4.4557271
REMARK minimizedRMSD -1
REMARK  0 active torsions:
REMARK  status: ('A' for Active; 'I' for Inactive)
ROOT
ATOM      1  C4' PXY d   1       3.890   1.684  -5.972  0.00  0.00     0.077 C 
ATOM      2  C1' PXY d   1       5.542   5.999  -2.499  0.00  0.00     0.077 C 
ATOM      3  C1  PXY d   1       5.097   4.868  -3.404  0.00  0.00    -0.082 A 
ATOM      4  C2  PXY d   1       6.000   4.050  -3.922  0.00  0.00     0.003 A 
ATOM      5  C3  PXY d   1       5.618   3.041  -4.768  0.00  0.00     0.003 A 
ATOM      6  C4  PXY d   1       4.293   2.835  -5.046  0.00  0.00    -0.082 A 
ATOM      7  C5  PXY d   1       3.365   3.658  -4.513  0.00  0.00     0.003 A 
ATOM      8  C6  PXY d   1       3.777   4.701  -3.690  0.00  0.00     0.003 A 
ENDROOT
TORSDOF 0
ENDMDL
