MODEL 1
REMARK minimizedAffinity -3.76623178
REMARK minimizedRMSD -1
REMARK  0 active torsions:
REMARK  status: ('A' for Active; 'I' for Inactive)
ROOT
ATOM      1  C4' PXY d   1       4.789   1.594  -6.000  0.00  0.00     0.077 C 
ATOM      2  C1' PXY d   1       4.927   5.998  -2.258  0.00  0.00     0.077 C 
ATOM      3  C1  PXY d   1       4.879   4.841  -3.236  0.00  0.00    -0.082 A 
ATOM      4  C2  PXY d   1       5.999   4.224  -3.575  0.00  0.00     0.003 A 
ATOM      5  C3  PXY d   1       5.977   3.196  -4.483  0.00  0.00     0.003 A 
ATOM      6  C4  PXY d   1       4.790   2.761  -5.009  0.00  0.00    -0.082 A 
ATOM      7  C5  PXY d   1       3.641   3.379  -4.659  0.00  0.00     0.003 A 
ATOM      8  C6  PXY d   1       3.690   4.447  -3.768  0.00  0.00     0.003 A 
ENDROOT
TORSDOF 0
ENDMDL
