MODEL 1
REMARK minimizedAffinity 18.6421204
REMARK minimizedRMSD -1
REMARK  0 active torsions:
REMARK  status: ('A' for Active; 'I' for Inactive)
ROOT
ATOM      1  C4' PXY d   1      -1.565  -1.661   4.891  0.00  0.00     0.077 C 
ATOM      2  C1' PXY d   1      -5.902   1.996   6.000  0.00  0.00     0.077 C 
ATOM      3  C1  PXY d   1      -4.760   1.045   5.700  0.00  0.00    -0.082 A 
ATOM      4  C2  PXY d   1      -4.889  -0.241   5.981  0.00  0.00     0.003 A 
ATOM      5  C3  PXY d   1      -3.854  -1.110   5.746  0.00  0.00     0.003 A 
ATOM      6  C4  PXY d   1      -2.695  -0.666   5.168  0.00  0.00    -0.082 A 
ATOM      7  C5  PXY d   1      -2.560   0.643   4.868  0.00  0.00     0.003 A 
ATOM      8  C6  PXY d   1      -3.606   1.516   5.153  0.00  0.00     0.003 A 
ENDROOT
TORSDOF 0
ENDMDL
