MODEL 1
REMARK minimizedAffinity 10.186101
REMARK minimizedRMSD -1
REMARK  0 active torsions:
REMARK  status: ('A' for Active; 'I' for Inactive)
ROOT
ATOM      1  C4' PXY d   1       2.343  -2.417  -3.424  0.00  0.00     0.077 C 
ATOM      2  C1' PXY d   1      -2.314  -2.413   0.001  0.00  0.00     0.077 C 
ATOM      3  C1  PXY d   1      -1.100  -2.413  -0.908  0.00  0.00    -0.082 A 
ATOM      4  C2  PXY d   1       0.045  -2.912  -0.469  0.00  0.00     0.003 A 
ATOM      5  C3  PXY d   1       1.160  -2.891  -1.266  0.00  0.00     0.003 A 
ATOM      6  C4  PXY d   1       1.090  -2.404  -2.544  0.00  0.00    -0.082 A 
ATOM      7  C5  PXY d   1      -0.077  -1.904  -3.002  0.00  0.00     0.003 A 
ATOM      8  C6  PXY d   1      -1.187  -1.896  -2.163  0.00  0.00     0.003 A 
ENDROOT
TORSDOF 0
ENDMDL
