MODEL 1
REMARK minimizedAffinity -2.60445595
REMARK minimizedRMSD -1
REMARK  0 active torsions:
REMARK  status: ('A' for Active; 'I' for Inactive)
ROOT
ATOM      1  C4' PXY d   1       4.171  -2.098   0.238  0.00  0.00     0.077 C 
ATOM      2  C1' PXY d   1       3.815  -1.579   5.984  0.00  0.00     0.077 C 
ATOM      3  C1  PXY d   1       3.917  -1.725   4.479  0.00  0.00    -0.082 A 
ATOM      4  C2  PXY d   1       3.594  -0.705   3.700  0.00  0.00     0.003 A 
ATOM      5  C3  PXY d   1       3.650  -0.830   2.335  0.00  0.00     0.003 A 
ATOM      6  C4  PXY d   1       4.092  -1.993   1.764  0.00  0.00    -0.082 A 
ATOM      7  C5  PXY d   1       4.434  -3.034   2.552  0.00  0.00     0.003 A 
ATOM      8  C6  PXY d   1       4.331  -2.901   3.934  0.00  0.00     0.003 A 
ENDROOT
TORSDOF 0
ENDMDL
