MODEL 1
REMARK minimizedAffinity -2.2367034
REMARK minimizedRMSD -1
REMARK  0 active torsions:
REMARK  status: ('A' for Active; 'I' for Inactive)
ROOT
ATOM      1  C4' PXY d   1       5.913   2.136  -5.925  0.00  0.00     0.077 C 
ATOM      2  C1' PXY d   1       3.641   5.999  -2.273  0.00  0.00     0.077 C 
ATOM      3  C1  PXY d   1       4.249   4.989  -3.226  0.00  0.00    -0.082 A 
ATOM      4  C2  PXY d   1       3.615   4.682  -4.346  0.00  0.00     0.003 A 
ATOM      5  C3  PXY d   1       4.134   3.747  -5.204  0.00  0.00     0.003 A 
ATOM      6  C4  PXY d   1       5.342   3.158  -4.938  0.00  0.00    -0.082 A 
ATOM      7  C5  PXY d   1       6.000   3.473  -3.802  0.00  0.00     0.003 A 
ATOM      8  C6  PXY d   1       5.436   4.395  -2.925  0.00  0.00     0.003 A 
ENDROOT
TORSDOF 0
ENDMDL
