MODEL 1
REMARK minimizedAffinity -0.193316534
REMARK minimizedRMSD -1
REMARK  0 active torsions:
REMARK  status: ('A' for Active; 'I' for Inactive)
ROOT
ATOM      1  C4' PXY d   1       5.357   3.090  -5.658  0.00  0.00     0.077 C 
ATOM      2  C1' PXY d   1       4.387   6.000  -0.758  0.00  0.00     0.077 C 
ATOM      3  C1  PXY d   1       4.629   5.236  -2.045  0.00  0.00    -0.082 A 
ATOM      4  C2  PXY d   1       5.751   4.553  -2.199  0.00  0.00     0.003 A 
ATOM      5  C3  PXY d   1       6.000   3.883  -3.369  0.00  0.00     0.003 A 
ATOM      6  C4  PXY d   1       5.067   3.868  -4.371  0.00  0.00    -0.082 A 
ATOM      7  C5  PXY d   1       3.915   4.554  -4.217  0.00  0.00     0.003 A 
ATOM      8  C6  PXY d   1       3.699   5.262  -3.038  0.00  0.00     0.003 A 
ENDROOT
TORSDOF 0
ENDMDL
