MODEL 1
REMARK minimizedAffinity 0.86740458
REMARK minimizedRMSD -1
REMARK  0 active torsions:
REMARK  status: ('A' for Active; 'I' for Inactive)
ROOT
ATOM      1  C4' PXY d   1       5.959   2.953  -5.998  0.00  0.00     0.077 C 
ATOM      2  C1' PXY d   1       5.988   5.990  -1.080  0.00  0.00     0.077 C 
ATOM      3  C1  PXY d   1       5.976   5.204  -2.376  0.00  0.00    -0.082 A 
ATOM      4  C2  PXY d   1       5.953   3.882  -2.339  0.00  0.00     0.003 A 
ATOM      5  C3  PXY d   1       5.974   3.154  -3.501  0.00  0.00     0.003 A 
ATOM      6  C4  PXY d   1       5.963   3.788  -4.715  0.00  0.00    -0.082 A 
ATOM      7  C5  PXY d   1       5.975   5.137  -4.761  0.00  0.00     0.003 A 
ATOM      8  C6  PXY d   1       5.996   5.856  -3.570  0.00  0.00     0.003 A 
ENDROOT
TORSDOF 0
ENDMDL
