MODEL 1
REMARK minimizedAffinity -3.08864212
REMARK minimizedRMSD -1
REMARK  0 active torsions:
REMARK  status: ('A' for Active; 'I' for Inactive)
ROOT
ATOM      1  C4' PXY d   1       3.127   4.165  -1.198  0.00  0.00     0.077 C 
ATOM      2  C1' PXY d   1       5.997   5.622  -6.000  0.00  0.00     0.077 C 
ATOM      3  C1  PXY d   1       5.256   5.239  -4.734  0.00  0.00    -0.082 A 
ATOM      4  C2  PXY d   1       4.068   4.662  -4.821  0.00  0.00     0.003 A 
ATOM      5  C3  PXY d   1       3.370   4.339  -3.686  0.00  0.00     0.003 A 
ATOM      6  C4  PXY d   1       3.916   4.560  -2.450  0.00  0.00    -0.082 A 
ATOM      7  C5  PXY d   1       5.131   5.139  -2.353  0.00  0.00     0.003 A 
ATOM      8  C6  PXY d   1       5.806   5.497  -3.517  0.00  0.00     0.003 A 
ENDROOT
TORSDOF 0
ENDMDL
