MODEL 1
REMARK minimizedAffinity 3.82595825
REMARK minimizedRMSD -1
REMARK  0 active torsions:
REMARK  status: ('A' for Active; 'I' for Inactive)
ROOT
ATOM      1  C4' PXY d   1       3.512   4.076  -1.112  0.00  0.00     0.077 C 
ATOM      2  C1' PXY d   1       5.997   5.911  -5.998  0.00  0.00     0.077 C 
ATOM      3  C1  PXY d   1       5.334   5.432  -4.722  0.00  0.00    -0.082 A 
ATOM      4  C2  PXY d   1       5.989   5.508  -3.575  0.00  0.00     0.003 A 
ATOM      5  C3  PXY d   1       5.416   5.050  -2.417  0.00  0.00     0.003 A 
ATOM      6  C4  PXY d   1       4.139   4.557  -2.424  0.00  0.00    -0.082 A 
ATOM      7  C5  PXY d   1       3.460   4.485  -3.588  0.00  0.00     0.003 A 
ATOM      8  C6  PXY d   1       4.074   4.918  -4.760  0.00  0.00     0.003 A 
ENDROOT
TORSDOF 0
ENDMDL
