MODEL 1
REMARK minimizedAffinity -1.49134517
REMARK minimizedRMSD -1
REMARK  0 active torsions:
REMARK  status: ('A' for Active; 'I' for Inactive)
ROOT
ATOM      1  C   UNL d   1       1.526   3.325  -3.342  0.00  0.00     0.023 A 
ATOM      2  C1  UNL d   1       0.188   3.002  -3.121  0.00  0.00     0.003 A 
ATOM      3  C2  UNL d   1      -0.154   2.070  -2.139  0.00  0.00     0.048 A 
ATOM      4  C3  UNL d   1       0.848   1.466  -1.380  0.00  0.00     0.023 A 
ATOM      5  C4  UNL d   1       2.189   1.787  -1.597  0.00  0.00     0.048 A 
ATOM      6  C5  UNL d   1       2.526   2.719  -2.581  0.00  0.00     0.003 A 
ATOM      7  I   UNL d   1       0.342   0.079   0.082  0.00  0.00    -0.146 I 
ENDROOT
TORSDOF 0
ENDMDL
