MODEL 1
REMARK minimizedAffinity -3.36838031
REMARK minimizedRMSD -1
REMARK  0 active torsions:
REMARK  status: ('A' for Active; 'I' for Inactive)
ROOT
ATOM      1  C   UNL d   1      -0.607  -2.227   1.333  0.00  0.00     0.023 A 
ATOM      2  C1  UNL d   1       0.722  -2.022   0.961  0.00  0.00     0.003 A 
ATOM      3  C2  UNL d   1       1.095  -0.840   0.318  0.00  0.00     0.048 A 
ATOM      4  C3  UNL d   1       0.134   0.135   0.052  0.00  0.00     0.023 A 
ATOM      5  C4  UNL d   1      -1.197  -0.065   0.423  0.00  0.00     0.048 A 
ATOM      6  C5  UNL d   1      -1.565  -1.249   1.064  0.00  0.00     0.003 A 
ATOM      7  I   UNL d   1       0.687   1.896  -0.903  0.00  0.00    -0.146 I 
ENDROOT
TORSDOF 0
ENDMDL
