MODEL 1
REMARK minimizedAffinity -3.84328294
REMARK minimizedRMSD -1
REMARK  0 active torsions:
REMARK  status: ('A' for Active; 'I' for Inactive)
ROOT
ATOM      1  C   UNL d   1      -0.548  -2.440   1.715  0.00  0.00     0.023 A 
ATOM      2  C1  UNL d   1      -1.194  -1.210   1.837  0.00  0.00     0.003 A 
ATOM      3  C2  UNL d   1      -0.832  -0.144   1.010  0.00  0.00     0.048 A 
ATOM      4  C3  UNL d   1       0.177  -0.316   0.063  0.00  0.00     0.023 A 
ATOM      5  C4  UNL d   1       0.826  -1.546  -0.063  0.00  0.00     0.048 A 
ATOM      6  C5  UNL d   1       0.461  -2.607   0.767  0.00  0.00     0.003 A 
ATOM      7  I   UNL d   1       0.718   1.268  -1.169  0.00  0.00    -0.146 I 
ENDROOT
TORSDOF 0
ENDMDL
