MODEL 1
REMARK minimizedAffinity -2.10230875
REMARK minimizedRMSD -1
REMARK  0 active torsions:
REMARK  status: ('A' for Active; 'I' for Inactive)
ROOT
ATOM      1  C   UNL d   1      -1.759  -2.380   1.894  0.00  0.00     0.023 A 
ATOM      2  C1  UNL d   1      -0.690  -2.629   1.034  0.00  0.00     0.003 A 
ATOM      3  C2  UNL d   1      -0.117  -1.582   0.309  0.00  0.00     0.048 A 
ATOM      4  C3  UNL d   1      -0.618  -0.288   0.450  0.00  0.00     0.023 A 
ATOM      5  C4  UNL d   1      -1.687  -0.034   1.311  0.00  0.00     0.048 A 
ATOM      6  C5  UNL d   1      -2.257  -1.085   2.033  0.00  0.00     0.003 A 
ATOM      7  I   UNL d   1       0.233   1.272  -0.627  0.00  0.00    -0.146 I 
ENDROOT
TORSDOF 0
ENDMDL
