MODEL 1
REMARK minimizedAffinity -3.82528496
REMARK minimizedRMSD -1
REMARK  0 active torsions:
REMARK  status: ('A' for Active; 'I' for Inactive)
ROOT
ATOM      1  C   UNL d   1       0.806  -0.997   0.202  0.00  0.00     0.023 A 
ATOM      2  C1  UNL d   1       1.062   0.351   0.453  0.00  0.00     0.003 A 
ATOM      3  C2  UNL d   1       1.042   1.274  -0.594  0.00  0.00     0.048 A 
ATOM      4  C3  UNL d   1       0.765   0.842  -1.891  0.00  0.00     0.023 A 
ATOM      5  C4  UNL d   1       0.507  -0.506  -2.147  0.00  0.00     0.048 A 
ATOM      6  C5  UNL d   1       0.529  -1.425  -1.096  0.00  0.00     0.003 A 
ATOM      7  I   UNL d   1       0.734   2.214  -3.452  0.00  0.00    -0.146 I 
ENDROOT
TORSDOF 0
ENDMDL
