MODEL 1
REMARK minimizedAffinity -1.78195369
REMARK minimizedRMSD -1
REMARK  0 active torsions:
REMARK  status: ('A' for Active; 'I' for Inactive)
ROOT
ATOM      1  C   UNL d   1       0.659   2.331  -3.071  0.00  0.00     0.023 A 
ATOM      2  C1  UNL d   1      -0.190   1.235  -3.224  0.00  0.00     0.003 A 
ATOM      3  C2  UNL d   1      -0.230   0.239  -2.246  0.00  0.00     0.048 A 
ATOM      4  C3  UNL d   1       0.580   0.346  -1.117  0.00  0.00     0.023 A 
ATOM      5  C4  UNL d   1       1.431   1.442  -0.959  0.00  0.00     0.048 A 
ATOM      6  C5  UNL d   1       1.468   2.434  -1.940  0.00  0.00     0.003 A 
ATOM      7  I   UNL d   1       0.522  -1.135   0.340  0.00  0.00    -0.146 I 
ENDROOT
TORSDOF 0
ENDMDL
