MODEL 1
REMARK minimizedAffinity -3.75476956
REMARK minimizedRMSD -1
REMARK  0 active torsions:
REMARK  status: ('A' for Active; 'I' for Inactive)
ROOT
ATOM      1  C   UNL d   1       0.312   1.803   0.339  0.00  0.00     0.023 A 
ATOM      2  C1  UNL d   1      -0.999   1.642   0.787  0.00  0.00     0.003 A 
ATOM      3  C2  UNL d   1      -1.542   0.362   0.917  0.00  0.00     0.048 A 
ATOM      4  C3  UNL d   1      -0.768  -0.753   0.598  0.00  0.00     0.023 A 
ATOM      5  C4  UNL d   1       0.545  -0.597   0.150  0.00  0.00     0.048 A 
ATOM      6  C5  UNL d   1       1.083   0.685   0.021  0.00  0.00     0.003 A 
ATOM      7  I   UNL d   1      -1.574  -2.659   0.790  0.00  0.00    -0.146 I 
ENDROOT
TORSDOF 0
ENDMDL
