MODEL 1
REMARK minimizedAffinity -3.74205446
REMARK minimizedRMSD -1
REMARK  0 active torsions:
REMARK  status: ('A' for Active; 'I' for Inactive)
ROOT
ATOM      1  C   UNL d   1       0.897   1.473  -2.291  0.00  0.00     0.023 A 
ATOM      2  C1  UNL d   1       0.743   0.149  -2.704  0.00  0.00     0.003 A 
ATOM      3  C2  UNL d   1       0.347  -0.828  -1.789  0.00  0.00     0.048 A 
ATOM      4  C3  UNL d   1       0.105  -0.474  -0.462  0.00  0.00     0.023 A 
ATOM      5  C4  UNL d   1       0.256   0.849  -0.044  0.00  0.00     0.048 A 
ATOM      6  C5  UNL d   1       0.653   1.822  -0.963  0.00  0.00     0.003 A 
ATOM      7  I   UNL d   1      -0.486  -1.926   0.903  0.00  0.00    -0.146 I 
ENDROOT
TORSDOF 0
ENDMDL
