MODEL 1
REMARK minimizedAffinity -2.08174801
REMARK minimizedRMSD -1
REMARK  0 active torsions:
REMARK  status: ('A' for Active; 'I' for Inactive)
ROOT
ATOM      1  C   UNL d   1      -0.306  -1.007   0.774  0.00  0.00     0.023 A 
ATOM      2  C1  UNL d   1       1.012  -0.866   0.340  0.00  0.00     0.003 A 
ATOM      3  C2  UNL d   1       1.316   0.022  -0.695  0.00  0.00     0.048 A 
ATOM      4  C3  UNL d   1       0.297   0.766  -1.289  0.00  0.00     0.023 A 
ATOM      5  C4  UNL d   1      -1.023   0.628  -0.857  0.00  0.00     0.048 A 
ATOM      6  C5  UNL d   1      -1.322  -0.262   0.177  0.00  0.00     0.003 A 
ATOM      7  I   UNL d   1       0.747   2.088  -2.829  0.00  0.00    -0.146 I 
ENDROOT
TORSDOF 0
ENDMDL
