MODEL 1
REMARK minimizedAffinity -1.61858916
REMARK minimizedRMSD -1
REMARK  0 active torsions:
REMARK  status: ('A' for Active; 'I' for Inactive)
ROOT
ATOM      1  C   UNL d   1       0.139  -2.230   0.891  0.00  0.00     0.023 A 
ATOM      2  C1  UNL d   1       0.708  -2.427  -0.367  0.00  0.00     0.003 A 
ATOM      3  C2  UNL d   1       0.890  -1.344  -1.230  0.00  0.00     0.048 A 
ATOM      4  C3  UNL d   1       0.502  -0.067  -0.827  0.00  0.00     0.023 A 
ATOM      5  C4  UNL d   1      -0.067   0.135   0.431  0.00  0.00     0.048 A 
ATOM      6  C5  UNL d   1      -0.247  -0.951   1.290  0.00  0.00     0.003 A 
ATOM      7  I   UNL d   1       0.772   1.547  -2.109  0.00  0.00    -0.146 I 
ENDROOT
TORSDOF 0
ENDMDL
