MODEL 1
REMARK minimizedAffinity -3.69762611
REMARK minimizedRMSD -1
REMARK  0 active torsions:
REMARK  status: ('A' for Active; 'I' for Inactive)
ROOT
ATOM      1  C   UNL d   1      -2.310  -2.133   1.627  0.00  0.00     0.023 A 
ATOM      2  C1  UNL d   1      -1.277  -2.646   0.844  0.00  0.00     0.003 A 
ATOM      3  C2  UNL d   1      -0.445  -1.782   0.129  0.00  0.00     0.048 A 
ATOM      4  C3  UNL d   1      -0.652  -0.405   0.203  0.00  0.00     0.023 A 
ATOM      5  C4  UNL d   1      -1.684   0.114   0.986  0.00  0.00     0.048 A 
ATOM      6  C5  UNL d   1      -2.514  -0.754   1.699  0.00  0.00     0.003 A 
ATOM      7  I   UNL d   1       0.585   0.884  -0.860  0.00  0.00    -0.146 I 
ENDROOT
TORSDOF 0
ENDMDL
