MODEL 1
REMARK minimizedAffinity 0.998942852
REMARK minimizedRMSD -1
REMARK  0 active torsions:
REMARK  status: ('A' for Active; 'I' for Inactive)
ROOT
ATOM      1  C   UNL d   1       4.150  -5.890  -1.499  0.00  0.00    -0.002 A 
ATOM      2  C1  UNL d   1       5.392  -5.865  -2.118  0.00  0.00     0.010 A 
ATOM      3  C2  UNL d   1       5.492  -5.884  -3.511  0.00  0.00     0.041 A 
ATOM      4  C3  UNL d   1       4.311  -5.926  -4.278  0.00  0.00    -0.075 A 
ATOM      5  S   UNL d   1       4.190  -5.955  -5.998  0.00  0.00     0.015 SA
ATOM      6  C4  UNL d   1       2.487  -5.999  -5.951  0.00  0.00     0.022 A 
ATOM      7  C5  UNL d   1       2.006  -5.993  -4.663  0.00  0.00     0.026 A 
ATOM      8  C6  UNL d   1       3.049  -5.951  -3.678  0.00  0.00    -0.082 A 
ATOM      9  C7  UNL d   1       2.981  -5.932  -2.264  0.00  0.00     0.045 A 
ENDROOT
TORSDOF 0
ENDMDL
