MODEL 1
REMARK minimizedAffinity 13.9617529
REMARK minimizedRMSD -1
REMARK  0 active torsions:
REMARK  status: ('A' for Active; 'I' for Inactive)
ROOT
ATOM      1  C   UNL d   1      -1.933  -0.411  -1.816  0.00  0.00    -0.002 A 
ATOM      2  C1  UNL d   1      -2.330  -1.355  -2.753  0.00  0.00     0.010 A 
ATOM      3  C2  UNL d   1      -3.332  -1.059  -3.679  0.00  0.00     0.041 A 
ATOM      4  C3  UNL d   1      -3.933   0.214  -3.649  0.00  0.00    -0.075 A 
ATOM      5  S   UNL d   1      -5.180   0.800  -4.686  0.00  0.00     0.015 SA
ATOM      6  C4  UNL d   1      -5.215   2.317  -3.911  0.00  0.00     0.022 A 
ATOM      7  C5  UNL d   1      -4.305   2.392  -2.883  0.00  0.00     0.026 A 
ATOM      8  C6  UNL d   1      -3.551   1.182  -2.716  0.00  0.00    -0.082 A 
ATOM      9  C7  UNL d   1      -2.532   0.851  -1.789  0.00  0.00     0.045 A 
ENDROOT
TORSDOF 0
ENDMDL
