MODEL 1
REMARK minimizedAffinity -0.99580282
REMARK minimizedRMSD -1
REMARK  0 active torsions:
REMARK  status: ('A' for Active; 'I' for Inactive)
ROOT
ATOM      1  C   UNL d   1       4.201   1.177  -5.680  0.00  0.00    -0.002 A 
ATOM      2  C1  UNL d   1       5.468   1.037  -5.132  0.00  0.00     0.010 A 
ATOM      3  C2  UNL d   1       6.000  -0.231  -4.888  0.00  0.00     0.041 A 
ATOM      4  C3  UNL d   1       5.230  -1.366  -5.209  0.00  0.00    -0.075 A 
ATOM      5  S   UNL d   1       5.676  -3.018  -4.998  0.00  0.00     0.015 SA
ATOM      6  C4  UNL d   1       4.196  -3.577  -5.632  0.00  0.00     0.022 A 
ATOM      7  C5  UNL d   1       3.369  -2.542  -5.999  0.00  0.00     0.026 A 
ATOM      8  C6  UNL d   1       3.951  -1.251  -5.762  0.00  0.00    -0.082 A 
ATOM      9  C7  UNL d   1       3.440   0.048  -5.997  0.00  0.00     0.045 A 
ENDROOT
TORSDOF 0
ENDMDL
