MODEL 1
REMARK minimizedAffinity 17.8813686
REMARK minimizedRMSD -1
REMARK  0 active torsions:
REMARK  status: ('A' for Active; 'I' for Inactive)
ROOT
ATOM      1  C1  DEN d   1       0.055   4.635  -1.476  0.00  0.00     0.130 A 
ATOM      2  C2  DEN d   1       0.045   5.996  -0.948  0.00  0.00    -0.031 A 
ATOM      3  C3  DEN d   1       0.270   5.922   0.510  0.00  0.00     0.027 A 
ATOM      4  C4  DEN d   1       0.635   3.842   1.991  0.00  0.00     0.027 A 
ATOM      5  C5  DEN d   1       0.715   2.467   1.996  0.00  0.00    -0.003 A 
ATOM      6  C6  DEN d   1       0.549   1.722   0.858  0.00  0.00     0.001 A 
ATOM      7  C7  DEN d   1       0.338   2.351  -0.340  0.00  0.00     0.017 A 
ATOM      8  C8  DEN d   1       0.248   3.737  -0.351  0.00  0.00    -0.094 A 
ATOM      9  C9  DEN d   1       0.432   4.473   0.807  0.00  0.00    -0.072 A 
ENDROOT
TORSDOF 0
ENDMDL
