MODEL 1
REMARK minimizedAffinity 11.0828381
REMARK minimizedRMSD -1
REMARK  0 active torsions:
REMARK  status: ('A' for Active; 'I' for Inactive)
ROOT
ATOM      1  C1  DEN d   1      -1.409   5.632  -1.200  0.00  0.00     0.130 A 
ATOM      2  C2  DEN d   1      -2.615   5.286  -1.947  0.00  0.00    -0.031 A 
ATOM      3  C3  DEN d   1      -2.776   3.819  -1.901  0.00  0.00     0.027 A 
ATOM      4  C4  DEN d   1      -1.287   2.059  -0.746  0.00  0.00     0.027 A 
ATOM      5  C5  DEN d   1      -0.146   1.871   0.002  0.00  0.00    -0.003 A 
ATOM      6  C6  DEN d   1       0.666   2.911   0.370  0.00  0.00     0.001 A 
ATOM      7  C7  DEN d   1       0.324   4.192   0.029  0.00  0.00     0.017 A 
ATOM      8  C8  DEN d   1      -0.821   4.389  -0.732  0.00  0.00    -0.094 A 
ATOM      9  C9  DEN d   1      -1.636   3.326  -1.083  0.00  0.00    -0.072 A 
ENDROOT
TORSDOF 0
ENDMDL
