MODEL 1
REMARK minimizedAffinity 17.9265041
REMARK minimizedRMSD -1
REMARK  0 active torsions:
REMARK  status: ('A' for Active; 'I' for Inactive)
ROOT
ATOM      1  C1  DEN d   1       0.990   3.153   0.129  0.00  0.00     0.130 A 
ATOM      2  C2  DEN d   1       0.252   4.404  -0.016  0.00  0.00    -0.031 A 
ATOM      3  C3  DEN d   1      -1.089   4.084  -0.546  0.00  0.00     0.027 A 
ATOM      4  C4  DEN d   1      -2.089   1.784  -1.146  0.00  0.00     0.027 A 
ATOM      5  C5  DEN d   1      -1.838   0.431  -1.203  0.00  0.00    -0.003 A 
ATOM      6  C6  DEN d   1      -0.625  -0.102  -0.856  0.00  0.00     0.001 A 
ATOM      7  C7  DEN d   1       0.369   0.719  -0.391  0.00  0.00     0.017 A 
ATOM      8  C8  DEN d   1       0.125   2.085  -0.338  0.00  0.00    -0.094 A 
ATOM      9  C9  DEN d   1      -1.112   2.603  -0.683  0.00  0.00    -0.072 A 
ENDROOT
TORSDOF 0
ENDMDL
