MODEL 1
REMARK minimizedAffinity 11.3276711
REMARK minimizedRMSD -1
REMARK  0 active torsions:
REMARK  status: ('A' for Active; 'I' for Inactive)
ROOT
ATOM      1  C1  DEN d   1       4.976  -4.486  -0.169  0.00  0.00     0.130 A 
ATOM      2  C2  DEN d   1       5.740  -3.821  -1.221  0.00  0.00    -0.031 A 
ATOM      3  C3  DEN d   1       5.520  -2.366  -1.095  0.00  0.00     0.027 A 
ATOM      4  C4  DEN d   1       4.083  -1.085   0.621  0.00  0.00     0.027 A 
ATOM      5  C5  DEN d   1       3.240  -1.219   1.702  0.00  0.00    -0.003 A 
ATOM      6  C6  DEN d   1       2.891  -2.443   2.209  0.00  0.00     0.001 A 
ATOM      7  C7  DEN d   1       3.425  -3.580   1.663  0.00  0.00     0.017 A 
ATOM      8  C8  DEN d   1       4.271  -3.454   0.569  0.00  0.00    -0.094 A 
ATOM      9  C9  DEN d   1       4.620  -2.207   0.079  0.00  0.00    -0.072 A 
ENDROOT
TORSDOF 0
ENDMDL
