MODEL 1
REMARK minimizedAffinity 12.7082491
REMARK minimizedRMSD -1
REMARK  0 active torsions:
REMARK  status: ('A' for Active; 'I' for Inactive)
ROOT
ATOM      1  C1  DEN d   1       0.838   5.911   0.201  0.00  0.00     0.130 A 
ATOM      2  C2  DEN d   1       0.558   6.000  -1.230  0.00  0.00    -0.031 A 
ATOM      3  C3  DEN d   1       0.008   4.702  -1.669  0.00  0.00     0.027 A 
ATOM      4  C4  DEN d   1      -0.441   2.576  -0.279  0.00  0.00     0.027 A 
ATOM      5  C5  DEN d   1      -0.353   2.016   0.977  0.00  0.00    -0.003 A 
ATOM      6  C6  DEN d   1       0.166   2.698   2.045  0.00  0.00     0.001 A 
ATOM      7  C7  DEN d   1       0.575   3.996   1.888  0.00  0.00     0.017 A 
ATOM      8  C8  DEN d   1       0.496   4.565   0.624  0.00  0.00    -0.094 A 
ATOM      9  C9  DEN d   1      -0.043   3.863  -0.441  0.00  0.00    -0.072 A 
ENDROOT
TORSDOF 0
ENDMDL
