MODEL 1
REMARK minimizedAffinity 9.09901333
REMARK minimizedRMSD -1
REMARK  0 active torsions:
REMARK  status: ('A' for Active; 'I' for Inactive)
ROOT
ATOM      1  C   UNL d   1       1.488   3.045   3.263  0.00  0.00     0.023 A 
ATOM      2  C1  UNL d   1       2.361   3.986   2.718  0.00  0.00     0.003 A 
ATOM      3  C2  UNL d   1       2.047   4.616   1.512  0.00  0.00     0.048 A 
ATOM      4  C3  UNL d   1       0.858   4.301   0.856  0.00  0.00     0.023 A 
ATOM      5  C4  UNL d   1      -0.019   3.360   1.398  0.00  0.00     0.048 A 
ATOM      6  C5  UNL d   1       0.299   2.732   2.603  0.00  0.00     0.003 A 
ATOM      7  I   UNL d   1       0.389   5.238  -0.939  0.00  0.00    -0.146 I 
ENDROOT
TORSDOF 0
ENDMDL
