MODEL 1
REMARK minimizedAffinity 10.7496614
REMARK minimizedRMSD -1
REMARK  0 active torsions:
REMARK  status: ('A' for Active; 'I' for Inactive)
ROOT
ATOM      1  C   UNL d   1      -0.189   4.096   1.427  0.00  0.00     0.023 A 
ATOM      2  C1  UNL d   1       0.375   3.282   0.444  0.00  0.00     0.003 A 
ATOM      3  C2  UNL d   1       0.733   3.825  -0.792  0.00  0.00     0.048 A 
ATOM      4  C3  UNL d   1       0.525   5.182  -1.037  0.00  0.00     0.023 A 
ATOM      5  C4  UNL d   1      -0.037   6.000  -0.056  0.00  0.00     0.048 A 
ATOM      6  C5  UNL d   1      -0.395   5.453   1.177  0.00  0.00     0.003 A 
ATOM      7  I   UNL d   1       1.058   5.991  -2.876  0.00  0.00    -0.146 I 
ENDROOT
TORSDOF 0
ENDMDL
