MODEL 1
REMARK minimizedAffinity 13.4340219
REMARK minimizedRMSD -1
REMARK  0 active torsions:
REMARK  status: ('A' for Active; 'I' for Inactive)
ROOT
ATOM      1  C   UNL d   1       5.279  -2.405  -0.019  0.00  0.00     0.023 A 
ATOM      2  C1  UNL d   1       6.000  -1.736  -1.008  0.00  0.00     0.003 A 
ATOM      3  C2  UNL d   1       5.999  -2.216  -2.320  0.00  0.00     0.048 A 
ATOM      4  C3  UNL d   1       5.275  -3.365  -2.635  0.00  0.00     0.023 A 
ATOM      5  C4  UNL d   1       4.551  -4.037  -1.648  0.00  0.00     0.048 A 
ATOM      6  C5  UNL d   1       4.555  -3.554  -0.339  0.00  0.00     0.003 A 
ATOM      7  I   UNL d   1       5.272  -4.081  -4.586  0.00  0.00    -0.146 I 
ENDROOT
TORSDOF 0
ENDMDL
