MODEL 1
REMARK minimizedAffinity 6.537673
REMARK minimizedRMSD -1
REMARK  0 active torsions:
REMARK  status: ('A' for Active; 'I' for Inactive)
ROOT
ATOM      1  C   UNL d   1       0.671   4.053  -0.345  0.00  0.00     0.023 A 
ATOM      2  C1  UNL d   1       0.078   3.239   0.620  0.00  0.00     0.003 A 
ATOM      3  C2  UNL d   1      -0.771   3.796   1.579  0.00  0.00     0.048 A 
ATOM      4  C3  UNL d   1      -1.023   5.167   1.566  0.00  0.00     0.023 A 
ATOM      5  C4  UNL d   1      -0.432   5.985   0.602  0.00  0.00     0.048 A 
ATOM      6  C5  UNL d   1       0.417   5.424  -0.354  0.00  0.00     0.003 A 
ATOM      7  I   UNL d   1      -2.286   5.998   2.992  0.00  0.00    -0.146 I 
ENDROOT
TORSDOF 0
ENDMDL
