MODEL 1
REMARK minimizedAffinity 12.1132746
REMARK minimizedRMSD -1
REMARK  0 active torsions:
REMARK  status: ('A' for Active; 'I' for Inactive)
ROOT
ATOM      1  C   UNL d   1      -2.172   1.844   2.261  0.00  0.00     0.023 A 
ATOM      2  C1  UNL d   1      -3.131   1.156   1.518  0.00  0.00     0.003 A 
ATOM      3  C2  UNL d   1      -4.019   0.287   2.156  0.00  0.00     0.048 A 
ATOM      4  C3  UNL d   1      -3.942   0.112   3.538  0.00  0.00     0.023 A 
ATOM      5  C4  UNL d   1      -2.985   0.800   4.285  0.00  0.00     0.048 A 
ATOM      6  C5  UNL d   1      -2.099   1.667   3.643  0.00  0.00     0.003 A 
ATOM      7  I   UNL d   1      -5.263  -1.180   4.490  0.00  0.00    -0.146 I 
ENDROOT
TORSDOF 0
ENDMDL
