MODEL 1
REMARK minimizedAffinity 5.39042377
REMARK minimizedRMSD -1
REMARK  0 active torsions:
REMARK  status: ('A' for Active; 'I' for Inactive)
ROOT
ATOM      1  C   UNL d   1       0.106   5.805  -0.525  0.00  0.00     0.023 A 
ATOM      2  C1  UNL d   1       0.792   4.623  -0.805  0.00  0.00     0.003 A 
ATOM      3  C2  UNL d   1       0.907   3.633   0.174  0.00  0.00     0.048 A 
ATOM      4  C3  UNL d   1       0.333   3.832   1.429  0.00  0.00     0.023 A 
ATOM      5  C4  UNL d   1      -0.354   5.013   1.713  0.00  0.00     0.048 A 
ATOM      6  C5  UNL d   1      -0.466   6.000   0.732  0.00  0.00     0.003 A 
ATOM      7  I   UNL d   1       0.503   2.359   2.886  0.00  0.00    -0.146 I 
ENDROOT
TORSDOF 0
ENDMDL
