MODEL 1
REMARK minimizedAffinity -4.34228086
REMARK minimizedRMSD -1
REMARK  0 active torsions:
REMARK  status: ('A' for Active; 'I' for Inactive)
ROOT
ATOM      1  C   UNL d   1       2.156   0.727   0.141  0.00  0.00     0.077 C 
ATOM      2  C1  UNL d   1       1.010  -0.230   0.291  0.00  0.00    -0.074 A 
ATOM      3  C2  UNL d   1       1.106  -1.338   1.138  0.00  0.00    -0.005 A 
ATOM      4  C3  UNL d   1       0.029  -2.214   1.275  0.00  0.00     0.006 A 
ATOM      5  C4  UNL d   1      -1.152  -1.991   0.567  0.00  0.00    -0.005 A 
ATOM      6  C5  UNL d   1      -1.267  -0.887  -0.284  0.00  0.00    -0.074 A 
ATOM      7  C6  UNL d   1      -2.533  -0.627  -1.045  0.00  0.00     0.077 C 
ATOM      8  C7  UNL d   1      -0.183  -0.008  -0.411  0.00  0.00    -0.001 A 
ENDROOT
TORSDOF 0
ENDMDL
