MODEL 1
REMARK minimizedAffinity -4.77555799
REMARK minimizedRMSD -1
REMARK  0 active torsions:
REMARK  status: ('A' for Active; 'I' for Inactive)
ROOT
ATOM      1  C   UNL d   1      -3.422  -0.729   0.267  0.00  0.00     0.077 C 
ATOM      2  C1  UNL d   1      -2.086  -0.368  -0.313  0.00  0.00    -0.074 A 
ATOM      3  C2  UNL d   1      -1.949  -0.076  -1.674  0.00  0.00    -0.005 A 
ATOM      4  C3  UNL d   1      -0.702   0.268  -2.196  0.00  0.00     0.006 A 
ATOM      5  C4  UNL d   1       0.417   0.324  -1.365  0.00  0.00    -0.005 A 
ATOM      6  C5  UNL d   1       0.299   0.037  -0.002  0.00  0.00    -0.074 A 
ATOM      7  C6  UNL d   1       1.490   0.102   0.907  0.00  0.00     0.077 C 
ATOM      8  C7  UNL d   1      -0.958  -0.302   0.518  0.00  0.00    -0.001 A 
ENDROOT
TORSDOF 0
ENDMDL
