MODEL 1
REMARK minimizedAffinity -3.8982625
REMARK minimizedRMSD -1
REMARK  0 active torsions:
REMARK  status: ('A' for Active; 'I' for Inactive)
ROOT
ATOM      1  C   UNL d   1      -3.303  -0.836  -0.004  0.00  0.00     0.077 C 
ATOM      2  C1  UNL d   1      -1.967  -0.406  -0.532  0.00  0.00    -0.074 A 
ATOM      3  C2  UNL d   1      -1.805  -0.053  -1.876  0.00  0.00    -0.005 A 
ATOM      4  C3  UNL d   1      -0.558   0.354  -2.350  0.00  0.00     0.006 A 
ATOM      5  C4  UNL d   1       0.537   0.414  -1.488  0.00  0.00    -0.005 A 
ATOM      6  C5  UNL d   1       0.394   0.066  -0.141  0.00  0.00    -0.074 A 
ATOM      7  C6  UNL d   1       1.559   0.133   0.802  0.00  0.00     0.077 C 
ATOM      8  C7  UNL d   1      -0.863  -0.336   0.330  0.00  0.00    -0.001 A 
ENDROOT
TORSDOF 0
ENDMDL
