MODEL 1
REMARK minimizedAffinity -3.93787289
REMARK minimizedRMSD -1
REMARK  0 active torsions:
REMARK  status: ('A' for Active; 'I' for Inactive)
ROOT
ATOM      1  C   UNL d   1      -3.019  -0.483   0.388  0.00  0.00     0.077 C 
ATOM      2  C1  UNL d   1      -1.555  -0.276   0.134  0.00  0.00    -0.074 A 
ATOM      3  C2  UNL d   1      -1.115   0.469  -0.965  0.00  0.00    -0.005 A 
ATOM      4  C3  UNL d   1       0.249   0.661  -1.183  0.00  0.00     0.006 A 
ATOM      5  C4  UNL d   1       1.185   0.112  -0.306  0.00  0.00    -0.005 A 
ATOM      6  C5  UNL d   1       0.764  -0.634   0.799  0.00  0.00    -0.074 A 
ATOM      7  C6  UNL d   1       1.756  -1.223   1.757  0.00  0.00     0.077 C 
ATOM      8  C7  UNL d   1      -0.609  -0.817   1.015  0.00  0.00    -0.001 A 
ENDROOT
TORSDOF 0
ENDMDL
