MODEL 1
REMARK minimizedAffinity -5.23274136
REMARK minimizedRMSD -1
REMARK  0 active torsions:
REMARK  status: ('A' for Active; 'I' for Inactive)
ROOT
ATOM      1  C   UNL d   1       2.255   1.104   0.051  0.00  0.00     0.077 C 
ATOM      2  C1  UNL d   1       1.175   0.146   0.458  0.00  0.00    -0.074 A 
ATOM      3  C2  UNL d   1       1.456  -0.943   1.288  0.00  0.00    -0.005 A 
ATOM      4  C3  UNL d   1       0.440  -1.821   1.665  0.00  0.00     0.006 A 
ATOM      5  C4  UNL d   1      -0.866  -1.618   1.217  0.00  0.00    -0.005 A 
ATOM      6  C5  UNL d   1      -1.166  -0.533   0.387  0.00  0.00    -0.074 A 
ATOM      7  C6  UNL d   1      -2.566  -0.295  -0.095  0.00  0.00     0.077 C 
ATOM      8  C7  UNL d   1      -0.141   0.348   0.018  0.00  0.00    -0.001 A 
ENDROOT
TORSDOF 0
ENDMDL
