MODEL 1
REMARK minimizedAffinity -4.52079725
REMARK minimizedRMSD -1
REMARK  0 active torsions:
REMARK  status: ('A' for Active; 'I' for Inactive)
ROOT
ATOM      1  C   UNL d   1      -3.473  -0.737   0.348  0.00  0.00     0.077 C 
ATOM      2  C1  UNL d   1      -2.164  -0.284  -0.229  0.00  0.00    -0.074 A 
ATOM      3  C2  UNL d   1      -2.083   0.190  -1.542  0.00  0.00    -0.005 A 
ATOM      4  C3  UNL d   1      -0.861   0.617  -2.061  0.00  0.00     0.006 A 
ATOM      5  C4  UNL d   1       0.291   0.573  -1.274  0.00  0.00    -0.005 A 
ATOM      6  C5  UNL d   1       0.229   0.102   0.041  0.00  0.00    -0.074 A 
ATOM      7  C6  UNL d   1       1.455   0.058   0.904  0.00  0.00     0.077 C 
ATOM      8  C7  UNL d   1      -1.005  -0.318   0.558  0.00  0.00    -0.001 A 
ENDROOT
TORSDOF 0
ENDMDL
