MODEL 1
REMARK minimizedAffinity -4.67359209
REMARK minimizedRMSD -1
REMARK  0 active torsions:
REMARK  status: ('A' for Active; 'I' for Inactive)
ROOT
ATOM      1  C   UNL d   1      -1.582  -2.586   1.170  0.00  0.00     0.077 C 
ATOM      2  C1  UNL d   1      -1.134  -1.462   0.283  0.00  0.00    -0.074 A 
ATOM      3  C2  UNL d   1      -1.896  -1.073  -0.824  0.00  0.00    -0.005 A 
ATOM      4  C3  UNL d   1      -1.472  -0.021  -1.635  0.00  0.00     0.006 A 
ATOM      5  C4  UNL d   1      -0.284   0.652  -1.348  0.00  0.00    -0.005 A 
ATOM      6  C5  UNL d   1       0.491   0.278  -0.245  0.00  0.00    -0.074 A 
ATOM      7  C6  UNL d   1       1.765   0.998   0.083  0.00  0.00     0.077 C 
ATOM      8  C7  UNL d   1       0.054  -0.776   0.569  0.00  0.00    -0.001 A 
ENDROOT
TORSDOF 0
ENDMDL
