MODEL 1
REMARK minimizedAffinity -2.96136856
REMARK minimizedRMSD -1
REMARK  0 active torsions:
REMARK  status: ('A' for Active; 'I' for Inactive)
ROOT
ATOM      1  C   UNL d   1       3.399   3.936  -1.482  0.00  0.00     0.077 C 
ATOM      2  C1  UNL d   1       2.916   3.151  -0.298  0.00  0.00    -0.074 A 
ATOM      3  C2  UNL d   1       2.836   3.737   0.969  0.00  0.00    -0.005 A 
ATOM      4  C3  UNL d   1       2.376   2.997   2.058  0.00  0.00     0.006 A 
ATOM      5  C4  UNL d   1       1.992   1.665   1.891  0.00  0.00    -0.005 A 
ATOM      6  C5  UNL d   1       2.065   1.063   0.631  0.00  0.00    -0.074 A 
ATOM      7  C6  UNL d   1       1.647  -0.364   0.433  0.00  0.00     0.077 C 
ATOM      8  C7  UNL d   1       2.521   1.815  -0.460  0.00  0.00    -0.001 A 
ENDROOT
TORSDOF 0
ENDMDL
