MODEL 1
REMARK minimizedAffinity -3.28471255
REMARK minimizedRMSD -1
REMARK  0 active torsions:
REMARK  status: ('A' for Active; 'I' for Inactive)
ROOT
ATOM      1  C   UNL d   1       1.322  -1.868   1.673  0.00  0.00     0.077 C 
ATOM      2  C1  UNL d   1       0.426  -1.056   0.787  0.00  0.00    -0.074 A 
ATOM      3  C2  UNL d   1       0.945  -0.043  -0.026  0.00  0.00    -0.005 A 
ATOM      4  C3  UNL d   1       0.100   0.698  -0.853  0.00  0.00     0.006 A 
ATOM      5  C4  UNL d   1      -1.270   0.433  -0.875  0.00  0.00    -0.005 A 
ATOM      6  C5  UNL d   1      -1.807  -0.577  -0.070  0.00  0.00    -0.074 A 
ATOM      7  C6  UNL d   1      -3.276  -0.881  -0.090  0.00  0.00     0.077 C 
ATOM      8  C7  UNL d   1      -0.951  -1.321   0.753  0.00  0.00    -0.001 A 
ENDROOT
TORSDOF 0
ENDMDL
