MODEL 1
REMARK minimizedAffinity -3.49175215
REMARK minimizedRMSD -1
REMARK  0 active torsions:
REMARK  status: ('A' for Active; 'I' for Inactive)
ROOT
ATOM      1  C   UNL d   1      -2.510  -0.678  -2.128  0.00  0.00     0.077 C 
ATOM      2  C1  UNL d   1      -1.765  -0.610  -0.828  0.00  0.00    -0.074 A 
ATOM      3  C2  UNL d   1      -2.278  -1.209   0.327  0.00  0.00    -0.005 A 
ATOM      4  C3  UNL d   1      -1.569  -1.146   1.526  0.00  0.00     0.006 A 
ATOM      5  C4  UNL d   1      -0.343  -0.482   1.584  0.00  0.00    -0.005 A 
ATOM      6  C5  UNL d   1       0.186   0.123   0.439  0.00  0.00    -0.074 A 
ATOM      7  C6  UNL d   1       1.508   0.831   0.481  0.00  0.00     0.077 C 
ATOM      8  C7  UNL d   1      -0.528   0.048  -0.764  0.00  0.00    -0.001 A 
ENDROOT
TORSDOF 0
ENDMDL
