MODEL 1
REMARK minimizedAffinity -4.61031151
REMARK minimizedRMSD -1
REMARK  0 active torsions:
REMARK  status: ('A' for Active; 'I' for Inactive)
ROOT
ATOM      1  C   UNL d   1      -2.914  -0.325   0.168  0.00  0.00     0.077 C 
ATOM      2  C1  UNL d   1      -1.496  -0.544   0.606  0.00  0.00    -0.074 A 
ATOM      3  C2  UNL d   1      -1.179  -1.531   1.544  0.00  0.00    -0.005 A 
ATOM      4  C3  UNL d   1       0.146  -1.729   1.935  0.00  0.00     0.006 A 
ATOM      5  C4  UNL d   1       1.164  -0.944   1.393  0.00  0.00    -0.005 A 
ATOM      6  C5  UNL d   1       0.865   0.047   0.452  0.00  0.00    -0.074 A 
ATOM      7  C6  UNL d   1       1.948   0.893  -0.148  0.00  0.00     0.077 C 
ATOM      8  C7  UNL d   1      -0.467   0.236   0.059  0.00  0.00    -0.001 A 
ENDROOT
TORSDOF 0
ENDMDL
