MODEL 1
REMARK minimizedAffinity -4.10343266
REMARK minimizedRMSD -1
REMARK  0 active torsions:
REMARK  status: ('A' for Active; 'I' for Inactive)
ROOT
ATOM      1  C   UNL d   1      -3.627  -1.392  -0.846  0.00  0.00     0.077 C 
ATOM      2  C1  UNL d   1      -2.341  -1.474  -0.079  0.00  0.00    -0.074 A 
ATOM      3  C2  UNL d   1      -2.116  -2.505   0.839  0.00  0.00    -0.005 A 
ATOM      4  C3  UNL d   1      -0.911  -2.573   1.538  0.00  0.00     0.006 A 
ATOM      5  C4  UNL d   1       0.079  -1.613   1.328  0.00  0.00    -0.005 A 
ATOM      6  C5  UNL d   1      -0.128  -0.575   0.413  0.00  0.00    -0.074 A 
ATOM      7  C6  UNL d   1       0.930   0.460   0.167  0.00  0.00     0.077 C 
ATOM      8  C7  UNL d   1      -1.338  -0.517  -0.291  0.00  0.00    -0.001 A 
ENDROOT
TORSDOF 0
ENDMDL
