MODEL 1
REMARK minimizedAffinity 0.393048108
REMARK minimizedRMSD -1
REMARK  0 active torsions:
REMARK  status: ('A' for Active; 'I' for Inactive)
ROOT
ATOM      1  C   UNL d   1       4.074   2.723  -1.235  0.00  0.00     0.077 C 
ATOM      2  C1  UNL d   1       3.262   2.306  -0.046  0.00  0.00    -0.074 A 
ATOM      3  C2  UNL d   1       3.369   2.985   1.172  0.00  0.00    -0.005 A 
ATOM      4  C3  UNL d   1       2.600   2.592   2.267  0.00  0.00     0.006 A 
ATOM      5  C4  UNL d   1       1.718   1.516   2.156  0.00  0.00    -0.005 A 
ATOM      6  C5  UNL d   1       1.596   0.826   0.946  0.00  0.00    -0.074 A 
ATOM      7  C6  UNL d   1       0.646  -0.326   0.806  0.00  0.00     0.077 C 
ATOM      8  C7  UNL d   1       2.367   1.232  -0.152  0.00  0.00    -0.001 A 
ENDROOT
TORSDOF 0
ENDMDL
