MODEL 1
REMARK minimizedAffinity -4.81444025
REMARK minimizedRMSD -1
REMARK  0 active torsions:
REMARK  status: ('A' for Active; 'I' for Inactive)
ROOT
ATOM      1  C   UNL d   1      -3.541  -0.868   0.318  0.00  0.00     0.077 C 
ATOM      2  C1  UNL d   1      -2.223  -0.408  -0.233  0.00  0.00    -0.074 A 
ATOM      3  C2  UNL d   1      -2.161   0.358  -1.401  0.00  0.00    -0.005 A 
ATOM      4  C3  UNL d   1      -0.929   0.787  -1.896  0.00  0.00     0.006 A 
ATOM      5  C4  UNL d   1       0.250   0.454  -1.229  0.00  0.00    -0.005 A 
ATOM      6  C5  UNL d   1       0.207  -0.311  -0.059  0.00  0.00    -0.074 A 
ATOM      7  C6  UNL d   1       1.465  -0.669   0.676  0.00  0.00     0.077 C 
ATOM      8  C7  UNL d   1      -1.035  -0.732   0.436  0.00  0.00    -0.001 A 
ENDROOT
TORSDOF 0
ENDMDL
