MODEL 1
REMARK minimizedAffinity -4.2992363
REMARK minimizedRMSD -1
REMARK  0 active torsions:
REMARK  status: ('A' for Active; 'I' for Inactive)
ROOT
ATOM      1  C   UNL d   1      -3.815  -1.129   0.603  0.00  0.00     0.077 C 
ATOM      2  C1  UNL d   1      -2.572  -0.667  -0.099  0.00  0.00    -0.074 A 
ATOM      3  C2  UNL d   1      -2.597  -0.326  -1.454  0.00  0.00    -0.005 A 
ATOM      4  C3  UNL d   1      -1.436   0.112  -2.091  0.00  0.00     0.006 A 
ATOM      5  C4  UNL d   1      -0.239   0.212  -1.380  0.00  0.00    -0.005 A 
ATOM      6  C5  UNL d   1      -0.195  -0.125  -0.023  0.00  0.00    -0.074 A 
ATOM      7  C6  UNL d   1       1.080  -0.014   0.759  0.00  0.00     0.077 C 
ATOM      8  C7  UNL d   1      -1.368  -0.557   0.611  0.00  0.00    -0.001 A 
ENDROOT
TORSDOF 0
ENDMDL
