MODEL 1
REMARK minimizedAffinity 10.2344904
REMARK minimizedRMSD -1
REMARK  3 active torsions:
REMARK  status: ('A' for Active; 'I' for Inactive)
REMARK    1  A    between atoms: C3'_2  and  C2'_3 
REMARK    2  A    between atoms: C2'_3  and  C1'_4 
REMARK    3  A    between atoms: C1'_4  and  C1_5 
ROOT
ATOM      1  C1  N4B d   1       0.567   1.348   0.480  0.00  0.00    -0.075 A 
ATOM      2  C2  N4B d   1      -0.001   1.941   1.628  0.00  0.00     0.002 A 
ATOM      3  C3  N4B d   1      -1.210   2.587   1.541  0.00  0.00     0.002 A 
ATOM      4  C4  N4B d   1      -1.858   2.668   0.317  0.00  0.00    -0.004 A 
ATOM      5  C5  N4B d   1      -1.315   2.070  -0.782  0.00  0.00     0.002 A 
ATOM      6  C6  N4B d   1      -0.102   1.414  -0.708  0.00  0.00     0.002 A 
ENDROOT
BRANCH   1   7
ATOM      7  C1' N4B d   1       1.927   0.706   0.508  0.00  0.00     0.057 C 
BRANCH   7   8
ATOM      8  C2' N4B d   1       1.890  -0.581  -0.312  0.00  0.00     0.009 C 
BRANCH   8   9
ATOM      9  C3' N4B d   1       2.199  -1.803   0.535  0.00  0.00     0.004 C 
ATOM     10  C4' N4B d   1       1.505  -3.039   0.045  0.00  0.00     0.003 C 
ENDBRANCH   8   9
ENDBRANCH   7   8
ENDBRANCH   1   7
TORSDOF 3
ENDMDL
