MODEL 1
REMARK minimizedAffinity 11.373414
REMARK minimizedRMSD -1
REMARK  2 active torsions:
REMARK  status: ('A' for Active; 'I' for Inactive)
REMARK    1  A    between atoms: C2'_3  and  C1'_4 
REMARK    2  A    between atoms: C1'_4  and  C1_5 
ROOT
ATOM      1  C1  I4B d   1      -3.592  -3.723  -1.200  0.00  0.00    -0.075 A 
ATOM      2  C2  I4B d   1      -2.687  -4.743  -1.037  0.00  0.00     0.003 A 
ATOM      3  C3  I4B d   1      -1.343  -4.455  -0.699  0.00  0.00     0.002 A 
ATOM      4  C4  I4B d   1      -0.937  -3.142  -0.584  0.00  0.00    -0.004 A 
ATOM      5  C5  I4B d   1      -1.860  -2.110  -0.727  0.00  0.00     0.002 A 
ATOM      6  C6  I4B d   1      -3.199  -2.403  -1.025  0.00  0.00     0.003 A 
ENDROOT
BRANCH   1   7
ATOM      7  C1' I4B d   1      -4.996  -4.061  -1.589  0.00  0.00     0.060 C 
BRANCH   7   8
ATOM      8  C2' I4B d   1      -5.150  -5.567  -1.522  0.00  0.00    -0.013 C 
ATOM      9  C4' I4B d   1      -5.759  -5.995  -0.213  0.00  0.00     0.013 C 
ATOM     10  C3' I4B d   1      -5.999  -5.998  -2.681  0.00  0.00     0.013 C 
ENDBRANCH   7   8
ENDBRANCH   1   7
TORSDOF 2
ENDMDL
