MODEL 1
REMARK minimizedAffinity 5.39306498
REMARK minimizedRMSD -1
REMARK  2 active torsions:
REMARK  status: ('A' for Active; 'I' for Inactive)
REMARK    1  A    between atoms: C2'_3  and  C1'_4 
REMARK    2  A    between atoms: C1'_4  and  C1_5 
ROOT
ATOM      1  C1  I4B d   1       0.863   0.679  -1.128  0.00  0.00    -0.075 A 
ATOM      2  C2  I4B d   1       0.926   1.346  -2.326  0.00  0.00     0.003 A 
ATOM      3  C3  I4B d   1       1.193   0.638  -3.523  0.00  0.00     0.002 A 
ATOM      4  C4  I4B d   1       1.438  -0.719  -3.470  0.00  0.00    -0.004 A 
ATOM      5  C5  I4B d   1       1.351  -1.397  -2.257  0.00  0.00     0.002 A 
ATOM      6  C6  I4B d   1       1.050  -0.696  -1.081  0.00  0.00     0.003 A 
ENDROOT
BRANCH   1   7
ATOM      7  C1' I4B d   1       0.613   1.463   0.121  0.00  0.00     0.060 C 
BRANCH   7   8
ATOM      8  C2' I4B d   1       1.840   2.307   0.397  0.00  0.00    -0.013 C 
ATOM      9  C4' I4B d   1       1.512   3.777   0.355  0.00  0.00     0.013 C 
ATOM     10  C3' I4B d   1       2.383   1.912   1.737  0.00  0.00     0.013 C 
ENDBRANCH   7   8
ENDBRANCH   1   7
TORSDOF 2
ENDMDL
