MODEL 1
REMARK minimizedAffinity 11.0134888
REMARK minimizedRMSD -1
REMARK  2 active torsions:
REMARK  status: ('A' for Active; 'I' for Inactive)
REMARK    1  A    between atoms: C2'_3  and  C1'_4 
REMARK    2  A    between atoms: C1'_4  and  C1_5 
ROOT
ATOM      1  C1  I4B d   1       0.680   2.548  -0.368  0.00  0.00    -0.075 A 
ATOM      2  C2  I4B d   1       0.349   3.877  -0.276  0.00  0.00     0.003 A 
ATOM      3  C3  I4B d   1       0.789   4.647   0.829  0.00  0.00     0.002 A 
ATOM      4  C4  I4B d   1       1.510   4.039   1.836  0.00  0.00    -0.004 A 
ATOM      5  C5  I4B d   1       1.864   2.697   1.730  0.00  0.00     0.002 A 
ATOM      6  C6  I4B d   1       1.457   1.950   0.615  0.00  0.00     0.003 A 
ENDROOT
BRANCH   1   7
ATOM      7  C1' I4B d   1       0.170   1.758  -1.531  0.00  0.00     0.060 C 
BRANCH   7   8
ATOM      8  C2' I4B d   1       1.330   0.968  -2.102  0.00  0.00    -0.013 C 
ATOM      9  C4' I4B d   1       1.167  -0.507  -1.842  0.00  0.00     0.013 C 
ATOM     10  C3' I4B d   1       1.406   1.253  -3.572  0.00  0.00     0.013 C 
ENDBRANCH   7   8
ENDBRANCH   1   7
TORSDOF 2
ENDMDL
