MODEL 1
REMARK minimizedAffinity 2.56330895
REMARK minimizedRMSD -1
REMARK  2 active torsions:
REMARK  status: ('A' for Active; 'I' for Inactive)
REMARK    1  A    between atoms: C2'_3  and  C1'_4 
REMARK    2  A    between atoms: C1'_4  and  C1_5 
ROOT
ATOM      1  C1  I4B d   1       2.880   2.326  -3.570  0.00  0.00    -0.075 A 
ATOM      2  C2  I4B d   1       2.918   3.691  -3.435  0.00  0.00     0.003 A 
ATOM      3  C3  I4B d   1       4.156   4.376  -3.465  0.00  0.00     0.002 A 
ATOM      4  C4  I4B d   1       5.328   3.657  -3.580  0.00  0.00    -0.004 A 
ATOM      5  C5  I4B d   1       5.287   2.275  -3.740  0.00  0.00     0.002 A 
ATOM      6  C6  I4B d   1       4.054   1.606  -3.747  0.00  0.00     0.003 A 
ENDROOT
BRANCH   1   7
ATOM      7  C1' I4B d   1       1.557   1.631  -3.501  0.00  0.00     0.060 C 
BRANCH   7   8
ATOM      8  C2' I4B d   1       1.315   1.230  -2.060  0.00  0.00    -0.013 C 
ATOM      9  C4' I4B d   1       0.177   2.013  -1.460  0.00  0.00     0.013 C 
ATOM     10  C3' I4B d   1       1.034  -0.243  -2.031  0.00  0.00     0.013 C 
ENDBRANCH   7   8
ENDBRANCH   1   7
TORSDOF 2
ENDMDL
