MODEL 1
REMARK minimizedAffinity -4.70865345
REMARK minimizedRMSD -1
REMARK  2 active torsions:
REMARK  status: ('A' for Active; 'I' for Inactive)
REMARK    1  A    between atoms: C2'_3  and  C1'_4 
REMARK    2  A    between atoms: C1'_4  and  C1_5 
ROOT
ATOM      1  C1  I4B d   1       0.218   0.830  -0.721  0.00  0.00    -0.075 A 
ATOM      2  C2  I4B d   1       1.320   0.235  -1.283  0.00  0.00     0.003 A 
ATOM      3  C3  I4B d   1       1.495  -1.167  -1.197  0.00  0.00     0.002 A 
ATOM      4  C4  I4B d   1       0.576  -1.925  -0.499  0.00  0.00    -0.004 A 
ATOM      5  C5  I4B d   1      -0.552  -1.323   0.051  0.00  0.00     0.002 A 
ATOM      6  C6  I4B d   1      -0.739   0.061  -0.071  0.00  0.00     0.003 A 
ENDROOT
BRANCH   1   7
ATOM      7  C1' I4B d   1       0.082   2.317  -0.803  0.00  0.00     0.060 C 
BRANCH   7   8
ATOM      8  C2' I4B d   1       0.325   2.885   0.581  0.00  0.00    -0.013 C 
ATOM      9  C4' I4B d   1       1.269   4.057   0.531  0.00  0.00     0.013 C 
ATOM     10  C3' I4B d   1      -1.001   3.283   1.157  0.00  0.00     0.013 C 
ENDBRANCH   7   8
ENDBRANCH   1   7
TORSDOF 2
ENDMDL
