MODEL 1
REMARK minimizedAffinity -2.28325319
REMARK minimizedRMSD -1
REMARK  2 active torsions:
REMARK  status: ('A' for Active; 'I' for Inactive)
REMARK    1  A    between atoms: C2'_3  and  C1'_4 
REMARK    2  A    between atoms: C1'_4  and  C1_5 
ROOT
ATOM      1  C1  I4B d   1      -0.154   0.145  -0.716  0.00  0.00    -0.075 A 
ATOM      2  C2  I4B d   1       1.046   0.022  -1.371  0.00  0.00     0.003 A 
ATOM      3  C3  I4B d   1       1.672  -1.243  -1.480  0.00  0.00     0.002 A 
ATOM      4  C4  I4B d   1       1.093  -2.342  -0.879  0.00  0.00    -0.004 A 
ATOM      5  C5  I4B d   1      -0.135  -2.220  -0.235  0.00  0.00     0.002 A 
ATOM      6  C6  I4B d   1      -0.769  -0.971  -0.163  0.00  0.00     0.003 A 
ENDROOT
BRANCH   1   7
ATOM      7  C1' I4B d   1      -0.772   1.501  -0.591  0.00  0.00     0.060 C 
BRANCH   7   8
ATOM      8  C2' I4B d   1       0.039   2.292   0.415  0.00  0.00    -0.013 C 
ATOM      9  C4' I4B d   1       0.134   3.742   0.020  0.00  0.00     0.013 C 
ATOM     10  C3' I4B d   1      -0.613   2.139   1.757  0.00  0.00     0.013 C 
ENDBRANCH   7   8
ENDBRANCH   1   7
TORSDOF 2
ENDMDL
