MODEL 1
REMARK minimizedAffinity 2.52743554
REMARK minimizedRMSD -1
REMARK  2 active torsions:
REMARK  status: ('A' for Active; 'I' for Inactive)
REMARK    1  A    between atoms: C2'_3  and  C1'_4 
REMARK    2  A    between atoms: C1'_4  and  C1_5 
ROOT
ATOM      1  C1  I4B d   1      -1.540  -0.710   1.072  0.00  0.00    -0.075 A 
ATOM      2  C2  I4B d   1      -0.412  -1.439   1.356  0.00  0.00     0.003 A 
ATOM      3  C3  I4B d   1       0.543  -1.696   0.343  0.00  0.00     0.002 A 
ATOM      4  C4  I4B d   1       0.308  -1.252  -0.942  0.00  0.00    -0.004 A 
ATOM      5  C5  I4B d   1      -0.824  -0.494  -1.223  0.00  0.00     0.002 A 
ATOM      6  C6  I4B d   1      -1.749  -0.210  -0.207  0.00  0.00     0.003 A 
ENDROOT
BRANCH   1   7
ATOM      7  C1' I4B d   1      -2.545  -0.484   2.157  0.00  0.00     0.060 C 
BRANCH   7   8
ATOM      8  C2' I4B d   1      -2.618   1.005   2.424  0.00  0.00    -0.013 C 
ATOM      9  C4' I4B d   1      -3.968   1.560   2.053  0.00  0.00     0.013 C 
ATOM     10  C3' I4B d   1      -2.320   1.231   3.876  0.00  0.00     0.013 C 
ENDBRANCH   7   8
ENDBRANCH   1   7
TORSDOF 2
ENDMDL
