MODEL 1
REMARK minimizedAffinity -3.41124654
REMARK minimizedRMSD -1
REMARK  2 active torsions:
REMARK  status: ('A' for Active; 'I' for Inactive)
REMARK    1  A    between atoms: C2'_3  and  C1'_4 
REMARK    2  A    between atoms: C1'_4  and  C1_5 
ROOT
ATOM      1  C1  I4B d   1       5.231   1.186   4.588  0.00  0.00    -0.075 A 
ATOM      2  C2  I4B d   1       5.278   0.629   5.841  0.00  0.00     0.003 A 
ATOM      3  C3  I4B d   1       5.533  -0.755   5.997  0.00  0.00     0.002 A 
ATOM      4  C4  I4B d   1       5.685  -1.548   4.878  0.00  0.00    -0.004 A 
ATOM      5  C5  I4B d   1       5.660  -0.978   3.609  0.00  0.00     0.002 A 
ATOM      6  C6  I4B d   1       5.444   0.400   3.463  0.00  0.00     0.003 A 
ENDROOT
BRANCH   1   7
ATOM      7  C1' I4B d   1       4.926   2.645   4.458  0.00  0.00     0.060 C 
BRANCH   7   8
ATOM      8  C2' I4B d   1       5.821   3.215   3.377  0.00  0.00    -0.013 C 
ATOM      9  C4' I4B d   1       5.238   2.982   2.008  0.00  0.00     0.013 C 
ATOM     10  C3' I4B d   1       6.000   4.679   3.648  0.00  0.00     0.013 C 
ENDBRANCH   7   8
ENDBRANCH   1   7
TORSDOF 2
ENDMDL
