MODEL 1
REMARK minimizedAffinity 1.7291286
REMARK minimizedRMSD -1
REMARK  2 active torsions:
REMARK  status: ('A' for Active; 'I' for Inactive)
REMARK    1  A    between atoms: C2'_3  and  C1'_4 
REMARK    2  A    between atoms: C1'_4  and  C1_5 
ROOT
ATOM      1  C1  I4B d   1       1.354  -0.902  -2.256  0.00  0.00    -0.075 A 
ATOM      2  C2  I4B d   1       1.844  -0.966  -3.537  0.00  0.00     0.003 A 
ATOM      3  C3  I4B d   1       1.727   0.149  -4.401  0.00  0.00     0.002 A 
ATOM      4  C4  I4B d   1       1.072   1.282  -3.964  0.00  0.00    -0.004 A 
ATOM      5  C5  I4B d   1       0.596   1.353  -2.658  0.00  0.00     0.002 A 
ATOM      6  C6  I4B d   1       0.748   0.259  -1.795  0.00  0.00     0.003 A 
ENDROOT
BRANCH   1   7
ATOM      7  C1' I4B d   1       1.465  -2.110  -1.381  0.00  0.00     0.060 C 
BRANCH   7   8
ATOM      8  C2' I4B d   1       0.601  -1.881  -0.157  0.00  0.00    -0.013 C 
ATOM      9  C4' I4B d   1      -0.856  -1.796  -0.527  0.00  0.00     0.013 C 
ATOM     10  C3' I4B d   1       0.851  -3.005   0.803  0.00  0.00     0.013 C 
ENDBRANCH   7   8
ENDBRANCH   1   7
TORSDOF 2
ENDMDL
