MODEL 1
REMARK minimizedAffinity 0.235723153
REMARK minimizedRMSD -1
REMARK  2 active torsions:
REMARK  status: ('A' for Active; 'I' for Inactive)
REMARK    1  A    between atoms: C2'_3  and  C1'_4 
REMARK    2  A    between atoms: C1'_4  and  C1_5 
ROOT
ATOM      1  C1  I4B d   1      -0.041   0.594  -0.965  0.00  0.00    -0.075 A 
ATOM      2  C2  I4B d   1       0.681   0.453  -2.124  0.00  0.00     0.003 A 
ATOM      3  C3  I4B d   1       1.303  -0.781  -2.431  0.00  0.00     0.002 A 
ATOM      4  C4  I4B d   1       1.221  -1.825  -1.532  0.00  0.00    -0.004 A 
ATOM      5  C5  I4B d   1       0.470  -1.688  -0.368  0.00  0.00     0.002 A 
ATOM      6  C6  I4B d   1      -0.175  -0.474  -0.088  0.00  0.00     0.003 A 
ENDROOT
BRANCH   1   7
ATOM      7  C1' I4B d   1      -0.657   1.922  -0.657  0.00  0.00     0.060 C 
BRANCH   7   8
ATOM      8  C2' I4B d   1       0.158   2.571   0.443  0.00  0.00    -0.013 C 
ATOM      9  C4' I4B d   1       1.514   2.992  -0.060  0.00  0.00     0.013 C 
ATOM     10  C3' I4B d   1      -0.616   3.746   0.961  0.00  0.00     0.013 C 
ENDBRANCH   7   8
ENDBRANCH   1   7
TORSDOF 2
ENDMDL
