MODEL 1
REMARK minimizedAffinity -3.86386514
REMARK minimizedRMSD -1
REMARK  2 active torsions:
REMARK  status: ('A' for Active; 'I' for Inactive)
REMARK    1  A    between atoms: C2'_3  and  C1'_4 
REMARK    2  A    between atoms: C1'_4  and  C1_5 
ROOT
ATOM      1  C1  I4B d   1       1.401  -0.706  -1.774  0.00  0.00    -0.075 A 
ATOM      2  C2  I4B d   1       0.270   0.062  -1.892  0.00  0.00     0.003 A 
ATOM      3  C3  I4B d   1      -0.791  -0.085  -0.966  0.00  0.00     0.002 A 
ATOM      4  C4  I4B d   1      -0.700  -1.040   0.026  0.00  0.00    -0.004 A 
ATOM      5  C5  I4B d   1       0.457  -1.802   0.158  0.00  0.00     0.002 A 
ATOM      6  C6  I4B d   1       1.520  -1.626  -0.740  0.00  0.00     0.003 A 
ENDROOT
BRANCH   1   7
ATOM      7  C1' I4B d   1       2.488  -0.548  -2.790  0.00  0.00     0.060 C 
BRANCH   7   8
ATOM      8  C2' I4B d   1       2.045   0.501  -3.788  0.00  0.00    -0.013 C 
ATOM      9  C4' I4B d   1       3.227   1.137  -4.471  0.00  0.00     0.013 C 
ATOM     10  C3' I4B d   1       1.137  -0.159  -4.782  0.00  0.00     0.013 C 
ENDBRANCH   7   8
ENDBRANCH   1   7
TORSDOF 2
ENDMDL
