MODEL 1
REMARK minimizedAffinity 0.387875766
REMARK minimizedRMSD -1
REMARK  2 active torsions:
REMARK  status: ('A' for Active; 'I' for Inactive)
REMARK    1  A    between atoms: C2'_3  and  C1'_4 
REMARK    2  A    between atoms: C1'_4  and  C1_5 
ROOT
ATOM      1  C1  I4B d   1      -1.038  -0.598   0.609  0.00  0.00    -0.075 A 
ATOM      2  C2  I4B d   1      -0.871  -1.918   0.272  0.00  0.00     0.003 A 
ATOM      3  C3  I4B d   1       0.264  -2.326  -0.470  0.00  0.00     0.002 A 
ATOM      4  C4  I4B d   1       1.175  -1.380  -0.894  0.00  0.00    -0.004 A 
ATOM      5  C5  I4B d   1       1.016  -0.046  -0.532  0.00  0.00     0.002 A 
ATOM      6  C6  I4B d   1      -0.091   0.347   0.235  0.00  0.00     0.003 A 
ENDROOT
BRANCH   1   7
ATOM      7  C1' I4B d   1      -2.265  -0.196   1.365  0.00  0.00     0.060 C 
BRANCH   7   8
ATOM      8  C2' I4B d   1      -1.930  -0.215   2.842  0.00  0.00    -0.013 C 
ATOM      9  C4' I4B d   1      -1.746   1.181   3.377  0.00  0.00     0.013 C 
ATOM     10  C3' I4B d   1      -3.037  -0.928   3.559  0.00  0.00     0.013 C 
ENDBRANCH   7   8
ENDBRANCH   1   7
TORSDOF 2
ENDMDL
