MODEL 1
REMARK minimizedAffinity -3.47047377
REMARK minimizedRMSD -1
REMARK  2 active torsions:
REMARK  status: ('A' for Active; 'I' for Inactive)
REMARK    1  A    between atoms: C2'_3  and  C1'_4 
REMARK    2  A    between atoms: C1'_4  and  C1_5 
ROOT
ATOM      1  C1  I4B d   1       5.324   0.471   3.575  0.00  0.00    -0.075 A 
ATOM      2  C2  I4B d   1       5.303  -0.825   3.122  0.00  0.00     0.003 A 
ATOM      3  C3  I4B d   1       5.621  -1.891   3.998  0.00  0.00     0.002 A 
ATOM      4  C4  I4B d   1       6.000  -1.615   5.296  0.00  0.00    -0.004 A 
ATOM      5  C5  I4B d   1       5.998  -0.303   5.760  0.00  0.00     0.002 A 
ATOM      6  C6  I4B d   1       5.646   0.746   4.898  0.00  0.00     0.003 A 
ENDROOT
BRANCH   1   7
ATOM      7  C1' I4B d   1       5.016   1.575   2.615  0.00  0.00     0.060 C 
BRANCH   7   8
ATOM      8  C2' I4B d   1       5.739   2.820   3.087  0.00  0.00    -0.013 C 
ATOM      9  C4' I4B d   1       5.999   3.766   1.944  0.00  0.00     0.013 C 
ATOM     10  C3' I4B d   1       4.899   3.469   4.147  0.00  0.00     0.013 C 
ENDBRANCH   7   8
ENDBRANCH   1   7
TORSDOF 2
ENDMDL
