MODEL 1
REMARK minimizedAffinity -4.40036106
REMARK minimizedRMSD -1
REMARK  2 active torsions:
REMARK  status: ('A' for Active; 'I' for Inactive)
REMARK    1  A    between atoms: C2'_3  and  C1'_4 
REMARK    2  A    between atoms: C1'_4  and  C1_5 
ROOT
ATOM      1  C1  I4B d   1       0.126   0.444   1.149  0.00  0.00    -0.075 A 
ATOM      2  C2  I4B d   1      -0.602   0.521   2.310  0.00  0.00     0.003 A 
ATOM      3  C3  I4B d   1      -0.985   1.782   2.829  0.00  0.00     0.002 A 
ATOM      4  C4  I4B d   1      -0.578   2.933   2.186  0.00  0.00    -0.004 A 
ATOM      5  C5  I4B d   1       0.141   2.852   0.997  0.00  0.00     0.002 A 
ATOM      6  C6  I4B d   1       0.484   1.600   0.468  0.00  0.00     0.003 A 
ENDROOT
BRANCH   1   7
ATOM      7  C1' I4B d   1       0.541  -0.903   0.647  0.00  0.00     0.060 C 
BRANCH   7   8
ATOM      8  C2' I4B d   1       0.239  -0.962  -0.837  0.00  0.00    -0.013 C 
ATOM      9  C4' I4B d   1       1.195  -1.880  -1.552  0.00  0.00     0.013 C 
ATOM     10  C3' I4B d   1      -1.179  -1.420  -1.002  0.00  0.00     0.013 C 
ENDBRANCH   7   8
ENDBRANCH   1   7
TORSDOF 2
ENDMDL
