MODEL 1
REMARK minimizedAffinity 0.864083052
REMARK minimizedRMSD -1
REMARK  2 active torsions:
REMARK  status: ('A' for Active; 'I' for Inactive)
REMARK    1  A    between atoms: C2'_3  and  C1'_4 
REMARK    2  A    between atoms: C1'_4  and  C1_5 
ROOT
ATOM      1  C1  I4B d   1      -0.177   0.059   0.352  0.00  0.00    -0.075 A 
ATOM      2  C2  I4B d   1      -0.820   0.321   1.536  0.00  0.00     0.003 A 
ATOM      3  C3  I4B d   1      -0.607   1.550   2.206  0.00  0.00     0.002 A 
ATOM      4  C4  I4B d   1       0.289   2.461   1.686  0.00  0.00    -0.004 A 
ATOM      5  C5  I4B d   1       0.923   2.204   0.474  0.00  0.00     0.002 A 
ATOM      6  C6  I4B d   1       0.679   1.000  -0.204  0.00  0.00     0.003 A 
ENDROOT
BRANCH   1   7
ATOM      7  C1' I4B d   1      -0.399  -1.264  -0.311  0.00  0.00     0.060 C 
BRANCH   7   8
ATOM      8  C2' I4B d   1       0.928  -1.993  -0.354  0.00  0.00    -0.013 C 
ATOM      9  C4' I4B d   1       0.864  -3.288   0.413  0.00  0.00     0.013 C 
ATOM     10  C3' I4B d   1       1.279  -2.233  -1.792  0.00  0.00     0.013 C 
ENDBRANCH   7   8
ENDBRANCH   1   7
TORSDOF 2
ENDMDL
