MODEL 1
REMARK minimizedAffinity 2.6427207
REMARK minimizedRMSD -1
REMARK  0 active torsions:
REMARK  status: ('A' for Active; 'I' for Inactive)
ROOT
ATOM      1  C   UNL d   1      -4.474   1.882  -0.003  0.00  0.00     0.023 A 
ATOM      2  C1  UNL d   1      -4.136   0.620  -0.491  0.00  0.00     0.003 A 
ATOM      3  C2  UNL d   1      -4.569   0.221  -1.757  0.00  0.00     0.048 A 
ATOM      4  C3  UNL d   1      -5.338   1.090  -2.530  0.00  0.00     0.023 A 
ATOM      5  C4  UNL d   1      -5.678   2.355  -2.046  0.00  0.00     0.048 A 
ATOM      6  C5  UNL d   1      -5.243   2.749  -0.779  0.00  0.00     0.003 A 
ATOM      7  I   UNL d   1      -5.984   0.499  -4.416  0.00  0.00    -0.146 I 
ENDROOT
TORSDOF 0
ENDMDL
