MODEL 1
REMARK minimizedAffinity 6.71175385
REMARK minimizedRMSD -1
REMARK  0 active torsions:
REMARK  status: ('A' for Active; 'I' for Inactive)
ROOT
ATOM      1  C   UNL d   1       2.567  -0.674   0.493  0.00  0.00     0.023 A 
ATOM      2  C1  UNL d   1       2.013  -0.274  -0.723  0.00  0.00     0.003 A 
ATOM      3  C2  UNL d   1       2.610   0.751  -1.461  0.00  0.00     0.048 A 
ATOM      4  C3  UNL d   1       3.762   1.370  -0.977  0.00  0.00     0.023 A 
ATOM      5  C4  UNL d   1       4.320   0.972   0.239  0.00  0.00     0.048 A 
ATOM      6  C5  UNL d   1       3.719  -0.052   0.973  0.00  0.00     0.003 A 
ATOM      7  I   UNL d   1       4.653   2.895  -2.073  0.00  0.00    -0.146 I 
ENDROOT
TORSDOF 0
ENDMDL
