MODEL 1
REMARK minimizedAffinity 8.34683418
REMARK minimizedRMSD -1
REMARK  0 active torsions:
REMARK  status: ('A' for Active; 'I' for Inactive)
ROOT
ATOM      1  C   UNL d   1      -4.892   5.574   4.241  0.00  0.00     0.023 A 
ATOM      2  C1  UNL d   1      -5.999   4.875   3.760  0.00  0.00     0.003 A 
ATOM      3  C2  UNL d   1      -5.850   3.966   2.711  0.00  0.00     0.048 A 
ATOM      4  C3  UNL d   1      -4.590   3.760   2.148  0.00  0.00     0.023 A 
ATOM      5  C4  UNL d   1      -3.480   4.456   2.627  0.00  0.00     0.048 A 
ATOM      6  C5  UNL d   1      -3.634   5.365   3.676  0.00  0.00     0.003 A 
ATOM      7  I   UNL d   1      -4.366   2.407   0.587  0.00  0.00    -0.146 I 
ENDROOT
TORSDOF 0
ENDMDL
