MODEL 1
REMARK minimizedAffinity 7.5399766
REMARK minimizedRMSD -1
REMARK  0 active torsions:
REMARK  status: ('A' for Active; 'I' for Inactive)
ROOT
ATOM      1  C   UNL d   1       4.253   1.805  -1.626  0.00  0.00     0.023 A 
ATOM      2  C1  UNL d   1       3.247   0.912  -1.996  0.00  0.00     0.003 A 
ATOM      3  C2  UNL d   1       2.826  -0.077  -1.105  0.00  0.00     0.048 A 
ATOM      4  C3  UNL d   1       3.415  -0.168   0.156  0.00  0.00     0.023 A 
ATOM      5  C4  UNL d   1       4.422   0.723   0.531  0.00  0.00     0.048 A 
ATOM      6  C5  UNL d   1       4.840   1.710  -0.364  0.00  0.00     0.003 A 
ATOM      7  I   UNL d   1       2.791  -1.639   1.484  0.00  0.00    -0.146 I 
ENDROOT
TORSDOF 0
ENDMDL
