MODEL 1
REMARK minimizedAffinity 13.7685175
REMARK minimizedRMSD -1
REMARK  0 active torsions:
REMARK  status: ('A' for Active; 'I' for Inactive)
ROOT
ATOM      1  C   UNL d   1      -5.746   1.103   0.164  0.00  0.00     0.023 A 
ATOM      2  C1  UNL d   1      -5.952   0.499  -1.077  0.00  0.00     0.003 A 
ATOM      3  C2  UNL d   1      -4.860   0.152  -1.875  0.00  0.00     0.048 A 
ATOM      4  C3  UNL d   1      -3.565   0.411  -1.427  0.00  0.00     0.023 A 
ATOM      5  C4  UNL d   1      -3.355   1.015  -0.186  0.00  0.00     0.048 A 
ATOM      6  C5  UNL d   1      -4.449   1.361   0.609  0.00  0.00     0.003 A 
ATOM      7  I   UNL d   1      -1.939  -0.105  -2.613  0.00  0.00    -0.146 I 
ENDROOT
TORSDOF 0
ENDMDL
