MODEL 1
REMARK minimizedAffinity 17.0993614
REMARK minimizedRMSD -1
REMARK  0 active torsions:
REMARK  status: ('A' for Active; 'I' for Inactive)
ROOT
ATOM      1  C   UNL d   1       2.063   4.900   3.566  0.00  0.00     0.023 A 
ATOM      2  C1  UNL d   1       1.894   3.618   4.091  0.00  0.00     0.003 A 
ATOM      3  C2  UNL d   1       3.006   2.877   4.499  0.00  0.00     0.048 A 
ATOM      4  C3  UNL d   1       4.283   3.424   4.380  0.00  0.00     0.023 A 
ATOM      5  C4  UNL d   1       4.456   4.706   3.856  0.00  0.00     0.048 A 
ATOM      6  C5  UNL d   1       3.343   5.443   3.449  0.00  0.00     0.003 A 
ATOM      7  I   UNL d   1       5.938   2.323   4.986  0.00  0.00    -0.146 I 
ENDROOT
TORSDOF 0
ENDMDL
