MODEL 1
REMARK minimizedAffinity 0.91283083
REMARK minimizedRMSD -1
REMARK  0 active torsions:
REMARK  status: ('A' for Active; 'I' for Inactive)
ROOT
ATOM      1  C   UNL d   1       2.271  -1.841   0.543  0.00  0.00     0.023 A 
ATOM      2  C1  UNL d   1       1.763  -1.331  -0.651  0.00  0.00     0.003 A 
ATOM      3  C2  UNL d   1       2.274  -0.143  -1.179  0.00  0.00     0.048 A 
ATOM      4  C3  UNL d   1       3.295   0.529  -0.507  0.00  0.00     0.023 A 
ATOM      5  C4  UNL d   1       3.807   0.022   0.688  0.00  0.00     0.048 A 
ATOM      6  C5  UNL d   1       3.292  -1.165   1.212  0.00  0.00     0.003 A 
ATOM      7  I   UNL d   1       4.057   2.296  -1.290  0.00  0.00    -0.146 I 
ENDROOT
TORSDOF 0
ENDMDL
