MODEL 1
REMARK minimizedAffinity 2.03448725
REMARK minimizedRMSD -1
REMARK  0 active torsions:
REMARK  status: ('A' for Active; 'I' for Inactive)
ROOT
ATOM      1  C   UNL d   1      -5.725   3.096   2.032  0.00  0.00     0.023 A 
ATOM      2  C1  UNL d   1      -5.852   4.476   1.866  0.00  0.00     0.003 A 
ATOM      3  C2  UNL d   1      -5.929   5.310   2.983  0.00  0.00     0.048 A 
ATOM      4  C3  UNL d   1      -5.877   4.759   4.263  0.00  0.00     0.023 A 
ATOM      5  C4  UNL d   1      -5.749   3.379   4.434  0.00  0.00     0.048 A 
ATOM      6  C5  UNL d   1      -5.674   2.549   3.314  0.00  0.00     0.003 A 
ATOM      7  I   UNL d   1      -5.991   5.999   5.927  0.00  0.00    -0.146 I 
ENDROOT
TORSDOF 0
ENDMDL
