MODEL 1
REMARK minimizedAffinity 1.36773217
REMARK minimizedRMSD -1
REMARK  1 active torsions:
REMARK  status: ('A' for Active; 'I' for Inactive)
REMARK    1  A    between atoms: C1_2  and  C2_3 
ROOT
ATOM      1  C2  UNL d   1       4.144  -2.385  -4.429  0.00  0.00    -0.077 A 
ATOM      2  C3  UNL d   1       4.118  -3.786  -4.436  0.00  0.00     0.002 A 
ATOM      3  C4  UNL d   1       5.023  -4.506  -5.219  0.00  0.00     0.002 A 
ATOM      4  C5  UNL d   1       5.962  -3.833  -5.998  0.00  0.00    -0.004 A 
ATOM      5  C6  UNL d   1       5.994  -2.439  -6.000  0.00  0.00     0.002 A 
ATOM      6  C7  UNL d   1       5.090  -1.718  -5.218  0.00  0.00     0.002 A 
ENDROOT
BRANCH   1   7
ATOM      7  C1  UNL d   1       3.202  -1.608  -3.547  0.00  0.00     0.055 C 
ATOM      8  C   UNL d   1       2.225  -2.531  -2.833  0.00  0.00     0.019 C 
ENDBRANCH   1   7
TORSDOF 1
ENDMDL
