MODEL 1
REMARK minimizedAffinity 6.51723719
REMARK minimizedRMSD -1
REMARK  1 active torsions:
REMARK  status: ('A' for Active; 'I' for Inactive)
REMARK    1  A    between atoms: C1_2  and  C2_3 
ROOT
ATOM      1  C2  UNL d   1       3.760  -4.519  -4.874  0.00  0.00    -0.077 A 
ATOM      2  C3  UNL d   1       4.881  -4.244  -5.670  0.00  0.00     0.002 A 
ATOM      3  C4  UNL d   1       5.230  -2.925  -5.966  0.00  0.00     0.002 A 
ATOM      4  C5  UNL d   1       4.467  -1.872  -5.467  0.00  0.00    -0.004 A 
ATOM      5  C6  UNL d   1       3.349  -2.135  -4.676  0.00  0.00     0.002 A 
ATOM      6  C7  UNL d   1       2.998  -3.453  -4.380  0.00  0.00     0.002 A 
ENDROOT
BRANCH   1   7
ATOM      7  C1  UNL d   1       3.410  -5.939  -4.513  0.00  0.00     0.055 C 
ATOM      8  C   UNL d   1       2.304  -5.988  -3.469  0.00  0.00     0.019 C 
ENDBRANCH   1   7
TORSDOF 1
ENDMDL
