MODEL 1
REMARK minimizedAffinity 6.94223833
REMARK minimizedRMSD -1
REMARK  1 active torsions:
REMARK  status: ('A' for Active; 'I' for Inactive)
REMARK    1  A    between atoms: C1_2  and  C2_3 
ROOT
ATOM      1  C2  UNL d   1       3.733  -5.054  -4.761  0.00  0.00    -0.077 A 
ATOM      2  C3  UNL d   1       3.857  -3.665  -4.905  0.00  0.00     0.002 A 
ATOM      3  C4  UNL d   1       4.987  -3.116  -5.514  0.00  0.00     0.002 A 
ATOM      4  C5  UNL d   1       6.000  -3.947  -5.986  0.00  0.00    -0.004 A 
ATOM      5  C6  UNL d   1       5.888  -5.330  -5.845  0.00  0.00     0.002 A 
ATOM      6  C7  UNL d   1       4.759  -5.881  -5.237  0.00  0.00     0.002 A 
ENDROOT
BRANCH   1   7
ATOM      7  C1  UNL d   1       2.493  -5.651  -4.150  0.00  0.00     0.055 C 
ATOM      8  C   UNL d   1       1.541  -4.569  -3.660  0.00  0.00     0.019 C 
ENDBRANCH   1   7
TORSDOF 1
ENDMDL
