MODEL 1
REMARK minimizedAffinity 6.25428343
REMARK minimizedRMSD -1
REMARK  1 active torsions:
REMARK  status: ('A' for Active; 'I' for Inactive)
REMARK    1  A    between atoms: C1_2  and  C2_3 
ROOT
ATOM      1  C2  UNL d   1      -2.848   1.848  -2.872  0.00  0.00    -0.077 A 
ATOM      2  C3  UNL d   1      -2.660   3.120  -3.430  0.00  0.00     0.002 A 
ATOM      3  C4  UNL d   1      -3.744   3.982  -3.604  0.00  0.00     0.002 A 
ATOM      4  C5  UNL d   1      -5.023   3.583  -3.220  0.00  0.00    -0.004 A 
ATOM      5  C6  UNL d   1      -5.220   2.319  -2.666  0.00  0.00     0.002 A 
ATOM      6  C7  UNL d   1      -4.138   1.455  -2.492  0.00  0.00     0.002 A 
ENDROOT
BRANCH   1   7
ATOM      7  C1  UNL d   1      -1.672   0.935  -2.638  0.00  0.00     0.055 C 
ATOM      8  C   UNL d   1      -0.359   1.630  -2.968  0.00  0.00     0.019 C 
ENDBRANCH   1   7
TORSDOF 1
ENDMDL
