MODEL 1
REMARK minimizedAffinity -1.84427059
REMARK minimizedRMSD -1
REMARK  1 active torsions:
REMARK  status: ('A' for Active; 'I' for Inactive)
REMARK    1  A    between atoms: C1_2  and  C2_3 
ROOT
ATOM      1  C2  UNL d   1       5.300   4.009  -3.385  0.00  0.00    -0.077 A 
ATOM      2  C3  UNL d   1       5.996   5.077  -2.801  0.00  0.00     0.002 A 
ATOM      3  C4  UNL d   1       5.358   5.920  -1.888  0.00  0.00     0.002 A 
ATOM      4  C5  UNL d   1       4.025   5.700  -1.547  0.00  0.00    -0.004 A 
ATOM      5  C6  UNL d   1       3.325   4.642  -2.124  0.00  0.00     0.002 A 
ATOM      6  C7  UNL d   1       3.959   3.800  -3.038  0.00  0.00     0.002 A 
ENDROOT
BRANCH   1   7
ATOM      7  C1  UNL d   1       6.000   3.070  -4.333  0.00  0.00     0.055 C 
ATOM      8  C   UNL d   1       5.663   3.393  -5.781  0.00  0.00     0.019 C 
ENDBRANCH   1   7
TORSDOF 1
ENDMDL
