MODEL 1
REMARK minimizedAffinity 8.45364475
REMARK minimizedRMSD -1
REMARK  1 active torsions:
REMARK  status: ('A' for Active; 'I' for Inactive)
REMARK    1  A    between atoms: C1_2  and  C2_3 
ROOT
ATOM      1  C2  UNL d   1      -3.472   1.539  -3.149  0.00  0.00    -0.077 A 
ATOM      2  C3  UNL d   1      -3.588   2.226  -4.365  0.00  0.00     0.002 A 
ATOM      3  C4  UNL d   1      -4.009   3.557  -4.387  0.00  0.00     0.002 A 
ATOM      4  C5  UNL d   1      -4.313   4.213  -3.197  0.00  0.00    -0.004 A 
ATOM      5  C6  UNL d   1      -4.203   3.538  -1.982  0.00  0.00     0.002 A 
ATOM      6  C7  UNL d   1      -3.784   2.207  -1.958  0.00  0.00     0.002 A 
ENDROOT
BRANCH   1   7
ATOM      7  C1  UNL d   1      -2.971   0.118  -3.118  0.00  0.00     0.055 C 
ATOM      8  C   UNL d   1      -1.531   0.050  -2.633  0.00  0.00     0.019 C 
ENDBRANCH   1   7
TORSDOF 1
ENDMDL
