MODEL 1
REMARK minimizedAffinity 5.04555511
REMARK minimizedRMSD -1
REMARK  1 active torsions:
REMARK  status: ('A' for Active; 'I' for Inactive)
REMARK    1  A    between atoms: C1_2  and  C2_3 
ROOT
ATOM      1  C2  UNL d   1      -4.249  -0.346  -3.293  0.00  0.00    -0.077 A 
ATOM      2  C3  UNL d   1      -2.909  -0.612  -2.980  0.00  0.00     0.002 A 
ATOM      3  C4  UNL d   1      -2.118   0.364  -2.372  0.00  0.00     0.002 A 
ATOM      4  C5  UNL d   1      -2.660   1.611  -2.066  0.00  0.00    -0.004 A 
ATOM      5  C6  UNL d   1      -3.991   1.886  -2.375  0.00  0.00     0.002 A 
ATOM      6  C7  UNL d   1      -4.783   0.912  -2.984  0.00  0.00     0.002 A 
ENDROOT
BRANCH   1   7
ATOM      7  C1  UNL d   1      -5.117  -1.415  -3.904  0.00  0.00     0.055 C 
ATOM      8  C   UNL d   1      -5.792  -0.919  -5.175  0.00  0.00     0.019 C 
ENDBRANCH   1   7
TORSDOF 1
ENDMDL
