MODEL 1
REMARK minimizedAffinity -3.8084352
REMARK minimizedRMSD -1
REMARK  0 active torsions:
REMARK  status: ('A' for Active; 'I' for Inactive)
ROOT
ATOM      1  C   UNL d   1       2.292  -0.780   1.895  0.00  0.00     0.023 A 
ATOM      2  C1  UNL d   1       2.207   0.324   1.046  0.00  0.00     0.003 A 
ATOM      3  C2  UNL d   1       1.068   0.516   0.261  0.00  0.00     0.048 A 
ATOM      4  C3  UNL d   1       0.017  -0.398   0.331  0.00  0.00     0.023 A 
ATOM      5  C4  UNL d   1       0.098  -1.503   1.180  0.00  0.00     0.048 A 
ATOM      6  C5  UNL d   1       1.239  -1.692   1.962  0.00  0.00     0.003 A 
ATOM      7  I   UNL d   1      -1.679  -0.114  -0.836  0.00  0.00    -0.146 I 
ENDROOT
TORSDOF 0
ENDMDL
