MODEL 1
REMARK minimizedAffinity -4.10013437
REMARK minimizedRMSD -1
REMARK  0 active torsions:
REMARK  status: ('A' for Active; 'I' for Inactive)
ROOT
ATOM      1  C   UNL d   1       2.824   0.940   3.524  0.00  0.00     0.023 A 
ATOM      2  C1  UNL d   1       2.912  -0.323   2.938  0.00  0.00     0.003 A 
ATOM      3  C2  UNL d   1       2.224  -0.594   1.754  0.00  0.00     0.048 A 
ATOM      4  C3  UNL d   1       1.452   0.404   1.159  0.00  0.00     0.023 A 
ATOM      5  C4  UNL d   1       1.362   1.669   1.742  0.00  0.00     0.048 A 
ATOM      6  C5  UNL d   1       2.050   1.935   2.927  0.00  0.00     0.003 A 
ATOM      7  I   UNL d   1       0.427   0.004  -0.604  0.00  0.00    -0.146 I 
ENDROOT
TORSDOF 0
ENDMDL
