MODEL 1
REMARK minimizedAffinity -3.67784238
REMARK minimizedRMSD -1
REMARK  0 active torsions:
REMARK  status: ('A' for Active; 'I' for Inactive)
ROOT
ATOM      1  C   UNL d   1      -0.427   1.107  -0.071  0.00  0.00     0.023 A 
ATOM      2  C1  UNL d   1       0.602   1.933   0.383  0.00  0.00     0.003 A 
ATOM      3  C2  UNL d   1       1.760   1.373   0.926  0.00  0.00     0.048 A 
ATOM      4  C3  UNL d   1       1.883  -0.013   1.012  0.00  0.00     0.023 A 
ATOM      5  C4  UNL d   1       0.857  -0.844   0.559  0.00  0.00     0.048 A 
ATOM      6  C5  UNL d   1      -0.300  -0.280   0.017  0.00  0.00     0.003 A 
ATOM      7  I   UNL d   1       3.606  -0.849   1.820  0.00  0.00    -0.146 I 
ENDROOT
TORSDOF 0
ENDMDL
