MODEL 1
REMARK minimizedAffinity 1.23177326
REMARK minimizedRMSD -1
REMARK  0 active torsions:
REMARK  status: ('A' for Active; 'I' for Inactive)
ROOT
ATOM      1  C   UNL d   1      -1.629   0.035  -0.452  0.00  0.00     0.023 A 
ATOM      2  C1  UNL d   1      -1.109  -1.145   0.079  0.00  0.00     0.003 A 
ATOM      3  C2  UNL d   1       0.171  -1.157   0.636  0.00  0.00     0.048 A 
ATOM      4  C3  UNL d   1       0.926   0.015   0.658  0.00  0.00     0.023 A 
ATOM      5  C4  UNL d   1       0.410   1.199   0.128  0.00  0.00     0.048 A 
ATOM      6  C5  UNL d   1      -0.871   1.205  -0.428  0.00  0.00     0.003 A 
ATOM      7  I   UNL d   1       2.833   0.000   1.486  0.00  0.00    -0.146 I 
ENDROOT
TORSDOF 0
ENDMDL
