MODEL 1
REMARK minimizedAffinity -2.4067862
REMARK minimizedRMSD -1
REMARK  0 active torsions:
REMARK  status: ('A' for Active; 'I' for Inactive)
ROOT
ATOM      1  C   UNL d   1       2.844   0.641   1.176  0.00  0.00     0.023 A 
ATOM      2  C1  UNL d   1       2.264   1.715   0.501  0.00  0.00     0.003 A 
ATOM      3  C2  UNL d   1       0.994   1.583  -0.065  0.00  0.00     0.048 A 
ATOM      4  C3  UNL d   1       0.309   0.374   0.050  0.00  0.00     0.023 A 
ATOM      5  C4  UNL d   1       0.885  -0.704   0.726  0.00  0.00     0.048 A 
ATOM      6  C5  UNL d   1       2.155  -0.567   1.288  0.00  0.00     0.003 A 
ATOM      7  I   UNL d   1      -1.581   0.174  -0.790  0.00  0.00    -0.146 I 
ENDROOT
TORSDOF 0
ENDMDL
