MODEL 1
REMARK minimizedAffinity -1.49755478
REMARK minimizedRMSD -1
REMARK  0 active torsions:
REMARK  status: ('A' for Active; 'I' for Inactive)
ROOT
ATOM      1  C   UNL d   1       1.375  -0.911   1.088  0.00  0.00     0.023 A 
ATOM      2  C1  UNL d   1       0.308  -1.805   1.170  0.00  0.00     0.003 A 
ATOM      3  C2  UNL d   1      -0.903  -1.508   0.540  0.00  0.00     0.048 A 
ATOM      4  C3  UNL d   1      -1.039  -0.316  -0.170  0.00  0.00     0.023 A 
ATOM      5  C4  UNL d   1       0.027   0.581  -0.255  0.00  0.00     0.048 A 
ATOM      6  C5  UNL d   1       1.235   0.281   0.377  0.00  0.00     0.003 A 
ATOM      7  I   UNL d   1      -2.840   0.127  -1.109  0.00  0.00    -0.146 I 
ENDROOT
TORSDOF 0
ENDMDL
