MODEL 1
REMARK minimizedAffinity 1.33743739
REMARK minimizedRMSD -1
REMARK  0 active torsions:
REMARK  status: ('A' for Active; 'I' for Inactive)
ROOT
ATOM      1  C   UNL d   1       2.510   2.694   2.024  0.00  0.00     0.023 A 
ATOM      2  C1  UNL d   1       2.639   2.555   3.406  0.00  0.00     0.003 A 
ATOM      3  C2  UNL d   1       2.527   1.294   3.996  0.00  0.00     0.048 A 
ATOM      4  C3  UNL d   1       2.287   0.176   3.197  0.00  0.00     0.023 A 
ATOM      5  C4  UNL d   1       2.158   0.311   1.814  0.00  0.00     0.048 A 
ATOM      6  C5  UNL d   1       2.270   1.574   1.229  0.00  0.00     0.003 A 
ATOM      7  I   UNL d   1       2.120  -1.701   4.072  0.00  0.00    -0.146 I 
ENDROOT
TORSDOF 0
ENDMDL
