MODEL 1
REMARK minimizedAffinity 12.1268911
REMARK minimizedRMSD -1
REMARK  1 active torsions:
REMARK  status: ('A' for Active; 'I' for Inactive)
REMARK    1  A    between atoms: C1_2  and  C2_3 
ROOT
ATOM      1  C2  UNL d   1      -2.368   4.592  -0.176  0.00  0.00    -0.081 A 
ATOM      2  C3  UNL d   1      -3.422   3.671  -0.140  0.00  0.00     0.006 A 
ATOM      3  C4  UNL d   1      -4.595   3.908  -0.860  0.00  0.00     0.002 A 
ATOM      4  C5  UNL d   1      -4.731   5.065  -1.634  0.00  0.00    -0.080 A 
ATOM      5  C6  UNL d   1      -5.973   5.317  -2.436  0.00  0.00     0.076 C 
ATOM      6  C7  UNL d   1      -3.685   5.994  -1.657  0.00  0.00     0.002 A 
ATOM      7  C8  UNL d   1      -2.512   5.757  -0.937  0.00  0.00     0.006 A 
ENDROOT
BRANCH   1   8
ATOM      8  C1  UNL d   1      -1.077   4.308   0.547  0.00  0.00     0.054 C 
ATOM      9  C   UNL d   1      -0.794   5.361   1.608  0.00  0.00     0.018 C 
ENDBRANCH   1   8
TORSDOF 1
ENDMDL
