MODEL 1
REMARK minimizedAffinity 5.20572615
REMARK minimizedRMSD -1
REMARK  1 active torsions:
REMARK  status: ('A' for Active; 'I' for Inactive)
REMARK    1  A    between atoms: C1_2  and  C2_3 
ROOT
ATOM      1  C2  UNL d   1       0.077  -0.129   3.213  0.00  0.00    -0.081 A 
ATOM      2  C3  UNL d   1       0.411   0.609   4.355  0.00  0.00     0.006 A 
ATOM      3  C4  UNL d   1       1.350   0.119   5.265  0.00  0.00     0.002 A 
ATOM      4  C5  UNL d   1       1.977  -1.112   5.045  0.00  0.00    -0.080 A 
ATOM      5  C6  UNL d   1       3.010  -1.635   5.999  0.00  0.00     0.076 C 
ATOM      6  C7  UNL d   1       1.631  -1.857   3.913  0.00  0.00     0.002 A 
ATOM      7  C8  UNL d   1       0.691  -1.368   3.003  0.00  0.00     0.006 A 
ENDROOT
BRANCH   1   8
ATOM      8  C1  UNL d   1      -0.888   0.426   2.196  0.00  0.00     0.054 C 
ATOM      9  C   UNL d   1      -2.145  -0.426   2.104  0.00  0.00     0.018 C 
ENDBRANCH   1   8
TORSDOF 1
ENDMDL
