MODEL 1
REMARK minimizedAffinity 12.2413015
REMARK minimizedRMSD -1
REMARK  1 active torsions:
REMARK  status: ('A' for Active; 'I' for Inactive)
REMARK    1  A    between atoms: C1_2  and  C2_3 
ROOT
ATOM      1  C2  UNL d   1       0.829  -0.908   3.194  0.00  0.00    -0.081 A 
ATOM      2  C3  UNL d   1       1.575   0.277   3.231  0.00  0.00     0.006 A 
ATOM      3  C4  UNL d   1       0.980   1.499   2.908  0.00  0.00     0.002 A 
ATOM      4  C5  UNL d   1      -0.372   1.558   2.551  0.00  0.00    -0.080 A 
ATOM      5  C6  UNL d   1      -1.031   2.867   2.232  0.00  0.00     0.076 C 
ATOM      6  C7  UNL d   1      -1.112   0.372   2.498  0.00  0.00     0.002 A 
ATOM      7  C8  UNL d   1      -0.518  -0.850   2.819  0.00  0.00     0.006 A 
ENDROOT
BRANCH   1   8
ATOM      8  C1  UNL d   1       1.452  -2.218   3.604  0.00  0.00     0.054 C 
ATOM      9  C   UNL d   1       0.604  -2.930   4.648  0.00  0.00     0.018 C 
ENDBRANCH   1   8
TORSDOF 1
ENDMDL
