MODEL 1
REMARK minimizedAffinity 16.1427193
REMARK minimizedRMSD -1
REMARK  1 active torsions:
REMARK  status: ('A' for Active; 'I' for Inactive)
REMARK    1  A    between atoms: C1_2  and  C2_3 
ROOT
ATOM      1  C2  UNL d   1      -1.265  -5.068  -5.783  0.00  0.00    -0.081 A 
ATOM      2  C3  UNL d   1      -0.255  -5.999  -5.515  0.00  0.00     0.006 A 
ATOM      3  C4  UNL d   1       1.071  -5.583  -5.370  0.00  0.00     0.002 A 
ATOM      4  C5  UNL d   1       1.406  -4.230  -5.483  0.00  0.00    -0.080 A 
ATOM      5  C6  UNL d   1       2.821  -3.766  -5.299  0.00  0.00     0.076 C 
ATOM      6  C7  UNL d   1       0.399  -3.302  -5.769  0.00  0.00     0.002 A 
ATOM      7  C8  UNL d   1      -0.926  -3.717  -5.914  0.00  0.00     0.006 A 
ENDROOT
BRANCH   1   8
ATOM      8  C1  UNL d   1      -2.705  -5.506  -5.876  0.00  0.00     0.054 C 
ATOM      9  C   UNL d   1      -3.642  -4.309  -5.961  0.00  0.00     0.018 C 
ENDBRANCH   1   8
TORSDOF 1
ENDMDL
