MODEL 1
REMARK minimizedAffinity 18.390192
REMARK minimizedRMSD -1
REMARK  1 active torsions:
REMARK  status: ('A' for Active; 'I' for Inactive)
REMARK    1  A    between atoms: C1_2  and  C2_3 
ROOT
ATOM      1  C2  UNL d   1      -1.012  -4.181  -4.683  0.00  0.00    -0.081 A 
ATOM      2  C3  UNL d   1      -0.283  -3.844  -5.830  0.00  0.00     0.006 A 
ATOM      3  C4  UNL d   1       0.213  -2.549  -6.000  0.00  0.00     0.002 A 
ATOM      4  C5  UNL d   1      -0.005  -1.572  -5.022  0.00  0.00    -0.080 A 
ATOM      5  C6  UNL d   1       0.547  -0.186  -5.177  0.00  0.00     0.076 C 
ATOM      6  C7  UNL d   1      -0.749  -1.904  -3.884  0.00  0.00     0.002 A 
ATOM      7  C8  UNL d   1      -1.245  -3.198  -3.715  0.00  0.00     0.006 A 
ENDROOT
BRANCH   1   8
ATOM      8  C1  UNL d   1      -1.493  -5.593  -4.468  0.00  0.00     0.054 C 
ATOM      9  C   UNL d   1      -1.376  -6.000  -3.006  0.00  0.00     0.018 C 
ENDBRANCH   1   8
TORSDOF 1
ENDMDL
