MODEL 1
REMARK minimizedAffinity -4.34541178
REMARK minimizedRMSD -1
REMARK  1 active torsions:
REMARK  status: ('A' for Active; 'I' for Inactive)
REMARK    1  A    between atoms: C1_2  and  C2_3 
ROOT
ATOM      1  C2  UNL d   1      -0.073   0.193   0.061  0.00  0.00    -0.077 A 
ATOM      2  C3  UNL d   1       0.589   0.860  -0.979  0.00  0.00     0.002 A 
ATOM      3  C4  UNL d   1       0.712   2.250  -0.961  0.00  0.00     0.002 A 
ATOM      4  C5  UNL d   1       0.178   2.985   0.096  0.00  0.00    -0.004 A 
ATOM      5  C6  UNL d   1      -0.484   2.331   1.134  0.00  0.00     0.002 A 
ATOM      6  C7  UNL d   1      -0.608   0.941   1.117  0.00  0.00     0.002 A 
ENDROOT
BRANCH   1   7
ATOM      7  C1  UNL d   1      -0.163  -1.311   0.069  0.00  0.00     0.055 C 
ATOM      8  C   UNL d   1      -0.384  -1.859  -1.334  0.00  0.00     0.019 C 
ENDBRANCH   1   7
TORSDOF 1
ENDMDL
