MODEL 1
REMARK minimizedAffinity -2.70067692
REMARK minimizedRMSD -1
REMARK  1 active torsions:
REMARK  status: ('A' for Active; 'I' for Inactive)
REMARK    1  A    between atoms: C1_2  and  C2_3 
ROOT
ATOM      1  C2  UNL d   1       0.619   0.912  -0.156  0.00  0.00    -0.077 A 
ATOM      2  C3  UNL d   1      -0.441   1.780   0.145  0.00  0.00     0.002 A 
ATOM      3  C4  UNL d   1      -1.656   1.275   0.613  0.00  0.00     0.002 A 
ATOM      4  C5  UNL d   1      -1.821  -0.097   0.788  0.00  0.00    -0.004 A 
ATOM      5  C6  UNL d   1      -0.775  -0.968   0.489  0.00  0.00     0.002 A 
ATOM      6  C7  UNL d   1       0.440  -0.466   0.021  0.00  0.00     0.002 A 
ENDROOT
BRANCH   1   7
ATOM      7  C1  UNL d   1       1.946   1.458  -0.613  0.00  0.00     0.055 C 
ATOM      8  C   UNL d   1       3.097   0.839   0.167  0.00  0.00     0.019 C 
ENDBRANCH   1   7
TORSDOF 1
ENDMDL
