MODEL 1
REMARK minimizedAffinity -4.42558002
REMARK minimizedRMSD -1
REMARK  1 active torsions:
REMARK  status: ('A' for Active; 'I' for Inactive)
REMARK    1  A    between atoms: C1_2  and  C2_3 
ROOT
ATOM      1  C2  UNL d   1       0.290  -0.888   0.249  0.00  0.00    -0.077 A 
ATOM      2  C3  UNL d   1      -1.006  -0.486   0.602  0.00  0.00     0.002 A 
ATOM      3  C4  UNL d   1      -1.351   0.867   0.596  0.00  0.00     0.002 A 
ATOM      4  C5  UNL d   1      -0.409   1.827   0.234  0.00  0.00    -0.004 A 
ATOM      5  C6  UNL d   1       0.883   1.437  -0.116  0.00  0.00     0.002 A 
ATOM      6  C7  UNL d   1       1.231   0.086  -0.110  0.00  0.00     0.002 A 
ENDROOT
BRANCH   1   7
ATOM      7  C1  UNL d   1       0.651  -2.350   0.207  0.00  0.00     0.055 C 
ATOM      8  C   UNL d   1      -0.055  -3.062  -0.938  0.00  0.00     0.019 C 
ENDBRANCH   1   7
TORSDOF 1
ENDMDL
