MODEL 1
REMARK minimizedAffinity -4.81807423
REMARK minimizedRMSD -1
REMARK  1 active torsions:
REMARK  status: ('A' for Active; 'I' for Inactive)
REMARK    1  A    between atoms: C1_2  and  C2_3 
ROOT
ATOM      1  C2  UNL d   1      -0.062   0.274   0.251  0.00  0.00    -0.077 A 
ATOM      2  C3  UNL d   1       1.013   1.091  -0.125  0.00  0.00     0.002 A 
ATOM      3  C4  UNL d   1       0.891   2.482  -0.083  0.00  0.00     0.002 A 
ATOM      4  C5  UNL d   1      -0.301   3.066   0.339  0.00  0.00    -0.004 A 
ATOM      5  C6  UNL d   1      -1.377   2.261   0.713  0.00  0.00     0.002 A 
ATOM      6  C7  UNL d   1      -1.257   0.871   0.670  0.00  0.00     0.002 A 
ENDROOT
BRANCH   1   7
ATOM      7  C1  UNL d   1       0.084  -1.226   0.253  0.00  0.00     0.055 C 
ATOM      8  C   UNL d   1      -0.289  -1.820  -1.097  0.00  0.00     0.019 C 
ENDBRANCH   1   7
TORSDOF 1
ENDMDL
