MODEL 1
REMARK minimizedAffinity -2.74075603
REMARK minimizedRMSD -1
REMARK  1 active torsions:
REMARK  status: ('A' for Active; 'I' for Inactive)
REMARK    1  A    between atoms: C1_2  and  C2_3 
ROOT
ATOM      1  C2  UNL d   1      -0.665  -2.450  -0.671  0.00  0.00    -0.077 A 
ATOM      2  C3  UNL d   1      -1.972  -2.915  -0.465  0.00  0.00     0.002 A 
ATOM      3  C4  UNL d   1      -2.365  -4.159  -0.963  0.00  0.00     0.002 A 
ATOM      4  C5  UNL d   1      -1.458  -4.949  -1.665  0.00  0.00    -0.004 A 
ATOM      5  C6  UNL d   1      -0.157  -4.495  -1.877  0.00  0.00     0.002 A 
ATOM      6  C7  UNL d   1       0.238  -3.251  -1.382  0.00  0.00     0.002 A 
ENDROOT
BRANCH   1   7
ATOM      7  C1  UNL d   1      -0.224  -1.131  -0.093  0.00  0.00     0.055 C 
ATOM      8  C   UNL d   1      -1.417  -0.279   0.314  0.00  0.00     0.019 C 
ENDBRANCH   1   7
TORSDOF 1
ENDMDL
