MODEL 1
REMARK minimizedAffinity -4.50747252
REMARK minimizedRMSD -1
REMARK  1 active torsions:
REMARK  status: ('A' for Active; 'I' for Inactive)
REMARK    1  A    between atoms: C1_2  and  C2_3 
ROOT
ATOM      1  C2  UNL d   1      -0.639  -1.950  -0.357  0.00  0.00    -0.077 A 
ATOM      2  C3  UNL d   1       0.301  -1.997  -1.396  0.00  0.00     0.002 A 
ATOM      3  C4  UNL d   1       0.136  -2.888  -2.458  0.00  0.00     0.002 A 
ATOM      4  C5  UNL d   1      -0.969  -3.735  -2.494  0.00  0.00    -0.004 A 
ATOM      5  C6  UNL d   1      -1.909  -3.697  -1.465  0.00  0.00     0.002 A 
ATOM      6  C7  UNL d   1      -1.745  -2.808  -0.402  0.00  0.00     0.002 A 
ENDROOT
BRANCH   1   7
ATOM      7  C1  UNL d   1      -0.489  -0.955   0.764  0.00  0.00     0.055 C 
ATOM      8  C   UNL d   1      -1.455   0.209   0.604  0.00  0.00     0.019 C 
ENDBRANCH   1   7
TORSDOF 1
ENDMDL
