MODEL 1
REMARK minimizedAffinity -4.49403095
REMARK minimizedRMSD -1
REMARK  1 active torsions:
REMARK  status: ('A' for Active; 'I' for Inactive)
REMARK    1  A    between atoms: C1_2  and  C2_3 
ROOT
ATOM      1  C2  UNL d   1      -0.102  -0.242   0.030  0.00  0.00    -0.077 A 
ATOM      2  C3  UNL d   1       0.782   0.783  -0.339  0.00  0.00     0.002 A 
ATOM      3  C4  UNL d   1       0.399   2.121  -0.225  0.00  0.00     0.002 A 
ATOM      4  C5  UNL d   1      -0.866   2.446   0.260  0.00  0.00    -0.004 A 
ATOM      5  C6  UNL d   1      -1.752   1.435   0.628  0.00  0.00     0.002 A 
ATOM      6  C7  UNL d   1      -1.372   0.097   0.514  0.00  0.00     0.002 A 
ENDROOT
BRANCH   1   7
ATOM      7  C1  UNL d   1       0.327  -1.684  -0.045  0.00  0.00     0.055 C 
ATOM      8  C   UNL d   1      -0.233  -2.364  -1.286  0.00  0.00     0.019 C 
ENDBRANCH   1   7
TORSDOF 1
ENDMDL
