MODEL 1
REMARK minimizedAffinity -5.89726305
REMARK minimizedRMSD -1
REMARK  1 active torsions:
REMARK  status: ('A' for Active; 'I' for Inactive)
REMARK    1  A    between atoms: C1_2  and  C2_3 
ROOT
ATOM      1  C2  UNL d   1       0.024   0.389   0.143  0.00  0.00    -0.077 A 
ATOM      2  C3  UNL d   1       1.261   1.034  -0.000  0.00  0.00     0.002 A 
ATOM      3  C4  UNL d   1       1.374   2.405   0.240  0.00  0.00     0.002 A 
ATOM      4  C5  UNL d   1       0.256   3.140   0.627  0.00  0.00    -0.004 A 
ATOM      5  C6  UNL d   1      -0.978   2.508   0.770  0.00  0.00     0.002 A 
ATOM      6  C7  UNL d   1      -1.094   1.139   0.530  0.00  0.00     0.002 A 
ENDROOT
BRANCH   1   7
ATOM      7  C1  UNL d   1      -0.089  -1.099  -0.067  0.00  0.00     0.055 C 
ATOM      8  C   UNL d   1       0.959  -1.853   0.737  0.00  0.00     0.019 C 
ENDBRANCH   1   7
TORSDOF 1
ENDMDL
