MODEL 1
REMARK minimizedAffinity -4.07878304
REMARK minimizedRMSD -1
REMARK  1 active torsions:
REMARK  status: ('A' for Active; 'I' for Inactive)
REMARK    1  A    between atoms: C1_2  and  C2_3 
ROOT
ATOM      1  C2  UNL d   1       0.045  -0.459   0.018  0.00  0.00    -0.077 A 
ATOM      2  C3  UNL d   1       1.036   0.371  -0.525  0.00  0.00     0.002 A 
ATOM      3  C4  UNL d   1       0.923   1.760  -0.432  0.00  0.00     0.002 A 
ATOM      4  C5  UNL d   1      -0.176   2.330   0.208  0.00  0.00    -0.004 A 
ATOM      5  C6  UNL d   1      -1.167   1.512   0.750  0.00  0.00     0.002 A 
ATOM      6  C7  UNL d   1      -1.057   0.124   0.657  0.00  0.00     0.002 A 
ENDROOT
BRANCH   1   7
ATOM      7  C1  UNL d   1       0.190  -1.957  -0.038  0.00  0.00     0.055 C 
ATOM      8  C   UNL d   1      -0.093  -2.489  -1.435  0.00  0.00     0.019 C 
ENDBRANCH   1   7
TORSDOF 1
ENDMDL
