MODEL 1
REMARK minimizedAffinity -3.67257738
REMARK minimizedRMSD -1
REMARK  3 active torsions:
REMARK  status: ('A' for Active; 'I' for Inactive)
REMARK    1  A    between atoms: C3'_2  and  C2'_3 
REMARK    2  A    between atoms: C2'_3  and  C1'_4 
REMARK    3  A    between atoms: C1'_4  and  C1_5 
ROOT
ATOM      1  C1  N4B d   1       0.765   0.351   0.608  0.00  0.00    -0.075 A 
ATOM      2  C2  N4B d   1       1.931  -0.445   0.580  0.00  0.00     0.002 A 
ATOM      3  C3  N4B d   1       1.952  -1.608  -0.149  0.00  0.00     0.002 A 
ATOM      4  C4  N4B d   1       0.817  -2.004  -0.841  0.00  0.00    -0.004 A 
ATOM      5  C5  N4B d   1      -0.298  -1.217  -0.830  0.00  0.00     0.002 A 
ATOM      6  C6  N4B d   1      -0.331  -0.043  -0.104  0.00  0.00     0.002 A 
ENDROOT
BRANCH   1   7
ATOM      7  C1' N4B d   1       0.666   1.587   1.460  0.00  0.00     0.057 C 
BRANCH   7   8
ATOM      8  C2' N4B d   1       1.124   2.794   0.646  0.00  0.00     0.009 C 
BRANCH   8   9
ATOM      9  C3' N4B d   1       2.638   2.884   0.565  0.00  0.00     0.004 C 
ATOM     10  C4' N4B d   1       3.299   2.791   1.908  0.00  0.00     0.003 C 
ENDBRANCH   8   9
ENDBRANCH   7   8
ENDBRANCH   1   7
TORSDOF 3
ENDMDL
