MODEL 1
REMARK minimizedAffinity -2.39165378
REMARK minimizedRMSD -1
REMARK  3 active torsions:
REMARK  status: ('A' for Active; 'I' for Inactive)
REMARK    1  A    between atoms: C3'_2  and  C2'_3 
REMARK    2  A    between atoms: C2'_3  and  C1'_4 
REMARK    3  A    between atoms: C1'_4  and  C1_5 
ROOT
ATOM      1  C1  N4B d   1       2.736  -0.276  -0.162  0.00  0.00    -0.075 A 
ATOM      2  C2  N4B d   1       2.175  -1.561   0.006  0.00  0.00     0.002 A 
ATOM      3  C3  N4B d   1       2.608  -2.606  -0.773  0.00  0.00     0.002 A 
ATOM      4  C4  N4B d   1       3.582  -2.387  -1.735  0.00  0.00    -0.004 A 
ATOM      5  C5  N4B d   1       4.137  -1.148  -1.874  0.00  0.00     0.002 A 
ATOM      6  C6  N4B d   1       3.714  -0.090  -1.095  0.00  0.00     0.002 A 
ENDROOT
BRANCH   1   7
ATOM      7  C1' N4B d   1       2.234   0.916   0.606  0.00  0.00     0.057 C 
BRANCH   7   8
ATOM      8  C2' N4B d   1       3.403   1.852   0.898  0.00  0.00     0.009 C 
BRANCH   8   9
ATOM      9  C3' N4B d   1       3.445   2.272   2.357  0.00  0.00     0.004 C 
ATOM     10  C4' N4B d   1       4.805   2.733   2.790  0.00  0.00     0.003 C 
ENDBRANCH   8   9
ENDBRANCH   7   8
ENDBRANCH   1   7
TORSDOF 3
ENDMDL
