MODEL 1
REMARK minimizedAffinity 4.49404621
REMARK minimizedRMSD -1
REMARK  3 active torsions:
REMARK  status: ('A' for Active; 'I' for Inactive)
REMARK    1  A    between atoms: C3'_2  and  C2'_3 
REMARK    2  A    between atoms: C2'_3  and  C1'_4 
REMARK    3  A    between atoms: C1'_4  and  C1_5 
ROOT
ATOM      1  C1  N4B d   1      -0.155  -2.484  -1.194  0.00  0.00    -0.075 A 
ATOM      2  C2  N4B d   1       1.085  -2.974  -0.728  0.00  0.00     0.002 A 
ATOM      3  C3  N4B d   1       1.802  -2.257   0.198  0.00  0.00     0.002 A 
ATOM      4  C4  N4B d   1       1.310  -1.044   0.657  0.00  0.00    -0.004 A 
ATOM      5  C5  N4B d   1       0.099  -0.591   0.221  0.00  0.00     0.002 A 
ATOM      6  C6  N4B d   1      -0.634  -1.303  -0.707  0.00  0.00     0.002 A 
ENDROOT
BRANCH   1   7
ATOM      7  C1' N4B d   1      -0.934  -3.190  -2.270  0.00  0.00     0.057 C 
BRANCH   7   8
ATOM      8  C2' N4B d   1      -1.209  -2.215  -3.411  0.00  0.00     0.009 C 
BRANCH   8   9
ATOM      9  C3' N4B d   1      -1.354  -2.927  -4.745  0.00  0.00     0.004 C 
ATOM     10  C4' N4B d   1      -2.537  -3.848  -4.787  0.00  0.00     0.003 C 
ENDBRANCH   8   9
ENDBRANCH   7   8
ENDBRANCH   1   7
TORSDOF 3
ENDMDL
