MODEL 1
REMARK minimizedAffinity 7.74535275
REMARK minimizedRMSD -1
REMARK  3 active torsions:
REMARK  status: ('A' for Active; 'I' for Inactive)
REMARK    1  A    between atoms: C3'_2  and  C2'_3 
REMARK    2  A    between atoms: C2'_3  and  C1'_4 
REMARK    3  A    between atoms: C1'_4  and  C1_5 
ROOT
ATOM      1  C1  N4B d   1       1.083  -0.071   1.902  0.00  0.00    -0.075 A 
ATOM      2  C2  N4B d   1       1.189  -1.253   2.669  0.00  0.00     0.002 A 
ATOM      3  C3  N4B d   1       1.322  -1.176   4.033  0.00  0.00     0.002 A 
ATOM      4  C4  N4B d   1       1.371   0.066   4.649  0.00  0.00    -0.004 A 
ATOM      5  C5  N4B d   1       1.243   1.202   3.904  0.00  0.00     0.002 A 
ATOM      6  C6  N4B d   1       1.104   1.139   2.532  0.00  0.00     0.002 A 
ENDROOT
BRANCH   1   7
ATOM      7  C1' N4B d   1       1.022  -0.103   0.399  0.00  0.00     0.057 C 
BRANCH   7   8
ATOM      8  C2' N4B d   1       0.609  -1.499  -0.056  0.00  0.00     0.009 C 
BRANCH   8   9
ATOM      9  C3' N4B d   1       1.772  -2.266  -0.663  0.00  0.00     0.004 C 
ATOM     10  C4' N4B d   1       2.879  -1.369  -1.129  0.00  0.00     0.003 C 
ENDBRANCH   8   9
ENDBRANCH   7   8
ENDBRANCH   1   7
TORSDOF 3
ENDMDL
