MODEL 1
REMARK minimizedAffinity 7.07971668
REMARK minimizedRMSD -1
REMARK  3 active torsions:
REMARK  status: ('A' for Active; 'I' for Inactive)
REMARK    1  A    between atoms: C3'_2  and  C2'_3 
REMARK    2  A    between atoms: C2'_3  and  C1'_4 
REMARK    3  A    between atoms: C1'_4  and  C1_5 
ROOT
ATOM      1  C1  N4B d   1      -0.875  -0.216  -0.823  0.00  0.00    -0.075 A 
ATOM      2  C2  N4B d   1      -0.855  -1.588  -1.157  0.00  0.00     0.002 A 
ATOM      3  C3  N4B d   1       0.209  -2.371  -0.780  0.00  0.00     0.002 A 
ATOM      4  C4  N4B d   1       1.267  -1.802  -0.087  0.00  0.00    -0.004 A 
ATOM      5  C5  N4B d   1       1.228  -0.482   0.254  0.00  0.00     0.002 A 
ATOM      6  C6  N4B d   1       0.164   0.316  -0.116  0.00  0.00     0.002 A 
ENDROOT
BRANCH   1   7
ATOM      7  C1' N4B d   1      -1.975   0.698  -1.289  0.00  0.00     0.057 C 
BRANCH   7   8
ATOM      8  C2' N4B d   1      -3.308  -0.039  -1.204  0.00  0.00     0.009 C 
BRANCH   8   9
ATOM      9  C3' N4B d   1      -4.437   0.753  -1.841  0.00  0.00     0.004 C 
ATOM     10  C4' N4B d   1      -5.319  -0.091  -2.712  0.00  0.00     0.003 C 
ENDBRANCH   8   9
ENDBRANCH   7   8
ENDBRANCH   1   7
TORSDOF 3
ENDMDL
