MODEL 1
REMARK minimizedAffinity 5.82776165
REMARK minimizedRMSD -1
REMARK  3 active torsions:
REMARK  status: ('A' for Active; 'I' for Inactive)
REMARK    1  A    between atoms: C3'_2  and  C2'_3 
REMARK    2  A    between atoms: C2'_3  and  C1'_4 
REMARK    3  A    between atoms: C1'_4  and  C1_5 
ROOT
ATOM      1  C1  N4B d   1       0.434   0.011   0.161  0.00  0.00    -0.075 A 
ATOM      2  C2  N4B d   1       1.330  -1.070   0.311  0.00  0.00     0.002 A 
ATOM      3  C3  N4B d   1       0.971  -2.324  -0.118  0.00  0.00     0.002 A 
ATOM      4  C4  N4B d   1      -0.281  -2.524  -0.680  0.00  0.00    -0.004 A 
ATOM      5  C5  N4B d   1      -1.132  -1.470  -0.844  0.00  0.00     0.002 A 
ATOM      6  C6  N4B d   1      -0.782  -0.203  -0.421  0.00  0.00     0.002 A 
ENDROOT
BRANCH   1   7
ATOM      7  C1' N4B d   1       0.748   1.383   0.693  0.00  0.00     0.057 C 
BRANCH   7   8
ATOM      8  C2' N4B d   1       1.770   1.261   1.819  0.00  0.00     0.009 C 
BRANCH   8   9
ATOM      9  C3' N4B d   1       1.117   1.318   3.189  0.00  0.00     0.004 C 
ATOM     10  C4' N4B d   1       1.352   0.077   3.997  0.00  0.00     0.003 C 
ENDBRANCH   8   9
ENDBRANCH   7   8
ENDBRANCH   1   7
TORSDOF 3
ENDMDL
