MODEL 1
REMARK minimizedAffinity -1.48921204
REMARK minimizedRMSD -1
REMARK  3 active torsions:
REMARK  status: ('A' for Active; 'I' for Inactive)
REMARK    1  A    between atoms: C3'_2  and  C2'_3 
REMARK    2  A    between atoms: C2'_3  and  C1'_4 
REMARK    3  A    between atoms: C1'_4  and  C1_5 
ROOT
ATOM      1  C1  N4B d   1       3.386  -0.801  -0.777  0.00  0.00    -0.075 A 
ATOM      2  C2  N4B d   1       2.402  -1.679  -0.274  0.00  0.00     0.002 A 
ATOM      3  C3  N4B d   1       1.889  -2.668  -1.077  0.00  0.00     0.002 A 
ATOM      4  C4  N4B d   1       2.329  -2.785  -2.387  0.00  0.00    -0.004 A 
ATOM      5  C5  N4B d   1       3.298  -1.948  -2.857  0.00  0.00     0.002 A 
ATOM      6  C6  N4B d   1       3.826  -0.953  -2.060  0.00  0.00     0.002 A 
ENDROOT
BRANCH   1   7
ATOM      7  C1' N4B d   1       3.915   0.350   0.036  0.00  0.00     0.057 C 
BRANCH   7   8
ATOM      8  C2' N4B d   1       2.840   1.427   0.137  0.00  0.00     0.009 C 
BRANCH   8   9
ATOM      9  C3' N4B d   1       1.747   1.048   1.123  0.00  0.00     0.004 C 
ATOM     10  C4' N4B d   1       0.384   1.031   0.499  0.00  0.00     0.003 C 
ENDBRANCH   8   9
ENDBRANCH   7   8
ENDBRANCH   1   7
TORSDOF 3
ENDMDL
