MODEL 1
REMARK minimizedAffinity -3.20623159
REMARK minimizedRMSD -1
REMARK  3 active torsions:
REMARK  status: ('A' for Active; 'I' for Inactive)
REMARK    1  A    between atoms: C3'_2  and  C2'_3 
REMARK    2  A    between atoms: C2'_3  and  C1'_4 
REMARK    3  A    between atoms: C1'_4  and  C1_5 
ROOT
ATOM      1  C1  N4B d   1       1.365  -1.004  -0.373  0.00  0.00    -0.075 A 
ATOM      2  C2  N4B d   1       0.248  -1.826  -0.103  0.00  0.00     0.002 A 
ATOM      3  C3  N4B d   1      -0.960  -1.259   0.218  0.00  0.00     0.002 A 
ATOM      4  C4  N4B d   1      -1.071   0.122   0.294  0.00  0.00    -0.004 A 
ATOM      5  C5  N4B d   1       0.005   0.909   0.007  0.00  0.00     0.002 A 
ATOM      6  C6  N4B d   1       1.225   0.352  -0.321  0.00  0.00     0.002 A 
ENDROOT
BRANCH   1   7
ATOM      7  C1' N4B d   1       2.728  -1.580  -0.645  0.00  0.00     0.057 C 
BRANCH   7   8
ATOM      8  C2' N4B d   1       3.773  -0.775   0.122  0.00  0.00     0.009 C 
BRANCH   8   9
ATOM      9  C3' N4B d   1       4.432   0.278  -0.752  0.00  0.00     0.004 C 
ATOM     10  C4' N4B d   1       4.001   1.672  -0.407  0.00  0.00     0.003 C 
ENDBRANCH   8   9
ENDBRANCH   7   8
ENDBRANCH   1   7
TORSDOF 3
ENDMDL
