MODEL 1
REMARK minimizedAffinity 3.03939509
REMARK minimizedRMSD -1
REMARK  0 active torsions:
REMARK  status: ('A' for Active; 'I' for Inactive)
ROOT
ATOM      1  C   UNL d   1      -5.661   5.354  -2.093  0.00  0.00     0.078 C 
ATOM      2  C1  UNL d   1      -4.817   4.156  -2.411  0.00  0.00    -0.077 A 
ATOM      3  C2  UNL d   1      -4.463   3.853  -3.732  0.00  0.00    -0.001 A 
ATOM      4  C3  UNL d   1      -3.685   2.730  -4.014  0.00  0.00     0.003 A 
ATOM      5  C4  UNL d   1      -3.254   1.899  -2.981  0.00  0.00    -0.005 A 
ATOM      6  C5  UNL d   1      -3.603   2.191  -1.664  0.00  0.00     0.003 A 
ATOM      7  C6  UNL d   1      -4.382   3.314  -1.380  0.00  0.00    -0.001 A 
ENDROOT
TORSDOF 0
ENDMDL
