MODEL 1
REMARK minimizedAffinity -3.96140981
REMARK minimizedRMSD -1
REMARK  0 active torsions:
REMARK  status: ('A' for Active; 'I' for Inactive)
ROOT
ATOM      1  C   UNL d   1       1.134  -2.243  -0.093  0.00  0.00     0.078 C 
ATOM      2  C1  UNL d   1       1.588  -2.359   1.332  0.00  0.00    -0.077 A 
ATOM      3  C2  UNL d   1       2.072  -3.572   1.838  0.00  0.00    -0.001 A 
ATOM      4  C3  UNL d   1       2.482  -3.668   3.168  0.00  0.00     0.003 A 
ATOM      5  C4  UNL d   1       2.413  -2.556   4.004  0.00  0.00    -0.005 A 
ATOM      6  C5  UNL d   1       1.931  -1.345   3.510  0.00  0.00     0.003 A 
ATOM      7  C6  UNL d   1       1.520  -1.247   2.180  0.00  0.00    -0.001 A 
ENDROOT
TORSDOF 0
ENDMDL
