MODEL 1
REMARK minimizedAffinity 6.50637436
REMARK minimizedRMSD -1
REMARK  0 active torsions:
REMARK  status: ('A' for Active; 'I' for Inactive)
ROOT
ATOM      1  C   UNL d   1       2.945  -5.825  -2.211  0.00  0.00     0.078 C 
ATOM      2  C1  UNL d   1       3.746  -5.877  -3.477  0.00  0.00    -0.077 A 
ATOM      3  C2  UNL d   1       3.118  -5.883  -4.728  0.00  0.00    -0.001 A 
ATOM      4  C3  UNL d   1       3.876  -5.941  -5.899  0.00  0.00     0.003 A 
ATOM      5  C4  UNL d   1       5.266  -5.996  -5.830  0.00  0.00    -0.005 A 
ATOM      6  C5  UNL d   1       5.901  -5.993  -4.589  0.00  0.00     0.003 A 
ATOM      7  C6  UNL d   1       5.144  -5.934  -3.417  0.00  0.00    -0.001 A 
ENDROOT
TORSDOF 0
ENDMDL
