MODEL 1
REMARK minimizedAffinity 5.42150068
REMARK minimizedRMSD -1
REMARK  0 active torsions:
REMARK  status: ('A' for Active; 'I' for Inactive)
ROOT
ATOM      1  C   UNL d   1       3.444   1.522   0.397  0.00  0.00     0.078 C 
ATOM      2  C1  UNL d   1       2.912   0.669   1.509  0.00  0.00    -0.077 A 
ATOM      3  C2  UNL d   1       2.741  -0.711   1.342  0.00  0.00    -0.001 A 
ATOM      4  C3  UNL d   1       2.236  -1.491   2.383  0.00  0.00     0.003 A 
ATOM      5  C4  UNL d   1       1.896  -0.901   3.598  0.00  0.00    -0.005 A 
ATOM      6  C5  UNL d   1       2.060   0.472   3.774  0.00  0.00     0.003 A 
ATOM      7  C6  UNL d   1       2.565   1.254   2.734  0.00  0.00    -0.001 A 
ENDROOT
TORSDOF 0
ENDMDL
