MODEL 1
REMARK minimizedAffinity -2.53485131
REMARK minimizedRMSD -1
REMARK  0 active torsions:
REMARK  status: ('A' for Active; 'I' for Inactive)
ROOT
ATOM      1  C   UNL d   1       3.420  -3.949   4.906  0.00  0.00     0.078 C 
ATOM      2  C1  UNL d   1       2.821  -2.814   4.132  0.00  0.00    -0.077 A 
ATOM      3  C2  UNL d   1       1.897  -1.945   4.725  0.00  0.00    -0.001 A 
ATOM      4  C3  UNL d   1       1.339  -0.898   3.989  0.00  0.00     0.003 A 
ATOM      5  C4  UNL d   1       1.699  -0.711   2.655  0.00  0.00    -0.005 A 
ATOM      6  C5  UNL d   1       2.615  -1.572   2.056  0.00  0.00     0.003 A 
ATOM      7  C6  UNL d   1       3.174  -2.620   2.791  0.00  0.00    -0.001 A 
ENDROOT
TORSDOF 0
ENDMDL
