MODEL 1
REMARK minimizedAffinity 4.87426901
REMARK minimizedRMSD -1
REMARK  0 active torsions:
REMARK  status: ('A' for Active; 'I' for Inactive)
ROOT
ATOM      1  C   UNL d   1       3.018   1.087   1.382  0.00  0.00     0.078 C 
ATOM      2  C1  UNL d   1       2.750  -0.041   2.333  0.00  0.00    -0.077 A 
ATOM      3  C2  UNL d   1       1.602  -0.051   3.135  0.00  0.00    -0.001 A 
ATOM      4  C3  UNL d   1       1.370  -1.103   4.022  0.00  0.00     0.003 A 
ATOM      5  C4  UNL d   1       2.282  -2.153   4.116  0.00  0.00    -0.005 A 
ATOM      6  C5  UNL d   1       3.427  -2.151   3.324  0.00  0.00     0.003 A 
ATOM      7  C6  UNL d   1       3.661  -1.100   2.436  0.00  0.00    -0.001 A 
ENDROOT
TORSDOF 0
ENDMDL
