MODEL 1
REMARK minimizedAffinity 8.48574066
REMARK minimizedRMSD -1
REMARK  0 active torsions:
REMARK  status: ('A' for Active; 'I' for Inactive)
ROOT
ATOM      1  C   UNL d   1      -5.610   2.476   2.540  0.00  0.00     0.078 C 
ATOM      2  C1  UNL d   1      -5.702   2.167   1.076  0.00  0.00    -0.077 A 
ATOM      3  C2  UNL d   1      -5.926   0.860   0.627  0.00  0.00    -0.001 A 
ATOM      4  C3  UNL d   1      -6.000   0.585  -0.739  0.00  0.00     0.003 A 
ATOM      5  C4  UNL d   1      -5.850   1.612  -1.669  0.00  0.00    -0.005 A 
ATOM      6  C5  UNL d   1      -5.625   2.916  -1.232  0.00  0.00     0.003 A 
ATOM      7  C6  UNL d   1      -5.551   3.193   0.134  0.00  0.00    -0.001 A 
ENDROOT
TORSDOF 0
ENDMDL
