MODEL 1
REMARK minimizedAffinity 8.11605549
REMARK minimizedRMSD -1
REMARK  0 active torsions:
REMARK  status: ('A' for Active; 'I' for Inactive)
ROOT
ATOM      1  C   UNL d   1       3.081   1.925   1.084  0.00  0.00     0.078 C 
ATOM      2  C1  UNL d   1       2.700   0.683   1.832  0.00  0.00    -0.077 A 
ATOM      3  C2  UNL d   1       3.164   0.454   3.133  0.00  0.00    -0.001 A 
ATOM      4  C3  UNL d   1       2.809  -0.712   3.814  0.00  0.00     0.003 A 
ATOM      5  C4  UNL d   1       1.990  -1.658   3.201  0.00  0.00    -0.005 A 
ATOM      6  C5  UNL d   1       1.525  -1.440   1.906  0.00  0.00     0.003 A 
ATOM      7  C6  UNL d   1       1.879  -0.275   1.223  0.00  0.00    -0.001 A 
ENDROOT
TORSDOF 0
ENDMDL
