MODEL 1
REMARK minimizedAffinity 4.81290388
REMARK minimizedRMSD -1
REMARK  0 active torsions:
REMARK  status: ('A' for Active; 'I' for Inactive)
ROOT
ATOM      1  C   UNL d   1      -5.934   2.470   3.572  0.00  0.00     0.078 C 
ATOM      2  C1  UNL d   1      -5.285   2.684   2.237  0.00  0.00    -0.077 A 
ATOM      3  C2  UNL d   1      -5.999   3.242   1.169  0.00  0.00    -0.001 A 
ATOM      4  C3  UNL d   1      -5.385   3.427  -0.070  0.00  0.00     0.003 A 
ATOM      5  C4  UNL d   1      -4.055   3.054  -0.255  0.00  0.00    -0.005 A 
ATOM      6  C5  UNL d   1      -3.337   2.496   0.801  0.00  0.00     0.003 A 
ATOM      7  C6  UNL d   1      -3.950   2.311   2.042  0.00  0.00    -0.001 A 
ENDROOT
TORSDOF 0
ENDMDL
