MODEL 1
REMARK minimizedAffinity 6.20784473
REMARK minimizedRMSD -1
REMARK  0 active torsions:
REMARK  status: ('A' for Active; 'I' for Inactive)
ROOT
ATOM      1  C   UNL d   1       0.058  -4.793   6.000  0.00  0.00     0.078 C 
ATOM      2  C1  UNL d   1       1.329  -4.223   5.446  0.00  0.00    -0.077 A 
ATOM      3  C2  UNL d   1       1.419  -2.871   5.093  0.00  0.00    -0.001 A 
ATOM      4  C3  UNL d   1       2.606  -2.356   4.570  0.00  0.00     0.003 A 
ATOM      5  C4  UNL d   1       3.712  -3.186   4.394  0.00  0.00    -0.005 A 
ATOM      6  C5  UNL d   1       3.631  -4.533   4.740  0.00  0.00     0.003 A 
ATOM      7  C6  UNL d   1       2.445  -5.050   5.263  0.00  0.00    -0.001 A 
ENDROOT
TORSDOF 0
ENDMDL
