MODEL 1
REMARK minimizedAffinity 6.9429965
REMARK minimizedRMSD -1
REMARK  0 active torsions:
REMARK  status: ('A' for Active; 'I' for Inactive)
ROOT
ATOM      1  C   UNL d   1       4.373  -0.318   0.920  0.00  0.00     0.078 C 
ATOM      2  C1  UNL d   1       3.393  -0.653   2.004  0.00  0.00    -0.077 A 
ATOM      3  C2  UNL d   1       3.340  -1.938   2.556  0.00  0.00    -0.001 A 
ATOM      4  C3  UNL d   1       2.416  -2.239   3.558  0.00  0.00     0.003 A 
ATOM      5  C4  UNL d   1       1.537  -1.259   4.015  0.00  0.00    -0.005 A 
ATOM      6  C5  UNL d   1       1.581   0.022   3.470  0.00  0.00     0.003 A 
ATOM      7  C6  UNL d   1       2.504   0.325   2.468  0.00  0.00    -0.001 A 
ENDROOT
TORSDOF 0
ENDMDL
