MODEL 1
REMARK minimizedAffinity -3.35192895
REMARK minimizedRMSD -1
REMARK  0 active torsions:
REMARK  status: ('A' for Active; 'I' for Inactive)
ROOT
ATOM      1  C   UNL d   1       0.375   0.989   3.911  0.00  0.00    -0.002 A 
ATOM      2  C1  UNL d   1       1.176  -0.001   3.359  0.00  0.00     0.010 A 
ATOM      3  C2  UNL d   1       0.874  -0.544   2.109  0.00  0.00     0.041 A 
ATOM      4  C3  UNL d   1      -0.258  -0.071   1.415  0.00  0.00    -0.075 A 
ATOM      5  S   UNL d   1      -0.822  -0.588  -0.130  0.00  0.00     0.015 SA
ATOM      6  C4  UNL d   1      -2.139   0.493  -0.094  0.00  0.00     0.022 A 
ATOM      7  C5  UNL d   1      -2.163   1.237   1.061  0.00  0.00     0.026 A 
ATOM      8  C6  UNL d   1      -1.079   0.925   1.950  0.00  0.00    -0.082 A 
ATOM      9  C7  UNL d   1      -0.747   1.456   3.220  0.00  0.00     0.045 A 
ENDROOT
TORSDOF 0
ENDMDL
