MODEL 1
REMARK minimizedAffinity -1.85420132
REMARK minimizedRMSD -1
REMARK  0 active torsions:
REMARK  status: ('A' for Active; 'I' for Inactive)
ROOT
ATOM      1  C   UNL d   1      -1.109   0.584   3.250  0.00  0.00    -0.002 A 
ATOM      2  C1  UNL d   1       0.177   0.102   3.447  0.00  0.00     0.010 A 
ATOM      3  C2  UNL d   1       0.955  -0.311   2.364  0.00  0.00     0.041 A 
ATOM      4  C3  UNL d   1       0.413  -0.230   1.066  0.00  0.00    -0.075 A 
ATOM      5  S   UNL d   1       1.182  -0.679  -0.411  0.00  0.00     0.015 SA
ATOM      6  C4  UNL d   1      -0.179  -0.241  -1.339  0.00  0.00     0.022 A 
ATOM      7  C5  UNL d   1      -1.204   0.238  -0.557  0.00  0.00     0.026 A 
ATOM      8  C6  UNL d   1      -0.879   0.252   0.841  0.00  0.00    -0.082 A 
ATOM      9  C7  UNL d   1      -1.643   0.663   1.960  0.00  0.00     0.045 A 
ENDROOT
TORSDOF 0
ENDMDL
