MODEL 1
REMARK minimizedAffinity 0.676950037
REMARK minimizedRMSD -1
REMARK  0 active torsions:
REMARK  status: ('A' for Active; 'I' for Inactive)
ROOT
ATOM      1  C   UNL d   1       1.700  -0.533   3.770  0.00  0.00    -0.002 A 
ATOM      2  C1  UNL d   1       2.510  -0.690   2.655  0.00  0.00     0.010 A 
ATOM      3  C2  UNL d   1       2.001  -0.483   1.371  0.00  0.00     0.041 A 
ATOM      4  C3  UNL d   1       0.650  -0.109   1.227  0.00  0.00    -0.075 A 
ATOM      5  S   UNL d   1      -0.191   0.200  -0.247  0.00  0.00     0.015 SA
ATOM      6  C4  UNL d   1      -1.646   0.549   0.570  0.00  0.00     0.022 A 
ATOM      7  C5  UNL d   1      -1.511   0.437   1.934  0.00  0.00     0.026 A 
ATOM      8  C6  UNL d   1      -0.186   0.057   2.335  0.00  0.00    -0.082 A 
ATOM      9  C7  UNL d   1       0.360  -0.162   3.622  0.00  0.00     0.045 A 
ENDROOT
TORSDOF 0
ENDMDL
