MODEL 1
REMARK minimizedAffinity -4.91677284
REMARK minimizedRMSD -1
REMARK  0 active torsions:
REMARK  status: ('A' for Active; 'I' for Inactive)
ROOT
ATOM      1  C   UNL d   1      -0.168   1.293   3.518  0.00  0.00    -0.002 A 
ATOM      2  C1  UNL d   1      -1.138   1.525   2.553  0.00  0.00     0.010 A 
ATOM      3  C2  UNL d   1      -0.984   1.029   1.257  0.00  0.00     0.041 A 
ATOM      4  C3  UNL d   1       0.173   0.289   0.944  0.00  0.00    -0.075 A 
ATOM      5  S   UNL d   1       0.576  -0.416  -0.577  0.00  0.00     0.015 SA
ATOM      6  C4  UNL d   1       2.045  -1.042   0.018  0.00  0.00     0.022 A 
ATOM      7  C5  UNL d   1       2.240  -0.730   1.342  0.00  0.00     0.026 A 
ATOM      8  C6  UNL d   1       1.164   0.042   1.898  0.00  0.00    -0.082 A 
ATOM      9  C7  UNL d   1       0.978   0.558   3.203  0.00  0.00     0.045 A 
ENDROOT
TORSDOF 0
ENDMDL
