MODEL 1
REMARK minimizedAffinity -5.18906879
REMARK minimizedRMSD -1
REMARK  0 active torsions:
REMARK  status: ('A' for Active; 'I' for Inactive)
ROOT
ATOM      1  C   UNL d   1      -2.191   0.745   1.117  0.00  0.00    -0.002 A 
ATOM      2  C1  UNL d   1      -1.740   0.060  -0.002  0.00  0.00     0.010 A 
ATOM      3  C2  UNL d   1      -0.430  -0.421  -0.061  0.00  0.00     0.041 A 
ATOM      4  C3  UNL d   1       0.426  -0.201   1.036  0.00  0.00    -0.075 A 
ATOM      5  S   UNL d   1       2.070  -0.699   1.188  0.00  0.00     0.015 SA
ATOM      6  C4  UNL d   1       2.212  -0.015   2.742  0.00  0.00     0.022 A 
ATOM      7  C5  UNL d   1       1.043   0.584   3.151  0.00  0.00     0.026 A 
ATOM      8  C6  UNL d   1      -0.005   0.486   2.175  0.00  0.00    -0.082 A 
ATOM      9  C7  UNL d   1      -1.338   0.961   2.203  0.00  0.00     0.045 A 
ENDROOT
TORSDOF 0
ENDMDL
