MODEL 1
REMARK minimizedAffinity 0.86979419
REMARK minimizedRMSD -1
REMARK  0 active torsions:
REMARK  status: ('A' for Active; 'I' for Inactive)
ROOT
ATOM      1  C   UNL d   1       0.448  -0.468   3.509  0.00  0.00    -0.002 A 
ATOM      2  C1  UNL d   1       1.666  -0.708   2.887  0.00  0.00     0.010 A 
ATOM      3  C2  UNL d   1       1.761  -0.725   1.495  0.00  0.00     0.041 A 
ATOM      4  C3  UNL d   1       0.601  -0.492   0.729  0.00  0.00    -0.075 A 
ATOM      5  S   UNL d   1       0.478  -0.464  -0.990  0.00  0.00     0.015 SA
ATOM      6  C4  UNL d   1      -1.193  -0.132  -0.940  0.00  0.00     0.022 A 
ATOM      7  C5  UNL d   1      -1.662  -0.042   0.349  0.00  0.00     0.026 A 
ATOM      8  C6  UNL d   1      -0.636  -0.248   1.332  0.00  0.00    -0.082 A 
ATOM      9  C7  UNL d   1      -0.700  -0.238   2.747  0.00  0.00     0.045 A 
ENDROOT
TORSDOF 0
ENDMDL
