MODEL 1
REMARK minimizedAffinity -4.88303471
REMARK minimizedRMSD -1
REMARK  0 active torsions:
REMARK  status: ('A' for Active; 'I' for Inactive)
ROOT
ATOM      1  C   UNL d   1      -1.961   0.001  -0.178  0.00  0.00    -0.002 A 
ATOM      2  C1  UNL d   1      -0.768  -0.502  -0.678  0.00  0.00     0.010 A 
ATOM      3  C2  UNL d   1       0.384  -0.511   0.110  0.00  0.00     0.041 A 
ATOM      4  C3  UNL d   1       0.316  -0.004   1.422  0.00  0.00    -0.075 A 
ATOM      5  S   UNL d   1       1.600   0.086   2.570  0.00  0.00     0.015 SA
ATOM      6  C4  UNL d   1       0.595   0.792   3.751  0.00  0.00     0.022 A 
ATOM      7  C5  UNL d   1      -0.692   0.963   3.298  0.00  0.00     0.026 A 
ATOM      8  C6  UNL d   1      -0.874   0.507   1.948  0.00  0.00    -0.082 A 
ATOM      9  C7  UNL d   1      -2.025   0.503   1.124  0.00  0.00     0.045 A 
ENDROOT
TORSDOF 0
ENDMDL
