MODEL 1
REMARK minimizedAffinity -3.17775011
REMARK minimizedRMSD -1
REMARK  0 active torsions:
REMARK  status: ('A' for Active; 'I' for Inactive)
ROOT
ATOM      1  C   UNL d   1       1.503  -0.247   3.579  0.00  0.00    -0.002 A 
ATOM      2  C1  UNL d   1       2.319  -0.717   2.560  0.00  0.00     0.010 A 
ATOM      3  C2  UNL d   1       1.838  -0.813   1.252  0.00  0.00     0.041 A 
ATOM      4  C3  UNL d   1       0.511  -0.422   0.984  0.00  0.00    -0.075 A 
ATOM      5  S   UNL d   1      -0.293  -0.452  -0.541  0.00  0.00     0.015 SA
ATOM      6  C4  UNL d   1      -1.737   0.160   0.125  0.00  0.00     0.022 A 
ATOM      7  C5  UNL d   1      -1.627   0.387   1.476  0.00  0.00     0.026 A 
ATOM      8  C6  UNL d   1      -0.329   0.056   1.993  0.00  0.00    -0.082 A 
ATOM      9  C7  UNL d   1       0.188   0.140   3.309  0.00  0.00     0.045 A 
ENDROOT
TORSDOF 0
ENDMDL
