MODEL 1
REMARK minimizedAffinity -5.23135757
REMARK minimizedRMSD -1
REMARK  0 active torsions:
REMARK  status: ('A' for Active; 'I' for Inactive)
ROOT
ATOM      1  C   UNL d   1      -0.054   0.702   3.638  0.00  0.00    -0.002 A 
ATOM      2  C1  UNL d   1       1.200   0.189   3.337  0.00  0.00     0.010 A 
ATOM      3  C2  UNL d   1       1.503  -0.231   2.041  0.00  0.00     0.041 A 
ATOM      4  C3  UNL d   1       0.516  -0.123   1.041  0.00  0.00    -0.075 A 
ATOM      5  S   UNL d   1       0.662  -0.573  -0.617  0.00  0.00     0.015 SA
ATOM      6  C4  UNL d   1      -0.936  -0.094  -0.965  0.00  0.00     0.022 A 
ATOM      7  C5  UNL d   1      -1.580   0.399   0.145  0.00  0.00     0.026 A 
ATOM      8  C6  UNL d   1      -0.753   0.391   1.319  0.00  0.00    -0.082 A 
ATOM      9  C7  UNL d   1      -1.030   0.807   2.644  0.00  0.00     0.045 A 
ENDROOT
TORSDOF 0
ENDMDL
