MODEL 1
REMARK minimizedAffinity -3.05219197
REMARK minimizedRMSD -1
REMARK  0 active torsions:
REMARK  status: ('A' for Active; 'I' for Inactive)
ROOT
ATOM      1  C   UNL d   1      -0.043  -0.588   3.374  0.00  0.00    -0.002 A 
ATOM      2  C1  UNL d   1      -1.152  -0.179   2.646  0.00  0.00     0.010 A 
ATOM      3  C2  UNL d   1      -1.180  -0.317   1.257  0.00  0.00     0.041 A 
ATOM      4  C3  UNL d   1      -0.064  -0.878   0.605  0.00  0.00    -0.075 A 
ATOM      5  S   UNL d   1       0.125  -1.145  -1.088  0.00  0.00     0.015 SA
ATOM      6  C4  UNL d   1       1.682  -1.808  -0.885  0.00  0.00     0.022 A 
ATOM      7  C5  UNL d   1       2.064  -1.833   0.435  0.00  0.00     0.026 A 
ATOM      8  C6  UNL d   1       1.063  -1.298   1.316  0.00  0.00    -0.082 A 
ATOM      9  C7  UNL d   1       1.062  -1.145   2.723  0.00  0.00     0.045 A 
ENDROOT
TORSDOF 0
ENDMDL
