MODEL 1
REMARK minimizedAffinity -2.8988235
REMARK minimizedRMSD -1
REMARK  0 active torsions:
REMARK  status: ('A' for Active; 'I' for Inactive)
ROOT
ATOM      1  C   UNL d   1       0.609  -0.163  -1.175  0.00  0.00    -0.002 A 
ATOM      2  C1  UNL d   1      -0.339  -1.167  -1.036  0.00  0.00     0.010 A 
ATOM      3  C2  UNL d   1      -1.145  -1.230   0.103  0.00  0.00     0.041 A 
ATOM      4  C3  UNL d   1      -0.981  -0.258   1.109  0.00  0.00    -0.075 A 
ATOM      5  S   UNL d   1      -1.856  -0.136   2.589  0.00  0.00     0.015 SA
ATOM      6  C4  UNL d   1      -0.993   1.252   3.072  0.00  0.00     0.022 A 
ATOM      7  C5  UNL d   1      -0.056   1.627   2.138  0.00  0.00     0.026 A 
ATOM      8  C6  UNL d   1      -0.034   0.764   0.991  0.00  0.00    -0.082 A 
ATOM      9  C7  UNL d   1       0.768   0.800  -0.175  0.00  0.00     0.045 A 
ENDROOT
TORSDOF 0
ENDMDL
