MODEL 1
REMARK minimizedAffinity -5.14775276
REMARK minimizedRMSD -1
REMARK  0 active torsions:
REMARK  status: ('A' for Active; 'I' for Inactive)
ROOT
ATOM      1  C   UNL d   1      -1.071   1.375  -0.498  0.00  0.00     0.078 C 
ATOM      2  C1  UNL d   1      -0.124   0.283  -0.099  0.00  0.00    -0.077 A 
ATOM      3  C2  UNL d   1      -0.557  -0.798   0.679  0.00  0.00    -0.001 A 
ATOM      4  C3  UNL d   1       0.338  -1.802   1.051  0.00  0.00     0.003 A 
ATOM      5  C4  UNL d   1       1.671  -1.736   0.651  0.00  0.00    -0.005 A 
ATOM      6  C5  UNL d   1       2.111  -0.663  -0.122  0.00  0.00     0.003 A 
ATOM      7  C6  UNL d   1       1.218   0.342  -0.495  0.00  0.00    -0.001 A 
ENDROOT
TORSDOF 0
ENDMDL
