MODEL 1
REMARK minimizedAffinity -4.75373983
REMARK minimizedRMSD -1
REMARK  0 active torsions:
REMARK  status: ('A' for Active; 'I' for Inactive)
ROOT
ATOM      1  C   UNL d   1       1.042  -2.875   0.931  0.00  0.00     0.078 C 
ATOM      2  C1  UNL d   1       0.733  -1.511   0.388  0.00  0.00    -0.077 A 
ATOM      3  C2  UNL d   1       1.734  -0.724  -0.196  0.00  0.00    -0.001 A 
ATOM      4  C3  UNL d   1       1.434   0.547  -0.689  0.00  0.00     0.003 A 
ATOM      5  C4  UNL d   1       0.135   1.042  -0.603  0.00  0.00    -0.005 A 
ATOM      6  C5  UNL d   1      -0.867   0.267  -0.022  0.00  0.00     0.003 A 
ATOM      7  C6  UNL d   1      -0.569  -1.004   0.472  0.00  0.00    -0.001 A 
ENDROOT
TORSDOF 0
ENDMDL
