MODEL 1
REMARK minimizedAffinity -4.29447365
REMARK minimizedRMSD -1
REMARK  0 active torsions:
REMARK  status: ('A' for Active; 'I' for Inactive)
ROOT
ATOM      1  C   UNL d   1       1.286  -2.607   1.340  0.00  0.00     0.078 C 
ATOM      2  C1  UNL d   1       0.854  -1.266   0.827  0.00  0.00    -0.077 A 
ATOM      3  C2  UNL d   1      -0.454  -0.806   1.020  0.00  0.00    -0.001 A 
ATOM      4  C3  UNL d   1      -0.844   0.440   0.529  0.00  0.00     0.003 A 
ATOM      5  C4  UNL d   1       0.067   1.238  -0.160  0.00  0.00    -0.005 A 
ATOM      6  C5  UNL d   1       1.371   0.788  -0.359  0.00  0.00     0.003 A 
ATOM      7  C6  UNL d   1       1.763  -0.458   0.132  0.00  0.00    -0.001 A 
ENDROOT
TORSDOF 0
ENDMDL
