MODEL 1
REMARK minimizedAffinity -4.36764717
REMARK minimizedRMSD -1
REMARK  0 active torsions:
REMARK  status: ('A' for Active; 'I' for Inactive)
ROOT
ATOM      1  C   UNL d   1      -0.836   0.864  -0.416  0.00  0.00     0.078 C 
ATOM      2  C1  UNL d   1      -0.044  -0.347  -0.020  0.00  0.00    -0.077 A 
ATOM      3  C2  UNL d   1      -0.676  -1.571   0.233  0.00  0.00    -0.001 A 
ATOM      4  C3  UNL d   1       0.073  -2.686   0.611  0.00  0.00     0.003 A 
ATOM      5  C4  UNL d   1       1.457  -2.589   0.740  0.00  0.00    -0.005 A 
ATOM      6  C5  UNL d   1       2.094  -1.375   0.493  0.00  0.00     0.003 A 
ATOM      7  C6  UNL d   1       1.347  -0.258   0.115  0.00  0.00    -0.001 A 
ENDROOT
TORSDOF 0
ENDMDL
