MODEL 1
REMARK minimizedAffinity -2.78610086
REMARK minimizedRMSD -1
REMARK  0 active torsions:
REMARK  status: ('A' for Active; 'I' for Inactive)
ROOT
ATOM      1  C   UNL d   1       1.836  -2.002   0.629  0.00  0.00     0.078 C 
ATOM      2  C1  UNL d   1       0.789  -0.938   0.483  0.00  0.00    -0.077 A 
ATOM      3  C2  UNL d   1       0.944   0.104  -0.439  0.00  0.00    -0.001 A 
ATOM      4  C3  UNL d   1      -0.034   1.093  -0.557  0.00  0.00     0.003 A 
ATOM      5  C4  UNL d   1      -1.173   1.051   0.245  0.00  0.00    -0.005 A 
ATOM      6  C5  UNL d   1      -1.334   0.019   1.167  0.00  0.00     0.003 A 
ATOM      7  C6  UNL d   1      -0.357  -0.971   1.287  0.00  0.00    -0.001 A 
ENDROOT
TORSDOF 0
ENDMDL
