MODEL 1
REMARK minimizedAffinity -5.76448202
REMARK minimizedRMSD -1
REMARK  0 active torsions:
REMARK  status: ('A' for Active; 'I' for Inactive)
ROOT
ATOM      1  C   UNL d   1      -0.723   1.331  -0.740  0.00  0.00     0.078 C 
ATOM      2  C1  UNL d   1       0.096   0.173  -0.253  0.00  0.00    -0.077 A 
ATOM      3  C2  UNL d   1       1.467   0.094  -0.525  0.00  0.00    -0.001 A 
ATOM      4  C3  UNL d   1       2.215  -0.995  -0.074  0.00  0.00     0.003 A 
ATOM      5  C4  UNL d   1       1.600  -2.014   0.651  0.00  0.00    -0.005 A 
ATOM      6  C5  UNL d   1       0.236  -1.945   0.925  0.00  0.00     0.003 A 
ATOM      7  C6  UNL d   1      -0.514  -0.857   0.475  0.00  0.00    -0.001 A 
ENDROOT
TORSDOF 0
ENDMDL
