MODEL 1
REMARK minimizedAffinity -3.20825291
REMARK minimizedRMSD -1
REMARK  0 active torsions:
REMARK  status: ('A' for Active; 'I' for Inactive)
ROOT
ATOM      1  C   UNL d   1      -1.052   1.076  -0.006  0.00  0.00     0.078 C 
ATOM      2  C1  UNL d   1      -0.086  -0.055   0.188  0.00  0.00    -0.077 A 
ATOM      3  C2  UNL d   1      -0.496  -1.262   0.766  0.00  0.00    -0.001 A 
ATOM      4  C3  UNL d   1       0.416  -2.303   0.949  0.00  0.00     0.003 A 
ATOM      5  C4  UNL d   1       1.744  -2.146   0.556  0.00  0.00    -0.005 A 
ATOM      6  C5  UNL d   1       2.161  -0.948  -0.019  0.00  0.00     0.003 A 
ATOM      7  C6  UNL d   1       1.251   0.094  -0.202  0.00  0.00    -0.001 A 
ENDROOT
TORSDOF 0
ENDMDL
