MODEL 1
REMARK minimizedAffinity -5.12098503
REMARK minimizedRMSD -1
REMARK  0 active torsions:
REMARK  status: ('A' for Active; 'I' for Inactive)
ROOT
ATOM      1  C   UNL d   1      -0.751   1.316  -0.017  0.00  0.00     0.078 C 
ATOM      2  C1  UNL d   1       0.316   0.263  -0.056  0.00  0.00    -0.077 A 
ATOM      3  C2  UNL d   1       0.192  -0.917   0.688  0.00  0.00    -0.001 A 
ATOM      4  C3  UNL d   1       1.198  -1.885   0.650  0.00  0.00     0.003 A 
ATOM      5  C4  UNL d   1       2.335  -1.682  -0.129  0.00  0.00    -0.005 A 
ATOM      6  C5  UNL d   1       2.469  -0.509  -0.870  0.00  0.00     0.003 A 
ATOM      7  C6  UNL d   1       1.464   0.459  -0.834  0.00  0.00    -0.001 A 
ENDROOT
TORSDOF 0
ENDMDL
