MODEL 1
REMARK minimizedAffinity -4.59421396
REMARK minimizedRMSD -1
REMARK  0 active torsions:
REMARK  status: ('A' for Active; 'I' for Inactive)
ROOT
ATOM      1  C   UNL d   1      -1.102   0.744  -0.221  0.00  0.00     0.078 C 
ATOM      2  C1  UNL d   1       0.117  -0.109  -0.036  0.00  0.00    -0.077 A 
ATOM      3  C2  UNL d   1       0.073  -1.269   0.747  0.00  0.00    -0.001 A 
ATOM      4  C3  UNL d   1       1.219  -2.048   0.919  0.00  0.00     0.003 A 
ATOM      5  C4  UNL d   1       2.416  -1.676   0.313  0.00  0.00    -0.005 A 
ATOM      6  C5  UNL d   1       2.470  -0.522  -0.466  0.00  0.00     0.003 A 
ATOM      7  C6  UNL d   1       1.326   0.259  -0.640  0.00  0.00    -0.001 A 
ENDROOT
TORSDOF 0
ENDMDL
