MODEL 1
REMARK minimizedAffinity -0.0978023484
REMARK minimizedRMSD -1
REMARK  0 active torsions:
REMARK  status: ('A' for Active; 'I' for Inactive)
ROOT
ATOM      1  C   UNL d   1      -0.382   0.709  -1.451  0.00  0.00     0.078 C 
ATOM      2  C1  UNL d   1      -0.666  -0.448  -0.542  0.00  0.00    -0.077 A 
ATOM      3  C2  UNL d   1      -0.864  -0.256   0.831  0.00  0.00    -0.001 A 
ATOM      4  C3  UNL d   1      -1.118  -1.344   1.668  0.00  0.00     0.003 A 
ATOM      5  C4  UNL d   1      -1.176  -2.633   1.141  0.00  0.00    -0.005 A 
ATOM      6  C5  UNL d   1      -0.978  -2.835  -0.223  0.00  0.00     0.003 A 
ATOM      7  C6  UNL d   1      -0.724  -1.748  -1.061  0.00  0.00    -0.001 A 
ENDROOT
TORSDOF 0
ENDMDL
