MODEL 1
REMARK minimizedAffinity -5.05288219
REMARK minimizedRMSD -1
REMARK  0 active torsions:
REMARK  status: ('A' for Active; 'I' for Inactive)
ROOT
ATOM      1  C   UNL d   1      -0.837   0.814  -0.599  0.00  0.00     0.078 C 
ATOM      2  C1  UNL d   1      -0.034  -0.273   0.051  0.00  0.00    -0.077 A 
ATOM      3  C2  UNL d   1       1.293  -0.512  -0.325  0.00  0.00    -0.001 A 
ATOM      4  C3  UNL d   1       2.026  -1.534   0.282  0.00  0.00     0.003 A 
ATOM      5  C4  UNL d   1       1.439  -2.324   1.269  0.00  0.00    -0.005 A 
ATOM      6  C5  UNL d   1       0.118  -2.095   1.648  0.00  0.00     0.003 A 
ATOM      7  C6  UNL d   1      -0.616  -1.074   1.042  0.00  0.00    -0.001 A 
ENDROOT
TORSDOF 0
ENDMDL
