MODEL 1
REMARK minimizedAffinity -3.77553535
REMARK minimizedRMSD -1
REMARK  0 active torsions:
REMARK  status: ('A' for Active; 'I' for Inactive)
ROOT
ATOM      1  C   UNL d   1      -1.111   1.095  -0.439  0.00  0.00     0.078 C 
ATOM      2  C1  UNL d   1      -0.166  -0.002  -0.046  0.00  0.00    -0.077 A 
ATOM      3  C2  UNL d   1       1.148  -0.029  -0.528  0.00  0.00    -0.001 A 
ATOM      4  C3  UNL d   1       2.013  -1.061  -0.162  0.00  0.00     0.003 A 
ATOM      5  C4  UNL d   1       1.573  -2.075   0.686  0.00  0.00    -0.005 A 
ATOM      6  C5  UNL d   1       0.266  -2.057   1.170  0.00  0.00     0.003 A 
ATOM      7  C6  UNL d   1      -0.600  -1.026   0.805  0.00  0.00    -0.001 A 
ENDROOT
TORSDOF 0
ENDMDL
