MODEL 1
REMARK minimizedAffinity -4.6818738
REMARK minimizedRMSD -1
REMARK  0 active torsions:
REMARK  status: ('A' for Active; 'I' for Inactive)
ROOT
ATOM      1  C   UNL d   1       1.393  -2.677   0.876  0.00  0.00     0.078 C 
ATOM      2  C1  UNL d   1       0.877  -1.331   0.460  0.00  0.00    -0.077 A 
ATOM      3  C2  UNL d   1      -0.458  -0.971   0.680  0.00  0.00    -0.001 A 
ATOM      4  C3  UNL d   1      -0.927   0.281   0.279  0.00  0.00     0.003 A 
ATOM      5  C4  UNL d   1      -0.067   1.182  -0.346  0.00  0.00    -0.005 A 
ATOM      6  C5  UNL d   1       1.262   0.832  -0.571  0.00  0.00     0.003 A 
ATOM      7  C6  UNL d   1       1.733  -0.420  -0.171  0.00  0.00    -0.001 A 
ENDROOT
TORSDOF 0
ENDMDL
