MODEL 1
REMARK minimizedAffinity -5.34839773
REMARK minimizedRMSD -1
REMARK  0 active torsions:
REMARK  status: ('A' for Active; 'I' for Inactive)
ROOT
ATOM      1  C   UNL d   1       1.324  -2.912   0.851  0.00  0.00     0.078 C 
ATOM      2  C1  UNL d   1       0.790  -1.604   0.350  0.00  0.00    -0.077 A 
ATOM      3  C2  UNL d   1      -0.528  -1.214   0.615  0.00  0.00    -0.001 A 
ATOM      4  C3  UNL d   1      -1.015   0.003   0.134  0.00  0.00     0.003 A 
ATOM      5  C4  UNL d   1      -0.190   0.839  -0.615  0.00  0.00    -0.005 A 
ATOM      6  C5  UNL d   1       1.122   0.459  -0.886  0.00  0.00     0.003 A 
ATOM      7  C6  UNL d   1       1.611  -0.757  -0.406  0.00  0.00    -0.001 A 
ENDROOT
TORSDOF 0
ENDMDL
