MODEL 1
REMARK minimizedAffinity -4.75207758
REMARK minimizedRMSD -1
REMARK  0 active torsions:
REMARK  status: ('A' for Active; 'I' for Inactive)
ROOT
ATOM      1  C   UNL d   1      -0.786   1.248  -0.338  0.00  0.00     0.078 C 
ATOM      2  C1  UNL d   1      -0.016   0.028   0.072  0.00  0.00    -0.077 A 
ATOM      3  C2  UNL d   1       1.330  -0.127  -0.281  0.00  0.00    -0.001 A 
ATOM      4  C3  UNL d   1       2.032  -1.272   0.099  0.00  0.00     0.003 A 
ATOM      5  C4  UNL d   1       1.396  -2.272   0.832  0.00  0.00    -0.005 A 
ATOM      6  C5  UNL d   1       0.056  -2.127   1.186  0.00  0.00     0.003 A 
ATOM      7  C6  UNL d   1      -0.647  -0.983   0.807  0.00  0.00    -0.001 A 
ENDROOT
TORSDOF 0
ENDMDL
