MODEL 1
REMARK minimizedAffinity -4.99103355
REMARK minimizedRMSD -1
REMARK  0 active torsions:
REMARK  status: ('A' for Active; 'I' for Inactive)
ROOT
ATOM      1  C   UNL d   1       1.822  -2.070   0.573  0.00  0.00     0.078 C 
ATOM      2  C1  UNL d   1       1.026  -0.879   0.127  0.00  0.00    -0.077 A 
ATOM      3  C2  UNL d   1      -0.231  -0.604   0.680  0.00  0.00    -0.001 A 
ATOM      4  C3  UNL d   1      -0.964   0.502   0.249  0.00  0.00     0.003 A 
ATOM      5  C4  UNL d   1      -0.450   1.342  -0.738  0.00  0.00    -0.005 A 
ATOM      6  C5  UNL d   1       0.799   1.075  -1.295  0.00  0.00     0.003 A 
ATOM      7  C6  UNL d   1       1.534  -0.031  -0.865  0.00  0.00    -0.001 A 
ENDROOT
TORSDOF 0
ENDMDL
