MODEL 1
REMARK minimizedAffinity -4.76561546
REMARK minimizedRMSD -1
REMARK  0 active torsions:
REMARK  status: ('A' for Active; 'I' for Inactive)
ROOT
ATOM      1  C   UNL d   1      -0.938   1.241  -0.379  0.00  0.00     0.078 C 
ATOM      2  C1  UNL d   1      -0.078   0.066  -0.023  0.00  0.00    -0.077 A 
ATOM      3  C2  UNL d   1       1.295   0.067  -0.299  0.00  0.00    -0.001 A 
ATOM      4  C3  UNL d   1       2.081  -1.039   0.030  0.00  0.00     0.003 A 
ATOM      5  C4  UNL d   1       1.504  -2.153   0.635  0.00  0.00    -0.005 A 
ATOM      6  C5  UNL d   1       0.139  -2.164   0.912  0.00  0.00     0.003 A 
ATOM      7  C6  UNL d   1      -0.650  -1.060   0.584  0.00  0.00    -0.001 A 
ENDROOT
TORSDOF 0
ENDMDL
