MODEL 1
REMARK minimizedAffinity -4.69590855
REMARK minimizedRMSD -1
REMARK  0 active torsions:
REMARK  status: ('A' for Active; 'I' for Inactive)
ROOT
ATOM      1  C2' OXE d   1      -1.146  -0.043   1.761  0.00  0.00     0.078 C 
ATOM      2  C1' OXE d   1       0.425   1.434  -0.036  0.00  0.00     0.078 C 
ATOM      3  C1  OXE d   1       0.843   0.016   0.263  0.00  0.00    -0.078 A 
ATOM      4  C2  OXE d   1       0.096  -0.684   1.179  0.00  0.00    -0.078 A 
ATOM      5  C3  OXE d   1       0.405  -2.013   1.451  0.00  0.00     0.003 A 
ATOM      6  C4  OXE d   1       1.561  -2.595   0.916  0.00  0.00    -0.002 A 
ATOM      7  C5  OXE d   1       2.359  -1.887   0.011  0.00  0.00    -0.002 A 
ATOM      8  C6  OXE d   1       1.991  -0.598  -0.358  0.00  0.00     0.003 A 
ENDROOT
TORSDOF 0
ENDMDL
