MODEL 1
REMARK minimizedAffinity -3.47795272
REMARK minimizedRMSD -1
REMARK  0 active torsions:
REMARK  status: ('A' for Active; 'I' for Inactive)
ROOT
ATOM      1  C2' OXE d   1       2.502  -0.387  -0.834  0.00  0.00     0.078 C 
ATOM      2  C1' OXE d   1       1.556  -2.359   0.926  0.00  0.00     0.078 C 
ATOM      3  C1  OXE d   1       0.661  -1.176   0.647  0.00  0.00    -0.078 A 
ATOM      4  C2  OXE d   1       1.152  -0.194  -0.179  0.00  0.00    -0.078 A 
ATOM      5  C3  OXE d   1       0.346   0.892  -0.512  0.00  0.00     0.003 A 
ATOM      6  C4  OXE d   1      -0.897   1.068   0.106  0.00  0.00    -0.002 A 
ATOM      7  C5  OXE d   1      -1.399   0.099   0.981  0.00  0.00    -0.002 A 
ATOM      8  C6  OXE d   1      -0.652  -1.048   1.229  0.00  0.00     0.003 A 
ENDROOT
TORSDOF 0
ENDMDL
