MODEL 1
REMARK minimizedAffinity -2.25834012
REMARK minimizedRMSD -1
REMARK  0 active torsions:
REMARK  status: ('A' for Active; 'I' for Inactive)
ROOT
ATOM      1  C2' OXE d   1       1.644  -0.368  -1.199  0.00  0.00     0.078 C 
ATOM      2  C1' OXE d   1       1.276  -2.386   0.717  0.00  0.00     0.078 C 
ATOM      3  C1  OXE d   1       0.279  -1.255   0.687  0.00  0.00    -0.078 A 
ATOM      4  C2  OXE d   1       0.493  -0.247  -0.223  0.00  0.00    -0.078 A 
ATOM      5  C3  OXE d   1      -0.426   0.792  -0.330  0.00  0.00     0.003 A 
ATOM      6  C4  OXE d   1      -1.482   0.901   0.583  0.00  0.00    -0.002 A 
ATOM      7  C5  OXE d   1      -1.696  -0.094   1.543  0.00  0.00    -0.002 A 
ATOM      8  C6  OXE d   1      -0.851  -1.197   1.581  0.00  0.00     0.003 A 
ENDROOT
TORSDOF 0
ENDMDL
