MODEL 1
REMARK minimizedAffinity -4.26841259
REMARK minimizedRMSD -1
REMARK  0 active torsions:
REMARK  status: ('A' for Active; 'I' for Inactive)
ROOT
ATOM      1  C2' OXE d   1      -0.874  -0.299   0.055  0.00  0.00     0.078 C 
ATOM      2  C1' OXE d   1      -2.150   0.982  -2.093  0.00  0.00     0.078 C 
ATOM      3  C1  OXE d   1      -1.026   1.715  -1.404  0.00  0.00    -0.078 A 
ATOM      4  C2  OXE d   1      -0.438   1.100  -0.324  0.00  0.00    -0.078 A 
ATOM      5  C3  OXE d   1       0.639   1.709   0.313  0.00  0.00     0.003 A 
ATOM      6  C4  OXE d   1       1.029   3.007  -0.037  0.00  0.00    -0.002 A 
ATOM      7  C5  OXE d   1       0.418   3.667  -1.109  0.00  0.00    -0.002 A 
ATOM      8  C6  OXE d   1      -0.580   3.019  -1.828  0.00  0.00     0.003 A 
ENDROOT
TORSDOF 0
ENDMDL
