MODEL 1
REMARK minimizedAffinity -2.87494397
REMARK minimizedRMSD -1
REMARK  0 active torsions:
REMARK  status: ('A' for Active; 'I' for Inactive)
ROOT
ATOM      1  C2' OXE d   1       1.820   0.525  -0.486  0.00  0.00     0.078 C 
ATOM      2  C1' OXE d   1      -0.848   1.025   0.227  0.00  0.00     0.078 C 
ATOM      3  C1  OXE d   1      -0.266  -0.320   0.581  0.00  0.00    -0.078 A 
ATOM      4  C2  OXE d   1       1.026  -0.573   0.187  0.00  0.00    -0.078 A 
ATOM      5  C3  OXE d   1       1.630  -1.778   0.537  0.00  0.00     0.003 A 
ATOM      6  C4  OXE d   1       0.885  -2.792   1.150  0.00  0.00    -0.002 A 
ATOM      7  C5  OXE d   1      -0.444  -2.570   1.525  0.00  0.00    -0.002 A 
ATOM      8  C6  OXE d   1      -1.021  -1.327   1.286  0.00  0.00     0.003 A 
ENDROOT
TORSDOF 0
ENDMDL
