MODEL 1
REMARK minimizedAffinity -2.65640068
REMARK minimizedRMSD -1
REMARK  0 active torsions:
REMARK  status: ('A' for Active; 'I' for Inactive)
ROOT
ATOM      1  C2' OXE d   1       1.496  -2.701   0.773  0.00  0.00     0.078 C 
ATOM      2  C1' OXE d   1       2.169  -0.367  -0.635  0.00  0.00     0.078 C 
ATOM      3  C1  OXE d   1       0.783  -0.459  -0.046  0.00  0.00    -0.078 A 
ATOM      4  C2  OXE d   1       0.447  -1.624   0.601  0.00  0.00    -0.078 A 
ATOM      5  C3  OXE d   1      -0.800  -1.739   1.209  0.00  0.00     0.003 A 
ATOM      6  C4  OXE d   1      -1.768  -0.743   1.037  0.00  0.00    -0.002 A 
ATOM      7  C5  OXE d   1      -1.459   0.435   0.347  0.00  0.00    -0.002 A 
ATOM      8  C6  OXE d   1      -0.178   0.610  -0.163  0.00  0.00     0.003 A 
ENDROOT
TORSDOF 0
ENDMDL
