MODEL 1
REMARK minimizedAffinity -5.14217377
REMARK minimizedRMSD -1
REMARK  0 active torsions:
REMARK  status: ('A' for Active; 'I' for Inactive)
ROOT
ATOM      1  C2' OXE d   1      -1.894  -0.455   1.448  0.00  0.00     0.078 C 
ATOM      2  C1' OXE d   1      -0.076   0.982  -0.137  0.00  0.00     0.078 C 
ATOM      3  C1  OXE d   1       0.333  -0.391   0.334  0.00  0.00    -0.078 A 
ATOM      4  C2  OXE d   1      -0.543  -1.068   1.148  0.00  0.00    -0.078 A 
ATOM      5  C3  OXE d   1      -0.238  -2.360   1.566  0.00  0.00     0.003 A 
ATOM      6  C4  OXE d   1       1.017  -2.916   1.292  0.00  0.00    -0.002 A 
ATOM      7  C5  OXE d   1       1.941  -2.227   0.499  0.00  0.00    -0.002 A 
ATOM      8  C6  OXE d   1       1.598  -0.985  -0.023  0.00  0.00     0.003 A 
ENDROOT
TORSDOF 0
ENDMDL
