MODEL 1
REMARK minimizedAffinity -1.57115149
REMARK minimizedRMSD -1
REMARK  0 active torsions:
REMARK  status: ('A' for Active; 'I' for Inactive)
ROOT
ATOM      1  C2' OXE d   1       3.207   3.233   0.385  0.00  0.00     0.078 C 
ATOM      2  C1' OXE d   1       0.615   4.287   0.614  0.00  0.00     0.078 C 
ATOM      3  C1  OXE d   1       0.756   2.793   0.463  0.00  0.00    -0.078 A 
ATOM      4  C2  OXE d   1       2.026   2.291   0.305  0.00  0.00    -0.078 A 
ATOM      5  C3  OXE d   1       2.216   0.914   0.216  0.00  0.00     0.003 A 
ATOM      6  C4  OXE d   1       1.117   0.051   0.133  0.00  0.00    -0.002 A 
ATOM      7  C5  OXE d   1      -0.186   0.546   0.252  0.00  0.00    -0.002 A 
ATOM      8  C6  OXE d   1      -0.381   1.907   0.459  0.00  0.00     0.003 A 
ENDROOT
TORSDOF 0
ENDMDL
