MODEL 1
REMARK minimizedAffinity -2.77603674
REMARK minimizedRMSD -1
REMARK  0 active torsions:
REMARK  status: ('A' for Active; 'I' for Inactive)
ROOT
ATOM      1  C2' OXE d   1      -1.804  -1.206   1.766  0.00  0.00     0.078 C 
ATOM      2  C1' OXE d   1      -0.878   0.844   0.086  0.00  0.00     0.078 C 
ATOM      3  C1  OXE d   1       0.012  -0.358   0.287  0.00  0.00    -0.078 A 
ATOM      4  C2  OXE d   1      -0.429  -1.334   1.147  0.00  0.00    -0.078 A 
ATOM      5  C3  OXE d   1       0.328  -2.489   1.326  0.00  0.00     0.003 A 
ATOM      6  C4  OXE d   1       1.603  -2.595   0.758  0.00  0.00    -0.002 A 
ATOM      7  C5  OXE d   1       2.089  -1.593  -0.090  0.00  0.00    -0.002 A 
ATOM      8  C6  OXE d   1       1.289  -0.490  -0.369  0.00  0.00     0.003 A 
ENDROOT
TORSDOF 0
ENDMDL
