MODEL 1
REMARK minimizedAffinity 0.419266284
REMARK minimizedRMSD -1
REMARK  0 active torsions:
REMARK  status: ('A' for Active; 'I' for Inactive)
ROOT
ATOM      1  C2' OXE d   1      -0.143  -2.722   0.720  0.00  0.00     0.078 C 
ATOM      2  C1' OXE d   1      -1.407  -1.190   2.703  0.00  0.00     0.078 C 
ATOM      3  C1  OXE d   1      -1.043  -0.504   1.410  0.00  0.00    -0.078 A 
ATOM      4  C2  OXE d   1      -0.383  -1.250   0.463  0.00  0.00    -0.078 A 
ATOM      5  C3  OXE d   1      -0.072  -0.681  -0.769  0.00  0.00     0.003 A 
ATOM      6  C4  OXE d   1      -0.288   0.684  -0.994  0.00  0.00    -0.002 A 
ATOM      7  C5  OXE d   1      -0.923   1.471  -0.027  0.00  0.00    -0.002 A 
ATOM      8  C6  OXE d   1      -1.344   0.884   1.161  0.00  0.00     0.003 A 
ENDROOT
TORSDOF 0
ENDMDL
