MODEL 1
REMARK minimizedAffinity -2.09202313
REMARK minimizedRMSD -1
REMARK  0 active torsions:
REMARK  status: ('A' for Active; 'I' for Inactive)
ROOT
ATOM      1  C2' OXE d   1      -0.411   0.777   0.359  0.00  0.00     0.078 C 
ATOM      2  C1' OXE d   1       2.136  -0.390   0.186  0.00  0.00     0.078 C 
ATOM      3  C1  OXE d   1       2.053   1.116   0.217  0.00  0.00    -0.078 A 
ATOM      4  C2  OXE d   1       0.800   1.679   0.254  0.00  0.00    -0.078 A 
ATOM      5  C3  OXE d   1       0.668   3.062   0.339  0.00  0.00     0.003 A 
ATOM      6  C4  OXE d   1       1.792   3.889   0.232  0.00  0.00    -0.002 A 
ATOM      7  C5  OXE d   1       3.075   3.337   0.153  0.00  0.00    -0.002 A 
ATOM      8  C6  OXE d   1       3.225   1.955   0.187  0.00  0.00     0.003 A 
ENDROOT
TORSDOF 0
ENDMDL
