MODEL 1
REMARK minimizedAffinity -1.49283826
REMARK minimizedRMSD -1
REMARK  0 active torsions:
REMARK  status: ('A' for Active; 'I' for Inactive)
ROOT
ATOM      1  C2' OXE d   1       1.122  -3.100   0.923  0.00  0.00     0.078 C 
ATOM      2  C1' OXE d   1      -1.338  -2.041   1.763  0.00  0.00     0.078 C 
ATOM      3  C1  OXE d   1      -0.471  -1.186   0.872  0.00  0.00    -0.078 A 
ATOM      4  C2  OXE d   1       0.752  -1.694   0.504  0.00  0.00    -0.078 A 
ATOM      5  C3  OXE d   1       1.567  -0.969  -0.361  0.00  0.00     0.003 A 
ATOM      6  C4  OXE d   1       1.221   0.335  -0.735  0.00  0.00    -0.002 A 
ATOM      7  C5  OXE d   1      -0.002   0.886  -0.339  0.00  0.00    -0.002 A 
ATOM      8  C6  OXE d   1      -0.877   0.125   0.428  0.00  0.00     0.003 A 
ENDROOT
TORSDOF 0
ENDMDL
