MODEL 1
REMARK minimizedAffinity -3.46175861
REMARK minimizedRMSD -1
REMARK  0 active torsions:
REMARK  status: ('A' for Active; 'I' for Inactive)
ROOT
ATOM      1  C2' OXE d   1       0.476  -1.313  -0.512  0.00  0.00     0.078 C 
ATOM      2  C1' OXE d   1      -1.430   0.734  -0.263  0.00  0.00     0.078 C 
ATOM      3  C1  OXE d   1       0.026   1.128  -0.294  0.00  0.00    -0.078 A 
ATOM      4  C2  OXE d   1       0.953   0.116  -0.368  0.00  0.00    -0.078 A 
ATOM      5  C3  OXE d   1       2.307   0.428  -0.455  0.00  0.00     0.003 A 
ATOM      6  C4  OXE d   1       2.741   1.751  -0.311  0.00  0.00    -0.002 A 
ATOM      7  C5  OXE d   1       1.815   2.793  -0.194  0.00  0.00    -0.002 A 
ATOM      8  C6  OXE d   1       0.455   2.503  -0.226  0.00  0.00     0.003 A 
ENDROOT
TORSDOF 0
ENDMDL
