MODEL 1
REMARK minimizedAffinity -1.56600988
REMARK minimizedRMSD -1
REMARK  0 active torsions:
REMARK  status: ('A' for Active; 'I' for Inactive)
ROOT
ATOM      1  C2' OXE d   1      -0.972   0.717  -0.280  0.00  0.00     0.078 C 
ATOM      2  C1' OXE d   1       1.743   0.548  -0.976  0.00  0.00     0.078 C 
ATOM      3  C1  OXE d   1       1.163  -0.557  -0.129  0.00  0.00    -0.078 A 
ATOM      4  C2  OXE d   1      -0.154  -0.442   0.246  0.00  0.00    -0.078 A 
ATOM      5  C3  OXE d   1      -0.753  -1.461   0.981  0.00  0.00     0.003 A 
ATOM      6  C4  OXE d   1       0.014  -2.525   1.472  0.00  0.00    -0.002 A 
ATOM      7  C5  OXE d   1       1.367  -2.640   1.136  0.00  0.00    -0.002 A 
ATOM      8  C6  OXE d   1       1.945  -1.689   0.303  0.00  0.00     0.003 A 
ENDROOT
TORSDOF 0
ENDMDL
