MODEL 1
REMARK minimizedAffinity -2.25550294
REMARK minimizedRMSD -1
REMARK  0 active torsions:
REMARK  status: ('A' for Active; 'I' for Inactive)
ROOT
ATOM      1  C2' OXE d   1       2.029   0.915   0.391  0.00  0.00     0.078 C 
ATOM      2  C1' OXE d   1      -0.747   0.611   0.107  0.00  0.00     0.078 C 
ATOM      3  C1  OXE d   1       0.054  -0.597   0.526  0.00  0.00    -0.078 A 
ATOM      4  C2  OXE d   1       1.417  -0.450   0.618  0.00  0.00    -0.078 A 
ATOM      5  C3  OXE d   1       2.197  -1.518   1.054  0.00  0.00     0.003 A 
ATOM      6  C4  OXE d   1       1.624  -2.780   1.251  0.00  0.00    -0.002 A 
ATOM      7  C5  OXE d   1       0.243  -2.961   1.125  0.00  0.00    -0.002 A 
ATOM      8  C6  OXE d   1      -0.560  -1.871   0.805  0.00  0.00     0.003 A 
ENDROOT
TORSDOF 0
ENDMDL
