MODEL 1
REMARK minimizedAffinity 3.96062589
REMARK minimizedRMSD -1
REMARK  0 active torsions:
REMARK  status: ('A' for Active; 'I' for Inactive)
ROOT
ATOM      1  C   UNL d   1       2.603   2.210   2.701  0.00  0.00     0.023 A 
ATOM      2  C1  UNL d   1       3.017   1.302   1.726  0.00  0.00     0.003 A 
ATOM      3  C2  UNL d   1       2.694  -0.051   1.847  0.00  0.00     0.048 A 
ATOM      4  C3  UNL d   1       1.956  -0.490   2.946  0.00  0.00     0.023 A 
ATOM      5  C4  UNL d   1       1.539   0.415   3.924  0.00  0.00     0.048 A 
ATOM      6  C5  UNL d   1       1.865   1.767   3.798  0.00  0.00     0.003 A 
ATOM      7  I   UNL d   1       1.474  -2.503   3.129  0.00  0.00    -0.146 I 
ENDROOT
TORSDOF 0
ENDMDL
