MODEL 1
REMARK minimizedAffinity -0.0795593858
REMARK minimizedRMSD -1
REMARK  0 active torsions:
REMARK  status: ('A' for Active; 'I' for Inactive)
ROOT
ATOM      1  C   UNL d   1       1.597  -1.825   2.626  0.00  0.00     0.023 A 
ATOM      2  C1  UNL d   1       1.501  -1.502   3.980  0.00  0.00     0.003 A 
ATOM      3  C2  UNL d   1       1.682  -2.491   4.949  0.00  0.00     0.048 A 
ATOM      4  C3  UNL d   1       1.959  -3.800   4.559  0.00  0.00     0.023 A 
ATOM      5  C4  UNL d   1       2.057  -4.128   3.205  0.00  0.00     0.048 A 
ATOM      6  C5  UNL d   1       1.874  -3.137   2.239  0.00  0.00     0.003 A 
ATOM      7  I   UNL d   1       2.229  -5.273   6.000  0.00  0.00    -0.146 I 
ENDROOT
TORSDOF 0
ENDMDL
