MODEL 1
REMARK minimizedAffinity 5.69558764
REMARK minimizedRMSD -1
REMARK  0 active torsions:
REMARK  status: ('A' for Active; 'I' for Inactive)
ROOT
ATOM      1  C   UNL d   1       1.171  -2.769   3.418  0.00  0.00     0.023 A 
ATOM      2  C1  UNL d   1       1.720  -3.405   4.531  0.00  0.00     0.003 A 
ATOM      3  C2  UNL d   1       3.106  -3.449   4.698  0.00  0.00     0.048 A 
ATOM      4  C3  UNL d   1       3.936  -2.855   3.749  0.00  0.00     0.023 A 
ATOM      5  C4  UNL d   1       3.391  -2.217   2.634  0.00  0.00     0.048 A 
ATOM      6  C5  UNL d   1       2.005  -2.176   2.470  0.00  0.00     0.003 A 
ATOM      7  I   UNL d   1       5.999  -2.919   3.996  0.00  0.00    -0.146 I 
ENDROOT
TORSDOF 0
ENDMDL
