MODEL 1
REMARK minimizedAffinity 6.45678186
REMARK minimizedRMSD -1
REMARK  0 active torsions:
REMARK  status: ('A' for Active; 'I' for Inactive)
ROOT
ATOM      1  C   UNL d   1      -5.269   3.068   1.686  0.00  0.00     0.023 A 
ATOM      2  C1  UNL d   1      -5.995   3.301   0.518  0.00  0.00     0.003 A 
ATOM      3  C2  UNL d   1      -5.378   3.166  -0.727  0.00  0.00     0.048 A 
ATOM      4  C3  UNL d   1      -4.035   2.796  -0.797  0.00  0.00     0.023 A 
ATOM      5  C4  UNL d   1      -3.305   2.562   0.369  0.00  0.00     0.048 A 
ATOM      6  C5  UNL d   1      -3.926   2.699   1.612  0.00  0.00     0.003 A 
ATOM      7  I   UNL d   1      -3.114   2.594  -2.649  0.00  0.00    -0.146 I 
ENDROOT
TORSDOF 0
ENDMDL
