MODEL 1
REMARK minimizedAffinity 7.55502033
REMARK minimizedRMSD -1
REMARK  0 active torsions:
REMARK  status: ('A' for Active; 'I' for Inactive)
ROOT
ATOM      1  C   UNL d   1      -2.342   2.389  -1.018  0.00  0.00     0.023 A 
ATOM      2  C1  UNL d   1      -2.062   1.129  -0.488  0.00  0.00     0.003 A 
ATOM      3  C2  UNL d   1      -2.347  -0.020  -1.228  0.00  0.00     0.048 A 
ATOM      4  C3  UNL d   1      -2.912   0.097  -2.498  0.00  0.00     0.023 A 
ATOM      5  C4  UNL d   1      -3.193   1.355  -3.032  0.00  0.00     0.048 A 
ATOM      6  C5  UNL d   1      -2.907   2.502  -2.289  0.00  0.00     0.003 A 
ATOM      7  I   UNL d   1      -3.338  -1.612  -3.600  0.00  0.00    -0.146 I 
ENDROOT
TORSDOF 0
ENDMDL
