MODEL 1
REMARK minimizedAffinity 0.55564642
REMARK minimizedRMSD -1
REMARK  0 active torsions:
REMARK  status: ('A' for Active; 'I' for Inactive)
ROOT
ATOM      1  C   UNL d   1       3.901  -5.939  -1.402  0.00  0.00     0.023 A 
ATOM      2  C1  UNL d   1       2.515  -5.996  -1.555  0.00  0.00     0.003 A 
ATOM      3  C2  UNL d   1       1.953  -6.000  -2.834  0.00  0.00     0.048 A 
ATOM      4  C3  UNL d   1       2.782  -5.948  -3.954  0.00  0.00     0.023 A 
ATOM      5  C4  UNL d   1       4.169  -5.891  -3.805  0.00  0.00     0.048 A 
ATOM      6  C5  UNL d   1       4.726  -5.887  -2.525  0.00  0.00     0.003 A 
ATOM      7  I   UNL d   1       1.947  -5.953  -5.857  0.00  0.00    -0.146 I 
ENDROOT
TORSDOF 0
ENDMDL
