MODEL 1
REMARK minimizedAffinity 8.57169914
REMARK minimizedRMSD -1
REMARK  0 active torsions:
REMARK  status: ('A' for Active; 'I' for Inactive)
ROOT
ATOM      1  C   UNL d   1      -4.605   2.970  -4.509  0.00  0.00     0.023 A 
ATOM      2  C1  UNL d   1      -3.767   2.492  -3.502  0.00  0.00     0.003 A 
ATOM      3  C2  UNL d   1      -4.041   2.788  -2.165  0.00  0.00     0.048 A 
ATOM      4  C3  UNL d   1      -5.156   3.562  -1.842  0.00  0.00     0.023 A 
ATOM      5  C4  UNL d   1      -5.998   4.041  -2.847  0.00  0.00     0.048 A 
ATOM      6  C5  UNL d   1      -5.719   3.744  -4.182  0.00  0.00     0.003 A 
ATOM      7  I   UNL d   1      -5.566   4.003   0.147  0.00  0.00    -0.146 I 
ENDROOT
TORSDOF 0
ENDMDL
