MODEL 1
REMARK minimizedAffinity -6.28784323
REMARK minimizedRMSD -1
REMARK  1 active torsions:
REMARK  status: ('A' for Active; 'I' for Inactive)
REMARK    1  A    between atoms: C1_2  and  C2_3 
ROOT
ATOM      1  C2  UNL d   1       0.638  -0.219  -0.026  0.00  0.00    -0.081 A 
ATOM      2  C3  UNL d   1       1.665  -0.263   0.924  0.00  0.00     0.006 A 
ATOM      3  C4  UNL d   1       1.432   0.150   2.238  0.00  0.00     0.002 A 
ATOM      4  C5  UNL d   1       0.166   0.604   2.626  0.00  0.00    -0.080 A 
ATOM      5  C6  UNL d   1      -0.105   1.021   4.040  0.00  0.00     0.076 C 
ATOM      6  C7  UNL d   1      -0.855   0.664   1.672  0.00  0.00     0.002 A 
ATOM      7  C8  UNL d   1      -0.622   0.252   0.358  0.00  0.00     0.006 A 
ENDROOT
BRANCH   1   8
ATOM      8  C1  UNL d   1       0.868  -0.724  -1.428  0.00  0.00     0.054 C 
ATOM      9  C   UNL d   1       1.596   0.310  -2.275  0.00  0.00     0.018 C 
ENDBRANCH   1   8
TORSDOF 1
ENDMDL
