MODEL 1
REMARK minimizedAffinity -5.58844185
REMARK minimizedRMSD -1
REMARK  1 active torsions:
REMARK  status: ('A' for Active; 'I' for Inactive)
REMARK    1  A    between atoms: C1_2  and  C2_3 
ROOT
ATOM      1  C2  UNL d   1       0.365  -0.253  -0.877  0.00  0.00    -0.081 A 
ATOM      2  C3  UNL d   1      -0.343   0.883  -0.465  0.00  0.00     0.006 A 
ATOM      3  C4  UNL d   1      -0.415   1.220   0.889  0.00  0.00     0.002 A 
ATOM      4  C5  UNL d   1       0.225   0.432   1.851  0.00  0.00    -0.080 A 
ATOM      5  C6  UNL d   1       0.180   0.799   3.305  0.00  0.00     0.076 C 
ATOM      6  C7  UNL d   1       0.917  -0.713   1.442  0.00  0.00     0.002 A 
ATOM      7  C8  UNL d   1       0.989  -1.050   0.088  0.00  0.00     0.006 A 
ENDROOT
BRANCH   1   8
ATOM      8  C1  UNL d   1       0.499  -0.583  -2.342  0.00  0.00     0.054 C 
ATOM      9  C   UNL d   1       1.467   0.365  -3.036  0.00  0.00     0.018 C 
ENDBRANCH   1   8
TORSDOF 1
ENDMDL
