MODEL 1
REMARK minimizedAffinity -0.561705053
REMARK minimizedRMSD -1
REMARK  1 active torsions:
REMARK  status: ('A' for Active; 'I' for Inactive)
REMARK    1  A    between atoms: C1_2  and  C2_3 
ROOT
ATOM      1  C2  UNL d   1       0.686  -0.596   0.242  0.00  0.00    -0.081 A 
ATOM      2  C3  UNL d   1      -0.132   0.214   1.039  0.00  0.00     0.006 A 
ATOM      3  C4  UNL d   1      -1.489   0.362   0.742  0.00  0.00     0.002 A 
ATOM      4  C5  UNL d   1      -2.052  -0.303  -0.352  0.00  0.00    -0.080 A 
ATOM      5  C6  UNL d   1      -3.513  -0.177  -0.665  0.00  0.00     0.076 C 
ATOM      6  C7  UNL d   1      -1.232  -1.099  -1.159  0.00  0.00     0.002 A 
ATOM      7  C8  UNL d   1       0.125  -1.247  -0.863  0.00  0.00     0.006 A 
ENDROOT
BRANCH   1   8
ATOM      8  C1  UNL d   1       2.135  -0.809   0.598  0.00  0.00     0.054 C 
ATOM      9  C   UNL d   1       2.346  -0.770   2.105  0.00  0.00     0.018 C 
ENDBRANCH   1   8
TORSDOF 1
ENDMDL
