MODEL 1
REMARK minimizedAffinity -4.58338785
REMARK minimizedRMSD -1
REMARK  1 active torsions:
REMARK  status: ('A' for Active; 'I' for Inactive)
REMARK    1  A    between atoms: C1_2  and  C2_3 
ROOT
ATOM      1  C2  UNL d   1       0.257   0.667   0.018  0.00  0.00    -0.077 A 
ATOM      2  C3  UNL d   1       0.077  -0.125   1.161  0.00  0.00     0.002 A 
ATOM      3  C4  UNL d   1       0.022  -1.516   1.055  0.00  0.00     0.002 A 
ATOM      4  C5  UNL d   1       0.149  -2.127  -0.191  0.00  0.00    -0.004 A 
ATOM      5  C6  UNL d   1       0.326  -1.348  -1.334  0.00  0.00     0.002 A 
ATOM      6  C7  UNL d   1       0.380   0.043  -1.229  0.00  0.00     0.002 A 
ENDROOT
BRANCH   1   7
ATOM      7  C1  UNL d   1       0.366   2.165   0.137  0.00  0.00     0.055 C 
ATOM      8  C   UNL d   1       1.787   2.591   0.478  0.00  0.00     0.019 C 
ENDBRANCH   1   7
TORSDOF 1
ENDMDL
