MODEL 1
REMARK minimizedAffinity -6.14918566
REMARK minimizedRMSD -1
REMARK  1 active torsions:
REMARK  status: ('A' for Active; 'I' for Inactive)
REMARK    1  A    between atoms: C1_2  and  C2_3 
ROOT
ATOM      1  C2  UNL d   1       0.013  -0.027  -0.153  0.00  0.00    -0.077 A 
ATOM      2  C3  UNL d   1      -1.001  -0.403   0.740  0.00  0.00     0.002 A 
ATOM      3  C4  UNL d   1      -1.074  -1.715   1.213  0.00  0.00     0.002 A 
ATOM      4  C5  UNL d   1      -0.136  -2.659   0.802  0.00  0.00    -0.004 A 
ATOM      5  C6  UNL d   1       0.875  -2.295  -0.087  0.00  0.00     0.002 A 
ATOM      6  C7  UNL d   1       0.949  -0.985  -0.562  0.00  0.00     0.002 A 
ENDROOT
BRANCH   1   7
ATOM      7  C1  UNL d   1       0.123   1.399  -0.627  0.00  0.00     0.055 C 
ATOM      8  C   UNL d   1       0.782   2.281   0.423  0.00  0.00     0.019 C 
ENDBRANCH   1   7
TORSDOF 1
ENDMDL
