MODEL 1
REMARK minimizedAffinity -5.38022804
REMARK minimizedRMSD -1
REMARK  1 active torsions:
REMARK  status: ('A' for Active; 'I' for Inactive)
REMARK    1  A    between atoms: C1_2  and  C2_3 
ROOT
ATOM      1  C2  UNL d   1      -0.084   0.575  -0.370  0.00  0.00    -0.077 A 
ATOM      2  C3  UNL d   1      -0.513   0.540   0.964  0.00  0.00     0.002 A 
ATOM      3  C4  UNL d   1      -0.672  -0.680   1.623  0.00  0.00     0.002 A 
ATOM      4  C5  UNL d   1      -0.401  -1.874   0.957  0.00  0.00    -0.004 A 
ATOM      5  C6  UNL d   1       0.024  -1.850  -0.370  0.00  0.00     0.002 A 
ATOM      6  C7  UNL d   1       0.183  -0.631  -1.031  0.00  0.00     0.002 A 
ENDROOT
BRANCH   1   7
ATOM      7  C1  UNL d   1       0.136   1.892  -1.067  0.00  0.00     0.055 C 
ATOM      8  C   UNL d   1       0.364   3.016  -0.067  0.00  0.00     0.019 C 
ENDBRANCH   1   7
TORSDOF 1
ENDMDL
