MODEL 1
REMARK minimizedAffinity -5.54913378
REMARK minimizedRMSD -1
REMARK  1 active torsions:
REMARK  status: ('A' for Active; 'I' for Inactive)
REMARK    1  A    between atoms: C1_2  and  C2_3 
ROOT
ATOM      1  C2  UNL d   1      -0.132  -0.874  -0.453  0.00  0.00    -0.077 A 
ATOM      2  C3  UNL d   1      -1.017  -1.111   0.608  0.00  0.00     0.002 A 
ATOM      3  C4  UNL d   1      -0.994  -2.330   1.289  0.00  0.00     0.002 A 
ATOM      4  C5  UNL d   1      -0.085  -3.319   0.920  0.00  0.00    -0.004 A 
ATOM      5  C6  UNL d   1       0.798  -3.094  -0.135  0.00  0.00     0.002 A 
ATOM      6  C7  UNL d   1       0.775  -1.877  -0.818  0.00  0.00     0.002 A 
ENDROOT
BRANCH   1   7
ATOM      7  C1  UNL d   1      -0.123   0.457  -1.157  0.00  0.00     0.055 C 
ATOM      8  C   UNL d   1      -0.104   1.609  -0.162  0.00  0.00     0.019 C 
ENDBRANCH   1   7
TORSDOF 1
ENDMDL
