MODEL 1
REMARK minimizedAffinity -4.99816322
REMARK minimizedRMSD -1
REMARK  1 active torsions:
REMARK  status: ('A' for Active; 'I' for Inactive)
REMARK    1  A    between atoms: C1_2  and  C2_3 
ROOT
ATOM      1  C2  UNL d   1      -0.220   0.361  -0.148  0.00  0.00    -0.077 A 
ATOM      2  C3  UNL d   1      -1.219   0.348   0.835  0.00  0.00     0.002 A 
ATOM      3  C4  UNL d   1      -1.595  -0.851   1.443  0.00  0.00     0.002 A 
ATOM      4  C5  UNL d   1      -0.976  -2.045   1.078  0.00  0.00    -0.004 A 
ATOM      5  C6  UNL d   1       0.017  -2.042   0.099  0.00  0.00     0.002 A 
ATOM      6  C7  UNL d   1       0.394  -0.845  -0.510  0.00  0.00     0.002 A 
ENDROOT
BRANCH   1   7
ATOM      7  C1  UNL d   1       0.223   1.659  -0.770  0.00  0.00     0.055 C 
ATOM      8  C   UNL d   1       0.355   2.757   0.276  0.00  0.00     0.019 C 
ENDBRANCH   1   7
TORSDOF 1
ENDMDL
