MODEL 1
REMARK minimizedAffinity -6.0051918
REMARK minimizedRMSD -1
REMARK  1 active torsions:
REMARK  status: ('A' for Active; 'I' for Inactive)
REMARK    1  A    between atoms: C1_2  and  C2_3 
ROOT
ATOM      1  C2  UNL d   1      -0.020  -0.791  -0.972  0.00  0.00    -0.077 A 
ATOM      2  C3  UNL d   1       0.219  -1.675  -2.033  0.00  0.00     0.002 A 
ATOM      3  C4  UNL d   1       0.219  -3.054  -1.818  0.00  0.00     0.002 A 
ATOM      4  C5  UNL d   1      -0.024  -3.562  -0.543  0.00  0.00    -0.004 A 
ATOM      5  C6  UNL d   1      -0.261  -2.691   0.520  0.00  0.00     0.002 A 
ATOM      6  C7  UNL d   1      -0.260  -1.311   0.306  0.00  0.00     0.002 A 
ENDROOT
BRANCH   1   7
ATOM      7  C1  UNL d   1      -0.069   0.696  -1.212  0.00  0.00     0.055 C 
ATOM      8  C   UNL d   1       0.067   1.472   0.090  0.00  0.00     0.019 C 
ENDBRANCH   1   7
TORSDOF 1
ENDMDL
