MODEL 1
REMARK minimizedAffinity -5.63283873
REMARK minimizedRMSD -1
REMARK  1 active torsions:
REMARK  status: ('A' for Active; 'I' for Inactive)
REMARK    1  A    between atoms: C1_2  and  C2_3 
ROOT
ATOM      1  C2  UNL d   1      -0.176  -0.814   0.077  0.00  0.00    -0.077 A 
ATOM      2  C3  UNL d   1       0.646  -1.312  -0.944  0.00  0.00     0.002 A 
ATOM      3  C4  UNL d   1       0.867  -2.685  -1.065  0.00  0.00     0.002 A 
ATOM      4  C5  UNL d   1       0.267  -3.571  -0.173  0.00  0.00    -0.004 A 
ATOM      5  C6  UNL d   1      -0.550  -3.085   0.847  0.00  0.00     0.002 A 
ATOM      6  C7  UNL d   1      -0.771  -1.713   0.971  0.00  0.00     0.002 A 
ENDROOT
BRANCH   1   7
ATOM      7  C1  UNL d   1      -0.455   0.663   0.180  0.00  0.00     0.055 C 
ATOM      8  C   UNL d   1       0.037   1.407  -1.053  0.00  0.00     0.019 C 
ENDBRANCH   1   7
TORSDOF 1
ENDMDL
