MODEL 1
REMARK minimizedAffinity -3.08288836
REMARK minimizedRMSD -1
REMARK  1 active torsions:
REMARK  status: ('A' for Active; 'I' for Inactive)
REMARK    1  A    between atoms: C1_2  and  C2_3 
ROOT
ATOM      1  C2  UNL d   1      -0.126   0.287   0.011  0.00  0.00    -0.077 A 
ATOM      2  C3  UNL d   1      -1.359   0.371   0.673  0.00  0.00     0.002 A 
ATOM      3  C4  UNL d   1      -1.857  -0.724   1.380  0.00  0.00     0.002 A 
ATOM      4  C5  UNL d   1      -1.128  -1.910   1.436  0.00  0.00    -0.004 A 
ATOM      5  C6  UNL d   1       0.099  -2.005   0.780  0.00  0.00     0.002 A 
ATOM      6  C7  UNL d   1       0.598  -0.911   0.071  0.00  0.00     0.002 A 
ENDROOT
BRANCH   1   7
ATOM      7  C1  UNL d   1       0.437   1.483  -0.712  0.00  0.00     0.055 C 
ATOM      8  C   UNL d   1       1.452   2.222   0.148  0.00  0.00     0.019 C 
ENDBRANCH   1   7
TORSDOF 1
ENDMDL
