MODEL 1
REMARK minimizedAffinity -4.76980782
REMARK minimizedRMSD -1
REMARK  1 active torsions:
REMARK  status: ('A' for Active; 'I' for Inactive)
REMARK    1  A    between atoms: C1_2  and  C2_3 
ROOT
ATOM      1  C2  UNL d   1       0.009  -0.252  -0.103  0.00  0.00    -0.077 A 
ATOM      2  C3  UNL d   1      -0.944  -0.878   0.712  0.00  0.00     0.002 A 
ATOM      3  C4  UNL d   1      -0.733  -2.178   1.175  0.00  0.00     0.002 A 
ATOM      4  C5  UNL d   1       0.431  -2.861   0.832  0.00  0.00    -0.004 A 
ATOM      5  C6  UNL d   1       1.385  -2.248   0.020  0.00  0.00     0.002 A 
ATOM      6  C7  UNL d   1       1.175  -0.949  -0.445  0.00  0.00     0.002 A 
ENDROOT
BRANCH   1   7
ATOM      7  C1  UNL d   1      -0.194   1.168  -0.563  0.00  0.00     0.055 C 
ATOM      8  C   UNL d   1       0.980   2.052  -0.166  0.00  0.00     0.019 C 
ENDBRANCH   1   7
TORSDOF 1
ENDMDL
