MODEL 1
REMARK minimizedAffinity -4.8309598
REMARK minimizedRMSD -1
REMARK  1 active torsions:
REMARK  status: ('A' for Active; 'I' for Inactive)
REMARK    1  A    between atoms: C1_2  and  C2_3 
ROOT
ATOM      1  C2  UNL d   1       0.306   0.176   0.406  0.00  0.00    -0.077 A 
ATOM      2  C3  UNL d   1       0.935  -0.881  -0.266  0.00  0.00     0.002 A 
ATOM      3  C4  UNL d   1       0.541  -2.200  -0.034  0.00  0.00     0.002 A 
ATOM      4  C5  UNL d   1      -0.486  -2.474   0.867  0.00  0.00    -0.004 A 
ATOM      5  C6  UNL d   1      -1.116  -1.429   1.542  0.00  0.00     0.002 A 
ATOM      6  C7  UNL d   1      -0.723  -0.110   1.313  0.00  0.00     0.002 A 
ENDROOT
BRANCH   1   7
ATOM      7  C1  UNL d   1       0.697   1.603   0.121  0.00  0.00     0.055 C 
ATOM      8  C   UNL d   1       1.449   2.216   1.294  0.00  0.00     0.019 C 
ENDBRANCH   1   7
TORSDOF 1
ENDMDL
