MODEL 1
REMARK minimizedAffinity -4.51917219
REMARK minimizedRMSD -1
REMARK  2 active torsions:
REMARK  status: ('A' for Active; 'I' for Inactive)
REMARK    1  A    between atoms: C2'_3  and  C1'_4 
REMARK    2  A    between atoms: C1'_4  and  C1_5 
ROOT
ATOM      1  C1  I4B d   1      -0.093   0.017  -0.170  0.00  0.00    -0.075 A 
ATOM      2  C2  I4B d   1      -0.013  -1.338  -0.376  0.00  0.00     0.003 A 
ATOM      3  C3  I4B d   1       1.211  -1.927  -0.774  0.00  0.00     0.002 A 
ATOM      4  C4  I4B d   1       2.310  -1.124  -1.002  0.00  0.00    -0.004 A 
ATOM      5  C5  I4B d   1       2.233   0.246  -0.771  0.00  0.00     0.002 A 
ATOM      6  C6  I4B d   1       1.028   0.819  -0.340  0.00  0.00     0.003 A 
ENDROOT
BRANCH   1   7
ATOM      7  C1' I4B d   1      -1.410   0.611   0.218  0.00  0.00     0.060 C 
BRANCH   7   8
ATOM      8  C2' I4B d   1      -1.560   0.474   1.719  0.00  0.00    -0.013 C 
ATOM      9  C4' I4B d   1      -1.296   1.783   2.416  0.00  0.00     0.013 C 
ATOM     10  C3' I4B d   1      -2.947  -0.021   2.003  0.00  0.00     0.013 C 
ENDBRANCH   7   8
ENDBRANCH   1   7
TORSDOF 2
ENDMDL
