MODEL 1
REMARK minimizedAffinity -2.15560865
REMARK minimizedRMSD -1
REMARK  2 active torsions:
REMARK  status: ('A' for Active; 'I' for Inactive)
REMARK    1  A    between atoms: C2'_3  and  C1'_4 
REMARK    2  A    between atoms: C1'_4  and  C1_5 
ROOT
ATOM      1  C1  I4B d   1      -3.043  -0.341   3.074  0.00  0.00    -0.075 A 
ATOM      2  C2  I4B d   1      -3.793  -1.144   2.250  0.00  0.00     0.003 A 
ATOM      3  C3  I4B d   1      -4.613  -2.160   2.799  0.00  0.00     0.002 A 
ATOM      4  C4  I4B d   1      -4.614  -2.370   4.163  0.00  0.00    -0.004 A 
ATOM      5  C5  I4B d   1      -3.871  -1.540   4.998  0.00  0.00     0.002 A 
ATOM      6  C6  I4B d   1      -3.090  -0.511   4.451  0.00  0.00     0.003 A 
ENDROOT
BRANCH   1   7
ATOM      7  C1' I4B d   1      -2.163   0.700   2.458  0.00  0.00     0.060 C 
BRANCH   7   8
ATOM      8  C2' I4B d   1      -1.549   0.111   1.204  0.00  0.00    -0.013 C 
ATOM      9  C4' I4B d   1      -1.530   1.117   0.083  0.00  0.00     0.013 C 
ATOM     10  C3' I4B d   1      -0.163  -0.352   1.541  0.00  0.00     0.013 C 
ENDBRANCH   7   8
ENDBRANCH   1   7
TORSDOF 2
ENDMDL
