MODEL 1
REMARK minimizedAffinity -5.61498642
REMARK minimizedRMSD -1
REMARK  2 active torsions:
REMARK  status: ('A' for Active; 'I' for Inactive)
REMARK    1  A    between atoms: C2'_3  and  C1'_4 
REMARK    2  A    between atoms: C1'_4  and  C1_5 
ROOT
ATOM      1  C1  I4B d   1      -1.989   0.480   1.394  0.00  0.00    -0.075 A 
ATOM      2  C2  I4B d   1      -2.915  -0.438   1.823  0.00  0.00     0.003 A 
ATOM      3  C3  I4B d   1      -3.433  -0.366   3.138  0.00  0.00     0.002 A 
ATOM      4  C4  I4B d   1      -2.963   0.602   4.002  0.00  0.00    -0.004 A 
ATOM      5  C5  I4B d   1      -2.041   1.545   3.559  0.00  0.00     0.002 A 
ATOM      6  C6  I4B d   1      -1.559   1.492   2.243  0.00  0.00     0.003 A 
ENDROOT
BRANCH   1   7
ATOM      7  C1' I4B d   1      -1.438   0.355   0.009  0.00  0.00     0.060 C 
BRANCH   7   8
ATOM      8  C2' I4B d   1       0.035   0.708   0.058  0.00  0.00    -0.013 C 
ATOM      9  C4' I4B d   1       0.892  -0.530   0.073  0.00  0.00     0.013 C 
ATOM     10  C3' I4B d   1       0.345   1.567  -1.131  0.00  0.00     0.013 C 
ENDBRANCH   7   8
ENDBRANCH   1   7
TORSDOF 2
ENDMDL
