MODEL 1
REMARK minimizedAffinity 0.428883493
REMARK minimizedRMSD -1
REMARK  2 active torsions:
REMARK  status: ('A' for Active; 'I' for Inactive)
REMARK    1  A    between atoms: C2'_3  and  C1'_4 
REMARK    2  A    between atoms: C1'_4  and  C1_5 
ROOT
ATOM      1  C1  I4B d   1       0.728  -0.505  -0.712  0.00  0.00    -0.075 A 
ATOM      2  C2  I4B d   1       1.722  -1.347  -1.145  0.00  0.00     0.003 A 
ATOM      3  C3  I4B d   1       2.862  -0.824  -1.803  0.00  0.00     0.002 A 
ATOM      4  C4  I4B d   1       2.942   0.531  -2.050  0.00  0.00    -0.004 A 
ATOM      5  C5  I4B d   1       1.944   1.385  -1.590  0.00  0.00     0.002 A 
ATOM      6  C6  I4B d   1       0.836   0.866  -0.906  0.00  0.00     0.003 A 
ENDROOT
BRANCH   1   7
ATOM      7  C1' I4B d   1      -0.477  -1.094  -0.050  0.00  0.00     0.060 C 
BRANCH   7   8
ATOM      8  C2' I4B d   1      -1.195   0.018   0.687  0.00  0.00    -0.013 C 
ATOM      9  C4' I4B d   1      -1.796   1.010  -0.274  0.00  0.00     0.013 C 
ATOM     10  C3' I4B d   1      -2.250  -0.606   1.552  0.00  0.00     0.013 C 
ENDBRANCH   7   8
ENDBRANCH   1   7
TORSDOF 2
ENDMDL
