MODEL 1
REMARK minimizedAffinity -2.69124508
REMARK minimizedRMSD -1
REMARK  2 active torsions:
REMARK  status: ('A' for Active; 'I' for Inactive)
REMARK    1  A    between atoms: C2'_3  and  C1'_4 
REMARK    2  A    between atoms: C1'_4  and  C1_5 
ROOT
ATOM      1  C1  I4B d   1       4.681   0.781   5.637  0.00  0.00    -0.075 A 
ATOM      2  C2  I4B d   1       3.627   1.550   5.213  0.00  0.00     0.003 A 
ATOM      3  C3  I4B d   1       3.751   2.959   5.152  0.00  0.00     0.002 A 
ATOM      4  C4  I4B d   1       4.923   3.557   5.570  0.00  0.00    -0.004 A 
ATOM      5  C5  I4B d   1       5.999   2.774   5.977  0.00  0.00     0.002 A 
ATOM      6  C6  I4B d   1       5.883   1.376   6.000  0.00  0.00     0.003 A 
ENDROOT
BRANCH   1   7
ATOM      7  C1' I4B d   1       4.504  -0.702   5.720  0.00  0.00     0.060 C 
BRANCH   7   8
ATOM      8  C2' I4B d   1       5.813  -1.352   5.320  0.00  0.00    -0.013 C 
ATOM      9  C4' I4B d   1       5.991  -2.684   6.000  0.00  0.00     0.013 C 
ATOM     10  C3' I4B d   1       5.819  -1.500   3.828  0.00  0.00     0.013 C 
ENDBRANCH   7   8
ENDBRANCH   1   7
TORSDOF 2
ENDMDL
