MODEL 1
REMARK minimizedAffinity 2.12692738
REMARK minimizedRMSD -1
REMARK  2 active torsions:
REMARK  status: ('A' for Active; 'I' for Inactive)
REMARK    1  A    between atoms: C2'_3  and  C1'_4 
REMARK    2  A    between atoms: C1'_4  and  C1_5 
ROOT
ATOM      1  C1  I4B d   1       1.913  -2.247  -0.930  0.00  0.00    -0.075 A 
ATOM      2  C2  I4B d   1       2.819  -1.245  -0.692  0.00  0.00     0.003 A 
ATOM      3  C3  I4B d   1       3.699  -1.328   0.415  0.00  0.00     0.002 A 
ATOM      4  C4  I4B d   1       3.603  -2.399   1.280  0.00  0.00    -0.004 A 
ATOM      5  C5  I4B d   1       2.699  -3.425   1.024  0.00  0.00     0.002 A 
ATOM      6  C6  I4B d   1       1.856  -3.356  -0.095  0.00  0.00     0.003 A 
ENDROOT
BRANCH   1   7
ATOM      7  C1' I4B d   1       0.977  -2.112  -2.089  0.00  0.00     0.060 C 
BRANCH   7   8
ATOM      8  C2' I4B d   1       0.250  -3.431  -2.259  0.00  0.00    -0.013 C 
ATOM      9  C4' I4B d   1      -1.230  -3.271  -2.035  0.00  0.00     0.013 C 
ATOM     10  C3' I4B d   1       0.536  -3.942  -3.640  0.00  0.00     0.013 C 
ENDBRANCH   7   8
ENDBRANCH   1   7
TORSDOF 2
ENDMDL
