MODEL 1
REMARK minimizedAffinity 4.52730322
REMARK minimizedRMSD -1
REMARK  2 active torsions:
REMARK  status: ('A' for Active; 'I' for Inactive)
REMARK    1  A    between atoms: C2'_3  and  C1'_4 
REMARK    2  A    between atoms: C1'_4  and  C1_5 
ROOT
ATOM      1  C1  I4B d   1      -2.247  -0.428   1.720  0.00  0.00    -0.075 A 
ATOM      2  C2  I4B d   1      -2.415   0.764   2.379  0.00  0.00     0.003 A 
ATOM      3  C3  I4B d   1      -2.824   0.777   3.735  0.00  0.00     0.002 A 
ATOM      4  C4  I4B d   1      -3.099  -0.415   4.373  0.00  0.00    -0.004 A 
ATOM      5  C5  I4B d   1      -2.905  -1.623   3.710  0.00  0.00     0.002 A 
ATOM      6  C6  I4B d   1      -2.464  -1.631   2.379  0.00  0.00     0.003 A 
ENDROOT
BRANCH   1   7
ATOM      7  C1' I4B d   1      -1.846  -0.404   0.279  0.00  0.00     0.060 C 
BRANCH   7   8
ATOM      8  C2' I4B d   1      -0.333  -0.402   0.214  0.00  0.00    -0.013 C 
ATOM      9  C4' I4B d   1       0.192  -1.707  -0.323  0.00  0.00     0.013 C 
ATOM     10  C3' I4B d   1       0.093   0.749  -0.648  0.00  0.00     0.013 C 
ENDBRANCH   7   8
ENDBRANCH   1   7
TORSDOF 2
ENDMDL
