MODEL 1
REMARK minimizedAffinity 5.1098423
REMARK minimizedRMSD -1
REMARK  2 active torsions:
REMARK  status: ('A' for Active; 'I' for Inactive)
REMARK    1  A    between atoms: C2'_3  and  C1'_4 
REMARK    2  A    between atoms: C1'_4  and  C1_5 
ROOT
ATOM      1  C1  I4B d   1       1.701  -0.303  -2.151  0.00  0.00    -0.075 A 
ATOM      2  C2  I4B d   1       2.259   0.082  -3.345  0.00  0.00     0.003 A 
ATOM      3  C3  I4B d   1       2.013   1.377  -3.862  0.00  0.00     0.002 A 
ATOM      4  C4  I4B d   1       1.169   2.231  -3.182  0.00  0.00    -0.004 A 
ATOM      5  C5  I4B d   1       0.622   1.848  -1.961  0.00  0.00     0.002 A 
ATOM      6  C6  I4B d   1       0.900   0.577  -1.435  0.00  0.00     0.003 A 
ENDROOT
BRANCH   1   7
ATOM      7  C1' I4B d   1       1.955  -1.690  -1.651  0.00  0.00     0.060 C 
BRANCH   7   8
ATOM      8  C2' I4B d   1       2.268  -1.602  -0.171  0.00  0.00    -0.013 C 
ATOM      9  C4' I4B d   1       2.231  -2.961   0.476  0.00  0.00     0.013 C 
ATOM     10  C3' I4B d   1       3.618  -0.967  -0.020  0.00  0.00     0.013 C 
ENDBRANCH   7   8
ENDBRANCH   1   7
TORSDOF 2
ENDMDL
