MODEL 1
REMARK minimizedAffinity -2.50523734
REMARK minimizedRMSD -1
REMARK  2 active torsions:
REMARK  status: ('A' for Active; 'I' for Inactive)
REMARK    1  A    between atoms: C2'_3  and  C1'_4 
REMARK    2  A    between atoms: C1'_4  and  C1_5 
ROOT
ATOM      1  C1  I4B d   1       0.772  -0.264  -1.397  0.00  0.00    -0.075 A 
ATOM      2  C2  I4B d   1       1.760  -1.043  -1.945  0.00  0.00     0.003 A 
ATOM      3  C3  I4B d   1       2.595  -0.524  -2.964  0.00  0.00     0.002 A 
ATOM      4  C4  I4B d   1       2.376   0.753  -3.437  0.00  0.00    -0.004 A 
ATOM      5  C5  I4B d   1       1.389   1.551  -2.864  0.00  0.00     0.002 A 
ATOM      6  C6  I4B d   1       0.589   1.044  -1.830  0.00  0.00     0.003 A 
ENDROOT
BRANCH   1   7
ATOM      7  C1' I4B d   1      -0.113  -0.855  -0.346  0.00  0.00     0.060 C 
BRANCH   7   8
ATOM      8  C2' I4B d   1      -0.331   0.194   0.725  0.00  0.00    -0.013 C 
ATOM      9  C4' I4B d   1      -1.590  -0.076   1.505  0.00  0.00     0.013 C 
ATOM     10  C3' I4B d   1       0.872   0.197   1.622  0.00  0.00     0.013 C 
ENDBRANCH   7   8
ENDBRANCH   1   7
TORSDOF 2
ENDMDL
