MODEL 1
REMARK minimizedAffinity -4.85112238
REMARK minimizedRMSD -1
REMARK  2 active torsions:
REMARK  status: ('A' for Active; 'I' for Inactive)
REMARK    1  A    between atoms: C2'_3  and  C1'_4 
REMARK    2  A    between atoms: C1'_4  and  C1_5 
ROOT
ATOM      1  C1  I4B d   1      -0.382   0.327  -0.424  0.00  0.00    -0.075 A 
ATOM      2  C2  I4B d   1       0.208  -0.893  -0.205  0.00  0.00     0.003 A 
ATOM      3  C3  I4B d   1       1.499  -1.162  -0.720  0.00  0.00     0.002 A 
ATOM      4  C4  I4B d   1       2.139  -0.209  -1.485  0.00  0.00    -0.004 A 
ATOM      5  C5  I4B d   1       1.549   1.036  -1.686  0.00  0.00     0.002 A 
ATOM      6  C6  I4B d   1       0.286   1.310  -1.143  0.00  0.00     0.003 A 
ENDROOT
BRANCH   1   7
ATOM      7  C1' I4B d   1      -1.760   0.567   0.106  0.00  0.00     0.060 C 
BRANCH   7   8
ATOM      8  C2' I4B d   1      -1.705   0.459   1.616  0.00  0.00    -0.013 C 
ATOM      9  C4' I4B d   1      -1.482   1.806   2.251  0.00  0.00     0.013 C 
ATOM     10  C3' I4B d   1      -2.991  -0.154   2.084  0.00  0.00     0.013 C 
ENDBRANCH   7   8
ENDBRANCH   1   7
TORSDOF 2
ENDMDL
