MODEL 1
REMARK minimizedAffinity -2.03548265
REMARK minimizedRMSD -1
REMARK  2 active torsions:
REMARK  status: ('A' for Active; 'I' for Inactive)
REMARK    1  A    between atoms: C2'_3  and  C1'_4 
REMARK    2  A    between atoms: C1'_4  and  C1_5 
ROOT
ATOM      1  C1  I4B d   1      -1.601   0.737   1.464  0.00  0.00    -0.075 A 
ATOM      2  C2  I4B d   1      -1.972  -0.295   2.290  0.00  0.00     0.003 A 
ATOM      3  C3  I4B d   1      -2.249  -0.051   3.657  0.00  0.00     0.002 A 
ATOM      4  C4  I4B d   1      -2.094   1.223   4.164  0.00  0.00    -0.004 A 
ATOM      5  C5  I4B d   1      -1.740   2.272   3.321  0.00  0.00     0.002 A 
ATOM      6  C6  I4B d   1      -1.504   2.031   1.960  0.00  0.00     0.003 A 
ENDROOT
BRANCH   1   7
ATOM      7  C1' I4B d   1      -1.284   0.437   0.033  0.00  0.00     0.060 C 
BRANCH   7   8
ATOM      8  C2' I4B d   1       0.205   0.635  -0.166  0.00  0.00    -0.013 C 
ATOM      9  C4' I4B d   1       0.896  -0.673  -0.446  0.00  0.00     0.013 C 
ATOM     10  C3' I4B d   1       0.396   1.601  -1.298  0.00  0.00     0.013 C 
ENDBRANCH   7   8
ENDBRANCH   1   7
TORSDOF 2
ENDMDL
