MODEL 1
REMARK minimizedAffinity -3.28838944
REMARK minimizedRMSD -1
REMARK  2 active torsions:
REMARK  status: ('A' for Active; 'I' for Inactive)
REMARK    1  A    between atoms: C2'_3  and  C1'_4 
REMARK    2  A    between atoms: C1'_4  and  C1_5 
ROOT
ATOM      1  C1  I4B d   1      -0.569   0.358  -0.122  0.00  0.00    -0.075 A 
ATOM      2  C2  I4B d   1       0.367   1.245  -0.592  0.00  0.00     0.003 A 
ATOM      3  C3  I4B d   1       1.597   0.774  -1.112  0.00  0.00     0.002 A 
ATOM      4  C4  I4B d   1       1.868  -0.578  -1.096  0.00  0.00    -0.004 A 
ATOM      5  C5  I4B d   1       0.909  -1.478  -0.640  0.00  0.00     0.002 A 
ATOM      6  C6  I4B d   1      -0.323  -1.008  -0.161  0.00  0.00     0.003 A 
ENDROOT
BRANCH   1   7
ATOM      7  C1' I4B d   1      -1.844   0.892   0.450  0.00  0.00     0.060 C 
BRANCH   7   8
ATOM      8  C2' I4B d   1      -1.814   0.668   1.948  0.00  0.00    -0.013 C 
ATOM      9  C4' I4B d   1      -2.064   1.950   2.696  0.00  0.00     0.013 C 
ATOM     10  C3' I4B d   1      -2.847  -0.366   2.283  0.00  0.00     0.013 C 
ENDBRANCH   7   8
ENDBRANCH   1   7
TORSDOF 2
ENDMDL
