MODEL 1
REMARK minimizedAffinity 0.353283107
REMARK minimizedRMSD -1
REMARK  2 active torsions:
REMARK  status: ('A' for Active; 'I' for Inactive)
REMARK    1  A    between atoms: C2'_3  and  C1'_4 
REMARK    2  A    between atoms: C1'_4  and  C1_5 
ROOT
ATOM      1  C1  I4B d   1       2.113  -0.056  -1.900  0.00  0.00    -0.075 A 
ATOM      2  C2  I4B d   1       0.853  -0.547  -2.133  0.00  0.00     0.003 A 
ATOM      3  C3  I4B d   1       0.411  -1.720  -1.473  0.00  0.00     0.002 A 
ATOM      4  C4  I4B d   1       1.274  -2.393  -0.633  0.00  0.00    -0.004 A 
ATOM      5  C5  I4B d   1       2.544  -1.881  -0.380  0.00  0.00     0.002 A 
ATOM      6  C6  I4B d   1       2.962  -0.699  -1.008  0.00  0.00     0.003 A 
ENDROOT
BRANCH   1   7
ATOM      7  C1' I4B d   1       2.559   1.165  -2.639  0.00  0.00     0.060 C 
BRANCH   7   8
ATOM      8  C2' I4B d   1       1.670   2.317  -2.216  0.00  0.00    -0.013 C 
ATOM      9  C4' I4B d   1       2.483   3.537  -1.875  0.00  0.00     0.013 C 
ATOM     10  C3' I4B d   1       0.714   2.600  -3.337  0.00  0.00     0.013 C 
ENDBRANCH   7   8
ENDBRANCH   1   7
TORSDOF 2
ENDMDL
