MODEL 1
REMARK minimizedAffinity -3.8730607
REMARK minimizedRMSD -1
REMARK  1 active torsions:
REMARK  status: ('A' for Active; 'I' for Inactive)
REMARK    1  A    between atoms: C1_2  and  C2_3 
ROOT
ATOM      1  C2  UNL d   1      -0.703   1.801   0.765  0.00  0.00    -0.076 A 
ATOM      2  C3  UNL d   1      -0.897   0.557   1.390  0.00  0.00     0.004 A 
ATOM      3  C4  UNL d   1      -0.351  -0.608   0.855  0.00  0.00    -0.003 A 
ATOM      4  C5  UNL d   1       0.399  -0.549  -0.314  0.00  0.00     0.000 A 
ATOM      5  C6  UNL d   1       0.617   0.679  -0.938  0.00  0.00     0.000 A 
ATOM      6  C7  UNL d   1       0.087   1.865  -0.403  0.00  0.00    -0.073 A 
ATOM      7  C8  UNL d   1       0.348   3.161  -1.121  0.00  0.00     0.078 C 
ENDROOT
BRANCH   1   8
ATOM      8  C1  UNL d   1      -1.343   3.027   1.376  0.00  0.00     0.053 C 
ATOM      9  C   UNL d   1      -2.478   2.679   2.326  0.00  0.00     0.018 C 
ENDBRANCH   1   8
TORSDOF 1
ENDMDL
