MODEL 1
REMARK minimizedAffinity -4.69927835
REMARK minimizedRMSD -1
REMARK  1 active torsions:
REMARK  status: ('A' for Active; 'I' for Inactive)
REMARK    1  A    between atoms: C1_2  and  C2_3 
ROOT
ATOM      1  C2  UNL d   1       0.592   0.033   0.182  0.00  0.00    -0.076 A 
ATOM      2  C3  UNL d   1       0.296  -0.766   1.300  0.00  0.00     0.004 A 
ATOM      3  C4  UNL d   1      -0.660  -0.368   2.234  0.00  0.00    -0.003 A 
ATOM      4  C5  UNL d   1      -1.335   0.836   2.064  0.00  0.00     0.000 A 
ATOM      5  C6  UNL d   1      -1.066   1.633   0.952  0.00  0.00     0.000 A 
ATOM      6  C7  UNL d   1      -0.118   1.238  -0.007  0.00  0.00    -0.073 A 
ATOM      7  C8  UNL d   1       0.136   2.139  -1.184  0.00  0.00     0.078 C 
ENDROOT
BRANCH   1   8
ATOM      8  C1  UNL d   1       1.657  -0.437  -0.782  0.00  0.00     0.053 C 
ATOM      9  C   UNL d   1       1.645  -1.946  -0.973  0.00  0.00     0.018 C 
ENDBRANCH   1   8
TORSDOF 1
ENDMDL
