MODEL 1
REMARK minimizedAffinity -5.48522425
REMARK minimizedRMSD -1
REMARK  1 active torsions:
REMARK  status: ('A' for Active; 'I' for Inactive)
REMARK    1  A    between atoms: C1_2  and  C2_3 
ROOT
ATOM      1  C2  UNL d   1       0.015   0.102   0.098  0.00  0.00    -0.076 A 
ATOM      2  C3  UNL d   1      -0.477  -0.665   1.168  0.00  0.00     0.004 A 
ATOM      3  C4  UNL d   1      -1.485  -0.176   1.997  0.00  0.00    -0.003 A 
ATOM      4  C5  UNL d   1      -2.019   1.088   1.769  0.00  0.00     0.000 A 
ATOM      5  C6  UNL d   1      -1.555   1.855   0.701  0.00  0.00     0.000 A 
ATOM      6  C7  UNL d   1      -0.550   1.371  -0.154  0.00  0.00    -0.073 A 
ATOM      7  C8  UNL d   1      -0.083   2.244  -1.287  0.00  0.00     0.078 C 
ENDROOT
BRANCH   1   8
ATOM      8  C1  UNL d   1       1.129  -0.469  -0.751  0.00  0.00     0.053 C 
ATOM      9  C   UNL d   1       0.731  -1.767  -1.437  0.00  0.00     0.018 C 
ENDBRANCH   1   8
TORSDOF 1
ENDMDL
