MODEL 1
REMARK minimizedAffinity -4.26643324
REMARK minimizedRMSD -1
REMARK  1 active torsions:
REMARK  status: ('A' for Active; 'I' for Inactive)
REMARK    1  A    between atoms: C1_2  and  C2_3 
ROOT
ATOM      1  C2  UNL d   1      -0.049   0.178  -0.118  0.00  0.00    -0.076 A 
ATOM      2  C3  UNL d   1      -0.411  -0.598   0.997  0.00  0.00     0.004 A 
ATOM      3  C4  UNL d   1      -1.287  -0.102   1.962  0.00  0.00    -0.003 A 
ATOM      4  C5  UNL d   1      -1.816   1.176   1.827  0.00  0.00     0.000 A 
ATOM      5  C6  UNL d   1      -1.482   1.953   0.718  0.00  0.00     0.000 A 
ATOM      6  C7  UNL d   1      -0.613   1.463  -0.273  0.00  0.00    -0.073 A 
ATOM      7  C8  UNL d   1      -0.282   2.346  -1.445  0.00  0.00     0.078 C 
ENDROOT
BRANCH   1   8
ATOM      8  C1  UNL d   1       0.926  -0.401  -1.118  0.00  0.00     0.053 C 
ATOM      9  C   UNL d   1       0.607  -1.846  -1.473  0.00  0.00     0.018 C 
ENDBRANCH   1   8
TORSDOF 1
ENDMDL
