MODEL 1
REMARK minimizedAffinity -4.22256088
REMARK minimizedRMSD -1
REMARK  1 active torsions:
REMARK  status: ('A' for Active; 'I' for Inactive)
REMARK    1  A    between atoms: C1_2  and  C2_3 
ROOT
ATOM      1  C2  UNL d   1       0.297  -1.026  -1.107  0.00  0.00    -0.076 A 
ATOM      2  C3  UNL d   1      -0.678  -1.997  -1.393  0.00  0.00     0.004 A 
ATOM      3  C4  UNL d   1      -0.476  -2.942  -2.398  0.00  0.00    -0.003 A 
ATOM      4  C5  UNL d   1       0.704  -2.932  -3.132  0.00  0.00     0.000 A 
ATOM      5  C6  UNL d   1       1.690  -1.987  -2.850  0.00  0.00     0.000 A 
ATOM      6  C7  UNL d   1       1.510  -1.037  -1.829  0.00  0.00    -0.073 A 
ATOM      7  C8  UNL d   1       2.604  -0.038  -1.572  0.00  0.00     0.078 C 
ENDROOT
BRANCH   1   8
ATOM      8  C1  UNL d   1       0.012  -0.010  -0.024  0.00  0.00     0.053 C 
ATOM      9  C   UNL d   1      -1.100  -0.454   0.913  0.00  0.00     0.018 C 
ENDBRANCH   1   8
TORSDOF 1
ENDMDL
