MODEL 1
REMARK minimizedAffinity -2.44982958
REMARK minimizedRMSD -1
REMARK  1 active torsions:
REMARK  status: ('A' for Active; 'I' for Inactive)
REMARK    1  A    between atoms: C1_2  and  C2_3 
ROOT
ATOM      1  C2  UNL d   1      -0.440   1.322  -0.130  0.00  0.00    -0.076 A 
ATOM      2  C3  UNL d   1       0.262   0.130  -0.382  0.00  0.00     0.004 A 
ATOM      3  C4  UNL d   1       0.409  -0.839   0.608  0.00  0.00    -0.003 A 
ATOM      4  C5  UNL d   1      -0.143  -0.633   1.868  0.00  0.00     0.000 A 
ATOM      5  C6  UNL d   1      -0.857   0.536   2.130  0.00  0.00     0.000 A 
ATOM      6  C7  UNL d   1      -1.029   1.516   1.138  0.00  0.00    -0.073 A 
ATOM      7  C8  UNL d   1      -1.804   2.760   1.478  0.00  0.00     0.078 C 
ENDROOT
BRANCH   1   8
ATOM      8  C1  UNL d   1      -0.544   2.349  -1.235  0.00  0.00     0.053 C 
ATOM      9  C   UNL d   1       0.724   2.438  -2.069  0.00  0.00     0.018 C 
ENDBRANCH   1   8
TORSDOF 1
ENDMDL
