MODEL 1
REMARK minimizedAffinity -4.39104509
REMARK minimizedRMSD -1
REMARK  1 active torsions:
REMARK  status: ('A' for Active; 'I' for Inactive)
REMARK    1  A    between atoms: C1_2  and  C2_3 
ROOT
ATOM      1  C2  UNL d   1       0.182  -0.084   0.226  0.00  0.00    -0.076 A 
ATOM      2  C3  UNL d   1      -0.533   0.849  -0.545  0.00  0.00     0.004 A 
ATOM      3  C4  UNL d   1      -1.514   1.654   0.031  0.00  0.00    -0.003 A 
ATOM      4  C5  UNL d   1      -1.796   1.540   1.387  0.00  0.00     0.000 A 
ATOM      5  C6  UNL d   1      -1.085   0.632   2.171  0.00  0.00     0.000 A 
ATOM      6  C7  UNL d   1      -0.081  -0.176   1.610  0.00  0.00    -0.073 A 
ATOM      7  C8  UNL d   1       0.650  -1.142   2.501  0.00  0.00     0.078 C 
ENDROOT
BRANCH   1   8
ATOM      8  C1  UNL d   1       1.215  -0.950  -0.458  0.00  0.00     0.053 C 
ATOM      9  C   UNL d   1       0.603  -1.878  -1.496  0.00  0.00     0.018 C 
ENDBRANCH   1   8
TORSDOF 1
ENDMDL
