MODEL 1
REMARK minimizedAffinity -5.99403286
REMARK minimizedRMSD -1
REMARK  1 active torsions:
REMARK  status: ('A' for Active; 'I' for Inactive)
REMARK    1  A    between atoms: C1_2  and  C2_3 
ROOT
ATOM      1  C2  UNL d   1      -0.012   1.104   0.514  0.00  0.00    -0.076 A 
ATOM      2  C3  UNL d   1      -1.092   1.326   1.386  0.00  0.00     0.004 A 
ATOM      3  C4  UNL d   1      -1.798   2.528   1.361  0.00  0.00    -0.003 A 
ATOM      4  C5  UNL d   1      -1.436   3.527   0.464  0.00  0.00     0.000 A 
ATOM      5  C6  UNL d   1      -0.378   3.316  -0.420  0.00  0.00     0.000 A 
ATOM      6  C7  UNL d   1       0.334   2.104  -0.420  0.00  0.00    -0.073 A 
ATOM      7  C8  UNL d   1       1.469   1.933  -1.391  0.00  0.00     0.078 C 
ENDROOT
BRANCH   1   8
ATOM      8  C1  UNL d   1       0.733  -0.209   0.605  0.00  0.00     0.053 C 
ATOM      9  C   UNL d   1       0.511  -1.090  -0.614  0.00  0.00     0.018 C 
ENDBRANCH   1   8
TORSDOF 1
ENDMDL
