MODEL 1
REMARK minimizedAffinity -2.5497086
REMARK minimizedRMSD -1
REMARK  1 active torsions:
REMARK  status: ('A' for Active; 'I' for Inactive)
REMARK    1  A    between atoms: C1_2  and  C2_3 
ROOT
ATOM      1  C2  UNL d   1       1.407  -3.489  -1.495  0.00  0.00    -0.076 A 
ATOM      2  C3  UNL d   1       2.529  -3.735  -0.684  0.00  0.00     0.004 A 
ATOM      3  C4  UNL d   1       2.721  -4.978  -0.083  0.00  0.00    -0.003 A 
ATOM      4  C5  UNL d   1       1.795  -5.996  -0.284  0.00  0.00     0.000 A 
ATOM      5  C6  UNL d   1       0.686  -5.775  -1.100  0.00  0.00     0.000 A 
ATOM      6  C7  UNL d   1       0.485  -4.533  -1.726  0.00  0.00    -0.073 A 
ATOM      7  C8  UNL d   1      -0.732  -4.348  -2.590  0.00  0.00     0.078 C 
ENDROOT
BRANCH   1   8
ATOM      8  C1  UNL d   1       1.237  -2.113  -2.097  0.00  0.00     0.053 C 
ATOM      9  C   UNL d   1       1.120  -1.025  -1.042  0.00  0.00     0.018 C 
ENDBRANCH   1   8
TORSDOF 1
ENDMDL
