MODEL 1
REMARK minimizedAffinity -0.637751281
REMARK minimizedRMSD -1
REMARK  1 active torsions:
REMARK  status: ('A' for Active; 'I' for Inactive)
REMARK    1  A    between atoms: C1_2  and  C2_3 
ROOT
ATOM      1  C2  UNL d   1       1.175  -2.261  -1.072  0.00  0.00    -0.076 A 
ATOM      2  C3  UNL d   1       1.834  -3.108  -0.163  0.00  0.00     0.004 A 
ATOM      3  C4  UNL d   1       1.914  -4.481  -0.391  0.00  0.00    -0.003 A 
ATOM      4  C5  UNL d   1       1.337  -5.029  -1.531  0.00  0.00     0.000 A 
ATOM      5  C6  UNL d   1       0.695  -4.202  -2.452  0.00  0.00     0.000 A 
ATOM      6  C7  UNL d   1       0.620  -2.814  -2.246  0.00  0.00    -0.073 A 
ATOM      7  C8  UNL d   1      -0.090  -1.970  -3.269  0.00  0.00     0.078 C 
ENDROOT
BRANCH   1   8
ATOM      8  C1  UNL d   1       1.096  -0.784  -0.759  0.00  0.00     0.053 C 
ATOM      9  C   UNL d   1       0.530  -0.511   0.626  0.00  0.00     0.018 C 
ENDBRANCH   1   8
TORSDOF 1
ENDMDL
