MODEL 1
REMARK minimizedAffinity 3.85308623
REMARK minimizedRMSD -1
REMARK  1 active torsions:
REMARK  status: ('A' for Active; 'I' for Inactive)
REMARK    1  A    between atoms: C1_2  and  C2_3 
ROOT
ATOM      1  C2  UNL d   1      -0.027  -2.493   2.696  0.00  0.00    -0.081 A 
ATOM      2  C3  UNL d   1       0.064  -3.881   2.531  0.00  0.00     0.006 A 
ATOM      3  C4  UNL d   1       1.180  -4.448   1.911  0.00  0.00     0.002 A 
ATOM      4  C5  UNL d   1       2.225  -3.640   1.453  0.00  0.00    -0.080 A 
ATOM      5  C6  UNL d   1       3.442  -4.238   0.813  0.00  0.00     0.076 C 
ATOM      6  C7  UNL d   1       2.126  -2.252   1.603  0.00  0.00     0.002 A 
ATOM      7  C8  UNL d   1       1.011  -1.684   2.222  0.00  0.00     0.006 A 
ENDROOT
BRANCH   1   8
ATOM      8  C1  UNL d   1      -1.199  -1.883   3.422  0.00  0.00     0.054 C 
ATOM      9  C   UNL d   1      -1.305  -0.390   3.146  0.00  0.00     0.018 C 
ENDBRANCH   1   8
TORSDOF 1
ENDMDL
