MODEL 1
REMARK minimizedAffinity 4.04334736
REMARK minimizedRMSD -1
REMARK  1 active torsions:
REMARK  status: ('A' for Active; 'I' for Inactive)
REMARK    1  A    between atoms: C1_2  and  C2_3 
ROOT
ATOM      1  C2  UNL d   1       2.564  -1.288   0.298  0.00  0.00    -0.081 A 
ATOM      2  C3  UNL d   1       3.556  -0.338   0.573  0.00  0.00     0.006 A 
ATOM      3  C4  UNL d   1       3.557   0.895  -0.085  0.00  0.00     0.002 A 
ATOM      4  C5  UNL d   1       2.563   1.201  -1.021  0.00  0.00    -0.080 A 
ATOM      5  C6  UNL d   1       2.536   2.532  -1.712  0.00  0.00     0.076 C 
ATOM      6  C7  UNL d   1       1.583   0.245  -1.308  0.00  0.00     0.002 A 
ATOM      7  C8  UNL d   1       1.581  -0.988  -0.651  0.00  0.00     0.006 A 
ENDROOT
BRANCH   1   8
ATOM      8  C1  UNL d   1       2.523  -2.592   1.053  0.00  0.00     0.054 C 
ATOM      9  C   UNL d   1       1.328  -2.649   1.994  0.00  0.00     0.018 C 
ENDBRANCH   1   8
TORSDOF 1
ENDMDL
