MODEL 1
REMARK minimizedAffinity 9.98326969
REMARK minimizedRMSD -1
REMARK  1 active torsions:
REMARK  status: ('A' for Active; 'I' for Inactive)
REMARK    1  A    between atoms: C1_2  and  C2_3 
ROOT
ATOM      1  C2  UNL d   1      -4.226   3.764   5.303  0.00  0.00    -0.081 A 
ATOM      2  C3  UNL d   1      -4.464   3.070   4.111  0.00  0.00     0.006 A 
ATOM      3  C4  UNL d   1      -3.441   2.342   3.499  0.00  0.00     0.002 A 
ATOM      4  C5  UNL d   1      -2.166   2.290   4.072  0.00  0.00    -0.080 A 
ATOM      5  C6  UNL d   1      -1.067   1.487   3.442  0.00  0.00     0.076 C 
ATOM      6  C7  UNL d   1      -1.923   2.998   5.255  0.00  0.00     0.002 A 
ATOM      7  C8  UNL d   1      -2.946   3.726   5.866  0.00  0.00     0.006 A 
ENDROOT
BRANCH   1   8
ATOM      8  C1  UNL d   1      -5.344   4.497   6.000  0.00  0.00     0.054 C 
ATOM      9  C   UNL d   1      -5.105   6.000   6.000  0.00  0.00     0.018 C 
ENDBRANCH   1   8
TORSDOF 1
ENDMDL
