MODEL 1
REMARK minimizedAffinity 4.68234205
REMARK minimizedRMSD -1
REMARK  1 active torsions:
REMARK  status: ('A' for Active; 'I' for Inactive)
REMARK    1  A    between atoms: C1_2  and  C2_3 
ROOT
ATOM      1  C2  UNL d   1       1.289  -0.451   2.623  0.00  0.00    -0.081 A 
ATOM      2  C3  UNL d   1       1.855  -1.359   1.720  0.00  0.00     0.006 A 
ATOM      3  C4  UNL d   1       1.215  -2.568   1.436  0.00  0.00     0.002 A 
ATOM      4  C5  UNL d   1      -0.004  -2.886   2.045  0.00  0.00    -0.080 A 
ATOM      5  C6  UNL d   1      -0.716  -4.167   1.726  0.00  0.00     0.076 C 
ATOM      6  C7  UNL d   1      -0.561  -1.987   2.960  0.00  0.00     0.002 A 
ATOM      7  C8  UNL d   1       0.078  -0.778   3.245  0.00  0.00     0.006 A 
ENDROOT
BRANCH   1   8
ATOM      8  C1  UNL d   1       1.943   0.882   2.881  0.00  0.00     0.054 C 
ATOM      9  C   UNL d   1       1.592   1.890   1.797  0.00  0.00     0.018 C 
ENDBRANCH   1   8
TORSDOF 1
ENDMDL
