MODEL 1
REMARK minimizedAffinity 3.43815684
REMARK minimizedRMSD -1
REMARK  1 active torsions:
REMARK  status: ('A' for Active; 'I' for Inactive)
REMARK    1  A    between atoms: C1_2  and  C2_3 
ROOT
ATOM      1  C2  UNL d   1       5.928   2.280  -3.705  0.00  0.00    -0.081 A 
ATOM      2  C3  UNL d   1       5.843   2.239  -5.102  0.00  0.00     0.006 A 
ATOM      3  C4  UNL d   1       5.842   3.420  -5.847  0.00  0.00     0.002 A 
ATOM      4  C5  UNL d   1       5.932   4.662  -5.209  0.00  0.00    -0.080 A 
ATOM      5  C6  UNL d   1       5.962   5.937  -5.998  0.00  0.00     0.076 C 
ATOM      6  C7  UNL d   1       5.999   4.704  -3.812  0.00  0.00     0.002 A 
ATOM      7  C8  UNL d   1       6.000   3.523  -3.066  0.00  0.00     0.006 A 
ENDROOT
BRANCH   1   8
ATOM      8  C1  UNL d   1       5.995   1.006  -2.903  0.00  0.00     0.054 C 
ATOM      9  C   UNL d   1       5.546  -0.192  -3.728  0.00  0.00     0.018 C 
ENDBRANCH   1   8
TORSDOF 1
ENDMDL
