MODEL 1
REMARK minimizedAffinity 4.62901974
REMARK minimizedRMSD -1
REMARK  1 active torsions:
REMARK  status: ('A' for Active; 'I' for Inactive)
REMARK    1  A    between atoms: C1_2  and  C2_3 
ROOT
ATOM      1  C2  UNL d   1      -4.285   2.491  -5.330  0.00  0.00    -0.081 A 
ATOM      2  C3  UNL d   1      -3.091   2.072  -5.930  0.00  0.00     0.006 A 
ATOM      3  C4  UNL d   1      -1.869   2.257  -5.280  0.00  0.00     0.002 A 
ATOM      4  C5  UNL d   1      -1.820   2.857  -4.017  0.00  0.00    -0.080 A 
ATOM      5  C6  UNL d   1      -0.518   3.034  -3.295  0.00  0.00     0.076 C 
ATOM      6  C7  UNL d   1      -3.011   3.292  -3.425  0.00  0.00     0.002 A 
ATOM      7  C8  UNL d   1      -4.234   3.108  -4.075  0.00  0.00     0.006 A 
ENDROOT
BRANCH   1   8
ATOM      8  C1  UNL d   1      -5.611   2.234  -6.000  0.00  0.00     0.054 C 
ATOM      9  C   UNL d   1      -5.953   0.751  -6.000  0.00  0.00     0.018 C 
ENDBRANCH   1   8
TORSDOF 1
ENDMDL
