MODEL 1
REMARK minimizedAffinity 12.1563311
REMARK minimizedRMSD -1
REMARK  1 active torsions:
REMARK  status: ('A' for Active; 'I' for Inactive)
REMARK    1  A    between atoms: C1_2  and  C2_3 
ROOT
ATOM      1  C2  UNL d   1       3.828   4.679  -5.771  0.00  0.00    -0.081 A 
ATOM      2  C3  UNL d   1       3.158   5.908  -5.820  0.00  0.00     0.006 A 
ATOM      3  C4  UNL d   1       1.763   5.953  -5.871  0.00  0.00     0.002 A 
ATOM      4  C5  UNL d   1       1.014   4.771  -5.865  0.00  0.00    -0.080 A 
ATOM      5  C6  UNL d   1      -0.485   4.806  -5.889  0.00  0.00     0.076 C 
ATOM      6  C7  UNL d   1       1.683   3.543  -5.834  0.00  0.00     0.002 A 
ATOM      7  C8  UNL d   1       3.078   3.497  -5.784  0.00  0.00     0.006 A 
ENDROOT
BRANCH   1   8
ATOM      8  C1  UNL d   1       5.329   4.628  -5.651  0.00  0.00     0.054 C 
ATOM      9  C   UNL d   1       5.953   5.988  -5.930  0.00  0.00     0.018 C 
ENDBRANCH   1   8
TORSDOF 1
ENDMDL
