MODEL 1
REMARK minimizedAffinity 0.748337984
REMARK minimizedRMSD -1
REMARK  1 active torsions:
REMARK  status: ('A' for Active; 'I' for Inactive)
REMARK    1  A    between atoms: C1_2  and  C2_3 
ROOT
ATOM      1  C2  UNL d   1      -0.507   0.320   0.109  0.00  0.00    -0.076 A 
ATOM      2  C3  UNL d   1       0.775   0.272   0.684  0.00  0.00     0.004 A 
ATOM      3  C4  UNL d   1       0.953   0.439   2.056  0.00  0.00    -0.003 A 
ATOM      4  C5  UNL d   1      -0.149   0.654   2.876  0.00  0.00     0.000 A 
ATOM      5  C6  UNL d   1      -1.430   0.686   2.325  0.00  0.00     0.000 A 
ATOM      6  C7  UNL d   1      -1.628   0.504   0.946  0.00  0.00    -0.073 A 
ATOM      7  C8  UNL d   1      -3.030   0.554   0.405  0.00  0.00     0.078 C 
ENDROOT
BRANCH   1   8
ATOM      8  C1  UNL d   1      -0.635   0.160  -1.389  0.00  0.00     0.053 C 
ATOM      9  C   UNL d   1       0.678  -0.235  -2.048  0.00  0.00     0.018 C 
ENDBRANCH   1   8
TORSDOF 1
ENDMDL
