MODEL 1
REMARK minimizedAffinity -0.431689709
REMARK minimizedRMSD -1
REMARK  1 active torsions:
REMARK  status: ('A' for Active; 'I' for Inactive)
REMARK    1  A    between atoms: C1_2  and  C2_3 
ROOT
ATOM      1  C2  UNL d   1       0.162   0.257  -0.204  0.00  0.00    -0.076 A 
ATOM      2  C3  UNL d   1       1.503   0.057   0.169  0.00  0.00     0.004 A 
ATOM      3  C4  UNL d   1       1.860  -0.095   1.508  0.00  0.00    -0.003 A 
ATOM      4  C5  UNL d   1       0.881  -0.051   2.495  0.00  0.00     0.000 A 
ATOM      5  C6  UNL d   1      -0.455   0.129   2.141  0.00  0.00     0.000 A 
ATOM      6  C7  UNL d   1      -0.834   0.268   0.795  0.00  0.00    -0.073 A 
ATOM      7  C8  UNL d   1      -2.290   0.466   0.471  0.00  0.00     0.078 C 
ENDROOT
BRANCH   1   8
ATOM      8  C1  UNL d   1      -0.161   0.443  -1.670  0.00  0.00     0.053 C 
ATOM      9  C   UNL d   1       0.994   0.048  -2.576  0.00  0.00     0.018 C 
ENDBRANCH   1   8
TORSDOF 1
ENDMDL
