MODEL 1
REMARK minimizedAffinity -1.22225118
REMARK minimizedRMSD -1
REMARK  1 active torsions:
REMARK  status: ('A' for Active; 'I' for Inactive)
REMARK    1  A    between atoms: C1_2  and  C2_3 
ROOT
ATOM      1  C2  UNL d   1       0.303  -0.699  -1.530  0.00  0.00    -0.076 A 
ATOM      2  C3  UNL d   1       1.188  -1.400  -0.693  0.00  0.00     0.004 A 
ATOM      3  C4  UNL d   1       1.222  -1.156   0.679  0.00  0.00    -0.003 A 
ATOM      4  C5  UNL d   1       0.371  -0.207   1.236  0.00  0.00     0.000 A 
ATOM      5  C6  UNL d   1      -0.526   0.484   0.422  0.00  0.00     0.000 A 
ATOM      6  C7  UNL d   1      -0.584   0.239  -0.960  0.00  0.00    -0.073 A 
ATOM      7  C8  UNL d   1      -1.566   1.018  -1.791  0.00  0.00     0.078 C 
ENDROOT
BRANCH   1   8
ATOM      8  C1  UNL d   1       0.330  -0.987  -3.015  0.00  0.00     0.053 C 
ATOM      9  C   UNL d   1       1.651  -1.588  -3.468  0.00  0.00     0.018 C 
ENDBRANCH   1   8
TORSDOF 1
ENDMDL
