MODEL 1
REMARK minimizedAffinity -0.653716922
REMARK minimizedRMSD -1
REMARK  1 active torsions:
REMARK  status: ('A' for Active; 'I' for Inactive)
REMARK    1  A    between atoms: C1_2  and  C2_3 
ROOT
ATOM      1  C2  UNL d   1       0.678  -0.266   0.751  0.00  0.00    -0.076 A 
ATOM      2  C3  UNL d   1       0.371  -1.525   0.206  0.00  0.00     0.004 A 
ATOM      3  C4  UNL d   1       0.319  -1.716  -1.173  0.00  0.00    -0.003 A 
ATOM      4  C5  UNL d   1       0.573  -0.651  -2.031  0.00  0.00     0.000 A 
ATOM      5  C6  UNL d   1       0.897   0.600  -1.508  0.00  0.00     0.000 A 
ATOM      6  C7  UNL d   1       0.970   0.806  -0.119  0.00  0.00    -0.073 A 
ATOM      7  C8  UNL d   1       1.318   2.178   0.390  0.00  0.00     0.078 C 
ENDROOT
BRANCH   1   8
ATOM      8  C1  UNL d   1       0.694  -0.112   2.255  0.00  0.00     0.053 C 
ATOM      9  C   UNL d   1      -0.678   0.222   2.821  0.00  0.00     0.018 C 
ENDBRANCH   1   8
TORSDOF 1
ENDMDL
