MODEL 1
REMARK minimizedAffinity -1.3973012
REMARK minimizedRMSD -1
REMARK  1 active torsions:
REMARK  status: ('A' for Active; 'I' for Inactive)
REMARK    1  A    between atoms: C1_2  and  C2_3 
ROOT
ATOM      1  C2  UNL d   1      -0.038   0.175   0.369  0.00  0.00    -0.076 A 
ATOM      2  C3  UNL d   1       1.309  -0.082   0.679  0.00  0.00     0.004 A 
ATOM      3  C4  UNL d   1       1.744  -0.132   2.002  0.00  0.00    -0.003 A 
ATOM      4  C5  UNL d   1       0.839   0.073   3.037  0.00  0.00     0.000 A 
ATOM      5  C6  UNL d   1      -0.504   0.311   2.749  0.00  0.00     0.000 A 
ATOM      6  C7  UNL d   1      -0.963   0.349   1.421  0.00  0.00    -0.073 A 
ATOM      7  C8  UNL d   1      -2.421   0.616   1.168  0.00  0.00     0.078 C 
ENDROOT
BRANCH   1   8
ATOM      8  C1  UNL d   1      -0.447   0.244  -1.085  0.00  0.00     0.053 C 
ATOM      9  C   UNL d   1       0.593  -0.365  -2.012  0.00  0.00     0.018 C 
ENDBRANCH   1   8
TORSDOF 1
ENDMDL
