MODEL 1
REMARK minimizedAffinity -2.84198809
REMARK minimizedRMSD -1
REMARK  1 active torsions:
REMARK  status: ('A' for Active; 'I' for Inactive)
REMARK    1  A    between atoms: C1_2  and  C2_3 
ROOT
ATOM      1  C2  UNL d   1      -1.040   0.576   1.049  0.00  0.00    -0.076 A 
ATOM      2  C3  UNL d   1      -0.505   0.235   2.304  0.00  0.00     0.004 A 
ATOM      3  C4  UNL d   1       0.861   0.009   2.464  0.00  0.00    -0.003 A 
ATOM      4  C5  UNL d   1       1.715   0.123   1.372  0.00  0.00     0.000 A 
ATOM      5  C6  UNL d   1       1.204   0.478   0.124  0.00  0.00     0.000 A 
ATOM      6  C7  UNL d   1      -0.169   0.724  -0.051  0.00  0.00    -0.073 A 
ATOM      7  C8  UNL d   1      -0.666   1.098  -1.420  0.00  0.00     0.078 C 
ENDROOT
BRANCH   1   8
ATOM      8  C1  UNL d   1      -2.533   0.782   0.930  0.00  0.00     0.053 C 
ATOM      9  C   UNL d   1      -3.166   1.227   2.240  0.00  0.00     0.018 C 
ENDBRANCH   1   8
TORSDOF 1
ENDMDL
