MODEL 1
REMARK minimizedAffinity -2.19353747
REMARK minimizedRMSD -1
REMARK  1 active torsions:
REMARK  status: ('A' for Active; 'I' for Inactive)
REMARK    1  A    between atoms: C1_2  and  C2_3 
ROOT
ATOM      1  C2  UNL d   1      -0.282   0.580   0.189  0.00  0.00    -0.076 A 
ATOM      2  C3  UNL d   1       0.428   0.479   1.398  0.00  0.00     0.004 A 
ATOM      3  C4  UNL d   1      -0.222   0.601   2.624  0.00  0.00    -0.003 A 
ATOM      4  C5  UNL d   1      -1.594   0.827   2.662  0.00  0.00     0.000 A 
ATOM      5  C6  UNL d   1      -2.317   0.913   1.473  0.00  0.00     0.000 A 
ATOM      6  C7  UNL d   1      -1.679   0.775   0.228  0.00  0.00    -0.073 A 
ATOM      7  C8  UNL d   1      -2.507   0.883  -1.023  0.00  0.00     0.078 C 
ENDROOT
BRANCH   1   8
ATOM      8  C1  UNL d   1       0.482   0.467  -1.111  0.00  0.00     0.053 C 
ATOM      9  C   UNL d   1       0.479  -0.949  -1.666  0.00  0.00     0.018 C 
ENDBRANCH   1   8
TORSDOF 1
ENDMDL
