MODEL 1
REMARK minimizedAffinity -0.425427407
REMARK minimizedRMSD -1
REMARK  1 active torsions:
REMARK  status: ('A' for Active; 'I' for Inactive)
REMARK    1  A    between atoms: C1_2  and  C2_3 
ROOT
ATOM      1  C2  UNL d   1      -1.042   0.550   1.026  0.00  0.00    -0.076 A 
ATOM      2  C3  UNL d   1      -1.112   0.487  -0.376  0.00  0.00     0.004 A 
ATOM      3  C4  UNL d   1       0.012   0.169  -1.137  0.00  0.00    -0.003 A 
ATOM      4  C5  UNL d   1       1.224  -0.092  -0.507  0.00  0.00     0.000 A 
ATOM      5  C6  UNL d   1       1.307  -0.052   0.884  0.00  0.00     0.000 A 
ATOM      6  C7  UNL d   1       0.179   0.251   1.667  0.00  0.00    -0.073 A 
ATOM      7  C8  UNL d   1       0.327   0.287   3.163  0.00  0.00     0.078 C 
ENDROOT
BRANCH   1   8
ATOM      8  C1  UNL d   1      -2.287   0.926   1.797  0.00  0.00     0.053 C 
ATOM      9  C   UNL d   1      -3.542   0.873   0.939  0.00  0.00     0.018 C 
ENDBRANCH   1   8
TORSDOF 1
ENDMDL
