MODEL 1
REMARK minimizedAffinity -3.55713367
REMARK minimizedRMSD -1
REMARK  1 active torsions:
REMARK  status: ('A' for Active; 'I' for Inactive)
REMARK    1  A    between atoms: C1_2  and  C2_3 
ROOT
ATOM      1  C2  UNL d   1       0.662  -0.823  -1.458  0.00  0.00    -0.076 A 
ATOM      2  C3  UNL d   1       1.340  -1.737  -0.632  0.00  0.00     0.004 A 
ATOM      3  C4  UNL d   1       1.572  -1.453   0.713  0.00  0.00    -0.003 A 
ATOM      4  C5  UNL d   1       1.128  -0.252   1.254  0.00  0.00     0.000 A 
ATOM      5  C6  UNL d   1       0.438   0.658   0.454  0.00  0.00     0.000 A 
ATOM      6  C7  UNL d   1       0.182   0.381  -0.900  0.00  0.00    -0.073 A 
ATOM      7  C8  UNL d   1      -0.562   1.401  -1.717  0.00  0.00     0.078 C 
ENDROOT
BRANCH   1   8
ATOM      8  C1  UNL d   1       0.464  -1.173  -2.915  0.00  0.00     0.053 C 
ATOM      9  C   UNL d   1       1.648  -0.764  -3.779  0.00  0.00     0.018 C 
ENDBRANCH   1   8
TORSDOF 1
ENDMDL
