MODEL 1
REMARK minimizedAffinity -4.36389971
REMARK minimizedRMSD -1
REMARK  1 active torsions:
REMARK  status: ('A' for Active; 'I' for Inactive)
REMARK    1  A    between atoms: C1_2  and  C2_3 
ROOT
ATOM      1  C2  UNL d   1      -0.356   0.426   0.220  0.00  0.00    -0.076 A 
ATOM      2  C3  UNL d   1      -1.736   0.666   0.332  0.00  0.00     0.004 A 
ATOM      3  C4  UNL d   1      -2.360   0.696   1.578  0.00  0.00    -0.003 A 
ATOM      4  C5  UNL d   1      -1.613   0.489   2.732  0.00  0.00     0.000 A 
ATOM      5  C6  UNL d   1      -0.240   0.268   2.641  0.00  0.00     0.000 A 
ATOM      6  C7  UNL d   1       0.408   0.250   1.394  0.00  0.00    -0.073 A 
ATOM      7  C8  UNL d   1       1.891   0.001   1.354  0.00  0.00     0.078 C 
ENDROOT
BRANCH   1   8
ATOM      8  C1  UNL d   1       0.261   0.378  -1.160  0.00  0.00     0.053 C 
ATOM      9  C   UNL d   1       0.217  -1.015  -1.769  0.00  0.00     0.018 C 
ENDBRANCH   1   8
TORSDOF 1
ENDMDL
