MODEL 1
REMARK minimizedAffinity -3.01565242
REMARK minimizedRMSD -1
REMARK  1 active torsions:
REMARK  status: ('A' for Active; 'I' for Inactive)
REMARK    1  A    between atoms: C1_2  and  C2_3 
ROOT
ATOM      1  C2  UNL d   1       0.379  -0.366  -0.482  0.00  0.00    -0.076 A 
ATOM      2  C3  UNL d   1       1.405  -1.327  -0.499  0.00  0.00     0.004 A 
ATOM      3  C4  UNL d   1       1.895  -1.831  -1.703  0.00  0.00    -0.003 A 
ATOM      4  C5  UNL d   1       1.368  -1.381  -2.908  0.00  0.00     0.000 A 
ATOM      5  C6  UNL d   1       0.363  -0.415  -2.910  0.00  0.00     0.000 A 
ATOM      6  C7  UNL d   1      -0.131   0.115  -1.706  0.00  0.00    -0.073 A 
ATOM      7  C8  UNL d   1      -1.221   1.151  -1.767  0.00  0.00     0.078 C 
ENDROOT
BRANCH   1   8
ATOM      8  C1  UNL d   1      -0.131   0.124   0.855  0.00  0.00     0.053 C 
ATOM      9  C   UNL d   1       0.988   0.343   1.861  0.00  0.00     0.018 C 
ENDBRANCH   1   8
TORSDOF 1
ENDMDL
