MODEL 1
REMARK minimizedAffinity -4.87979174
REMARK minimizedRMSD -1
REMARK  1 active torsions:
REMARK  status: ('A' for Active; 'I' for Inactive)
REMARK    1  A    between atoms: C1_2  and  C2_3 
ROOT
ATOM      1  C2  UNL d   1       0.563  -0.980  -1.157  0.00  0.00    -0.076 A 
ATOM      2  C3  UNL d   1       1.262  -1.748  -0.210  0.00  0.00     0.004 A 
ATOM      3  C4  UNL d   1       1.449  -1.286   1.091  0.00  0.00    -0.003 A 
ATOM      4  C5  UNL d   1       0.940  -0.048   1.468  0.00  0.00     0.000 A 
ATOM      5  C6  UNL d   1       0.229   0.720   0.546  0.00  0.00     0.000 A 
ATOM      6  C7  UNL d   1       0.017   0.261  -0.765  0.00  0.00    -0.073 A 
ATOM      7  C8  UNL d   1      -0.753   1.133  -1.719  0.00  0.00     0.078 C 
ENDROOT
BRANCH   1   8
ATOM      8  C1  UNL d   1       0.414  -1.520  -2.561  0.00  0.00     0.053 C 
ATOM      9  C   UNL d   1       1.641  -1.257  -3.420  0.00  0.00     0.018 C 
ENDBRANCH   1   8
TORSDOF 1
ENDMDL
