MODEL 1
REMARK minimizedAffinity -1.22373593
REMARK minimizedRMSD -1
REMARK  1 active torsions:
REMARK  status: ('A' for Active; 'I' for Inactive)
REMARK    1  A    between atoms: C1_2  and  C2_3 
ROOT
ATOM      1  C2  UNL d   1       0.838  -0.972  -0.739  0.00  0.00    -0.076 A 
ATOM      2  C3  UNL d   1       1.238  -1.584   0.462  0.00  0.00     0.004 A 
ATOM      3  C4  UNL d   1       1.396  -0.839   1.629  0.00  0.00    -0.003 A 
ATOM      4  C5  UNL d   1       1.156   0.531   1.615  0.00  0.00     0.000 A 
ATOM      5  C6  UNL d   1       0.742   1.152   0.437  0.00  0.00     0.000 A 
ATOM      6  C7  UNL d   1       0.562   0.412  -0.745  0.00  0.00    -0.073 A 
ATOM      7  C8  UNL d   1       0.120   1.134  -1.988  0.00  0.00     0.078 C 
ENDROOT
BRANCH   1   8
ATOM      8  C1  UNL d   1       0.710  -1.826  -1.980  0.00  0.00     0.053 C 
ATOM      9  C   UNL d   1       1.983  -1.839  -2.813  0.00  0.00     0.018 C 
ENDBRANCH   1   8
TORSDOF 1
ENDMDL
