MODEL 1
REMARK minimizedAffinity 7.80076647
REMARK minimizedRMSD -1
REMARK  0 active torsions:
REMARK  status: ('A' for Active; 'I' for Inactive)
ROOT
ATOM      1  C   UNL d   1       5.350   5.872  -3.089  0.00  0.00     0.020 A 
ATOM      2  C1  UNL d   1       5.557   4.789  -3.944  0.00  0.00     0.020 A 
ATOM      3  C2  UNL d   1       4.553   3.834  -4.116  0.00  0.00     0.034 A 
ATOM      4  C3  UNL d   1       3.337   3.959  -3.433  0.00  0.00     0.017 A 
ATOM      5  C4  UNL d   1       3.131   5.046  -2.576  0.00  0.00     0.017 A 
ATOM      6  C5  UNL d   1       4.140   6.000  -2.407  0.00  0.00     0.034 A 
ATOM      7 Cl   UNL d   1       1.658   5.269  -1.699  0.00  0.00    -0.070 Cl
ATOM      8 Cl1  UNL d   1       2.140   2.741  -3.694  0.00  0.00    -0.070 Cl
ENDROOT
TORSDOF 0
ENDMDL
