MODEL 1
REMARK minimizedAffinity -3.10283899
REMARK minimizedRMSD -1
REMARK  0 active torsions:
REMARK  status: ('A' for Active; 'I' for Inactive)
ROOT
ATOM      1  C   UNL d   1      -1.033   5.996  -3.521  0.00  0.00     0.020 A 
ATOM      2  C1  UNL d   1      -1.620   5.997  -2.257  0.00  0.00     0.020 A 
ATOM      3  C2  UNL d   1      -3.011   5.955  -2.133  0.00  0.00     0.034 A 
ATOM      4  C3  UNL d   1      -3.818   5.913  -3.275  0.00  0.00     0.017 A 
ATOM      5  C4  UNL d   1      -3.228   5.912  -4.544  0.00  0.00     0.017 A 
ATOM      6  C5  UNL d   1      -1.835   5.954  -4.662  0.00  0.00     0.034 A 
ATOM      7 Cl   UNL d   1      -4.158   5.861  -6.000  0.00  0.00    -0.070 Cl
ATOM      8 Cl1  UNL d   1      -5.530   5.862  -3.047  0.00  0.00    -0.070 Cl
ENDROOT
TORSDOF 0
ENDMDL
