MODEL 1
REMARK minimizedAffinity 5.4807725
REMARK minimizedRMSD -1
REMARK  0 active torsions:
REMARK  status: ('A' for Active; 'I' for Inactive)
ROOT
ATOM      1  C   UNL d   1      -1.428  -0.144   3.243  0.00  0.00     0.020 A 
ATOM      2  C1  UNL d   1      -2.670  -0.509   2.725  0.00  0.00     0.020 A 
ATOM      3  C2  UNL d   1      -2.764  -1.555   1.806  0.00  0.00     0.034 A 
ATOM      4  C3  UNL d   1      -1.613  -2.241   1.400  0.00  0.00     0.017 A 
ATOM      5  C4  UNL d   1      -0.366  -1.874   1.920  0.00  0.00     0.017 A 
ATOM      6  C5  UNL d   1      -0.278  -0.825   2.841  0.00  0.00     0.034 A 
ATOM      7 Cl   UNL d   1       1.098  -2.673   1.468  0.00  0.00    -0.070 Cl
ATOM      8 Cl1  UNL d   1      -1.802  -3.525   0.260  0.00  0.00    -0.070 Cl
ENDROOT
TORSDOF 0
ENDMDL
