MODEL 1
REMARK minimizedAffinity 8.85714149
REMARK minimizedRMSD -1
REMARK  0 active torsions:
REMARK  status: ('A' for Active; 'I' for Inactive)
ROOT
ATOM      1  C   UNL d   1      -5.849   1.235   0.026  0.00  0.00     0.020 A 
ATOM      2  C1  UNL d   1      -5.894   0.979  -1.343  0.00  0.00     0.020 A 
ATOM      3  C2  UNL d   1      -4.834   0.316  -1.965  0.00  0.00     0.034 A 
ATOM      4  C3  UNL d   1      -3.724  -0.093  -1.217  0.00  0.00     0.017 A 
ATOM      5  C4  UNL d   1      -3.680   0.164   0.158  0.00  0.00     0.017 A 
ATOM      6  C5  UNL d   1      -4.744   0.828   0.775  0.00  0.00     0.034 A 
ATOM      7 Cl   UNL d   1      -2.344  -0.311   1.147  0.00  0.00    -0.070 Cl
ATOM      8 Cl1  UNL d   1      -2.450  -0.909  -2.052  0.00  0.00    -0.070 Cl
ENDROOT
TORSDOF 0
ENDMDL
