MODEL 1
REMARK minimizedAffinity 11.9190006
REMARK minimizedRMSD -1
REMARK  0 active torsions:
REMARK  status: ('A' for Active; 'I' for Inactive)
ROOT
ATOM      1  C   UNL d   1      -3.265  -5.185  -5.495  0.00  0.00     0.020 A 
ATOM      2  C1  UNL d   1      -2.252  -6.000  -6.000  0.00  0.00     0.020 A 
ATOM      3  C2  UNL d   1      -0.937  -5.832  -5.563  0.00  0.00     0.034 A 
ATOM      4  C3  UNL d   1      -0.630  -4.846  -4.617  0.00  0.00     0.017 A 
ATOM      5  C4  UNL d   1      -1.647  -4.028  -4.111  0.00  0.00     0.017 A 
ATOM      6  C5  UNL d   1      -2.962  -4.201  -4.552  0.00  0.00     0.034 A 
ATOM      7 Cl   UNL d   1      -1.346  -2.791  -2.942  0.00  0.00    -0.070 Cl
ATOM      8 Cl1  UNL d   1       1.018  -4.694  -4.121  0.00  0.00    -0.070 Cl
ENDROOT
TORSDOF 0
ENDMDL
