MODEL 1
REMARK minimizedAffinity 11.5623999
REMARK minimizedRMSD -1
REMARK  0 active torsions:
REMARK  status: ('A' for Active; 'I' for Inactive)
ROOT
ATOM      1  C   UNL d   1      -0.516  -1.725   2.301  0.00  0.00     0.020 A 
ATOM      2  C1  UNL d   1      -1.215  -2.324   1.254  0.00  0.00     0.020 A 
ATOM      3  C2  UNL d   1      -2.317  -1.676   0.690  0.00  0.00     0.034 A 
ATOM      4  C3  UNL d   1      -2.722  -0.427   1.173  0.00  0.00     0.017 A 
ATOM      5  C4  UNL d   1      -2.020   0.173   2.225  0.00  0.00     0.017 A 
ATOM      6  C5  UNL d   1      -0.918  -0.480   2.786  0.00  0.00     0.034 A 
ATOM      7 Cl   UNL d   1      -2.460   1.713   2.874  0.00  0.00    -0.070 Cl
ATOM      8 Cl1  UNL d   1      -4.093   0.317   0.428  0.00  0.00    -0.070 Cl
ENDROOT
TORSDOF 0
ENDMDL
