MODEL 1
REMARK minimizedAffinity 9.68142509
REMARK minimizedRMSD -1
REMARK  0 active torsions:
REMARK  status: ('A' for Active; 'I' for Inactive)
ROOT
ATOM      1  C   UNL d   1      -2.741   5.104  -5.997  0.00  0.00     0.020 A 
ATOM      2  C1  UNL d   1      -3.341   5.842  -4.978  0.00  0.00     0.020 A 
ATOM      3  C2  UNL d   1      -2.689   5.999  -3.753  0.00  0.00     0.034 A 
ATOM      4  C3  UNL d   1      -1.433   5.418  -3.544  0.00  0.00     0.017 A 
ATOM      5  C4  UNL d   1      -0.831   4.677  -4.568  0.00  0.00     0.017 A 
ATOM      6  C5  UNL d   1      -1.489   4.523  -5.793  0.00  0.00     0.034 A 
ATOM      7 Cl   UNL d   1       0.717   3.930  -4.386  0.00  0.00    -0.070 Cl
ATOM      8 Cl1  UNL d   1      -0.684   5.654  -2.005  0.00  0.00    -0.070 Cl
ENDROOT
TORSDOF 0
ENDMDL
