MODEL 1
REMARK minimizedAffinity 10.5216436
REMARK minimizedRMSD -1
REMARK  0 active torsions:
REMARK  status: ('A' for Active; 'I' for Inactive)
ROOT
ATOM      1  C   UNL d   1       6.000   3.758   0.974  0.00  0.00     0.020 A 
ATOM      2  C1  UNL d   1       5.359   3.741   2.213  0.00  0.00     0.020 A 
ATOM      3  C2  UNL d   1       4.338   2.821   2.458  0.00  0.00     0.034 A 
ATOM      4  C3  UNL d   1       3.954   1.914   1.464  0.00  0.00     0.017 A 
ATOM      5  C4  UNL d   1       4.597   1.931   0.221  0.00  0.00     0.017 A 
ATOM      6  C5  UNL d   1       5.620   2.855  -0.019  0.00  0.00     0.034 A 
ATOM      7 Cl   UNL d   1       4.179   0.843  -1.055  0.00  0.00    -0.070 Cl
ATOM      8 Cl1  UNL d   1       2.683   0.803   1.836  0.00  0.00    -0.070 Cl
ENDROOT
TORSDOF 0
ENDMDL
