MODEL 1
REMARK minimizedAffinity 8.26465416
REMARK minimizedRMSD -1
REMARK  0 active torsions:
REMARK  status: ('A' for Active; 'I' for Inactive)
ROOT
ATOM      1  C   UNL d   1      -0.599  -1.234   1.913  0.00  0.00     0.020 A 
ATOM      2  C1  UNL d   1      -1.278  -1.690   0.784  0.00  0.00     0.020 A 
ATOM      3  C2  UNL d   1      -2.516  -1.140   0.445  0.00  0.00     0.034 A 
ATOM      4  C3  UNL d   1      -3.079  -0.132   1.236  0.00  0.00     0.017 A 
ATOM      5  C4  UNL d   1      -2.397   0.325   2.369  0.00  0.00     0.017 A 
ATOM      6  C5  UNL d   1      -1.157  -0.229   2.704  0.00  0.00     0.034 A 
ATOM      7 Cl   UNL d   1      -3.027   1.566   3.394  0.00  0.00    -0.070 Cl
ATOM      8 Cl1  UNL d   1      -4.613   0.502   0.757  0.00  0.00    -0.070 Cl
ENDROOT
TORSDOF 0
ENDMDL
