MODEL 1
REMARK minimizedAffinity 12.1040096
REMARK minimizedRMSD -1
REMARK  0 active torsions:
REMARK  status: ('A' for Active; 'I' for Inactive)
ROOT
ATOM      1  C   UNL d   1       5.683   3.570  -4.948  0.00  0.00     0.020 A 
ATOM      2  C1  UNL d   1       4.386   3.096  -5.139  0.00  0.00     0.020 A 
ATOM      3  C2  UNL d   1       3.358   3.517  -4.293  0.00  0.00     0.034 A 
ATOM      4  C3  UNL d   1       3.625   4.414  -3.252  0.00  0.00     0.017 A 
ATOM      5  C4  UNL d   1       4.927   4.888  -3.062  0.00  0.00     0.017 A 
ATOM      6  C5  UNL d   1       5.953   4.464  -3.912  0.00  0.00     0.034 A 
ATOM      7 Cl   UNL d   1       5.334   5.997  -1.800  0.00  0.00    -0.070 Cl
ATOM      8 Cl1  UNL d   1       2.305   4.891  -2.245  0.00  0.00    -0.070 Cl
ENDROOT
TORSDOF 0
ENDMDL
