MODEL 1
REMARK minimizedAffinity 8.27894974
REMARK minimizedRMSD -1
REMARK  0 active torsions:
REMARK  status: ('A' for Active; 'I' for Inactive)
ROOT
ATOM      1  C   UNL d   1      -2.309   5.825  -5.737  0.00  0.00     0.020 A 
ATOM      2  C1  UNL d   1      -3.672   5.974  -5.995  0.00  0.00     0.020 A 
ATOM      3  C2  UNL d   1      -4.583   5.998  -4.937  0.00  0.00     0.034 A 
ATOM      4  C3  UNL d   1      -4.135   5.871  -3.618  0.00  0.00     0.017 A 
ATOM      5  C4  UNL d   1      -2.767   5.721  -3.360  0.00  0.00     0.017 A 
ATOM      6  C5  UNL d   1      -1.858   5.698  -4.423  0.00  0.00     0.034 A 
ATOM      7 Cl   UNL d   1      -2.138   5.560  -1.759  0.00  0.00    -0.070 Cl
ATOM      8 Cl1  UNL d   1      -5.318   5.909  -2.359  0.00  0.00    -0.070 Cl
ENDROOT
TORSDOF 0
ENDMDL
