MODEL 1
REMARK minimizedAffinity 10.7752714
REMARK minimizedRMSD -1
REMARK  0 active torsions:
REMARK  status: ('A' for Active; 'I' for Inactive)
ROOT
ATOM      1  C   UNL d   1      -1.738  -0.401   2.354  0.00  0.00     0.020 A 
ATOM      2  C1  UNL d   1      -2.275  -0.886   1.162  0.00  0.00     0.020 A 
ATOM      3  C2  UNL d   1      -3.370  -0.246   0.578  0.00  0.00     0.034 A 
ATOM      4  C3  UNL d   1      -3.932   0.883   1.186  0.00  0.00     0.017 A 
ATOM      5  C4  UNL d   1      -3.392   1.369   2.382  0.00  0.00     0.017 A 
ATOM      6  C5  UNL d   1      -2.295   0.724   2.962  0.00  0.00     0.034 A 
ATOM      7 Cl   UNL d   1      -4.030   2.757   3.191  0.00  0.00    -0.070 Cl
ATOM      8 Cl1  UNL d   1      -5.285   1.625   0.409  0.00  0.00    -0.070 Cl
ENDROOT
TORSDOF 0
ENDMDL
