MODEL 1
REMARK minimizedAffinity 3.29308701
REMARK minimizedRMSD -1
REMARK  0 active torsions:
REMARK  status: ('A' for Active; 'I' for Inactive)
ROOT
ATOM      1  C   UNL d   1      -1.849   6.000  -5.872  0.00  0.00     0.020 A 
ATOM      2  C1  UNL d   1      -3.241   5.998  -5.965  0.00  0.00     0.020 A 
ATOM      3  C2  UNL d   1      -4.018   5.997  -4.805  0.00  0.00     0.034 A 
ATOM      4  C3  UNL d   1      -3.404   5.997  -3.547  0.00  0.00     0.017 A 
ATOM      5  C4  UNL d   1      -2.008   5.998  -3.455  0.00  0.00     0.017 A 
ATOM      6  C5  UNL d   1      -1.234   6.000  -4.620  0.00  0.00     0.034 A 
ATOM      7 Cl   UNL d   1      -1.179   5.999  -1.938  0.00  0.00    -0.070 Cl
ATOM      8 Cl1  UNL d   1      -4.427   5.995  -2.154  0.00  0.00    -0.070 Cl
ENDROOT
TORSDOF 0
ENDMDL
