MODEL 1
REMARK minimizedAffinity 2.87770462
REMARK minimizedRMSD -1
REMARK  0 active torsions:
REMARK  status: ('A' for Active; 'I' for Inactive)
ROOT
ATOM      1  C   UNL d   1      -2.418  -0.143   0.062  0.00  0.00     0.020 A 
ATOM      2  C1  UNL d   1      -3.285   0.643   0.821  0.00  0.00     0.020 A 
ATOM      3  C2  UNL d   1      -3.245   0.580   2.216  0.00  0.00     0.034 A 
ATOM      4  C3  UNL d   1      -2.336  -0.271   2.856  0.00  0.00     0.017 A 
ATOM      5  C4  UNL d   1      -1.466  -1.059   2.093  0.00  0.00     0.017 A 
ATOM      6  C5  UNL d   1      -1.511  -0.992   0.697  0.00  0.00     0.034 A 
ATOM      7 Cl   UNL d   1      -0.317  -2.132   2.811  0.00  0.00    -0.070 Cl
ATOM      8 Cl1  UNL d   1      -2.341  -0.298   4.583  0.00  0.00    -0.070 Cl
ENDROOT
TORSDOF 0
ENDMDL
