MODEL 1
REMARK minimizedAffinity 9.40863037
REMARK minimizedRMSD -1
REMARK  0 active torsions:
REMARK  status: ('A' for Active; 'I' for Inactive)
ROOT
ATOM      1  C   UNL d   1       4.868   5.852  -2.344  0.00  0.00     0.020 A 
ATOM      2  C1  UNL d   1       5.771   5.845  -3.407  0.00  0.00     0.020 A 
ATOM      3  C2  UNL d   1       5.661   4.879  -4.410  0.00  0.00     0.034 A 
ATOM      4  C3  UNL d   1       4.647   3.916  -4.351  0.00  0.00     0.017 A 
ATOM      5  C4  UNL d   1       3.741   3.925  -3.284  0.00  0.00     0.017 A 
ATOM      6  C5  UNL d   1       3.855   4.894  -2.283  0.00  0.00     0.034 A 
ATOM      7 Cl   UNL d   1       2.463   2.769  -3.144  0.00  0.00    -0.070 Cl
ATOM      8 Cl1  UNL d   1       4.570   2.752  -5.626  0.00  0.00    -0.070 Cl
ENDROOT
TORSDOF 0
ENDMDL
