MODEL 1
REMARK minimizedAffinity 12.1132126
REMARK minimizedRMSD -1
REMARK  0 active torsions:
REMARK  status: ('A' for Active; 'I' for Inactive)
ROOT
ATOM      1  C   UNL d   1       2.561   3.018  -3.626  0.00  0.00     0.020 A 
ATOM      2  C1  UNL d   1       3.168   2.908  -4.876  0.00  0.00     0.020 A 
ATOM      3  C2  UNL d   1       4.228   3.752  -5.214  0.00  0.00     0.034 A 
ATOM      4  C3  UNL d   1       4.684   4.710  -4.301  0.00  0.00     0.017 A 
ATOM      5  C4  UNL d   1       4.074   4.820  -3.046  0.00  0.00     0.017 A 
ATOM      6  C5  UNL d   1       3.013   3.972  -2.713  0.00  0.00     0.034 A 
ATOM      7 Cl   UNL d   1       4.581   5.977  -1.867  0.00  0.00    -0.070 Cl
ATOM      8 Cl1  UNL d   1       6.000   5.720  -4.785  0.00  0.00    -0.070 Cl
ENDROOT
TORSDOF 0
ENDMDL
