MODEL 1
REMARK minimizedAffinity 6.48831272
REMARK minimizedRMSD -1
REMARK  0 active torsions:
REMARK  status: ('A' for Active; 'I' for Inactive)
ROOT
ATOM      1  C   UNL d   1       6.000   3.426   0.331  0.00  0.00     0.020 A 
ATOM      2  C1  UNL d   1       5.427   3.737   1.563  0.00  0.00     0.020 A 
ATOM      3  C2  UNL d   1       4.081   3.450   1.800  0.00  0.00     0.034 A 
ATOM      4  C3  UNL d   1       3.303   2.851   0.803  0.00  0.00     0.017 A 
ATOM      5  C4  UNL d   1       3.879   2.540  -0.435  0.00  0.00     0.017 A 
ATOM      6  C5  UNL d   1       5.227   2.829  -0.666  0.00  0.00     0.034 A 
ATOM      7 Cl   UNL d   1       2.983   1.800  -1.714  0.00  0.00    -0.070 Cl
ATOM      8 Cl1  UNL d   1       1.646   2.524   1.164  0.00  0.00    -0.070 Cl
ENDROOT
TORSDOF 0
ENDMDL
