MODEL 1
REMARK minimizedAffinity 7.33331156
REMARK minimizedRMSD -1
REMARK  0 active torsions:
REMARK  status: ('A' for Active; 'I' for Inactive)
ROOT
ATOM      1  C   UNL d   1      -1.786  -1.922   1.578  0.00  0.00     0.020 A 
ATOM      2  C1  UNL d   1      -1.040  -1.381   2.624  0.00  0.00     0.020 A 
ATOM      3  C2  UNL d   1      -1.493  -0.237   3.287  0.00  0.00     0.034 A 
ATOM      4  C3  UNL d   1      -2.695   0.368   2.903  0.00  0.00     0.017 A 
ATOM      5  C4  UNL d   1      -3.443  -0.176   1.853  0.00  0.00     0.017 A 
ATOM      6  C5  UNL d   1      -2.985  -1.321   1.194  0.00  0.00     0.034 A 
ATOM      7 Cl   UNL d   1      -4.936   0.516   1.324  0.00  0.00    -0.070 Cl
ATOM      8 Cl1  UNL d   1      -3.194   1.779   3.766  0.00  0.00    -0.070 Cl
ENDROOT
TORSDOF 0
ENDMDL
