MODEL 1
REMARK minimizedAffinity 4.99150705
REMARK minimizedRMSD -1
REMARK  0 active torsions:
REMARK  status: ('A' for Active; 'I' for Inactive)
ROOT
ATOM      1  C   UNL d   1       1.877   1.859   0.085  0.00  0.00     0.020 A 
ATOM      2  C1  UNL d   1       2.984   1.210  -0.461  0.00  0.00     0.020 A 
ATOM      3  C2  UNL d   1       3.525   1.650  -1.671  0.00  0.00     0.034 A 
ATOM      4  C3  UNL d   1       2.959   2.742  -2.339  0.00  0.00     0.017 A 
ATOM      5  C4  UNL d   1       1.848   3.393  -1.790  0.00  0.00     0.017 A 
ATOM      6  C5  UNL d   1       1.310   2.948  -0.579  0.00  0.00     0.034 A 
ATOM      7 Cl   UNL d   1       1.095   4.747  -2.556  0.00  0.00    -0.070 Cl
ATOM      8 Cl1  UNL d   1       3.680   3.233  -3.831  0.00  0.00    -0.070 Cl
ENDROOT
TORSDOF 0
ENDMDL
