MODEL 1
REMARK minimizedAffinity -1.27104259
REMARK minimizedRMSD -1
REMARK  0 active torsions:
REMARK  status: ('A' for Active; 'I' for Inactive)
ROOT
ATOM      1  C1  BNZ d   1      -1.806  -4.953  -3.620  0.00  0.00     0.000 A 
ATOM      2  C2  BNZ d   1      -0.468  -4.967  -3.913  0.00  0.00     0.000 A 
ATOM      3  C3  BNZ d   1      -0.018  -5.472  -5.101  0.00  0.00     0.000 A 
ATOM      4  C4  BNZ d   1      -0.899  -5.998  -5.975  0.00  0.00     0.000 A 
ATOM      5  C5  BNZ d   1      -2.250  -6.000  -5.690  0.00  0.00     0.000 A 
ATOM      6  C6  BNZ d   1      -2.704  -5.455  -4.510  0.00  0.00     0.000 A 
ENDROOT
TORSDOF 0
ENDMDL
