MODEL 1
REMARK minimizedAffinity -1.32230687
REMARK minimizedRMSD -1
REMARK  0 active torsions:
REMARK  status: ('A' for Active; 'I' for Inactive)
ROOT
ATOM      1  C1  BNZ d   1       0.092  -5.250  -4.106  0.00  0.00     0.000 A 
ATOM      2  C2  BNZ d   1       0.008  -5.827  -5.346  0.00  0.00     0.000 A 
ATOM      3  C3  BNZ d   1      -1.203  -5.999  -5.956  0.00  0.00     0.000 A 
ATOM      4  C4  BNZ d   1      -2.329  -5.632  -5.310  0.00  0.00     0.000 A 
ATOM      5  C5  BNZ d   1      -2.261  -5.058  -4.057  0.00  0.00     0.000 A 
ATOM      6  C6  BNZ d   1      -1.037  -4.851  -3.462  0.00  0.00     0.000 A 
ENDROOT
TORSDOF 0
ENDMDL
