MODEL 1
REMARK minimizedAffinity 5.03988647
REMARK minimizedRMSD -1
REMARK  0 active torsions:
REMARK  status: ('A' for Active; 'I' for Inactive)
ROOT
ATOM      1  C1  BNZ d   1      -2.137  -4.610  -3.750  0.00  0.00     0.000 A 
ATOM      2  C2  BNZ d   1      -3.080  -5.288  -4.475  0.00  0.00     0.000 A 
ATOM      3  C3  BNZ d   1      -2.729  -6.000  -5.588  0.00  0.00     0.000 A 
ATOM      4  C4  BNZ d   1      -1.443  -6.000  -5.997  0.00  0.00     0.000 A 
ATOM      5  C5  BNZ d   1      -0.483  -5.314  -5.281  0.00  0.00     0.000 A 
ATOM      6  C6  BNZ d   1      -0.834  -4.630  -4.140  0.00  0.00     0.000 A 
ENDROOT
TORSDOF 0
ENDMDL
