MODEL 1
REMARK minimizedAffinity 10.2218008
REMARK minimizedRMSD -1
REMARK  0 active torsions:
REMARK  status: ('A' for Active; 'I' for Inactive)
ROOT
ATOM      1  C1  BNZ d   1      -3.069   0.112   0.412  0.00  0.00     0.000 A 
ATOM      2  C2  BNZ d   1      -4.089   0.264  -0.490  0.00  0.00     0.000 A 
ATOM      3  C3  BNZ d   1      -4.119  -0.471  -1.643  0.00  0.00     0.000 A 
ATOM      4  C4  BNZ d   1      -3.110  -1.325  -1.911  0.00  0.00     0.000 A 
ATOM      5  C5  BNZ d   1      -2.071  -1.483  -1.016  0.00  0.00     0.000 A 
ATOM      6  C6  BNZ d   1      -2.064  -0.770   0.162  0.00  0.00     0.000 A 
ENDROOT
TORSDOF 0
ENDMDL
