MODEL 1
REMARK minimizedAffinity 5.61907768
REMARK minimizedRMSD -1
REMARK  0 active torsions:
REMARK  status: ('A' for Active; 'I' for Inactive)
ROOT
ATOM      1  C1  BNZ d   1       2.249   4.549  -2.527  0.00  0.00     0.000 A 
ATOM      2  C2  BNZ d   1       1.694   5.648  -1.927  0.00  0.00     0.000 A 
ATOM      3  C3  BNZ d   1       0.397   6.000  -2.173  0.00  0.00     0.000 A 
ATOM      4  C4  BNZ d   1      -0.332   5.278  -3.048  0.00  0.00     0.000 A 
ATOM      5  C5  BNZ d   1       0.216   4.173  -3.669  0.00  0.00     0.000 A 
ATOM      6  C6  BNZ d   1       1.510   3.798  -3.389  0.00  0.00     0.000 A 
ENDROOT
TORSDOF 0
ENDMDL
