MODEL 1
REMARK minimizedAffinity 4.55114794
REMARK minimizedRMSD -1
REMARK  0 active torsions:
REMARK  status: ('A' for Active; 'I' for Inactive)
ROOT
ATOM      1  C1  BNZ d   1       4.926   1.455   0.070  0.00  0.00     0.000 A 
ATOM      2  C2  BNZ d   1       6.000   2.304   0.028  0.00  0.00     0.000 A 
ATOM      3  C3  BNZ d   1       6.000   3.468   0.745  0.00  0.00     0.000 A 
ATOM      4  C4  BNZ d   1       4.912   3.800   1.471  0.00  0.00     0.000 A 
ATOM      5  C5  BNZ d   1       3.818   2.958   1.516  0.00  0.00     0.000 A 
ATOM      6  C6  BNZ d   1       3.838   1.769   0.823  0.00  0.00     0.000 A 
ENDROOT
TORSDOF 0
ENDMDL
