MODEL 1
REMARK minimizedAffinity 9.05525589
REMARK minimizedRMSD -1
REMARK  0 active torsions:
REMARK  status: ('A' for Active; 'I' for Inactive)
ROOT
ATOM      1  C1  BNZ d   1       4.134   3.191   1.848  0.00  0.00     0.000 A 
ATOM      2  C2  BNZ d   1       5.261   3.968   1.805  0.00  0.00     0.000 A 
ATOM      3  C3  BNZ d   1       5.998   4.069   0.658  0.00  0.00     0.000 A 
ATOM      4  C4  BNZ d   1       5.630   3.364  -0.431  0.00  0.00     0.000 A 
ATOM      5  C5  BNZ d   1       4.502   2.569  -0.401  0.00  0.00     0.000 A 
ATOM      6  C6  BNZ d   1       3.741   2.499   0.744  0.00  0.00     0.000 A 
ENDROOT
TORSDOF 0
ENDMDL
