MODEL 1
REMARK minimizedAffinity 8.97073555
REMARK minimizedRMSD -1
REMARK  0 active torsions:
REMARK  status: ('A' for Active; 'I' for Inactive)
ROOT
ATOM      1  C1  BNZ d   1      -2.471   0.971   3.008  0.00  0.00     0.000 A 
ATOM      2  C2  BNZ d   1      -1.410   0.120   3.164  0.00  0.00     0.000 A 
ATOM      3  C3  BNZ d   1      -1.240  -0.947   2.326  0.00  0.00     0.000 A 
ATOM      4  C4  BNZ d   1      -2.152  -1.185   1.362  0.00  0.00     0.000 A 
ATOM      5  C5  BNZ d   1      -3.232  -0.341   1.198  0.00  0.00     0.000 A 
ATOM      6  C6  BNZ d   1      -3.379   0.754   2.018  0.00  0.00     0.000 A 
ENDROOT
TORSDOF 0
ENDMDL
