MODEL 1
REMARK minimizedAffinity 12.6392078
REMARK minimizedRMSD -1
REMARK  0 active torsions:
REMARK  status: ('A' for Active; 'I' for Inactive)
ROOT
ATOM      1  C1  BNZ d   1       2.878   3.992  -2.626  0.00  0.00     0.000 A 
ATOM      2  C2  BNZ d   1       2.184   5.030  -2.065  0.00  0.00     0.000 A 
ATOM      3  C3  BNZ d   1       0.831   5.139  -2.231  0.00  0.00     0.000 A 
ATOM      4  C4  BNZ d   1       0.182   4.234  -2.990  0.00  0.00     0.000 A 
ATOM      5  C5  BNZ d   1       0.869   3.186  -3.571  0.00  0.00     0.000 A 
ATOM      6  C6  BNZ d   1       2.224   3.058  -3.369  0.00  0.00     0.000 A 
ENDROOT
TORSDOF 0
ENDMDL
