MODEL 1
REMARK minimizedAffinity 1.28878546
REMARK minimizedRMSD -1
REMARK  0 active torsions:
REMARK  status: ('A' for Active; 'I' for Inactive)
ROOT
ATOM      1  C1  BNZ d   1       5.486   2.440  -0.321  0.00  0.00     0.000 A 
ATOM      2  C2  BNZ d   1       4.300   1.754  -0.308  0.00  0.00     0.000 A 
ATOM      3  C3  BNZ d   1       3.351   2.015   0.641  0.00  0.00     0.000 A 
ATOM      4  C4  BNZ d   1       3.604   2.931   1.597  0.00  0.00     0.000 A 
ATOM      5  C5  BNZ d   1       4.799   3.624   1.604  0.00  0.00     0.000 A 
ATOM      6  C6  BNZ d   1       5.736   3.386   0.624  0.00  0.00     0.000 A 
ENDROOT
TORSDOF 0
ENDMDL
