MODEL 1
REMARK minimizedAffinity 3.98834872
REMARK minimizedRMSD -1
REMARK  0 active torsions:
REMARK  status: ('A' for Active; 'I' for Inactive)
ROOT
ATOM      1  C1  BNZ d   1       1.540   5.322  -2.132  0.00  0.00     0.000 A 
ATOM      2  C2  BNZ d   1       0.880   4.171  -2.470  0.00  0.00     0.000 A 
ATOM      3  C3  BNZ d   1       1.571   3.038  -2.796  0.00  0.00     0.000 A 
ATOM      4  C4  BNZ d   1       2.919   3.068  -2.823  0.00  0.00     0.000 A 
ATOM      5  C5  BNZ d   1       3.599   4.224  -2.494  0.00  0.00     0.000 A 
ATOM      6  C6  BNZ d   1       2.901   5.351  -2.129  0.00  0.00     0.000 A 
ENDROOT
TORSDOF 0
ENDMDL
