MODEL 1
REMARK minimizedAffinity -2.24771667
REMARK minimizedRMSD -1
REMARK  0 active torsions:
REMARK  status: ('A' for Active; 'I' for Inactive)
ROOT
ATOM      1  C1  BNZ d   1      -2.017  -0.906   2.371  0.00  0.00     0.000 A 
ATOM      2  C2  BNZ d   1      -3.043  -1.232   1.524  0.00  0.00     0.000 A 
ATOM      3  C3  BNZ d   1      -4.071  -0.359   1.303  0.00  0.00     0.000 A 
ATOM      4  C4  BNZ d   1      -4.093   0.820   1.957  0.00  0.00     0.000 A 
ATOM      5  C5  BNZ d   1      -3.071   1.159   2.821  0.00  0.00     0.000 A 
ATOM      6  C6  BNZ d   1      -2.018   0.294   3.012  0.00  0.00     0.000 A 
ENDROOT
TORSDOF 0
ENDMDL
