MODEL 1
REMARK minimizedAffinity 9.98874664
REMARK minimizedRMSD -1
REMARK  0 active torsions:
REMARK  status: ('A' for Active; 'I' for Inactive)
ROOT
ATOM      1  C1  BNZ d   1       4.918   4.435  -2.907  0.00  0.00     0.000 A 
ATOM      2  C2  BNZ d   1       3.739   4.080  -2.308  0.00  0.00     0.000 A 
ATOM      3  C3  BNZ d   1       2.821   3.312  -2.969  0.00  0.00     0.000 A 
ATOM      4  C4  BNZ d   1       3.066   2.934  -4.240  0.00  0.00     0.000 A 
ATOM      5  C5  BNZ d   1       4.246   3.291  -4.861  0.00  0.00     0.000 A 
ATOM      6  C6  BNZ d   1       5.184   4.032  -4.179  0.00  0.00     0.000 A 
ENDROOT
TORSDOF 0
ENDMDL
