MODEL 1
REMARK minimizedAffinity 4.48674726
REMARK minimizedRMSD -1
REMARK  0 active torsions:
REMARK  status: ('A' for Active; 'I' for Inactive)
ROOT
ATOM      1  C1  BNZ d   1       3.729   4.039  -3.201  0.00  0.00     0.000 A 
ATOM      2  C2  BNZ d   1       2.360   4.051  -3.172  0.00  0.00     0.000 A 
ATOM      3  C3  BNZ d   1       1.682   5.044  -2.521  0.00  0.00     0.000 A 
ATOM      4  C4  BNZ d   1       2.373   6.000  -1.868  0.00  0.00     0.000 A 
ATOM      5  C5  BNZ d   1       3.754   5.997  -1.880  0.00  0.00     0.000 A 
ATOM      6  C6  BNZ d   1       4.432   5.018  -2.568  0.00  0.00     0.000 A 
ENDROOT
TORSDOF 0
ENDMDL
