MODEL 1
REMARK minimizedAffinity 6.21785593
REMARK minimizedRMSD -1
REMARK  0 active torsions:
REMARK  status: ('A' for Active; 'I' for Inactive)
ROOT
ATOM      1  C1  BNZ d   1       2.989   1.197   0.168  0.00  0.00     0.000 A 
ATOM      2  C2  BNZ d   1       4.009   1.251  -0.744  0.00  0.00     0.000 A 
ATOM      3  C3  BNZ d   1       5.153   1.948  -0.473  0.00  0.00     0.000 A 
ATOM      4  C4  BNZ d   1       5.260   2.622   0.690  0.00  0.00     0.000 A 
ATOM      5  C5  BNZ d   1       4.236   2.585   1.616  0.00  0.00     0.000 A 
ATOM      6  C6  BNZ d   1       3.101   1.850   1.357  0.00  0.00     0.000 A 
ENDROOT
TORSDOF 0
ENDMDL
