MODEL 1
REMARK minimizedAffinity 12.9493179
REMARK minimizedRMSD -1
REMARK  0 active torsions:
REMARK  status: ('A' for Active; 'I' for Inactive)
ROOT
ATOM      1  C1  BNZ d   1      -2.123  -1.175   1.969  0.00  0.00     0.000 A 
ATOM      2  C2  BNZ d   1      -3.341  -1.389   1.380  0.00  0.00     0.000 A 
ATOM      3  C3  BNZ d   1      -4.228  -0.362   1.213  0.00  0.00     0.000 A 
ATOM      4  C4  BNZ d   1      -3.913   0.867   1.671  0.00  0.00     0.000 A 
ATOM      5  C5  BNZ d   1      -2.693   1.096   2.275  0.00  0.00     0.000 A 
ATOM      6  C6  BNZ d   1      -1.787   0.069   2.406  0.00  0.00     0.000 A 
ENDROOT
TORSDOF 0
ENDMDL
