MODEL 1
REMARK minimizedAffinity 4.31953955
REMARK minimizedRMSD -1
REMARK  0 active torsions:
REMARK  status: ('A' for Active; 'I' for Inactive)
ROOT
ATOM      1  C1  BNZ d   1       5.296  -3.600  -0.263  0.00  0.00     0.000 A 
ATOM      2  C2  BNZ d   1       3.942  -3.644  -0.465  0.00  0.00     0.000 A 
ATOM      3  C3  BNZ d   1       3.270  -4.834  -0.455  0.00  0.00     0.000 A 
ATOM      4  C4  BNZ d   1       3.958  -5.982  -0.284  0.00  0.00     0.000 A 
ATOM      5  C5  BNZ d   1       5.325  -5.955  -0.089  0.00  0.00     0.000 A 
ATOM      6  C6  BNZ d   1       5.991  -4.752  -0.061  0.00  0.00     0.000 A 
ENDROOT
TORSDOF 0
ENDMDL
