MODEL 1
REMARK minimizedAffinity 7.13135958
REMARK minimizedRMSD -1
REMARK  0 active torsions:
REMARK  status: ('A' for Active; 'I' for Inactive)
ROOT
ATOM      1  C1  BNZ d   1       2.877   3.534  -3.800  0.00  0.00     0.000 A 
ATOM      2  C2  BNZ d   1       3.130   3.133  -5.084  0.00  0.00     0.000 A 
ATOM      3  C3  BNZ d   1       4.375   3.277  -5.631  0.00  0.00     0.000 A 
ATOM      4  C4  BNZ d   1       5.353   3.858  -4.907  0.00  0.00     0.000 A 
ATOM      5  C5  BNZ d   1       5.111   4.277  -3.614  0.00  0.00     0.000 A 
ATOM      6  C6  BNZ d   1       3.868   4.095  -3.054  0.00  0.00     0.000 A 
ENDROOT
TORSDOF 0
ENDMDL
