MODEL 1
REMARK minimizedAffinity 12.7982025
REMARK minimizedRMSD -1
REMARK  0 active torsions:
REMARK  status: ('A' for Active; 'I' for Inactive)
ROOT
ATOM      1  C1  BNZ d   1       0.260  -2.114   2.475  0.00  0.00     0.000 A 
ATOM      2  C2  BNZ d   1      -0.914  -1.715   1.893  0.00  0.00     0.000 A 
ATOM      3  C3  BNZ d   1      -1.716  -0.790   2.501  0.00  0.00     0.000 A 
ATOM      4  C4  BNZ d   1      -1.364  -0.296   3.705  0.00  0.00     0.000 A 
ATOM      5  C5  BNZ d   1      -0.188  -0.695   4.308  0.00  0.00     0.000 A 
ATOM      6  C6  BNZ d   1       0.636  -1.597   3.676  0.00  0.00     0.000 A 
ENDROOT
TORSDOF 0
ENDMDL
