MODEL 1
REMARK minimizedAffinity 13.6615524
REMARK minimizedRMSD -1
REMARK  0 active torsions:
REMARK  status: ('A' for Active; 'I' for Inactive)
ROOT
ATOM      1  C1  BNZ d   1      -1.634   0.035   3.322  0.00  0.00     0.000 A 
ATOM      2  C2  BNZ d   1      -0.834  -1.069   3.191  0.00  0.00     0.000 A 
ATOM      3  C3  BNZ d   1      -0.893  -1.847   2.069  0.00  0.00     0.000 A 
ATOM      4  C4  BNZ d   1      -1.780  -1.544   1.098  0.00  0.00     0.000 A 
ATOM      5  C5  BNZ d   1      -2.600  -0.440   1.220  0.00  0.00     0.000 A 
ATOM      6  C6  BNZ d   1      -2.510   0.363   2.334  0.00  0.00     0.000 A 
ENDROOT
TORSDOF 0
ENDMDL
