MODEL 1
REMARK minimizedAffinity -3.41344357
REMARK minimizedRMSD -1
REMARK  0 active torsions:
REMARK  status: ('A' for Active; 'I' for Inactive)
ROOT
ATOM      1  C2' OXE d   1       2.202   1.524   0.901  0.00  0.00     0.078 C 
ATOM      2  C1' OXE d   1       2.744  -1.212   0.586  0.00  0.00     0.078 C 
ATOM      3  C1  OXE d   1       1.439  -0.686   0.042  0.00  0.00    -0.078 A 
ATOM      4  C2  OXE d   1       1.161   0.644   0.243  0.00  0.00    -0.078 A 
ATOM      5  C3  OXE d   1      -0.004   1.192  -0.286  0.00  0.00     0.003 A 
ATOM      6  C4  OXE d   1      -0.966   0.369  -0.885  0.00  0.00    -0.002 A 
ATOM      7  C5  OXE d   1      -0.720  -0.996  -1.063  0.00  0.00    -0.002 A 
ATOM      8  C6  OXE d   1       0.493  -1.531  -0.644  0.00  0.00     0.003 A 
ENDROOT
TORSDOF 0
ENDMDL
