MODEL 1
REMARK minimizedAffinity -0.339970261
REMARK minimizedRMSD -1
REMARK  0 active torsions:
REMARK  status: ('A' for Active; 'I' for Inactive)
ROOT
ATOM      1  C2' OXE d   1      -0.259   0.421   0.024  0.00  0.00     0.078 C 
ATOM      2  C1' OXE d   1       2.025   2.053   0.048  0.00  0.00     0.078 C 
ATOM      3  C1  OXE d   1       2.220   0.573  -0.173  0.00  0.00    -0.078 A 
ATOM      4  C2  OXE d   1       1.101  -0.224  -0.136  0.00  0.00    -0.078 A 
ATOM      5  C3  OXE d   1       1.218  -1.588  -0.388  0.00  0.00     0.003 A 
ATOM      6  C4  OXE d   1       2.481  -2.177  -0.525  0.00  0.00    -0.002 A 
ATOM      7  C5  OXE d   1       3.636  -1.389  -0.526  0.00  0.00    -0.002 A 
ATOM      8  C6  OXE d   1       3.520  -0.009  -0.393  0.00  0.00     0.003 A 
ENDROOT
TORSDOF 0
ENDMDL
