MODEL 1
REMARK minimizedAffinity -3.9792366
REMARK minimizedRMSD -1
REMARK  0 active torsions:
REMARK  status: ('A' for Active; 'I' for Inactive)
ROOT
ATOM      1  C2' OXE d   1      -0.718   1.133  -0.594  0.00  0.00     0.078 C 
ATOM      2  C1' OXE d   1       1.866   2.202  -0.355  0.00  0.00     0.078 C 
ATOM      3  C1  OXE d   1       1.726   0.700  -0.392  0.00  0.00    -0.078 A 
ATOM      4  C2  OXE d   1       0.454   0.185  -0.463  0.00  0.00    -0.078 A 
ATOM      5  C3  OXE d   1       0.272  -1.192  -0.555  0.00  0.00     0.003 A 
ATOM      6  C4  OXE d   1       1.361  -2.061  -0.423  0.00  0.00    -0.002 A 
ATOM      7  C5  OXE d   1       2.662  -1.558  -0.310  0.00  0.00    -0.002 A 
ATOM      8  C6  OXE d   1       2.865  -0.183  -0.336  0.00  0.00     0.003 A 
ENDROOT
TORSDOF 0
ENDMDL
