MODEL 1
REMARK minimizedAffinity 5.12514639
REMARK minimizedRMSD -1
REMARK  0 active torsions:
REMARK  status: ('A' for Active; 'I' for Inactive)
ROOT
ATOM      1  C2' OXE d   1       3.546  -1.304  -0.405  0.00  0.00     0.078 C 
ATOM      2  C1' OXE d   1       1.856   0.938  -0.419  0.00  0.00     0.078 C 
ATOM      3  C1  OXE d   1       1.214  -0.427  -0.431  0.00  0.00    -0.078 A 
ATOM      4  C2  OXE d   1       2.049  -1.518  -0.471  0.00  0.00    -0.078 A 
ATOM      5  C3  OXE d   1       1.510  -2.801  -0.429  0.00  0.00     0.003 A 
ATOM      6  C4  OXE d   1       0.125  -2.990  -0.501  0.00  0.00    -0.002 A 
ATOM      7  C5  OXE d   1      -0.743  -1.892  -0.501  0.00  0.00    -0.002 A 
ATOM      8  C6  OXE d   1      -0.216  -0.608  -0.424  0.00  0.00     0.003 A 
ENDROOT
TORSDOF 0
ENDMDL
