MODEL 1
REMARK minimizedAffinity 4.3256588
REMARK minimizedRMSD -1
REMARK  0 active torsions:
REMARK  status: ('A' for Active; 'I' for Inactive)
ROOT
ATOM      1  C2' OXE d   1       0.311  -1.939   1.095  0.00  0.00     0.078 C 
ATOM      2  C1' OXE d   1      -1.005  -0.782  -1.098  0.00  0.00     0.078 C 
ATOM      3  C1  OXE d   1       0.351  -1.398  -1.337  0.00  0.00    -0.078 A 
ATOM      4  C2  OXE d   1       1.008  -1.920  -0.249  0.00  0.00    -0.078 A 
ATOM      5  C3  OXE d   1       2.237  -2.549  -0.423  0.00  0.00     0.003 A 
ATOM      6  C4  OXE d   1       2.879  -2.519  -1.667  0.00  0.00    -0.002 A 
ATOM      7  C5  OXE d   1       2.245  -1.956  -2.780  0.00  0.00    -0.002 A 
ATOM      8  C6  OXE d   1       0.965  -1.431  -2.641  0.00  0.00     0.003 A 
ENDROOT
TORSDOF 0
ENDMDL
