MODEL 1
REMARK minimizedAffinity -2.7994771
REMARK minimizedRMSD -1
REMARK  1 active torsions:
REMARK  status: ('A' for Active; 'I' for Inactive)
REMARK    1  A    between atoms: C3_4  and  O_7 
ROOT
ATOM      1  C   UNL d   1       4.877   4.565  -5.874  0.00  0.00    -0.033 A 
ATOM      2  C1  UNL d   1       4.153   5.627  -5.331  0.00  0.00     0.039 A 
ATOM      3  C2  UNL d   1       4.349   5.999  -3.999  0.00  0.00    -0.080 A 
ATOM      4  C3  UNL d   1       5.272   5.303  -3.224  0.00  0.00     0.150 A 
ATOM      5  C4  UNL d   1       6.000   4.246  -3.761  0.00  0.00    -0.007 A 
ATOM      6  C5  UNL d   1       5.802   3.875  -5.090  0.00  0.00     0.039 A 
ENDROOT
BRANCH   4   7
ATOM      7  O   UNL d   1       5.495   5.626  -1.919  0.00  0.00    -0.526 OA
ATOM      8  H5  UNL d   1       4.901   6.357  -1.677  0.00  0.00     0.418 HD
ENDBRANCH   4   7
TORSDOF 1
ENDMDL
