MODEL 1
REMARK minimizedAffinity -1.10151792
REMARK minimizedRMSD -1
REMARK  1 active torsions:
REMARK  status: ('A' for Active; 'I' for Inactive)
REMARK    1  A    between atoms: C3_4  and  O_7 
ROOT
ATOM      1  C   UNL d   1       4.909   5.974  -2.247  0.00  0.00    -0.033 A 
ATOM      2  C1  UNL d   1       5.999   5.930  -3.118  0.00  0.00     0.039 A 
ATOM      3  C2  UNL d   1       5.912   5.214  -4.313  0.00  0.00    -0.080 A 
ATOM      4  C3  UNL d   1       4.730   4.549  -4.626  0.00  0.00     0.150 A 
ATOM      5  C4  UNL d   1       3.638   4.592  -3.765  0.00  0.00    -0.007 A 
ATOM      6  C5  UNL d   1       3.728   5.306  -2.571  0.00  0.00     0.039 A 
ENDROOT
BRANCH   4   7
ATOM      7  O   UNL d   1       4.599   3.833  -5.779  0.00  0.00    -0.526 OA
ATOM      8  H5  UNL d   1       5.442   3.869  -6.261  0.00  0.00     0.418 HD
ENDBRANCH   4   7
TORSDOF 1
ENDMDL
