MODEL 1
REMARK minimizedAffinity 15.3561878
REMARK minimizedRMSD -1
REMARK  1 active torsions:
REMARK  status: ('A' for Active; 'I' for Inactive)
REMARK    1  A    between atoms: C3_4  and  O_7 
ROOT
ATOM      1  C   UNL d   1      -5.217  -5.990  -5.996  0.00  0.00    -0.033 A 
ATOM      2  C1  UNL d   1      -3.833  -5.994  -5.813  0.00  0.00     0.039 A 
ATOM      3  C2  UNL d   1      -3.223  -4.989  -5.060  0.00  0.00    -0.080 A 
ATOM      4  C3  UNL d   1      -4.008  -3.987  -4.495  0.00  0.00     0.150 A 
ATOM      5  C4  UNL d   1      -5.388  -3.979  -4.669  0.00  0.00    -0.007 A 
ATOM      6  C5  UNL d   1      -5.995  -4.983  -5.422  0.00  0.00     0.039 A 
ENDROOT
BRANCH   4   7
ATOM      7  O   UNL d   1      -3.457  -2.983  -3.756  0.00  0.00    -0.526 OA
ATOM      8  H5  UNL d   1      -2.493  -3.102  -3.744  0.00  0.00     0.418 HD
ENDBRANCH   4   7
TORSDOF 1
ENDMDL
