MODEL 1
REMARK minimizedAffinity 10.5873394
REMARK minimizedRMSD -1
REMARK  1 active torsions:
REMARK  status: ('A' for Active; 'I' for Inactive)
REMARK    1  A    between atoms: C3_4  and  O_7 
ROOT
ATOM      1  C   UNL d   1       5.990  -3.388   4.863  0.00  0.00    -0.033 A 
ATOM      2  C1  UNL d   1       5.502  -3.044   3.600  0.00  0.00     0.039 A 
ATOM      3  C2  UNL d   1       4.240  -2.462   3.472  0.00  0.00    -0.080 A 
ATOM      4  C3  UNL d   1       3.476  -2.228   4.612  0.00  0.00     0.150 A 
ATOM      5  C4  UNL d   1       3.957  -2.564   5.874  0.00  0.00    -0.007 A 
ATOM      6  C5  UNL d   1       5.218  -3.146   6.000  0.00  0.00     0.039 A 
ENDROOT
BRANCH   4   7
ATOM      7  O   UNL d   1       2.236  -1.666   4.537  0.00  0.00    -0.526 OA
ATOM      8  H5  UNL d   1       2.024  -1.514   3.601  0.00  0.00     0.418 HD
ENDBRANCH   4   7
TORSDOF 1
ENDMDL
