MODEL 1
REMARK minimizedAffinity 2.71618199
REMARK minimizedRMSD -1
REMARK  1 active torsions:
REMARK  status: ('A' for Active; 'I' for Inactive)
REMARK    1  A    between atoms: C3_4  and  O_7 
ROOT
ATOM      1  C   UNL d   1       4.185   4.233  -4.262  0.00  0.00    -0.033 A 
ATOM      2  C1  UNL d   1       5.297   3.629  -3.673  0.00  0.00     0.039 A 
ATOM      3  C2  UNL d   1       5.897   4.209  -2.553  0.00  0.00    -0.080 A 
ATOM      4  C3  UNL d   1       5.375   5.390  -2.033  0.00  0.00     0.150 A 
ATOM      5  C4  UNL d   1       4.265   5.995  -2.613  0.00  0.00    -0.007 A 
ATOM      6  C5  UNL d   1       3.668   5.415  -3.732  0.00  0.00     0.039 A 
ENDROOT
BRANCH   4   7
ATOM      7  O   UNL d   1       5.930   5.996  -0.945  0.00  0.00    -0.526 OA
ATOM      8  H5  UNL d   1       6.706   5.481  -0.668  0.00  0.00     0.418 HD
ENDBRANCH   4   7
TORSDOF 1
ENDMDL
