MODEL 1
REMARK minimizedAffinity 5.1088748
REMARK minimizedRMSD -1
REMARK  1 active torsions:
REMARK  status: ('A' for Active; 'I' for Inactive)
REMARK    1  A    between atoms: C3_4  and  O_7 
ROOT
ATOM      1  C   UNL d   1      -0.871  -1.797  -1.166  0.00  0.00    -0.033 A 
ATOM      2  C1  UNL d   1      -0.886  -1.232  -2.443  0.00  0.00     0.039 A 
ATOM      3  C2  UNL d   1       0.249  -1.305  -3.253  0.00  0.00    -0.080 A 
ATOM      4  C3  UNL d   1       1.389  -1.946  -2.777  0.00  0.00     0.150 A 
ATOM      5  C4  UNL d   1       1.409  -2.514  -1.507  0.00  0.00    -0.007 A 
ATOM      6  C5  UNL d   1       0.276  -2.439  -0.699  0.00  0.00     0.039 A 
ENDROOT
BRANCH   4   7
ATOM      7  O   UNL d   1       2.522  -2.038  -3.529  0.00  0.00    -0.526 OA
ATOM      8  H5  UNL d   1       2.371  -1.575  -4.371  0.00  0.00     0.418 HD
ENDBRANCH   4   7
TORSDOF 1
ENDMDL
