MODEL 1
REMARK minimizedAffinity -1.79520309
REMARK minimizedRMSD -1
REMARK  1 active torsions:
REMARK  status: ('A' for Active; 'I' for Inactive)
REMARK    1  A    between atoms: C3_4  and  O_7 
ROOT
ATOM      1  C   UNL d   1       0.502  -2.420  -1.090  0.00  0.00    -0.033 A 
ATOM      2  C1  UNL d   1       0.250  -2.354  -2.462  0.00  0.00     0.039 A 
ATOM      3  C2  UNL d   1      -1.058  -2.203  -2.926  0.00  0.00    -0.080 A 
ATOM      4  C3  UNL d   1      -2.103  -2.118  -2.010  0.00  0.00     0.150 A 
ATOM      5  C4  UNL d   1      -1.858  -2.179  -0.642  0.00  0.00    -0.007 A 
ATOM      6  C5  UNL d   1      -0.552  -2.331  -0.180  0.00  0.00     0.039 A 
ENDROOT
BRANCH   4   7
ATOM      7  O   UNL d   1      -3.397  -1.975  -2.416  0.00  0.00    -0.526 OA
ATOM      8  H5  UNL d   1      -3.417  -1.977  -3.387  0.00  0.00     0.418 HD
ENDBRANCH   4   7
TORSDOF 1
ENDMDL
