MODEL 1
REMARK minimizedAffinity 10.9889021
REMARK minimizedRMSD -1
REMARK  1 active torsions:
REMARK  status: ('A' for Active; 'I' for Inactive)
REMARK    1  A    between atoms: C3_4  and  O_7 
ROOT
ATOM      1  C   UNL d   1      -5.132  -5.909  -5.272  0.00  0.00    -0.033 A 
ATOM      2  C1  UNL d   1      -5.420  -4.752  -4.546  0.00  0.00     0.039 A 
ATOM      3  C2  UNL d   1      -4.520  -3.684  -4.544  0.00  0.00    -0.080 A 
ATOM      4  C3  UNL d   1      -3.338  -3.786  -5.271  0.00  0.00     0.150 A 
ATOM      5  C4  UNL d   1      -3.046  -4.934  -6.000  0.00  0.00    -0.007 A 
ATOM      6  C5  UNL d   1      -3.945  -6.000  -6.000  0.00  0.00     0.039 A 
ENDROOT
BRANCH   4   7
ATOM      7  O   UNL d   1      -2.427  -2.772  -5.296  0.00  0.00    -0.526 OA
ATOM      8  H5  UNL d   1      -2.749  -2.055  -4.724  0.00  0.00     0.418 HD
ENDBRANCH   4   7
TORSDOF 1
ENDMDL
