MODEL 1
REMARK minimizedAffinity 7.0536437
REMARK minimizedRMSD -1
REMARK  1 active torsions:
REMARK  status: ('A' for Active; 'I' for Inactive)
REMARK    1  A    between atoms: C3_4  and  O_7 
ROOT
ATOM      1  C   UNL d   1       0.283  -2.682  -0.763  0.00  0.00    -0.033 A 
ATOM      2  C1  UNL d   1      -0.650  -1.650  -0.885  0.00  0.00     0.039 A 
ATOM      3  C2  UNL d   1      -1.601  -1.684  -1.906  0.00  0.00    -0.080 A 
ATOM      4  C3  UNL d   1      -1.610  -2.754  -2.797  0.00  0.00     0.150 A 
ATOM      5  C4  UNL d   1      -0.686  -3.787  -2.678  0.00  0.00    -0.007 A 
ATOM      6  C5  UNL d   1       0.264  -3.751  -1.659  0.00  0.00     0.039 A 
ENDROOT
BRANCH   4   7
ATOM      7  O   UNL d   1      -2.517  -2.829  -3.812  0.00  0.00    -0.526 OA
ATOM      8  H5  UNL d   1      -3.073  -2.032  -3.787  0.00  0.00     0.418 HD
ENDBRANCH   4   7
TORSDOF 1
ENDMDL
