MODEL 1
REMARK minimizedAffinity 10.674325
REMARK minimizedRMSD -1
REMARK  1 active torsions:
REMARK  status: ('A' for Active; 'I' for Inactive)
REMARK    1  A    between atoms: C3_4  and  O_7 
ROOT
ATOM      1  C   UNL d   1       4.720  -2.408  -3.315  0.00  0.00    -0.033 A 
ATOM      2  C1  UNL d   1       5.216  -1.134  -3.595  0.00  0.00     0.039 A 
ATOM      3  C2  UNL d   1       4.492  -0.265  -4.414  0.00  0.00    -0.080 A 
ATOM      4  C3  UNL d   1       3.275  -0.683  -4.945  0.00  0.00     0.150 A 
ATOM      5  C4  UNL d   1       2.773  -1.950  -4.667  0.00  0.00    -0.007 A 
ATOM      6  C5  UNL d   1       3.498  -2.816  -3.850  0.00  0.00     0.039 A 
ENDROOT
BRANCH   4   7
ATOM      7  O   UNL d   1       2.535   0.127  -5.754  0.00  0.00    -0.526 OA
ATOM      8  H5  UNL d   1       3.019   0.960  -5.881  0.00  0.00     0.418 HD
ENDBRANCH   4   7
TORSDOF 1
ENDMDL
