MODEL 1
REMARK minimizedAffinity 2.2632153
REMARK minimizedRMSD -1
REMARK  1 active torsions:
REMARK  status: ('A' for Active; 'I' for Inactive)
REMARK    1  A    between atoms: C3_4  and  O_7 
ROOT
ATOM      1  C   UNL d   1      -0.035  -2.153  -0.157  0.00  0.00    -0.033 A 
ATOM      2  C1  UNL d   1      -1.195  -1.378  -0.205  0.00  0.00     0.039 A 
ATOM      3  C2  UNL d   1      -1.989  -1.376  -1.353  0.00  0.00    -0.080 A 
ATOM      4  C3  UNL d   1      -1.612  -2.153  -2.445  0.00  0.00     0.150 A 
ATOM      5  C4  UNL d   1      -0.459  -2.930  -2.403  0.00  0.00    -0.007 A 
ATOM      6  C5  UNL d   1       0.332  -2.930  -1.255  0.00  0.00     0.039 A 
ENDROOT
BRANCH   4   7
ATOM      7  O   UNL d   1      -2.351  -2.179  -3.590  0.00  0.00    -0.526 OA
ATOM      8  H5  UNL d   1      -3.103  -1.572  -3.485  0.00  0.00     0.418 HD
ENDBRANCH   4   7
TORSDOF 1
ENDMDL
