MODEL 1
REMARK minimizedAffinity 4.16300678
REMARK minimizedRMSD -1
REMARK  1 active torsions:
REMARK  status: ('A' for Active; 'I' for Inactive)
REMARK    1  A    between atoms: C3_4  and  O_7 
ROOT
ATOM      1  C   UNL d   1      -0.171   6.000  -0.618  0.00  0.00    -0.033 A 
ATOM      2  C1  UNL d   1      -0.161   5.623   0.726  0.00  0.00     0.039 A 
ATOM      3  C2  UNL d   1       0.751   4.668   1.178  0.00  0.00    -0.080 A 
ATOM      4  C3  UNL d   1       1.648   4.099   0.278  0.00  0.00     0.150 A 
ATOM      5  C4  UNL d   1       1.647   4.473  -1.062  0.00  0.00    -0.007 A 
ATOM      6  C5  UNL d   1       0.734   5.426  -1.512  0.00  0.00     0.039 A 
ENDROOT
BRANCH   4   7
ATOM      7  O   UNL d   1       2.554   3.159   0.672  0.00  0.00    -0.526 OA
ATOM      8  H5  UNL d   1       2.419   2.979   1.617  0.00  0.00     0.418 HD
ENDBRANCH   4   7
TORSDOF 1
ENDMDL
