MODEL 1
REMARK minimizedAffinity 7.16405439
REMARK minimizedRMSD -1
REMARK  1 active torsions:
REMARK  status: ('A' for Active; 'I' for Inactive)
REMARK    1  A    between atoms: C3_4  and  O_7 
ROOT
ATOM      1  C   UNL d   1       0.310  -2.809  -0.745  0.00  0.00    -0.033 A 
ATOM      2  C1  UNL d   1       0.630  -3.553  -1.882  0.00  0.00     0.039 A 
ATOM      3  C2  UNL d   1      -0.076  -3.355  -3.070  0.00  0.00    -0.080 A 
ATOM      4  C3  UNL d   1      -1.098  -2.411  -3.109  0.00  0.00     0.150 A 
ATOM      5  C4  UNL d   1      -1.420  -1.663  -1.981  0.00  0.00    -0.007 A 
ATOM      6  C5  UNL d   1      -0.714  -1.863  -0.795  0.00  0.00     0.039 A 
ENDROOT
BRANCH   4   7
ATOM      7  O   UNL d   1      -1.818  -2.186  -4.244  0.00  0.00    -0.526 OA
ATOM      8  H5  UNL d   1      -1.504  -2.795  -4.933  0.00  0.00     0.418 HD
ENDBRANCH   4   7
TORSDOF 1
ENDMDL
