MODEL 1
REMARK minimizedAffinity -0.352991015
REMARK minimizedRMSD -1
REMARK  1 active torsions:
REMARK  status: ('A' for Active; 'I' for Inactive)
REMARK    1  A    between atoms: C3_4  and  O_7 
ROOT
ATOM      1  C   UNL d   1       0.135  -2.955  -5.376  0.00  0.00    -0.033 A 
ATOM      2  C1  UNL d   1      -1.113  -2.533  -4.914  0.00  0.00     0.039 A 
ATOM      3  C2  UNL d   1      -1.287  -2.203  -3.568  0.00  0.00    -0.080 A 
ATOM      4  C3  UNL d   1      -0.205  -2.298  -2.697  0.00  0.00     0.150 A 
ATOM      5  C4  UNL d   1       1.042  -2.714  -3.151  0.00  0.00    -0.007 A 
ATOM      6  C5  UNL d   1       1.213  -3.044  -4.494  0.00  0.00     0.039 A 
ENDROOT
BRANCH   4   7
ATOM      7  O   UNL d   1      -0.328  -1.991  -1.374  0.00  0.00    -0.526 OA
ATOM      8  H5  UNL d   1      -1.252  -1.748  -1.199  0.00  0.00     0.418 HD
ENDBRANCH   4   7
TORSDOF 1
ENDMDL
