MODEL 1
REMARK minimizedAffinity 12.1364403
REMARK minimizedRMSD -1
REMARK  1 active torsions:
REMARK  status: ('A' for Active; 'I' for Inactive)
REMARK    1  A    between atoms: C3_4  and  O_7 
ROOT
ATOM      1  C   UNL d   1       4.565  -2.885  -4.190  0.00  0.00    -0.033 A 
ATOM      2  C1  UNL d   1       4.665  -2.558  -5.544  0.00  0.00     0.039 A 
ATOM      3  C2  UNL d   1       4.982  -1.254  -5.928  0.00  0.00    -0.080 A 
ATOM      4  C3  UNL d   1       5.199  -0.287  -4.949  0.00  0.00     0.150 A 
ATOM      5  C4  UNL d   1       5.106  -0.607  -3.599  0.00  0.00    -0.007 A 
ATOM      6  C5  UNL d   1       4.787  -1.909  -3.217  0.00  0.00     0.039 A 
ENDROOT
BRANCH   4   7
ATOM      7  O   UNL d   1       5.507   1.000  -5.275  0.00  0.00    -0.526 OA
ATOM      8  H5  UNL d   1       5.509   1.080  -6.244  0.00  0.00     0.418 HD
ENDBRANCH   4   7
TORSDOF 1
ENDMDL
