MODEL 1
REMARK minimizedAffinity 8.70020485
REMARK minimizedRMSD -1
REMARK  1 active torsions:
REMARK  status: ('A' for Active; 'I' for Inactive)
REMARK    1  A    between atoms: C3_4  and  O_7 
ROOT
ATOM      1  C   UNL d   1      -0.747  -1.472  -2.861  0.00  0.00    -0.033 A 
ATOM      2  C1  UNL d   1      -0.917  -1.111  -1.524  0.00  0.00     0.039 A 
ATOM      3  C2  UNL d   1      -0.446  -1.944  -0.508  0.00  0.00    -0.080 A 
ATOM      4  C3  UNL d   1       0.194  -3.135  -0.842  0.00  0.00     0.150 A 
ATOM      5  C4  UNL d   1       0.371  -3.499  -2.173  0.00  0.00    -0.007 A 
ATOM      6  C5  UNL d   1      -0.101  -2.666  -3.186  0.00  0.00     0.039 A 
ENDROOT
BRANCH   4   7
ATOM      7  O   UNL d   1       0.667  -3.983   0.114  0.00  0.00    -0.526 OA
ATOM      8  H5  UNL d   1       0.448  -3.615   0.987  0.00  0.00     0.418 HD
ENDBRANCH   4   7
TORSDOF 1
ENDMDL
