MODEL 1
REMARK minimizedAffinity -4.03803253
REMARK minimizedRMSD -1
REMARK  3 active torsions:
REMARK  status: ('A' for Active; 'I' for Inactive)
REMARK    1  A    between atoms: C3'_2  and  C2'_3 
REMARK    2  A    between atoms: C2'_3  and  C1'_4 
REMARK    3  A    between atoms: C1'_4  and  C1_5 
ROOT
ATOM      1  C1  N4B d   1      -0.387   0.027  -0.502  0.00  0.00    -0.075 A 
ATOM      2  C2  N4B d   1       0.550   1.084  -0.495  0.00  0.00     0.002 A 
ATOM      3  C3  N4B d   1       1.896   0.809  -0.509  0.00  0.00     0.002 A 
ATOM      4  C4  N4B d   1       2.326  -0.509  -0.512  0.00  0.00    -0.004 A 
ATOM      5  C5  N4B d   1       1.415  -1.524  -0.545  0.00  0.00     0.002 A 
ATOM      6  C6  N4B d   1       0.060  -1.262  -0.535  0.00  0.00     0.002 A 
ENDROOT
BRANCH   1   7
ATOM      7  C1' N4B d   1      -1.866   0.277  -0.400  0.00  0.00     0.057 C 
BRANCH   7   8
ATOM      8  C2' N4B d   1      -2.203   0.722   1.020  0.00  0.00     0.009 C 
BRANCH   8   9
ATOM      9  C3' N4B d   1      -3.700   0.859   1.233  0.00  0.00     0.004 C 
ATOM     10  C4' N4B d   1      -4.425  -0.450   1.122  0.00  0.00     0.003 C 
ENDBRANCH   8   9
ENDBRANCH   7   8
ENDBRANCH   1   7
TORSDOF 3
ENDMDL
