MODEL 1
REMARK minimizedAffinity -4.36570692
REMARK minimizedRMSD -1
REMARK  3 active torsions:
REMARK  status: ('A' for Active; 'I' for Inactive)
REMARK    1  A    between atoms: C3'_2  and  C2'_3 
REMARK    2  A    between atoms: C2'_3  and  C1'_4 
REMARK    3  A    between atoms: C1'_4  and  C1_5 
ROOT
ATOM      1  C1  N4B d   1      -1.928   0.967   0.038  0.00  0.00    -0.075 A 
ATOM      2  C2  N4B d   1      -3.194   0.618  -0.482  0.00  0.00     0.002 A 
ATOM      3  C3  N4B d   1      -4.289   0.576   0.346  0.00  0.00     0.002 A 
ATOM      4  C4  N4B d   1      -4.139   0.859   1.696  0.00  0.00    -0.004 A 
ATOM      5  C5  N4B d   1      -2.918   1.220   2.185  0.00  0.00     0.002 A 
ATOM      6  C6  N4B d   1      -1.810   1.270   1.364  0.00  0.00     0.002 A 
ENDROOT
BRANCH   1   7
ATOM      7  C1' N4B d   1      -0.687   0.942  -0.811  0.00  0.00     0.057 C 
BRANCH   7   8
ATOM      8  C2' N4B d   1       0.424   0.222  -0.053  0.00  0.00     0.009 C 
BRANCH   8   9
ATOM      9  C3' N4B d   1       0.437  -1.269  -0.346  0.00  0.00     0.004 C 
ATOM     10  C4' N4B d   1       1.822  -1.844  -0.366  0.00  0.00     0.003 C 
ENDBRANCH   8   9
ENDBRANCH   7   8
ENDBRANCH   1   7
TORSDOF 3
ENDMDL
