MODEL 1
REMARK minimizedAffinity -5.526443
REMARK minimizedRMSD -1
REMARK  3 active torsions:
REMARK  status: ('A' for Active; 'I' for Inactive)
REMARK    1  A    between atoms: C3'_2  and  C2'_3 
REMARK    2  A    between atoms: C2'_3  and  C1'_4 
REMARK    3  A    between atoms: C1'_4  and  C1_5 
ROOT
ATOM      1  C1  N4B d   1       0.356   0.153   0.022  0.00  0.00    -0.075 A 
ATOM      2  C2  N4B d   1       0.521  -1.249   0.009  0.00  0.00     0.002 A 
ATOM      3  C3  N4B d   1       1.717  -1.804   0.393  0.00  0.00     0.002 A 
ATOM      4  C4  N4B d   1       2.765  -0.978   0.774  0.00  0.00    -0.004 A 
ATOM      5  C5  N4B d   1       2.589   0.374   0.808  0.00  0.00     0.002 A 
ATOM      6  C6  N4B d   1       1.391   0.945   0.429  0.00  0.00     0.002 A 
ENDROOT
BRANCH   1   7
ATOM      7  C1' N4B d   1      -0.905   0.809  -0.471  0.00  0.00     0.057 C 
BRANCH   7   8
ATOM      8  C2' N4B d   1      -1.746   1.241   0.727  0.00  0.00     0.009 C 
BRANCH   8   9
ATOM      9  C3' N4B d   1      -3.222   1.332   0.381  0.00  0.00     0.004 C 
ATOM     10  C4' N4B d   1      -4.111   0.912   1.514  0.00  0.00     0.003 C 
ENDBRANCH   8   9
ENDBRANCH   7   8
ENDBRANCH   1   7
TORSDOF 3
ENDMDL
