MODEL 1
REMARK minimizedAffinity -6.18305922
REMARK minimizedRMSD -1
REMARK  0 active torsions:
REMARK  status: ('A' for Active; 'I' for Inactive)
ROOT
ATOM      1  C1  DEN d   1       0.845  -0.254   0.464  0.00  0.00     0.130 A 
ATOM      2  C2  DEN d   1       0.821   0.699  -0.642  0.00  0.00    -0.031 A 
ATOM      3  C3  DEN d   1      -0.506   0.620  -1.285  0.00  0.00     0.027 A 
ATOM      4  C4  DEN d   1      -2.517  -0.875  -0.675  0.00  0.00     0.027 A 
ATOM      5  C5  DEN d   1      -2.968  -1.855   0.181  0.00  0.00    -0.003 A 
ATOM      6  C6  DEN d   1      -2.176  -2.390   1.161  0.00  0.00     0.001 A 
ATOM      7  C7  DEN d   1      -0.903  -1.916   1.339  0.00  0.00     0.017 A 
ATOM      8  C8  DEN d   1      -0.438  -0.933   0.475  0.00  0.00    -0.094 A 
ATOM      9  C9  DEN d   1      -1.259  -0.396  -0.502  0.00  0.00    -0.072 A 
ENDROOT
TORSDOF 0
ENDMDL
