MODEL 1
REMARK minimizedAffinity -2.94470072
REMARK minimizedRMSD -1
REMARK  0 active torsions:
REMARK  status: ('A' for Active; 'I' for Inactive)
ROOT
ATOM      1  C1  DEN d   1      -2.540   0.404   0.716  0.00  0.00     0.130 A 
ATOM      2  C2  DEN d   1      -3.279  -0.502  -0.159  0.00  0.00    -0.031 A 
ATOM      3  C3  DEN d   1      -2.327  -1.072  -1.134  0.00  0.00     0.027 A 
ATOM      4  C4  DEN d   1       0.206  -0.646  -1.368  0.00  0.00     0.027 A 
ATOM      5  C5  DEN d   1       1.278   0.054  -0.860  0.00  0.00    -0.003 A 
ATOM      6  C6  DEN d   1       1.148   0.937   0.178  0.00  0.00     0.001 A 
ATOM      7  C7  DEN d   1      -0.074   1.111   0.772  0.00  0.00     0.017 A 
ATOM      8  C8  DEN d   1      -1.162   0.415   0.261  0.00  0.00    -0.094 A 
ATOM      9  C9  DEN d   1      -1.007  -0.483  -0.782  0.00  0.00    -0.072 A 
ENDROOT
TORSDOF 0
ENDMDL
