MODEL 1
REMARK minimizedAffinity -3.79916358
REMARK minimizedRMSD -1
REMARK  0 active torsions:
REMARK  status: ('A' for Active; 'I' for Inactive)
ROOT
ATOM      1  C1  DEN d   1      -1.963  -1.404   0.902  0.00  0.00     0.130 A 
ATOM      2  C2  DEN d   1      -2.910  -1.347  -0.208  0.00  0.00    -0.031 A 
ATOM      3  C3  DEN d   1      -2.287  -0.574  -1.301  0.00  0.00     0.027 A 
ATOM      4  C4  DEN d   1       0.042   0.531  -1.384  0.00  0.00     0.027 A 
ATOM      5  C5  DEN d   1       1.200   0.763  -0.675  0.00  0.00    -0.003 A 
ATOM      6  C6  DEN d   1       1.371   0.321   0.610  0.00  0.00     0.001 A 
ATOM      7  C7  DEN d   1       0.384  -0.414   1.212  0.00  0.00     0.017 A 
ATOM      8  C8  DEN d   1      -0.790  -0.646   0.506  0.00  0.00    -0.094 A 
ATOM      9  C9  DEN d   1      -0.938  -0.202  -0.797  0.00  0.00    -0.072 A 
ENDROOT
TORSDOF 0
ENDMDL
