MODEL 1
REMARK minimizedAffinity -3.06217337
REMARK minimizedRMSD -1
REMARK  0 active torsions:
REMARK  status: ('A' for Active; 'I' for Inactive)
ROOT
ATOM      1  C1  DEN d   1       0.578  -0.574   0.484  0.00  0.00     0.130 A 
ATOM      2  C2  DEN d   1       0.692   0.544  -0.449  0.00  0.00    -0.031 A 
ATOM      3  C3  DEN d   1      -0.612   0.711  -1.122  0.00  0.00     0.027 A 
ATOM      4  C4  DEN d   1      -2.785  -0.643  -0.809  0.00  0.00     0.027 A 
ATOM      5  C5  DEN d   1      -3.364  -1.696  -0.136  0.00  0.00    -0.003 A 
ATOM      6  C6  DEN d   1      -2.667  -2.464   0.758  0.00  0.00     0.001 A 
ATOM      7  C7  DEN d   1      -1.360  -2.162   1.037  0.00  0.00     0.017 A 
ATOM      8  C8  DEN d   1      -0.767  -1.106   0.357  0.00  0.00    -0.094 A 
ATOM      9  C9  DEN d   1      -1.493  -0.334  -0.534  0.00  0.00    -0.072 A 
ENDROOT
TORSDOF 0
ENDMDL
