MODEL 1
REMARK minimizedAffinity -4.8024044
REMARK minimizedRMSD -1
REMARK  0 active torsions:
REMARK  status: ('A' for Active; 'I' for Inactive)
ROOT
ATOM      1  C1  DEN d   1       0.606   0.323  -0.541  0.00  0.00     0.130 A 
ATOM      2  C2  DEN d   1       1.178  -0.592   0.443  0.00  0.00    -0.031 A 
ATOM      3  C3  DEN d   1       0.168  -1.625   0.748  0.00  0.00     0.027 A 
ATOM      4  C4  DEN d   1      -2.213  -1.897  -0.206  0.00  0.00     0.027 A 
ATOM      5  C5  DEN d   1      -3.148  -1.358  -1.061  0.00  0.00    -0.003 A 
ATOM      6  C6  DEN d   1      -2.912  -0.211  -1.772  0.00  0.00     0.001 A 
ATOM      7  C7  DEN d   1      -1.694   0.410  -1.674  0.00  0.00     0.017 A 
ATOM      8  C8  DEN d   1      -0.749  -0.124  -0.808  0.00  0.00    -0.094 A 
ATOM      9  C9  DEN d   1      -1.003  -1.291  -0.107  0.00  0.00    -0.072 A 
ENDROOT
TORSDOF 0
ENDMDL
