MODEL 1
REMARK minimizedAffinity -6.31792021
REMARK minimizedRMSD -1
REMARK  0 active torsions:
REMARK  status: ('A' for Active; 'I' for Inactive)
ROOT
ATOM      1  C1  DEN d   1      -0.289   0.069  -0.658  0.00  0.00     0.130 A 
ATOM      2  C2  DEN d   1       1.007  -0.210  -0.046  0.00  0.00    -0.031 A 
ATOM      3  C3  DEN d   1       0.854  -1.389   0.831  0.00  0.00     0.027 A 
ATOM      4  C4  DEN d   1      -1.251  -2.805   1.292  0.00  0.00     0.027 A 
ATOM      5  C5  DEN d   1      -2.592  -2.948   1.011  0.00  0.00    -0.003 A 
ATOM      6  C6  DEN d   1      -3.261  -2.082   0.186  0.00  0.00     0.001 A 
ATOM      7  C7  DEN d   1      -2.580  -1.060  -0.421  0.00  0.00     0.017 A 
ATOM      8  C8  DEN d   1      -1.230  -0.905  -0.136  0.00  0.00    -0.094 A 
ATOM      9  C9  DEN d   1      -0.569  -1.798   0.690  0.00  0.00    -0.072 A 
ENDROOT
TORSDOF 0
ENDMDL
