MODEL 1
REMARK minimizedAffinity -5.83125257
REMARK minimizedRMSD -1
REMARK  0 active torsions:
REMARK  status: ('A' for Active; 'I' for Inactive)
ROOT
ATOM      1  N1  IND d   1       2.322  -0.280   0.867  0.00  0.00    -0.196 N 
ATOM      2  C2  IND d   1       1.447  -1.288   0.573  0.00  0.00     0.054 A 
ATOM      3  C3  IND d   1       0.276  -0.781   0.127  0.00  0.00    -0.031 A 
ATOM      4  C4  IND d   1      -0.388   1.670  -0.298  0.00  0.00     0.051 A 
ATOM      5  C5  IND d   1       0.064   2.951  -0.145  0.00  0.00    -0.031 A 
ATOM      6  C6  IND d   1       1.318   3.225   0.362  0.00  0.00     0.015 A 
ATOM      7  C7  IND d   1       2.175   2.225   0.724  0.00  0.00    -0.016 A 
ATOM      8  C8  IND d   1       1.717   0.924   0.576  0.00  0.00    -0.047 A 
ATOM      9  C9  IND d   1       0.429   0.639   0.103  0.00  0.00    -0.096 A 
ATOM     10  HN1 IND d   1       3.116  -0.380   1.180  0.00  0.00     0.298 HD
ENDROOT
TORSDOF 0
ENDMDL
