MODEL 1
REMARK minimizedAffinity -5.42460871
REMARK minimizedRMSD -1
REMARK  0 active torsions:
REMARK  status: ('A' for Active; 'I' for Inactive)
ROOT
ATOM      1  N1  IND d   1       0.698  -0.808   0.231  0.00  0.00    -0.196 N 
ATOM      2  C2  IND d   1      -0.573  -1.187   0.564  0.00  0.00     0.054 A 
ATOM      3  C3  IND d   1      -1.372  -0.103   0.679  0.00  0.00    -0.031 A 
ATOM      4  C4  IND d   1      -0.831   2.380   0.265  0.00  0.00     0.051 A 
ATOM      5  C5  IND d   1       0.206   3.223  -0.023  0.00  0.00    -0.031 A 
ATOM      6  C6  IND d   1       1.485   2.755  -0.248  0.00  0.00     0.015 A 
ATOM      7  C7  IND d   1       1.773   1.421  -0.205  0.00  0.00    -0.016 A 
ATOM      8  C8  IND d   1       0.725   0.562   0.094  0.00  0.00    -0.047 A 
ATOM      9  C9  IND d   1      -0.566   1.034   0.365  0.00  0.00    -0.096 A 
ATOM     10  HN1 IND d   1       1.367  -1.337   0.124  0.00  0.00     0.298 HD
ENDROOT
TORSDOF 0
ENDMDL
