MODEL 1
REMARK minimizedAffinity -1.70512807
REMARK minimizedRMSD -1
REMARK  0 active torsions:
REMARK  status: ('A' for Active; 'I' for Inactive)
ROOT
ATOM      1  N1  IND d   1      -0.785   2.807   1.076  0.00  0.00    -0.196 N 
ATOM      2  C2  IND d   1       0.350   3.499   0.754  0.00  0.00     0.054 A 
ATOM      3  C3  IND d   1       1.325   2.647   0.365  0.00  0.00    -0.031 A 
ATOM      4  C4  IND d   1       1.246   0.089   0.081  0.00  0.00     0.051 A 
ATOM      5  C5  IND d   1       0.437  -0.993   0.287  0.00  0.00    -0.031 A 
ATOM      6  C6  IND d   1      -0.848  -0.860   0.774  0.00  0.00     0.015 A 
ATOM      7  C7  IND d   1      -1.377   0.365   1.063  0.00  0.00    -0.016 A 
ATOM      8  C8  IND d   1      -0.556   1.466   0.862  0.00  0.00    -0.047 A 
ATOM      9  C9  IND d   1       0.763   1.334   0.409  0.00  0.00    -0.096 A 
ATOM     10  HN1 IND d   1      -1.518   3.152   1.363  0.00  0.00     0.298 HD
ENDROOT
TORSDOF 0
ENDMDL
