MODEL 1
REMARK minimizedAffinity -6.88425398
REMARK minimizedRMSD -1
REMARK  0 active torsions:
REMARK  status: ('A' for Active; 'I' for Inactive)
ROOT
ATOM      1  N1  IND d   1       1.045  -0.686   0.557  0.00  0.00    -0.196 N 
ATOM      2  C2  IND d   1      -0.298  -0.936   0.611  0.00  0.00     0.054 A 
ATOM      3  C3  IND d   1      -0.993   0.223   0.586  0.00  0.00    -0.031 A 
ATOM      4  C4  IND d   1      -0.136   2.640   0.357  0.00  0.00     0.051 A 
ATOM      5  C5  IND d   1       1.015   3.375   0.312  0.00  0.00    -0.031 A 
ATOM      6  C6  IND d   1       2.260   2.782   0.344  0.00  0.00     0.015 A 
ATOM      7  C7  IND d   1       2.401   1.425   0.411  0.00  0.00    -0.016 A 
ATOM      8  C8  IND d   1       1.234   0.676   0.465  0.00  0.00    -0.047 A 
ATOM      9  C9  IND d   1      -0.032   1.274   0.475  0.00  0.00    -0.096 A 
ATOM     10  HN1 IND d   1       1.667  -1.279   0.577  0.00  0.00     0.298 HD
ENDROOT
TORSDOF 0
ENDMDL
