MODEL 1
REMARK minimizedAffinity -5.69914246
REMARK minimizedRMSD -1
REMARK  0 active torsions:
REMARK  status: ('A' for Active; 'I' for Inactive)
ROOT
ATOM      1  N1  IND d   1       0.931  -0.976   0.647  0.00  0.00    -0.196 N 
ATOM      2  C2  IND d   1      -0.423  -1.116   0.776  0.00  0.00     0.054 A 
ATOM      3  C3  IND d   1      -1.013   0.096   0.881  0.00  0.00    -0.031 A 
ATOM      4  C4  IND d   1       0.039   2.443   0.761  0.00  0.00     0.051 A 
ATOM      5  C5  IND d   1       1.246   3.080   0.687  0.00  0.00    -0.031 A 
ATOM      6  C6  IND d   1       2.433   2.383   0.591  0.00  0.00     0.015 A 
ATOM      7  C7  IND d   1       2.457   1.018   0.554  0.00  0.00    -0.016 A 
ATOM      8  C8  IND d   1       1.234   0.368   0.636  0.00  0.00    -0.047 A 
ATOM      9  C9  IND d   1       0.029   1.068   0.777  0.00  0.00    -0.096 A 
ATOM     10  HN1 IND d   1       1.497  -1.620   0.583  0.00  0.00     0.298 HD
ENDROOT
TORSDOF 0
ENDMDL
