MODEL 1
REMARK minimizedAffinity -6.65330601
REMARK minimizedRMSD -1
REMARK  0 active torsions:
REMARK  status: ('A' for Active; 'I' for Inactive)
ROOT
ATOM      1  N1  IND d   1       1.107  -0.879   0.047  0.00  0.00    -0.196 N 
ATOM      2  C2  IND d   1      -0.245  -1.079   0.053  0.00  0.00     0.054 A 
ATOM      3  C3  IND d   1      -0.895   0.099   0.181  0.00  0.00    -0.031 A 
ATOM      4  C4  IND d   1       0.057   2.488   0.293  0.00  0.00     0.051 A 
ATOM      5  C5  IND d   1       1.236   3.176   0.359  0.00  0.00    -0.031 A 
ATOM      6  C6  IND d   1       2.457   2.534   0.322  0.00  0.00     0.015 A 
ATOM      7  C7  IND d   1       2.545   1.176   0.204  0.00  0.00    -0.016 A 
ATOM      8  C8  IND d   1       1.349   0.474   0.143  0.00  0.00    -0.047 A 
ATOM      9  C9  IND d   1       0.107   1.116   0.224  0.00  0.00    -0.096 A 
ATOM     10  HN1 IND d   1       1.705  -1.494  -0.008  0.00  0.00     0.298 HD
ENDROOT
TORSDOF 0
ENDMDL
