MODEL 1
REMARK minimizedAffinity -3.55861187
REMARK minimizedRMSD -1
REMARK  0 active torsions:
REMARK  status: ('A' for Active; 'I' for Inactive)
ROOT
ATOM      1  N1  IND d   1       0.750  -0.240  -0.165  0.00  0.00    -0.196 N 
ATOM      2  C2  IND d   1      -0.566  -0.585  -0.032  0.00  0.00     0.054 A 
ATOM      3  C3  IND d   1      -1.291   0.475   0.391  0.00  0.00    -0.031 A 
ATOM      4  C4  IND d   1      -0.540   2.898   0.830  0.00  0.00     0.051 A 
ATOM      5  C5  IND d   1       0.574   3.688   0.880  0.00  0.00    -0.031 A 
ATOM      6  C6  IND d   1       1.828   3.200   0.576  0.00  0.00     0.015 A 
ATOM      7  C7  IND d   1       2.015   1.901   0.197  0.00  0.00    -0.016 A 
ATOM      8  C8  IND d   1       0.887   1.094   0.152  0.00  0.00    -0.047 A 
ATOM      9  C9  IND d   1      -0.383   1.572   0.501  0.00  0.00    -0.096 A 
ATOM     10  HN1 IND d   1       1.385  -0.767  -0.405  0.00  0.00     0.298 HD
ENDROOT
TORSDOF 0
ENDMDL
