MODEL 1
REMARK minimizedAffinity -2.91459298
REMARK minimizedRMSD -1
REMARK  0 active torsions:
REMARK  status: ('A' for Active; 'I' for Inactive)
ROOT
ATOM      1  N1  IND d   1       0.309  -0.227  -0.507  0.00  0.00    -0.196 N 
ATOM      2  C2  IND d   1      -0.838  -0.678   0.086  0.00  0.00     0.054 A 
ATOM      3  C3  IND d   1      -1.370   0.284   0.872  0.00  0.00    -0.031 A 
ATOM      4  C4  IND d   1      -0.584   2.706   1.254  0.00  0.00     0.051 A 
ATOM      5  C5  IND d   1       0.434   3.567   0.957  0.00  0.00    -0.031 A 
ATOM      6  C6  IND d   1       1.483   3.201   0.137  0.00  0.00     0.015 A 
ATOM      7  C7  IND d   1       1.546   1.959  -0.427  0.00  0.00    -0.016 A 
ATOM      8  C8  IND d   1       0.517   1.079  -0.121  0.00  0.00    -0.047 A 
ATOM      9  C9  IND d   1      -0.527   1.430   0.744  0.00  0.00    -0.096 A 
ATOM     10  HN1 IND d   1       0.814  -0.682  -1.033  0.00  0.00     0.298 HD
ENDROOT
TORSDOF 0
ENDMDL
