MODEL 1
REMARK minimizedAffinity -4.7657156
REMARK minimizedRMSD -1
REMARK  0 active torsions:
REMARK  status: ('A' for Active; 'I' for Inactive)
ROOT
ATOM      1  N1  IND d   1      -0.826  -0.322   1.058  0.00  0.00    -0.196 N 
ATOM      2  C2  IND d   1      -0.025  -1.328   0.593  0.00  0.00     0.054 A 
ATOM      3  C3  IND d   1       0.981  -0.821  -0.154  0.00  0.00    -0.031 A 
ATOM      4  C4  IND d   1       1.564   1.635  -0.662  0.00  0.00     0.051 A 
ATOM      5  C5  IND d   1       1.104   2.910  -0.486  0.00  0.00    -0.031 A 
ATOM      6  C6  IND d   1      -0.044   3.178   0.230  0.00  0.00     0.015 A 
ATOM      7  C7  IND d   1      -0.773   2.178   0.809  0.00  0.00    -0.016 A 
ATOM      8  C8  IND d   1      -0.313   0.881   0.627  0.00  0.00    -0.047 A 
ATOM      9  C9  IND d   1       0.829   0.599  -0.135  0.00  0.00    -0.096 A 
ATOM     10  HN1 IND d   1      -1.532  -0.424   1.538  0.00  0.00     0.298 HD
ENDROOT
TORSDOF 0
ENDMDL
