MODEL 1
REMARK minimizedAffinity -5.23899937
REMARK minimizedRMSD -1
REMARK  0 active torsions:
REMARK  status: ('A' for Active; 'I' for Inactive)
ROOT
ATOM      1  N1  IND d   1       1.280  -0.304   0.379  0.00  0.00    -0.196 N 
ATOM      2  C2  IND d   1      -0.027  -0.649   0.174  0.00  0.00     0.054 A 
ATOM      3  C3  IND d   1      -0.798   0.458   0.089  0.00  0.00    -0.031 A 
ATOM      4  C4  IND d   1      -0.111   2.938   0.157  0.00  0.00     0.051 A 
ATOM      5  C5  IND d   1       0.967   3.752   0.364  0.00  0.00    -0.031 A 
ATOM      6  C6  IND d   1       2.231   3.245   0.588  0.00  0.00     0.015 A 
ATOM      7  C7  IND d   1       2.466   1.899   0.603  0.00  0.00    -0.016 A 
ATOM      8  C8  IND d   1       1.373   1.070   0.400  0.00  0.00    -0.047 A 
ATOM      9  C9  IND d   1       0.080   1.578   0.215  0.00  0.00    -0.096 A 
ATOM     10  HN1 IND d   1       1.934  -0.853   0.479  0.00  0.00     0.298 HD
ENDROOT
TORSDOF 0
ENDMDL
