MODEL 1
REMARK minimizedAffinity -1.02982831
REMARK minimizedRMSD -1
REMARK  0 active torsions:
REMARK  status: ('A' for Active; 'I' for Inactive)
ROOT
ATOM      1  N1  IND d   1       1.205  -0.416   0.142  0.00  0.00    -0.196 N 
ATOM      2  C2  IND d   1      -0.093  -0.810  -0.028  0.00  0.00     0.054 A 
ATOM      3  C3  IND d   1      -0.931   0.230   0.184  0.00  0.00    -0.031 A 
ATOM      4  C4  IND d   1      -0.385   2.688   0.720  0.00  0.00     0.051 A 
ATOM      5  C5  IND d   1       0.659   3.522   1.007  0.00  0.00    -0.031 A 
ATOM      6  C6  IND d   1       1.965   3.077   1.018  0.00  0.00     0.015 A 
ATOM      7  C7  IND d   1       2.278   1.779   0.730  0.00  0.00    -0.016 A 
ATOM      8  C8  IND d   1       1.220   0.928   0.445  0.00  0.00    -0.047 A 
ATOM      9  C9  IND d   1      -0.111   1.363   0.473  0.00  0.00    -0.096 A 
ATOM     10  HN1 IND d   1       1.896  -0.923   0.071  0.00  0.00     0.298 HD
ENDROOT
TORSDOF 0
ENDMDL
