MODEL 1
REMARK minimizedAffinity -5.34193516
REMARK minimizedRMSD -1
REMARK  0 active torsions:
REMARK  status: ('A' for Active; 'I' for Inactive)
ROOT
ATOM      1  N1  IND d   1       0.073  -0.141   0.382  0.00  0.00    -0.196 N 
ATOM      2  C2  IND d   1      -1.289  -0.022   0.393  0.00  0.00     0.054 A 
ATOM      3  C3  IND d   1      -1.648   1.281   0.377  0.00  0.00    -0.031 A 
ATOM      4  C4  IND d   1      -0.169   3.383   0.230  0.00  0.00     0.051 A 
ATOM      5  C5  IND d   1       1.138   3.783   0.234  0.00  0.00    -0.031 A 
ATOM      6  C6  IND d   1       2.177   2.878   0.286  0.00  0.00     0.015 A 
ATOM      7  C7  IND d   1       1.948   1.532   0.324  0.00  0.00    -0.016 A 
ATOM      8  C8  IND d   1       0.622   1.122   0.327  0.00  0.00    -0.047 A 
ATOM      9  C9  IND d   1      -0.437   2.038   0.318  0.00  0.00    -0.096 A 
ATOM     10  HN1 IND d   1       0.513  -0.879   0.405  0.00  0.00     0.298 HD
ENDROOT
TORSDOF 0
ENDMDL
