MODEL 1
REMARK minimizedAffinity -3.07122803
REMARK minimizedRMSD -1
REMARK  0 active torsions:
REMARK  status: ('A' for Active; 'I' for Inactive)
ROOT
ATOM      1  N1  IND d   1       0.696  -0.606  -0.149  0.00  0.00    -0.196 N 
ATOM      2  C2  IND d   1      -0.548  -0.932   0.316  0.00  0.00     0.054 A 
ATOM      3  C3  IND d   1      -1.203   0.178   0.725  0.00  0.00    -0.031 A 
ATOM      4  C4  IND d   1      -0.463   2.642   0.630  0.00  0.00     0.051 A 
ATOM      5  C5  IND d   1       0.607   3.434   0.320  0.00  0.00    -0.031 A 
ATOM      6  C6  IND d   1       1.784   2.910  -0.175  0.00  0.00     0.015 A 
ATOM      7  C7  IND d   1       1.931   1.569  -0.389  0.00  0.00    -0.016 A 
ATOM      8  C8  IND d   1       0.850   0.760  -0.069  0.00  0.00    -0.047 A 
ATOM      9  C9  IND d   1      -0.332   1.282   0.473  0.00  0.00    -0.096 A 
ATOM     10  HN1 IND d   1       1.283  -1.162  -0.442  0.00  0.00     0.298 HD
ENDROOT
TORSDOF 0
ENDMDL
