MODEL 1
REMARK minimizedAffinity -6.25837946
REMARK minimizedRMSD -1
REMARK  0 active torsions:
REMARK  status: ('A' for Active; 'I' for Inactive)
ROOT
ATOM      1  N1  IND d   1       0.588  -0.772  -0.043  0.00  0.00    -0.196 N 
ATOM      2  C2  IND d   1      -0.775  -0.789  -0.147  0.00  0.00     0.054 A 
ATOM      3  C3  IND d   1      -1.277   0.452   0.044  0.00  0.00    -0.031 A 
ATOM      4  C4  IND d   1      -0.039   2.674   0.437  0.00  0.00     0.051 A 
ATOM      5  C5  IND d   1       1.210   3.190   0.646  0.00  0.00    -0.031 A 
ATOM      6  C6  IND d   1       2.338   2.395   0.633  0.00  0.00     0.015 A 
ATOM      7  C7  IND d   1       2.260   1.051   0.398  0.00  0.00    -0.016 A 
ATOM      8  C8  IND d   1       0.993   0.524   0.193  0.00  0.00    -0.047 A 
ATOM      9  C9  IND d   1      -0.159   1.318   0.247  0.00  0.00    -0.096 A 
ATOM     10  HN1 IND d   1       1.105  -1.455  -0.113  0.00  0.00     0.298 HD
ENDROOT
TORSDOF 0
ENDMDL
