MODEL 1
REMARK minimizedAffinity -3.47963667
REMARK minimizedRMSD -1
REMARK  0 active torsions:
REMARK  status: ('A' for Active; 'I' for Inactive)
ROOT
ATOM      1  N1  IND d   1       1.802  -0.635   0.386  0.00  0.00    -0.196 N 
ATOM      2  C2  IND d   1       1.273  -1.842   0.749  0.00  0.00     0.054 A 
ATOM      3  C3  IND d   1      -0.048  -1.719   1.005  0.00  0.00    -0.031 A 
ATOM      4  C4  IND d   1      -1.570   0.347   0.795  0.00  0.00     0.051 A 
ATOM      5  C5  IND d   1      -1.536   1.688   0.533  0.00  0.00    -0.031 A 
ATOM      6  C6  IND d   1      -0.364   2.336   0.199  0.00  0.00     0.015 A 
ATOM      7  C7  IND d   1       0.821   1.661   0.104  0.00  0.00    -0.016 A 
ATOM      8  C8  IND d   1       0.791   0.301   0.376  0.00  0.00    -0.047 A 
ATOM      9  C9  IND d   1      -0.388  -0.354   0.757  0.00  0.00    -0.096 A 
ATOM     10  HN1 IND d   1       2.627  -0.485   0.197  0.00  0.00     0.298 HD
ENDROOT
TORSDOF 0
ENDMDL
