MODEL 1
REMARK minimizedAffinity -5.83238029
REMARK minimizedRMSD -1
REMARK  0 active torsions:
REMARK  status: ('A' for Active; 'I' for Inactive)
ROOT
ATOM      1  N1  IND d   1       0.610  -0.178   0.044  0.00  0.00    -0.196 N 
ATOM      2  C2  IND d   1      -0.741  -0.369   0.134  0.00  0.00     0.054 A 
ATOM      3  C3  IND d   1      -1.379   0.818   0.236  0.00  0.00    -0.031 A 
ATOM      4  C4  IND d   1      -0.413   3.204   0.172  0.00  0.00     0.051 A 
ATOM      5  C5  IND d   1       0.770   3.887   0.138  0.00  0.00    -0.031 A 
ATOM      6  C6  IND d   1       1.985   3.236   0.067  0.00  0.00     0.015 A 
ATOM      7  C7  IND d   1       2.062   1.873   0.015  0.00  0.00    -0.016 A 
ATOM      8  C8  IND d   1       0.862   1.177   0.056  0.00  0.00    -0.047 A 
ATOM      9  C9  IND d   1      -0.372   1.830   0.171  0.00  0.00    -0.096 A 
ATOM     10  HN1 IND d   1       1.202  -0.799  -0.012  0.00  0.00     0.298 HD
ENDROOT
TORSDOF 0
ENDMDL
