MODEL 1
REMARK minimizedAffinity -4.69115353
REMARK minimizedRMSD -1
REMARK  0 active torsions:
REMARK  status: ('A' for Active; 'I' for Inactive)
ROOT
ATOM      1  N1  IND d   1       1.101  -0.276   0.518  0.00  0.00    -0.196 N 
ATOM      2  C2  IND d   1      -0.180  -0.729   0.372  0.00  0.00     0.054 A 
ATOM      3  C3  IND d   1      -1.036   0.310   0.253  0.00  0.00    -0.031 A 
ATOM      4  C4  IND d   1      -0.542   2.835   0.166  0.00  0.00     0.051 A 
ATOM      5  C5  IND d   1       0.475   3.738   0.295  0.00  0.00    -0.031 A 
ATOM      6  C6  IND d   1       1.780   3.342   0.506  0.00  0.00     0.015 A 
ATOM      7  C7  IND d   1       2.119   2.021   0.585  0.00  0.00    -0.016 A 
ATOM      8  C8  IND d   1       1.088   1.101   0.462  0.00  0.00    -0.047 A 
ATOM      9  C9  IND d   1      -0.245   1.498   0.290  0.00  0.00    -0.096 A 
ATOM     10  HN1 IND d   1       1.798  -0.767   0.626  0.00  0.00     0.298 HD
ENDROOT
TORSDOF 0
ENDMDL
