MODEL 1
REMARK minimizedAffinity -1.6980226
REMARK minimizedRMSD -1
REMARK  0 active torsions:
REMARK  status: ('A' for Active; 'I' for Inactive)
ROOT
ATOM      1  N1  IND d   1       1.193  -0.480  -0.701  0.00  0.00    -0.196 N 
ATOM      2  C2  IND d   1       0.344  -1.542  -0.557  0.00  0.00     0.054 A 
ATOM      3  C3  IND d   1      -0.821  -1.139  -0.001  0.00  0.00    -0.031 A 
ATOM      4  C4  IND d   1      -1.587   1.228   0.660  0.00  0.00     0.051 A 
ATOM      5  C5  IND d   1      -1.143   2.517   0.752  0.00  0.00    -0.031 A 
ATOM      6  C6  IND d   1       0.127   2.881   0.353  0.00  0.00     0.015 A 
ATOM      7  C7  IND d   1       1.001   1.967  -0.165  0.00  0.00    -0.016 A 
ATOM      8  C8  IND d   1       0.556   0.656  -0.253  0.00  0.00    -0.047 A 
ATOM      9  C9  IND d   1      -0.717   0.273   0.190  0.00  0.00    -0.096 A 
ATOM     10  HN1 IND d   1       1.992  -0.516  -1.018  0.00  0.00     0.298 HD
ENDROOT
TORSDOF 0
ENDMDL
