MODEL 1
REMARK minimizedAffinity -3.40361023
REMARK minimizedRMSD -1
REMARK  0 active torsions:
REMARK  status: ('A' for Active; 'I' for Inactive)
ROOT
ATOM      1  N1  IND d   1       0.650  -0.211  -1.371  0.00  0.00    -0.196 N 
ATOM      2  C2  IND d   1       0.024  -1.346  -0.936  0.00  0.00     0.054 A 
ATOM      3  C3  IND d   1      -0.832  -1.055   0.069  0.00  0.00    -0.031 A 
ATOM      4  C4  IND d   1      -1.440   1.229   1.090  0.00  0.00     0.051 A 
ATOM      5  C5  IND d   1      -1.102   2.553   1.046  0.00  0.00    -0.031 A 
ATOM      6  C6  IND d   1      -0.146   3.033   0.175  0.00  0.00     0.015 A 
ATOM      7  C7  IND d   1       0.503   2.205  -0.697  0.00  0.00    -0.016 A 
ATOM      8  C8  IND d   1       0.168   0.859  -0.651  0.00  0.00    -0.047 A 
ATOM      9  C9  IND d   1      -0.771   0.360   0.261  0.00  0.00    -0.096 A 
ATOM     10  HN1 IND d   1       1.245  -0.173  -1.991  0.00  0.00     0.298 HD
ENDROOT
TORSDOF 0
ENDMDL
