MODEL 1
REMARK minimizedAffinity -4.06208134
REMARK minimizedRMSD -1
REMARK  0 active torsions:
REMARK  status: ('A' for Active; 'I' for Inactive)
ROOT
ATOM      1  C   UNL d   1       1.764   1.537   0.119  0.00  0.00     0.124 A 
ATOM      2  C1  UNL d   1       0.465   2.004  -0.019  0.00  0.00     0.062 A 
ATOM      3  C2  UNL d   1      -0.527   1.173  -0.532  0.00  0.00     0.162 A 
ATOM      4  C3  UNL d   1      -0.224  -0.135  -0.910  0.00  0.00    -0.034 A 
ATOM      5  C4  UNL d   1       1.086  -0.597  -0.769  0.00  0.00     0.162 A 
ATOM      6  C5  UNL d   1       2.074   0.237  -0.256  0.00  0.00     0.062 A 
ATOM      7  F   UNL d   1       3.329  -0.216  -0.123  0.00  0.00    -0.097 F 
ATOM      8  F1  UNL d   1       1.412  -1.849  -1.123  0.00  0.00    -0.096 F 
ATOM      9  I   UNL d   1      -1.704  -1.380  -1.678  0.00  0.00    -0.060 I 
ATOM     10  F2  UNL d   1      -1.774   1.652  -0.654  0.00  0.00    -0.096 F 
ATOM     11  F3  UNL d   1       0.163   3.260   0.343  0.00  0.00    -0.097 F 
ATOM     12  F4  UNL d   1       2.717   2.338   0.612  0.00  0.00    -0.092 F 
ENDROOT
TORSDOF 0
ENDMDL
