MODEL 1
REMARK minimizedAffinity 1.68773913
REMARK minimizedRMSD -1
REMARK  0 active torsions:
REMARK  status: ('A' for Active; 'I' for Inactive)
ROOT
ATOM      1  C   UNL d   1       0.883   1.334   1.376  0.00  0.00     0.124 A 
ATOM      2  C1  UNL d   1      -0.104   0.384   1.600  0.00  0.00     0.062 A 
ATOM      3  C2  UNL d   1      -0.927  -0.030   0.556  0.00  0.00     0.162 A 
ATOM      4  C3  UNL d   1      -0.765   0.504  -0.722  0.00  0.00    -0.034 A 
ATOM      5  C4  UNL d   1       0.229   1.460  -0.939  0.00  0.00     0.162 A 
ATOM      6  C5  UNL d   1       1.049   1.871   0.107  0.00  0.00     0.062 A 
ATOM      7  F   UNL d   1       2.002   2.788  -0.112  0.00  0.00    -0.097 F 
ATOM      8  F1  UNL d   1       0.412   1.994  -2.156  0.00  0.00    -0.096 F 
ATOM      9  I   UNL d   1      -1.993  -0.113  -2.285  0.00  0.00    -0.060 I 
ATOM     10  F2  UNL d   1      -1.872  -0.949   0.802  0.00  0.00    -0.096 F 
ATOM     11  F3  UNL d   1      -0.267  -0.135   2.825  0.00  0.00    -0.097 F 
ATOM     12  F4  UNL d   1       1.672   1.732   2.382  0.00  0.00    -0.092 F 
ENDROOT
TORSDOF 0
ENDMDL
