MODEL 1
REMARK minimizedAffinity 9.90968609
REMARK minimizedRMSD -1
REMARK  0 active torsions:
REMARK  status: ('A' for Active; 'I' for Inactive)
ROOT
ATOM      1  C   UNL d   1       0.375   1.084   2.868  0.00  0.00     0.124 A 
ATOM      2  C1  UNL d   1       1.144   1.891   2.041  0.00  0.00     0.062 A 
ATOM      3  C2  UNL d   1       1.371   1.523   0.719  0.00  0.00     0.162 A 
ATOM      4  C3  UNL d   1       0.828   0.342   0.213  0.00  0.00    -0.034 A 
ATOM      5  C4  UNL d   1       0.056  -0.465   1.051  0.00  0.00     0.162 A 
ATOM      6  C5  UNL d   1      -0.168  -0.093   2.372  0.00  0.00     0.062 A 
ATOM      7  F   UNL d   1      -0.911  -0.875   3.170  0.00  0.00    -0.097 F 
ATOM      8  F1  UNL d   1      -0.481  -1.608   0.598  0.00  0.00    -0.096 F 
ATOM      9  I   UNL d   1       1.165  -0.212  -1.764  0.00  0.00    -0.060 I 
ATOM     10  F2  UNL d   1       2.118   2.322  -0.058  0.00  0.00    -0.096 F 
ATOM     11  F3  UNL d   1       1.670   3.028   2.518  0.00  0.00    -0.097 F 
ATOM     12  F4  UNL d   1       0.159   1.439   4.141  0.00  0.00    -0.092 F 
ENDROOT
TORSDOF 0
ENDMDL
