MODEL 1
REMARK minimizedAffinity 3.28442788
REMARK minimizedRMSD -1
REMARK  0 active torsions:
REMARK  status: ('A' for Active; 'I' for Inactive)
ROOT
ATOM      1  C   UNL d   1       1.391   1.765   0.724  0.00  0.00     0.124 A 
ATOM      2  C1  UNL d   1       0.418   1.771   1.713  0.00  0.00     0.062 A 
ATOM      3  C2  UNL d   1      -0.238   0.592   2.058  0.00  0.00     0.162 A 
ATOM      4  C3  UNL d   1       0.080  -0.603   1.413  0.00  0.00    -0.034 A 
ATOM      5  C4  UNL d   1       1.059  -0.601   0.418  0.00  0.00     0.162 A 
ATOM      6  C5  UNL d   1       1.711   0.580   0.077  0.00  0.00     0.062 A 
ATOM      7  F   UNL d   1       2.651   0.572  -0.879  0.00  0.00    -0.097 F 
ATOM      8  F1  UNL d   1       1.389  -1.733  -0.222  0.00  0.00    -0.096 F 
ATOM      9  I   UNL d   1      -0.898  -2.368   1.925  0.00  0.00    -0.060 I 
ATOM     10  F2  UNL d   1      -1.174   0.628   3.017  0.00  0.00    -0.096 F 
ATOM     11  F3  UNL d   1       0.106   2.916   2.338  0.00  0.00    -0.097 F 
ATOM     12  F4  UNL d   1       2.019   2.901   0.393  0.00  0.00    -0.092 F 
ENDROOT
TORSDOF 0
ENDMDL
