MODEL 1
REMARK minimizedAffinity 2.96831036
REMARK minimizedRMSD -1
REMARK  0 active torsions:
REMARK  status: ('A' for Active; 'I' for Inactive)
ROOT
ATOM      1  C   UNL d   1       0.282   0.578  -0.188  0.00  0.00     0.124 A 
ATOM      2  C1  UNL d   1      -0.371  -0.641  -0.316  0.00  0.00     0.062 A 
ATOM      3  C2  UNL d   1      -0.967  -1.235   0.793  0.00  0.00     0.162 A 
ATOM      4  C3  UNL d   1      -0.915  -0.611   2.039  0.00  0.00    -0.034 A 
ATOM      5  C4  UNL d   1      -0.256   0.614   2.160  0.00  0.00     0.162 A 
ATOM      6  C5  UNL d   1       0.338   1.204   1.049  0.00  0.00     0.062 A 
ATOM      7  F   UNL d   1       0.968   2.381   1.174  0.00  0.00    -0.097 F 
ATOM      8  F1  UNL d   1      -0.188   1.242   3.343  0.00  0.00    -0.096 F 
ATOM      9  I   UNL d   1      -1.805  -1.496   3.699  0.00  0.00    -0.060 I 
ATOM     10  F2  UNL d   1      -1.590  -2.413   0.641  0.00  0.00    -0.096 F 
ATOM     11  F3  UNL d   1      -0.426  -1.249  -1.510  0.00  0.00    -0.097 F 
ATOM     12  F4  UNL d   1       0.855   1.147  -1.256  0.00  0.00    -0.092 F 
ENDROOT
TORSDOF 0
ENDMDL
