MODEL 1
REMARK minimizedAffinity -2.62027669
REMARK minimizedRMSD -1
REMARK  0 active torsions:
REMARK  status: ('A' for Active; 'I' for Inactive)
ROOT
ATOM      1  C   UNL d   1       1.396   2.185   0.507  0.00  0.00     0.124 A 
ATOM      2  C1  UNL d   1       1.890   1.010  -0.043  0.00  0.00     0.062 A 
ATOM      3  C2  UNL d   1       1.276  -0.207   0.239  0.00  0.00     0.162 A 
ATOM      4  C3  UNL d   1       0.160  -0.255   1.074  0.00  0.00    -0.034 A 
ATOM      5  C4  UNL d   1      -0.331   0.930   1.624  0.00  0.00     0.162 A 
ATOM      6  C5  UNL d   1       0.287   2.144   1.340  0.00  0.00     0.062 A 
ATOM      7  F   UNL d   1      -0.192   3.278   1.872  0.00  0.00    -0.097 F 
ATOM      8  F1  UNL d   1      -1.402   0.919   2.431  0.00  0.00    -0.096 F 
ATOM      9  I   UNL d   1      -0.762  -2.073   1.497  0.00  0.00    -0.060 I 
ATOM     10  F2  UNL d   1       1.775  -1.326  -0.307  0.00  0.00    -0.096 F 
ATOM     11  F3  UNL d   1       2.963   1.047  -0.847  0.00  0.00    -0.097 F 
ATOM     12  F4  UNL d   1       1.990   3.354   0.236  0.00  0.00    -0.092 F 
ENDROOT
TORSDOF 0
ENDMDL
