MODEL 1
REMARK minimizedAffinity 10.4081469
REMARK minimizedRMSD -1
REMARK  0 active torsions:
REMARK  status: ('A' for Active; 'I' for Inactive)
ROOT
ATOM      1  C   UNL d   1       2.350   0.510  -0.309  0.00  0.00     0.124 A 
ATOM      2  C1  UNL d   1       2.231  -0.408  -1.344  0.00  0.00     0.062 A 
ATOM      3  C2  UNL d   1       0.995  -0.981  -1.631  0.00  0.00     0.162 A 
ATOM      4  C3  UNL d   1      -0.131  -0.639  -0.883  0.00  0.00    -0.034 A 
ATOM      5  C4  UNL d   1      -0.003   0.284   0.157  0.00  0.00     0.162 A 
ATOM      6  C5  UNL d   1       1.234   0.854   0.440  0.00  0.00     0.062 A 
ATOM      7  F   UNL d   1       1.347   1.740   1.441  0.00  0.00    -0.097 F 
ATOM      8  F1  UNL d   1      -1.065   0.636   0.896  0.00  0.00    -0.096 F 
ATOM      9  I   UNL d   1      -1.980  -1.494  -1.311  0.00  0.00    -0.060 I 
ATOM     10  F2  UNL d   1       0.909  -1.864  -2.637  0.00  0.00    -0.096 F 
ATOM     11  F3  UNL d   1       3.308  -0.743  -2.068  0.00  0.00    -0.097 F 
ATOM     12  F4  UNL d   1       3.540   1.059  -0.033  0.00  0.00    -0.092 F 
ENDROOT
TORSDOF 0
ENDMDL
