MODEL 1
REMARK minimizedAffinity 4.13295221
REMARK minimizedRMSD -1
REMARK  0 active torsions:
REMARK  status: ('A' for Active; 'I' for Inactive)
ROOT
ATOM      1  C   UNL d   1       1.181   0.191   0.436  0.00  0.00     0.124 A 
ATOM      2  C1  UNL d   1       1.363  -0.680  -0.629  0.00  0.00     0.062 A 
ATOM      3  C2  UNL d   1       0.298  -0.990  -1.469  0.00  0.00     0.162 A 
ATOM      4  C3  UNL d   1      -0.960  -0.428  -1.248  0.00  0.00    -0.034 A 
ATOM      5  C4  UNL d   1      -1.135   0.447  -0.175  0.00  0.00     0.162 A 
ATOM      6  C5  UNL d   1      -0.067   0.754   0.662  0.00  0.00     0.062 A 
ATOM      7  F   UNL d   1      -0.244   1.596   1.691  0.00  0.00    -0.097 F 
ATOM      8  F1  UNL d   1      -2.330   1.006   0.066  0.00  0.00    -0.096 F 
ATOM      9  I   UNL d   1      -2.555  -0.889  -2.502  0.00  0.00    -0.060 I 
ATOM     10  F2  UNL d   1       0.502  -1.836  -2.490  0.00  0.00    -0.096 F 
ATOM     11  F3  UNL d   1       2.568  -1.226  -0.849  0.00  0.00    -0.097 F 
ATOM     12  F4  UNL d   1       2.208   0.487   1.244  0.00  0.00    -0.092 F 
ENDROOT
TORSDOF 0
ENDMDL
