MODEL 1
REMARK minimizedAffinity -1.4014101
REMARK minimizedRMSD -1
REMARK  0 active torsions:
REMARK  status: ('A' for Active; 'I' for Inactive)
ROOT
ATOM      1  C   UNL d   1       0.340   1.240   1.925  0.00  0.00     0.124 A 
ATOM      2  C1  UNL d   1      -0.439   0.092   1.979  0.00  0.00     0.062 A 
ATOM      3  C2  UNL d   1      -0.766  -0.587   0.809  0.00  0.00     0.162 A 
ATOM      4  C3  UNL d   1      -0.314  -0.121  -0.426  0.00  0.00    -0.034 A 
ATOM      5  C4  UNL d   1       0.469   1.034  -0.472  0.00  0.00     0.162 A 
ATOM      6  C5  UNL d   1       0.793   1.710   0.701  0.00  0.00     0.062 A 
ATOM      7  F   UNL d   1       1.546   2.818   0.647  0.00  0.00    -0.097 F 
ATOM      8  F1  UNL d   1       0.921   1.510  -1.641  0.00  0.00    -0.096 F 
ATOM      9  I   UNL d   1      -0.801  -1.134  -2.177  0.00  0.00    -0.060 I 
ATOM     10  F2  UNL d   1      -1.521  -1.693   0.890  0.00  0.00    -0.096 F 
ATOM     11  F3  UNL d   1      -0.879  -0.363   3.161  0.00  0.00    -0.097 F 
ATOM     12  F4  UNL d   1       0.652   1.892   3.052  0.00  0.00    -0.092 F 
ENDROOT
TORSDOF 0
ENDMDL
