MODEL 1
REMARK minimizedAffinity 16.4636669
REMARK minimizedRMSD -1
REMARK  0 active torsions:
REMARK  status: ('A' for Active; 'I' for Inactive)
ROOT
ATOM      1  C   UNL d   1       4.781   3.181  -2.895  0.00  0.00     0.124 A 
ATOM      2  C1  UNL d   1       4.818   3.801  -4.136  0.00  0.00     0.062 A 
ATOM      3  C2  UNL d   1       3.634   4.108  -4.801  0.00  0.00     0.162 A 
ATOM      4  C3  UNL d   1       2.403   3.797  -4.225  0.00  0.00    -0.034 A 
ATOM      5  C4  UNL d   1       2.373   3.173  -2.977  0.00  0.00     0.162 A 
ATOM      6  C5  UNL d   1       3.559   2.867  -2.317  0.00  0.00     0.062 A 
ATOM      7  F   UNL d   1       3.521   2.268  -1.118  0.00  0.00    -0.097 F 
ATOM      8  F1  UNL d   1       1.206   2.859  -2.395  0.00  0.00    -0.096 F 
ATOM      9  I   UNL d   1       0.631   4.255  -5.216  0.00  0.00    -0.060 I 
ATOM     10  F2  UNL d   1       3.700   4.708  -5.999  0.00  0.00    -0.096 F 
ATOM     11  F3  UNL d   1       5.997   4.104  -4.698  0.00  0.00    -0.097 F 
ATOM     12  F4  UNL d   1       5.921   2.885  -2.258  0.00  0.00    -0.092 F 
ENDROOT
TORSDOF 0
ENDMDL
