MODEL 1
REMARK minimizedAffinity 3.40962672
REMARK minimizedRMSD -1
REMARK  0 active torsions:
REMARK  status: ('A' for Active; 'I' for Inactive)
ROOT
ATOM      1  C   UNL d   1       3.729   3.552  -2.780  0.00  0.00     0.124 A 
ATOM      2  C1  UNL d   1       4.299   4.030  -3.952  0.00  0.00     0.062 A 
ATOM      3  C2  UNL d   1       3.524   4.729  -4.873  0.00  0.00     0.162 A 
ATOM      4  C3  UNL d   1       2.170   4.955  -4.625  0.00  0.00    -0.034 A 
ATOM      5  C4  UNL d   1       1.604   4.470  -3.445  0.00  0.00     0.162 A 
ATOM      6  C5  UNL d   1       2.383   3.772  -2.528  0.00  0.00     0.062 A 
ATOM      7  F   UNL d   1       1.831   3.311  -1.396  0.00  0.00    -0.097 F 
ATOM      8  F1  UNL d   1       0.305   4.670  -3.175  0.00  0.00    -0.096 F 
ATOM      9  I   UNL d   1       1.007   6.000  -5.999  0.00  0.00    -0.060 I 
ATOM     10  F2  UNL d   1       4.101   5.180  -5.997  0.00  0.00    -0.096 F 
ATOM     11  F3  UNL d   1       5.600   3.818  -4.199  0.00  0.00    -0.097 F 
ATOM     12  F4  UNL d   1       4.478   2.879  -1.896  0.00  0.00    -0.092 F 
ENDROOT
TORSDOF 0
ENDMDL
