MODEL 1
REMARK minimizedAffinity -0.36766547
REMARK minimizedRMSD -1
REMARK  0 active torsions:
REMARK  status: ('A' for Active; 'I' for Inactive)
ROOT
ATOM      1  C   UNL d   1       3.050   1.628   3.388  0.00  0.00     0.124 A 
ATOM      2  C1  UNL d   1       3.011   1.396   2.020  0.00  0.00     0.062 A 
ATOM      3  C2  UNL d   1       1.800   1.130   1.389  0.00  0.00     0.162 A 
ATOM      4  C3  UNL d   1       0.616   1.095   2.125  0.00  0.00    -0.034 A 
ATOM      5  C4  UNL d   1       0.662   1.328   3.500  0.00  0.00     0.162 A 
ATOM      6  C5  UNL d   1       1.875   1.593   4.127  0.00  0.00     0.062 A 
ATOM      7  F   UNL d   1       1.910   1.817   5.448  0.00  0.00    -0.097 F 
ATOM      8  F1  UNL d   1      -0.458   1.302   4.238  0.00  0.00    -0.096 F 
ATOM      9  I   UNL d   1      -1.198   0.697   1.185  0.00  0.00    -0.060 I 
ATOM     10  F2  UNL d   1       1.793   0.909   0.066  0.00  0.00    -0.096 F 
ATOM     11  F3  UNL d   1       4.145   1.427   1.304  0.00  0.00    -0.097 F 
ATOM     12  F4  UNL d   1       4.217   1.882   3.993  0.00  0.00    -0.092 F 
ENDROOT
TORSDOF 0
ENDMDL
