MODEL 1
REMARK minimizedAffinity 4.75067997
REMARK minimizedRMSD -1
REMARK  0 active torsions:
REMARK  status: ('A' for Active; 'I' for Inactive)
ROOT
ATOM      1  C   UNL d   1      -2.457  -1.215  -3.865  0.00  0.00     0.124 A 
ATOM      2  C1  UNL d   1      -1.382  -0.361  -4.073  0.00  0.00     0.062 A 
ATOM      3  C2  UNL d   1      -0.630   0.094  -2.994  0.00  0.00     0.162 A 
ATOM      4  C3  UNL d   1      -0.950  -0.304  -1.696  0.00  0.00    -0.034 A 
ATOM      5  C4  UNL d   1      -2.032  -1.162  -1.494  0.00  0.00     0.162 A 
ATOM      6  C5  UNL d   1      -2.781  -1.614  -2.576  0.00  0.00     0.062 A 
ATOM      7  F   UNL d   1      -3.818  -2.439  -2.372  0.00  0.00    -0.097 F 
ATOM      8  F1  UNL d   1      -2.367  -1.564  -0.259  0.00  0.00    -0.096 F 
ATOM      9  I   UNL d   1       0.172   0.375  -0.080  0.00  0.00    -0.060 I 
ATOM     10  F2  UNL d   1       0.403   0.918  -3.225  0.00  0.00    -0.096 F 
ATOM     11  F3  UNL d   1      -1.068   0.027  -5.318  0.00  0.00    -0.097 F 
ATOM     12  F4  UNL d   1      -3.179  -1.651  -4.905  0.00  0.00    -0.092 F 
ENDROOT
TORSDOF 0
ENDMDL
