MODEL 1
REMARK minimizedAffinity 16.021286
REMARK minimizedRMSD -1
REMARK  0 active torsions:
REMARK  status: ('A' for Active; 'I' for Inactive)
ROOT
ATOM      1  C   UNL d   1       0.167  -1.136  -3.847  0.00  0.00     0.124 A 
ATOM      2  C1  UNL d   1       1.028  -0.580  -2.912  0.00  0.00     0.062 A 
ATOM      3  C2  UNL d   1       1.401   0.758  -3.011  0.00  0.00     0.162 A 
ATOM      4  C3  UNL d   1       0.911   1.549  -4.050  0.00  0.00    -0.034 A 
ATOM      5  C4  UNL d   1       0.046   0.983  -4.988  0.00  0.00     0.162 A 
ATOM      6  C5  UNL d   1      -0.323  -0.354  -4.884  0.00  0.00     0.062 A 
ATOM      7  F   UNL d   1      -1.156  -0.890  -5.789  0.00  0.00    -0.097 F 
ATOM      8  F1  UNL d   1      -0.443   1.715  -5.999  0.00  0.00    -0.096 F 
ATOM      9  I   UNL d   1       1.466   3.549  -4.203  0.00  0.00    -0.060 I 
ATOM     10  F2  UNL d   1       2.235   1.269  -2.094  0.00  0.00    -0.096 F 
ATOM     11  F3  UNL d   1       1.504  -1.333  -1.910  0.00  0.00    -0.097 F 
ATOM     12  F4  UNL d   1      -0.189  -2.423  -3.750  0.00  0.00    -0.092 F 
ENDROOT
TORSDOF 0
ENDMDL
