MODEL 1
REMARK minimizedAffinity 4.27427721
REMARK minimizedRMSD -1
REMARK  0 active torsions:
REMARK  status: ('A' for Active; 'I' for Inactive)
ROOT
ATOM      1  C   UNL d   1       0.630   1.517   3.546  0.00  0.00     0.124 A 
ATOM      2  C1  UNL d   1       1.912   1.332   3.047  0.00  0.00     0.062 A 
ATOM      3  C2  UNL d   1       2.102   1.014   1.706  0.00  0.00     0.162 A 
ATOM      4  C3  UNL d   1       1.007   0.879   0.853  0.00  0.00    -0.034 A 
ATOM      5  C4  UNL d   1      -0.280   1.066   1.362  0.00  0.00     0.162 A 
ATOM      6  C5  UNL d   1      -0.465   1.384   2.703  0.00  0.00     0.062 A 
ATOM      7  F   UNL d   1      -1.704   1.562   3.183  0.00  0.00    -0.097 F 
ATOM      8  F1  UNL d   1      -1.355   0.944   0.569  0.00  0.00    -0.096 F 
ATOM      9  I   UNL d   1       1.287   0.403  -1.154  0.00  0.00    -0.060 I 
ATOM     10  F2  UNL d   1       3.352   0.841   1.251  0.00  0.00    -0.096 F 
ATOM     11  F3  UNL d   1       2.970   1.460   3.860  0.00  0.00    -0.097 F 
ATOM     12  F4  UNL d   1       0.450   1.823   4.838  0.00  0.00    -0.092 F 
ENDROOT
TORSDOF 0
ENDMDL
