MODEL 1
REMARK minimizedAffinity 12.1456232
REMARK minimizedRMSD -1
REMARK  0 active torsions:
REMARK  status: ('A' for Active; 'I' for Inactive)
ROOT
ATOM      1  C2' OXE d   1      -5.269   0.060  -4.198  0.00  0.00     0.078 C 
ATOM      2  C1' OXE d   1      -2.593  -0.169  -3.381  0.00  0.00     0.078 C 
ATOM      3  C1  OXE d   1      -3.621   0.181  -2.334  0.00  0.00    -0.078 A 
ATOM      4  C2  OXE d   1      -4.921   0.337  -2.751  0.00  0.00    -0.078 A 
ATOM      5  C3  OXE d   1      -5.917   0.605  -1.817  0.00  0.00     0.003 A 
ATOM      6  C4  OXE d   1      -5.585   0.870  -0.483  0.00  0.00    -0.002 A 
ATOM      7  C5  OXE d   1      -4.261   0.756  -0.045  0.00  0.00    -0.002 A 
ATOM      8  C6  OXE d   1      -3.276   0.372  -0.947  0.00  0.00     0.003 A 
ENDROOT
TORSDOF 0
ENDMDL
