MODEL 1
REMARK minimizedAffinity 21.0336514
REMARK minimizedRMSD -1
REMARK  0 active torsions:
REMARK  status: ('A' for Active; 'I' for Inactive)
ROOT
ATOM      1  C2' OXE d   1      -4.261   3.228   1.853  0.00  0.00     0.078 C 
ATOM      2  C1' OXE d   1      -2.155   4.139   0.236  0.00  0.00     0.078 C 
ATOM      3  C1  OXE d   1      -2.782   2.811  -0.108  0.00  0.00    -0.078 A 
ATOM      4  C2  OXE d   1      -3.781   2.351   0.716  0.00  0.00    -0.078 A 
ATOM      5  C3  OXE d   1      -4.431   1.159   0.413  0.00  0.00     0.003 A 
ATOM      6  C4  OXE d   1      -3.974   0.349  -0.634  0.00  0.00    -0.002 A 
ATOM      7  C5  OXE d   1      -2.932   0.780  -1.462  0.00  0.00    -0.002 A 
ATOM      8  C6  OXE d   1      -2.355   2.025  -1.239  0.00  0.00     0.003 A 
ENDROOT
TORSDOF 0
ENDMDL
