MODEL 1
REMARK minimizedAffinity 2.5156827
REMARK minimizedRMSD -1
REMARK  0 active torsions:
REMARK  status: ('A' for Active; 'I' for Inactive)
ROOT
ATOM      1  C2' OXE d   1      -4.996   3.340   2.059  0.00  0.00     0.078 C 
ATOM      2  C1' OXE d   1      -5.999   5.962   2.040  0.00  0.00     0.078 C 
ATOM      3  C1  OXE d   1      -5.752   5.313   3.379  0.00  0.00    -0.078 A 
ATOM      4  C2  OXE d   1      -5.305   4.013   3.379  0.00  0.00    -0.078 A 
ATOM      5  C3  OXE d   1      -5.009   3.386   4.586  0.00  0.00     0.003 A 
ATOM      6  C4  OXE d   1      -5.307   4.013   5.802  0.00  0.00    -0.002 A 
ATOM      7  C5  OXE d   1      -5.800   5.322   5.824  0.00  0.00    -0.002 A 
ATOM      8  C6  OXE d   1      -5.987   6.000   4.625  0.00  0.00     0.003 A 
ENDROOT
TORSDOF 0
ENDMDL
