MODEL 1
REMARK minimizedAffinity 13.1384964
REMARK minimizedRMSD -1
REMARK  0 active torsions:
REMARK  status: ('A' for Active; 'I' for Inactive)
ROOT
ATOM      1  C2' OXE d   1       2.665  -2.014   1.994  0.00  0.00     0.078 C 
ATOM      2  C1' OXE d   1       1.431  -2.540  -0.472  0.00  0.00     0.078 C 
ATOM      3  C1  OXE d   1       2.075  -1.189  -0.282  0.00  0.00    -0.078 A 
ATOM      4  C2  OXE d   1       2.636  -0.923   0.944  0.00  0.00    -0.078 A 
ATOM      5  C3  OXE d   1       3.291   0.286   1.155  0.00  0.00     0.003 A 
ATOM      6  C4  OXE d   1       3.251   1.293   0.182  0.00  0.00    -0.002 A 
ATOM      7  C5  OXE d   1       2.650   1.057  -1.059  0.00  0.00    -0.002 A 
ATOM      8  C6  OXE d   1       2.096  -0.191  -1.322  0.00  0.00     0.003 A 
ENDROOT
TORSDOF 0
ENDMDL
