MODEL 1
REMARK minimizedAffinity 13.8943052
REMARK minimizedRMSD -1
REMARK  0 active torsions:
REMARK  status: ('A' for Active; 'I' for Inactive)
ROOT
ATOM      1  C2' OXE d   1       0.141  -2.502   3.720  0.00  0.00     0.078 C 
ATOM      2  C1' OXE d   1       1.280  -3.682   5.998  0.00  0.00     0.078 C 
ATOM      3  C1  OXE d   1       0.032  -4.311   5.430  0.00  0.00    -0.078 A 
ATOM      4  C2  OXE d   1      -0.545  -3.699   4.343  0.00  0.00    -0.078 A 
ATOM      5  C3  OXE d   1      -1.666  -4.269   3.747  0.00  0.00     0.003 A 
ATOM      6  C4  OXE d   1      -2.300  -5.370   4.335  0.00  0.00    -0.002 A 
ATOM      7  C5  OXE d   1      -1.751  -5.984   5.466  0.00  0.00    -0.002 A 
ATOM      8  C6  OXE d   1      -0.564  -5.494   5.999  0.00  0.00     0.003 A 
ENDROOT
TORSDOF 0
ENDMDL
