MODEL 1
REMARK minimizedAffinity 7.10342789
REMARK minimizedRMSD -1
REMARK  0 active torsions:
REMARK  status: ('A' for Active; 'I' for Inactive)
ROOT
ATOM      1  C2' OXE d   1      -4.866  -0.377  -3.317  0.00  0.00     0.078 C 
ATOM      2  C1' OXE d   1      -6.000   2.179  -3.065  0.00  0.00     0.078 C 
ATOM      3  C1  OXE d   1      -5.335   1.581  -1.850  0.00  0.00    -0.078 A 
ATOM      4  C2  OXE d   1      -4.824   0.311  -1.970  0.00  0.00    -0.078 A 
ATOM      5  C3  OXE d   1      -4.152  -0.265  -0.896  0.00  0.00     0.003 A 
ATOM      6  C4  OXE d   1      -4.126   0.373   0.350  0.00  0.00    -0.002 A 
ATOM      7  C5  OXE d   1      -4.676   1.651   0.504  0.00  0.00    -0.002 A 
ATOM      8  C6  OXE d   1      -5.245   2.285  -0.595  0.00  0.00     0.003 A 
ENDROOT
TORSDOF 0
ENDMDL
