MODEL 1
REMARK minimizedAffinity 1.07905269
REMARK minimizedRMSD -1
REMARK  0 active torsions:
REMARK  status: ('A' for Active; 'I' for Inactive)
ROOT
ATOM      1  C2' OXE d   1       2.120  -2.251   0.037  0.00  0.00     0.078 C 
ATOM      2  C1' OXE d   1       3.275  -2.306  -2.521  0.00  0.00     0.078 C 
ATOM      3  C1  OXE d   1       3.259  -0.990  -1.785  0.00  0.00    -0.078 A 
ATOM      4  C2  OXE d   1       2.650  -0.962  -0.553  0.00  0.00    -0.078 A 
ATOM      5  C3  OXE d   1       2.656   0.214   0.192  0.00  0.00     0.003 A 
ATOM      6  C4  OXE d   1       3.138   1.404  -0.365  0.00  0.00    -0.002 A 
ATOM      7  C5  OXE d   1       3.727   1.406  -1.634  0.00  0.00    -0.002 A 
ATOM      8  C6  OXE d   1       3.833   0.212  -2.338  0.00  0.00     0.003 A 
ENDROOT
TORSDOF 0
ENDMDL
