MODEL 1
REMARK minimizedAffinity 7.16464949
REMARK minimizedRMSD -1
REMARK  0 active torsions:
REMARK  status: ('A' for Active; 'I' for Inactive)
ROOT
ATOM      1  C2' OXE d   1       1.525  -3.005  -0.386  0.00  0.00     0.078 C 
ATOM      2  C1' OXE d   1       1.820  -2.414  -3.114  0.00  0.00     0.078 C 
ATOM      3  C1  OXE d   1       2.277  -1.379  -2.117  0.00  0.00    -0.078 A 
ATOM      4  C2  OXE d   1       2.086  -1.657  -0.785  0.00  0.00    -0.078 A 
ATOM      5  C3  OXE d   1       2.539  -0.760   0.178  0.00  0.00     0.003 A 
ATOM      6  C4  OXE d   1       3.047   0.489  -0.199  0.00  0.00    -0.002 A 
ATOM      7  C5  OXE d   1       3.214   0.809  -1.551  0.00  0.00    -0.002 A 
ATOM      8  C6  OXE d   1       2.874  -0.129  -2.520  0.00  0.00     0.003 A 
ENDROOT
TORSDOF 0
ENDMDL
