MODEL 1
REMARK minimizedAffinity 10.5547428
REMARK minimizedRMSD -1
REMARK  0 active torsions:
REMARK  status: ('A' for Active; 'I' for Inactive)
ROOT
ATOM      1  C2' OXE d   1       6.000   3.579  -1.463  0.00  0.00     0.078 C 
ATOM      2  C1' OXE d   1       5.512   3.312   1.289  0.00  0.00     0.078 C 
ATOM      3  C1  OXE d   1       4.752   2.411   0.349  0.00  0.00    -0.078 A 
ATOM      4  C2  OXE d   1       4.962   2.580  -0.998  0.00  0.00    -0.078 A 
ATOM      5  C3  OXE d   1       4.327   1.738  -1.907  0.00  0.00     0.003 A 
ATOM      6  C4  OXE d   1       3.361   0.823  -1.469  0.00  0.00    -0.002 A 
ATOM      7  C5  OXE d   1       3.103   0.662  -0.104  0.00  0.00    -0.002 A 
ATOM      8  C6  OXE d   1       3.819   1.417   0.819  0.00  0.00     0.003 A 
ENDROOT
TORSDOF 0
ENDMDL
