MODEL 1
REMARK minimizedAffinity 4.72901297
REMARK minimizedRMSD -1
REMARK  0 active torsions:
REMARK  status: ('A' for Active; 'I' for Inactive)
ROOT
ATOM      1  C2' OXE d   1      -5.193   3.237   1.761  0.00  0.00     0.078 C 
ATOM      2  C1' OXE d   1      -6.000   5.925   1.701  0.00  0.00     0.078 C 
ATOM      3  C1  OXE d   1      -5.804   5.279   3.050  0.00  0.00    -0.078 A 
ATOM      4  C2  OXE d   1      -5.455   3.950   3.070  0.00  0.00    -0.078 A 
ATOM      5  C3  OXE d   1      -5.208   3.321   4.287  0.00  0.00     0.003 A 
ATOM      6  C4  OXE d   1      -5.462   3.985   5.493  0.00  0.00    -0.002 A 
ATOM      7  C5  OXE d   1      -5.857   5.327   5.495  0.00  0.00    -0.002 A 
ATOM      8  C6  OXE d   1      -5.991   5.999   4.286  0.00  0.00     0.003 A 
ENDROOT
TORSDOF 0
ENDMDL
