MODEL 1
REMARK minimizedAffinity 4.71142578
REMARK minimizedRMSD -1
REMARK  0 active torsions:
REMARK  status: ('A' for Active; 'I' for Inactive)
ROOT
ATOM      1  C2' OXE d   1      -4.363  -0.007  -1.008  0.00  0.00     0.078 C 
ATOM      2  C1' OXE d   1      -2.098   0.323  -2.633  0.00  0.00     0.078 C 
ATOM      3  C1  OXE d   1      -3.453   0.427  -3.286  0.00  0.00    -0.078 A 
ATOM      4  C2  OXE d   1      -4.555   0.218  -2.492  0.00  0.00    -0.078 A 
ATOM      5  C3  OXE d   1      -5.830   0.356  -3.033  0.00  0.00     0.003 A 
ATOM      6  C4  OXE d   1      -6.000   0.553  -4.408  0.00  0.00    -0.002 A 
ATOM      7  C5  OXE d   1      -4.890   0.730  -5.242  0.00  0.00    -0.002 A 
ATOM      8  C6  OXE d   1      -3.614   0.712  -4.691  0.00  0.00     0.003 A 
ENDROOT
TORSDOF 0
ENDMDL
