MODEL 1
REMARK minimizedAffinity 16.2606277
REMARK minimizedRMSD -1
REMARK  0 active torsions:
REMARK  status: ('A' for Active; 'I' for Inactive)
ROOT
ATOM      1  C2' OXE d   1      -5.138   4.541  -1.374  0.00  0.00     0.078 C 
ATOM      2  C1' OXE d   1      -5.924   2.425  -3.043  0.00  0.00     0.078 C 
ATOM      3  C1  OXE d   1      -5.281   2.079  -1.724  0.00  0.00    -0.078 A 
ATOM      4  C2  OXE d   1      -4.857   3.120  -0.934  0.00  0.00    -0.078 A 
ATOM      5  C3  OXE d   1      -4.307   2.857   0.317  0.00  0.00     0.003 A 
ATOM      6  C4  OXE d   1      -4.041   1.541   0.712  0.00  0.00    -0.002 A 
ATOM      7  C5  OXE d   1      -4.429   0.466  -0.095  0.00  0.00    -0.002 A 
ATOM      8  C6  OXE d   1      -5.087   0.716  -1.294  0.00  0.00     0.003 A 
ENDROOT
TORSDOF 0
ENDMDL
