MODEL 1
REMARK minimizedAffinity 5.71798468
REMARK minimizedRMSD -1
REMARK  0 active torsions:
REMARK  status: ('A' for Active; 'I' for Inactive)
ROOT
ATOM      1  C2' OXE d   1       0.066  -2.540   3.352  0.00  0.00     0.078 C 
ATOM      2  C1' OXE d   1       1.713  -3.286   5.499  0.00  0.00     0.078 C 
ATOM      3  C1  OXE d   1       0.493  -4.129   5.222  0.00  0.00    -0.078 A 
ATOM      4  C2  OXE d   1      -0.332  -3.730   4.198  0.00  0.00    -0.078 A 
ATOM      5  C3  OXE d   1      -1.441  -4.502   3.865  0.00  0.00     0.003 A 
ATOM      6  C4  OXE d   1      -1.808  -5.595   4.660  0.00  0.00    -0.002 A 
ATOM      7  C5  OXE d   1      -1.003  -5.996   5.732  0.00  0.00    -0.002 A 
ATOM      8  C6  OXE d   1       0.171  -5.301   5.999  0.00  0.00     0.003 A 
ENDROOT
TORSDOF 0
ENDMDL
