MODEL 1
REMARK minimizedAffinity 1.18916619
REMARK minimizedRMSD -1
REMARK  0 active torsions:
REMARK  status: ('A' for Active; 'I' for Inactive)
ROOT
ATOM      1  C4' PXY d   1       2.249  -1.195  -1.855  0.00  0.00     0.077 C 
ATOM      2  C1' PXY d   1       4.866  -6.000   0.010  0.00  0.00     0.077 C 
ATOM      3  C1  PXY d   1       4.177  -4.745  -0.490  0.00  0.00    -0.082 A 
ATOM      4  C2  PXY d   1       4.480  -3.574   0.046  0.00  0.00     0.003 A 
ATOM      5  C3  PXY d   1       3.844  -2.434  -0.373  0.00  0.00     0.003 A 
ATOM      6  C4  PXY d   1       2.926  -2.486  -1.388  0.00  0.00    -0.082 A 
ATOM      7  C5  PXY d   1       2.619  -3.675  -1.947  0.00  0.00     0.003 A 
ATOM      8  C6  PXY d   1       3.247  -4.827  -1.480  0.00  0.00     0.003 A 
ENDROOT
TORSDOF 0
ENDMDL
