MODEL 1
REMARK minimizedAffinity -4.41038036
REMARK minimizedRMSD -1
REMARK  0 active torsions:
REMARK  status: ('A' for Active; 'I' for Inactive)
ROOT
ATOM      1  C4' PXY d   1       3.733  -5.403  -3.540  0.00  0.00     0.077 C 
ATOM      2  C1' PXY d   1       2.591  -0.704  -0.373  0.00  0.00     0.077 C 
ATOM      3  C1  PXY d   1       2.900  -1.940  -1.195  0.00  0.00    -0.082 A 
ATOM      4  C2  PXY d   1       2.618  -1.953  -2.487  0.00  0.00     0.003 A 
ATOM      5  C3  PXY d   1       2.861  -3.074  -3.239  0.00  0.00     0.003 A 
ATOM      6  C4  PXY d   1       3.447  -4.174  -2.673  0.00  0.00    -0.082 A 
ATOM      7  C5  PXY d   1       3.748  -4.164  -1.357  0.00  0.00     0.003 A 
ATOM      8  C6  PXY d   1       3.456  -3.032  -0.603  0.00  0.00     0.003 A 
ENDROOT
TORSDOF 0
ENDMDL
