MODEL 1
REMARK minimizedAffinity -1.49798882
REMARK minimizedRMSD -1
REMARK  0 active torsions:
REMARK  status: ('A' for Active; 'I' for Inactive)
ROOT
ATOM      1  C4' PXY d   1       1.930  -1.502  -0.010  0.00  0.00     0.077 C 
ATOM      2  C1' PXY d   1       4.363  -5.059  -3.862  0.00  0.00     0.077 C 
ATOM      3  C1  PXY d   1       3.728  -4.135  -2.843  0.00  0.00    -0.082 A 
ATOM      4  C2  PXY d   1       2.797  -3.277  -3.228  0.00  0.00     0.003 A 
ATOM      5  C3  PXY d   1       2.235  -2.411  -2.324  0.00  0.00     0.003 A 
ATOM      6  C4  PXY d   1       2.591  -2.461  -1.003  0.00  0.00    -0.082 A 
ATOM      7  C5  PXY d   1       3.532  -3.341  -0.601  0.00  0.00     0.003 A 
ATOM      8  C6  PXY d   1       4.120  -4.183  -1.541  0.00  0.00     0.003 A 
ENDROOT
TORSDOF 0
ENDMDL
