MODEL 1
REMARK minimizedAffinity 7.61201668
REMARK minimizedRMSD -1
REMARK  0 active torsions:
REMARK  status: ('A' for Active; 'I' for Inactive)
ROOT
ATOM      1  C4' PXY d   1       3.048  -3.329  -5.320  0.00  0.00     0.077 C 
ATOM      2  C1' PXY d   1       3.900  -4.054   0.351  0.00  0.00     0.077 C 
ATOM      3  C1  PXY d   1       3.689  -3.864  -1.138  0.00  0.00    -0.082 A 
ATOM      4  C2  PXY d   1       2.585  -3.279  -1.573  0.00  0.00     0.003 A 
ATOM      5  C3  PXY d   1       2.364  -3.128  -2.918  0.00  0.00     0.003 A 
ATOM      6  C4  PXY d   1       3.307  -3.533  -3.825  0.00  0.00    -0.082 A 
ATOM      7  C5  PXY d   1       4.441  -4.121  -3.388  0.00  0.00     0.003 A 
ATOM      8  C6  PXY d   1       4.628  -4.302  -2.021  0.00  0.00     0.003 A 
ENDROOT
TORSDOF 0
ENDMDL
