MODEL 1
REMARK minimizedAffinity 3.50528455
REMARK minimizedRMSD -1
REMARK  0 active torsions:
REMARK  status: ('A' for Active; 'I' for Inactive)
ROOT
ATOM      1  C4' PXY d   1       4.615  -4.877   0.438  0.00  0.00     0.077 C 
ATOM      2  C1' PXY d   1       2.290  -3.815  -4.747  0.00  0.00     0.077 C 
ATOM      3  C1  PXY d   1       2.889  -4.088  -3.382  0.00  0.00    -0.082 A 
ATOM      4  C2  PXY d   1       4.197  -4.251  -3.262  0.00  0.00     0.003 A 
ATOM      5  C3  PXY d   1       4.752  -4.530  -2.040  0.00  0.00     0.003 A 
ATOM      6  C4  PXY d   1       3.967  -4.590  -0.920  0.00  0.00    -0.082 A 
ATOM      7  C5  PXY d   1       2.633  -4.414  -1.032  0.00  0.00     0.003 A 
ATOM      8  C6  PXY d   1       2.085  -4.172  -2.288  0.00  0.00     0.003 A 
ENDROOT
TORSDOF 0
ENDMDL
