MODEL 1
REMARK minimizedAffinity 1.30963624
REMARK minimizedRMSD -1
REMARK  0 active torsions:
REMARK  status: ('A' for Active; 'I' for Inactive)
ROOT
ATOM      1  C4' PXY d   1       4.138  -4.717   0.425  0.00  0.00     0.077 C 
ATOM      2  C1' PXY d   1       2.467  -3.262  -4.914  0.00  0.00     0.077 C 
ATOM      3  C1  PXY d   1       2.900  -3.632  -3.509  0.00  0.00    -0.082 A 
ATOM      4  C2  PXY d   1       3.907  -4.472  -3.336  0.00  0.00     0.003 A 
ATOM      5  C3  PXY d   1       4.291  -4.843  -2.073  0.00  0.00     0.003 A 
ATOM      6  C4  PXY d   1       3.672  -4.307  -0.975  0.00  0.00    -0.082 A 
ATOM      7  C5  PXY d   1       2.650  -3.442  -1.144  0.00  0.00     0.003 A 
ATOM      8  C6  PXY d   1       2.249  -3.110  -2.435  0.00  0.00     0.003 A 
ENDROOT
TORSDOF 0
ENDMDL
