MODEL 1
REMARK minimizedAffinity 10.3511868
REMARK minimizedRMSD -1
REMARK  0 active torsions:
REMARK  status: ('A' for Active; 'I' for Inactive)
ROOT
ATOM      1  C4' PXY d   1       4.709  -4.797  -0.076  0.00  0.00     0.077 C 
ATOM      2  C1' PXY d   1       1.130  -4.293  -4.587  0.00  0.00     0.077 C 
ATOM      3  C1  PXY d   1       2.063  -4.415  -3.398  0.00  0.00    -0.082 A 
ATOM      4  C2  PXY d   1       3.230  -5.022  -3.542  0.00  0.00     0.003 A 
ATOM      5  C3  PXY d   1       4.072  -5.169  -2.470  0.00  0.00     0.003 A 
ATOM      6  C4  PXY d   1       3.739  -4.642  -1.251  0.00  0.00    -0.082 A 
ATOM      7  C5  PXY d   1       2.556  -4.012  -1.098  0.00  0.00     0.003 A 
ATOM      8  C6  PXY d   1       1.697  -3.909  -2.189  0.00  0.00     0.003 A 
ENDROOT
TORSDOF 0
ENDMDL
