MODEL 1
REMARK minimizedAffinity 3.70018482
REMARK minimizedRMSD -1
REMARK  0 active torsions:
REMARK  status: ('A' for Active; 'I' for Inactive)
ROOT
ATOM      1  C4' PXY d   1       4.564  -5.512   0.008  0.00  0.00     0.077 C 
ATOM      2  C1' PXY d   1       3.018  -3.459  -5.170  0.00  0.00     0.077 C 
ATOM      3  C1  PXY d   1       3.417  -3.988  -3.807  0.00  0.00    -0.082 A 
ATOM      4  C2  PXY d   1       4.504  -4.734  -3.686  0.00  0.00     0.003 A 
ATOM      5  C3  PXY d   1       4.861  -5.246  -2.466  0.00  0.00     0.003 A 
ATOM      6  C4  PXY d   1       4.129  -4.949  -1.348  0.00  0.00    -0.082 A 
ATOM      7  C5  PXY d   1       3.025  -4.180  -1.461  0.00  0.00     0.003 A 
ATOM      8  C6  PXY d   1       2.656  -3.703  -2.715  0.00  0.00     0.003 A 
ENDROOT
TORSDOF 0
ENDMDL
