MODEL 1
REMARK minimizedAffinity -1.19893813
REMARK minimizedRMSD -1
REMARK  0 active torsions:
REMARK  status: ('A' for Active; 'I' for Inactive)
ROOT
ATOM      1  C4' PXY d   1       2.596  -2.426  -4.474  0.00  0.00     0.077 C 
ATOM      2  C1' PXY d   1       4.473  -5.227   0.221  0.00  0.00     0.077 C 
ATOM      3  C1  PXY d   1       3.992  -4.496  -1.017  0.00  0.00    -0.082 A 
ATOM      4  C2  PXY d   1       3.132  -3.498  -0.894  0.00  0.00     0.003 A 
ATOM      5  C3  PXY d   1       2.662  -2.847  -2.005  0.00  0.00     0.003 A 
ATOM      6  C4  PXY d   1       3.116  -3.186  -3.251  0.00  0.00    -0.082 A 
ATOM      7  C5  PXY d   1       4.002  -4.196  -3.384  0.00  0.00     0.003 A 
ATOM      8  C6  PXY d   1       4.436  -4.872  -2.247  0.00  0.00     0.003 A 
ENDROOT
TORSDOF 0
ENDMDL
