MODEL 1
REMARK minimizedAffinity 1.82319117
REMARK minimizedRMSD -1
REMARK  0 active torsions:
REMARK  status: ('A' for Active; 'I' for Inactive)
ROOT
ATOM      1  C4' PXY d   1       2.428   0.005  -2.255  0.00  0.00     0.077 C 
ATOM      2  C1' PXY d   1       3.956  -5.209  -0.282  0.00  0.00     0.077 C 
ATOM      3  C1  PXY d   1       3.551  -3.847  -0.810  0.00  0.00    -0.082 A 
ATOM      4  C2  PXY d   1       4.127  -2.760  -0.325  0.00  0.00     0.003 A 
ATOM      5  C3  PXY d   1       3.751  -1.518  -0.769  0.00  0.00     0.003 A 
ATOM      6  C4  PXY d   1       2.812  -1.391  -1.758  0.00  0.00    -0.082 A 
ATOM      7  C5  PXY d   1       2.227  -2.497  -2.265  0.00  0.00     0.003 A 
ATOM      8  C6  PXY d   1       2.593  -3.746  -1.772  0.00  0.00     0.003 A 
ENDROOT
TORSDOF 0
ENDMDL
