MODEL 1
REMARK minimizedAffinity 1.46486914
REMARK minimizedRMSD -1
REMARK  0 active torsions:
REMARK  status: ('A' for Active; 'I' for Inactive)
ROOT
ATOM      1  C4' PXY d   1      -0.003  -1.795   5.999  0.00  0.00     0.077 C 
ATOM      2  C1' PXY d   1      -3.073   2.606   3.850  0.00  0.00     0.077 C 
ATOM      3  C1  PXY d   1      -2.276   1.443   4.408  0.00  0.00    -0.082 A 
ATOM      4  C2  PXY d   1      -1.548   1.613   5.499  0.00  0.00     0.003 A 
ATOM      5  C3  PXY d   1      -0.796   0.581   5.999  0.00  0.00     0.003 A 
ATOM      6  C4  PXY d   1      -0.831  -0.652   5.406  0.00  0.00    -0.082 A 
ATOM      7  C5  PXY d   1      -1.580  -0.836   4.298  0.00  0.00     0.003 A 
ATOM      8  C6  PXY d   1      -2.304   0.235   3.783  0.00  0.00     0.003 A 
ENDROOT
TORSDOF 0
ENDMDL
