MODEL 1
REMARK minimizedAffinity 0.184218943
REMARK minimizedRMSD -1
REMARK  0 active torsions:
REMARK  status: ('A' for Active; 'I' for Inactive)
ROOT
ATOM      1  C4' PXY d   1       1.296  -2.217  -0.362  0.00  0.00     0.077 C 
ATOM      2  C1' PXY d   1      -2.983  -3.938   3.123  0.00  0.00     0.077 C 
ATOM      3  C1  PXY d   1      -1.864  -3.496   2.200  0.00  0.00    -0.082 A 
ATOM      4  C2  PXY d   1      -0.837  -2.822   2.693  0.00  0.00     0.003 A 
ATOM      5  C3  PXY d   1       0.168  -2.387   1.868  0.00  0.00     0.003 A 
ATOM      6  C4  PXY d   1       0.148  -2.691   0.533  0.00  0.00    -0.082 A 
ATOM      7  C5  PXY d   1      -0.890  -3.387   0.024  0.00  0.00     0.003 A 
ATOM      8  C6  PXY d   1      -1.921  -3.784   0.872  0.00  0.00     0.003 A 
ENDROOT
TORSDOF 0
ENDMDL
