MODEL 1
REMARK minimizedAffinity 6.4720397
REMARK minimizedRMSD -1
REMARK  0 active torsions:
REMARK  status: ('A' for Active; 'I' for Inactive)
ROOT
ATOM      1  C4' PXY d   1      -3.038  -4.148  -5.989  0.00  0.00     0.077 C 
ATOM      2  C1' PXY d   1      -1.812  -4.198  -0.340  0.00  0.00     0.077 C 
ATOM      3  C1  PXY d   1      -2.144  -4.177  -1.819  0.00  0.00    -0.082 A 
ATOM      4  C2  PXY d   1      -1.721  -5.160  -2.598  0.00  0.00     0.003 A 
ATOM      5  C3  PXY d   1      -1.985  -5.140  -3.944  0.00  0.00     0.003 A 
ATOM      6  C4  PXY d   1      -2.735  -4.133  -4.488  0.00  0.00    -0.082 A 
ATOM      7  C5  PXY d   1      -3.179  -3.132  -3.698  0.00  0.00     0.003 A 
ATOM      8  C6  PXY d   1      -2.866  -3.149  -2.342  0.00  0.00     0.003 A 
ENDROOT
TORSDOF 0
ENDMDL
