MODEL 1
REMARK minimizedAffinity 1.1516906
REMARK minimizedRMSD -1
REMARK  0 active torsions:
REMARK  status: ('A' for Active; 'I' for Inactive)
ROOT
ATOM      1  C4' PXY d   1       0.150   0.025   5.741  0.00  0.00     0.077 C 
ATOM      2  C1' PXY d   1      -3.170   2.533   1.729  0.00  0.00     0.077 C 
ATOM      3  C1  PXY d   1      -2.308   1.878   2.790  0.00  0.00    -0.082 A 
ATOM      4  C2  PXY d   1      -0.999   1.806   2.617  0.00  0.00     0.003 A 
ATOM      5  C3  PXY d   1      -0.208   1.189   3.551  0.00  0.00     0.003 A 
ATOM      6  C4  PXY d   1      -0.758   0.686   4.700  0.00  0.00    -0.082 A 
ATOM      7  C5  PXY d   1      -2.092   0.764   4.889  0.00  0.00     0.003 A 
ATOM      8  C6  PXY d   1      -2.882   1.359   3.909  0.00  0.00     0.003 A 
ENDROOT
TORSDOF 0
ENDMDL
