MODEL 1
REMARK minimizedAffinity 8.9406805
REMARK minimizedRMSD -1
REMARK  0 active torsions:
REMARK  status: ('A' for Active; 'I' for Inactive)
ROOT
ATOM      1  C4' PXY d   1       1.512   2.154  -2.991  0.00  0.00     0.077 C 
ATOM      2  C1' PXY d   1       1.513   6.000   1.325  0.00  0.00     0.077 C 
ATOM      3  C1  PXY d   1       1.508   5.000   0.185  0.00  0.00    -0.082 A 
ATOM      4  C2  PXY d   1       1.469   3.705   0.451  0.00  0.00     0.003 A 
ATOM      5  C3  PXY d   1       1.496   2.786  -0.566  0.00  0.00     0.003 A 
ATOM      6  C4  PXY d   1       1.510   3.199  -1.872  0.00  0.00    -0.082 A 
ATOM      7  C5  PXY d   1       1.539   4.519  -2.152  0.00  0.00     0.003 A 
ATOM      8  C6  PXY d   1       1.553   5.435  -1.104  0.00  0.00     0.003 A 
ENDROOT
TORSDOF 0
ENDMDL
