MODEL 1
REMARK minimizedAffinity 1.25447714
REMARK minimizedRMSD -1
REMARK  0 active torsions:
REMARK  status: ('A' for Active; 'I' for Inactive)
ROOT
ATOM      1  C4' PXY d   1      -3.384  -3.746   3.012  0.00  0.00     0.077 C 
ATOM      2  C1' PXY d   1      -3.206   2.030   2.867  0.00  0.00     0.077 C 
ATOM      3  C1  PXY d   1      -3.265   0.516   2.907  0.00  0.00    -0.082 A 
ATOM      4  C2  PXY d   1      -2.196  -0.172   3.274  0.00  0.00     0.003 A 
ATOM      5  C3  PXY d   1      -2.223  -1.543   3.284  0.00  0.00     0.003 A 
ATOM      6  C4  PXY d   1      -3.372  -2.216   2.967  0.00  0.00    -0.082 A 
ATOM      7  C5  PXY d   1      -4.470  -1.521   2.601  0.00  0.00     0.003 A 
ATOM      8  C6  PXY d   1      -4.410  -0.131   2.557  0.00  0.00     0.003 A 
ENDROOT
TORSDOF 0
ENDMDL
