MODEL 1
REMARK minimizedAffinity 2.46995354
REMARK minimizedRMSD -1
REMARK  0 active torsions:
REMARK  status: ('A' for Active; 'I' for Inactive)
ROOT
ATOM      1  C4' PXY d   1       1.808   5.999  -0.039  0.00  0.00     0.077 C 
ATOM      2  C1' PXY d   1       1.816   0.651  -2.232  0.00  0.00     0.077 C 
ATOM      3  C1  PXY d   1       1.805   2.050  -1.648  0.00  0.00    -0.082 A 
ATOM      4  C2  PXY d   1       2.212   3.070  -2.386  0.00  0.00     0.003 A 
ATOM      5  C3  PXY d   1       2.239   4.337  -1.864  0.00  0.00     0.003 A 
ATOM      6  C4  PXY d   1       1.793   4.571  -0.590  0.00  0.00    -0.082 A 
ATOM      7  C5  PXY d   1       1.366   3.537   0.165  0.00  0.00     0.003 A 
ATOM      8  C6  PXY d   1       1.385   2.252  -0.370  0.00  0.00     0.003 A 
ENDROOT
TORSDOF 0
ENDMDL
