MODEL 1
REMARK minimizedAffinity 5.14709139
REMARK minimizedRMSD -1
REMARK  0 active torsions:
REMARK  status: ('A' for Active; 'I' for Inactive)
ROOT
ATOM      1  C4' PXY d   1       3.029  -1.292  -0.387  0.00  0.00     0.077 C 
ATOM      2  C1' PXY d   1       1.501   4.183   0.663  0.00  0.00     0.077 C 
ATOM      3  C1  PXY d   1       1.894   2.747   0.377  0.00  0.00    -0.082 A 
ATOM      4  C2  PXY d   1       2.297   1.969   1.369  0.00  0.00     0.003 A 
ATOM      5  C3  PXY d   1       2.686   0.678   1.123  0.00  0.00     0.003 A 
ATOM      6  C4  PXY d   1       2.613   0.161  -0.143  0.00  0.00    -0.082 A 
ATOM      7  C5  PXY d   1       2.193   0.946  -1.159  0.00  0.00     0.003 A 
ATOM      8  C6  PXY d   1       1.841   2.266  -0.895  0.00  0.00     0.003 A 
ENDROOT
TORSDOF 0
ENDMDL
