MODEL 1
REMARK minimizedAffinity 0.886097431
REMARK minimizedRMSD -1
REMARK  0 active torsions:
REMARK  status: ('A' for Active; 'I' for Inactive)
ROOT
ATOM      1  C4' PXY d   1       1.939   5.872  -0.661  0.00  0.00     0.077 C 
ATOM      2  C1' PXY d   1       0.667   1.008  -3.514  0.00  0.00     0.077 C 
ATOM      3  C1  PXY d   1       1.006   2.276  -2.756  0.00  0.00    -0.082 A 
ATOM      4  C2  PXY d   1       0.336   3.389  -3.011  0.00  0.00     0.003 A 
ATOM      5  C3  PXY d   1       0.651   4.553  -2.357  0.00  0.00     0.003 A 
ATOM      6  C4  PXY d   1       1.625   4.565  -1.395  0.00  0.00    -0.082 A 
ATOM      7  C5  PXY d   1       2.306   3.432  -1.123  0.00  0.00     0.003 A 
ATOM      8  C6  PXY d   1       1.999   2.271  -1.826  0.00  0.00     0.003 A 
ENDROOT
TORSDOF 0
ENDMDL
