MODEL 1
REMARK minimizedAffinity 12.1526012
REMARK minimizedRMSD -1
REMARK  0 active torsions:
REMARK  status: ('A' for Active; 'I' for Inactive)
ROOT
ATOM      1  C4' PXY d   1      -0.697  -3.953  -6.000  0.00  0.00     0.077 C 
ATOM      2  C1' PXY d   1      -2.184  -4.317  -0.425  0.00  0.00     0.077 C 
ATOM      3  C1  PXY d   1      -1.803  -4.213  -1.889  0.00  0.00    -0.082 A 
ATOM      4  C2  PXY d   1      -1.157  -5.211  -2.470  0.00  0.00     0.003 A 
ATOM      5  C3  PXY d   1      -0.778  -5.120  -3.784  0.00  0.00     0.003 A 
ATOM      6  C4  PXY d   1      -1.109  -4.018  -4.526  0.00  0.00    -0.082 A 
ATOM      7  C5  PXY d   1      -1.777  -3.000  -3.944  0.00  0.00     0.003 A 
ATOM      8  C6  PXY d   1      -2.117  -3.094  -2.598  0.00  0.00     0.003 A 
ENDROOT
TORSDOF 0
ENDMDL
