MODEL 1
REMARK minimizedAffinity 1.86314785
REMARK minimizedRMSD -1
REMARK  0 active torsions:
REMARK  status: ('A' for Active; 'I' for Inactive)
ROOT
ATOM      1  C   UNL d   1      -2.118   3.761   0.256  0.00  0.00     0.124 A 
ATOM      2  C1  UNL d   1      -1.157   3.805  -0.745  0.00  0.00     0.062 A 
ATOM      3  C2  UNL d   1      -0.187   2.811  -0.829  0.00  0.00     0.162 A 
ATOM      4  C3  UNL d   1      -0.174   1.762   0.091  0.00  0.00    -0.034 A 
ATOM      5  C4  UNL d   1      -1.142   1.725   1.095  0.00  0.00     0.162 A 
ATOM      6  C5  UNL d   1      -2.110   2.722   1.175  0.00  0.00     0.062 A 
ATOM      7  F   UNL d   1      -3.037   2.678   2.143  0.00  0.00    -0.097 F 
ATOM      8  F1  UNL d   1      -1.158   0.731   1.996  0.00  0.00    -0.096 F 
ATOM      9  I   UNL d   1       1.275   0.273  -0.031  0.00  0.00    -0.060 I 
ATOM     10  F2  UNL d   1       0.729   2.878  -1.806  0.00  0.00    -0.096 F 
ATOM     11  F3  UNL d   1      -1.163   4.809  -1.634  0.00  0.00    -0.097 F 
ATOM     12  F4  UNL d   1      -3.049   4.720   0.334  0.00  0.00    -0.092 F 
ENDROOT
TORSDOF 0
ENDMDL
