MODEL 1
REMARK minimizedAffinity 14.1145859
REMARK minimizedRMSD -1
REMARK  0 active torsions:
REMARK  status: ('A' for Active; 'I' for Inactive)
ROOT
ATOM      1  C   UNL d   1       0.779   4.395   0.295  0.00  0.00     0.124 A 
ATOM      2  C1  UNL d   1      -0.224   3.630  -0.284  0.00  0.00     0.062 A 
ATOM      3  C2  UNL d   1      -0.747   2.532   0.393  0.00  0.00     0.162 A 
ATOM      4  C3  UNL d   1      -0.268   2.192   1.658  0.00  0.00    -0.034 A 
ATOM      5  C4  UNL d   1       0.742   2.966   2.234  0.00  0.00     0.162 A 
ATOM      6  C5  UNL d   1       1.261   4.062   1.553  0.00  0.00     0.062 A 
ATOM      7  F   UNL d   1       2.230   4.800   2.114  0.00  0.00    -0.097 F 
ATOM      8  F1  UNL d   1       1.225   2.667   3.449  0.00  0.00    -0.096 F 
ATOM      9  I   UNL d   1      -1.046   0.551   2.674  0.00  0.00    -0.060 I 
ATOM     10  F2  UNL d   1      -1.715   1.811  -0.191  0.00  0.00    -0.096 F 
ATOM     11  F3  UNL d   1      -0.691   3.949  -1.500  0.00  0.00    -0.097 F 
ATOM     12  F4  UNL d   1       1.280   5.450  -0.359  0.00  0.00    -0.092 F 
ENDROOT
TORSDOF 0
ENDMDL
