MODEL 1
REMARK minimizedAffinity 6.8562603
REMARK minimizedRMSD -1
REMARK  0 active torsions:
REMARK  status: ('A' for Active; 'I' for Inactive)
ROOT
ATOM      1  C   UNL d   1      -0.455   3.745  -0.319  0.00  0.00     0.124 A 
ATOM      2  C1  UNL d   1      -1.084   2.528  -0.095  0.00  0.00     0.062 A 
ATOM      3  C2  UNL d   1      -0.718   1.405  -0.831  0.00  0.00     0.162 A 
ATOM      4  C3  UNL d   1       0.283   1.493  -1.799  0.00  0.00    -0.034 A 
ATOM      5  C4  UNL d   1       0.909   2.720  -2.020  0.00  0.00     0.162 A 
ATOM      6  C5  UNL d   1       0.540   3.840  -1.281  0.00  0.00     0.062 A 
ATOM      7  F   UNL d   1       1.149   5.015  -1.500  0.00  0.00    -0.097 F 
ATOM      8  F1  UNL d   1       1.875   2.840  -2.943  0.00  0.00    -0.096 F 
ATOM      9  I   UNL d   1       0.832  -0.184  -2.902  0.00  0.00    -0.060 I 
ATOM     10  F2  UNL d   1      -1.342   0.242  -0.592  0.00  0.00    -0.096 F 
ATOM     11  F3  UNL d   1      -2.047   2.433   0.834  0.00  0.00    -0.097 F 
ATOM     12  F4  UNL d   1      -0.810   4.824   0.390  0.00  0.00    -0.092 F 
ENDROOT
TORSDOF 0
ENDMDL
