MODEL 1
REMARK minimizedAffinity 5.73158646
REMARK minimizedRMSD -1
REMARK  0 active torsions:
REMARK  status: ('A' for Active; 'I' for Inactive)
ROOT
ATOM      1  C   UNL d   1       1.325   1.663  -1.874  0.00  0.00     0.124 A 
ATOM      2  C1  UNL d   1       0.962   2.995  -1.726  0.00  0.00     0.062 A 
ATOM      3  C2  UNL d   1       0.337   3.424  -0.559  0.00  0.00     0.162 A 
ATOM      4  C3  UNL d   1       0.072   2.521   0.471  0.00  0.00    -0.034 A 
ATOM      5  C4  UNL d   1       0.439   1.184   0.314  0.00  0.00     0.162 A 
ATOM      6  C5  UNL d   1       1.064   0.759  -0.854  0.00  0.00     0.062 A 
ATOM      7  F   UNL d   1       1.414  -0.528  -0.996  0.00  0.00    -0.097 F 
ATOM      8  F1  UNL d   1       0.199   0.289   1.284  0.00  0.00    -0.096 F 
ATOM      9  I   UNL d   1      -0.862   3.160   2.217  0.00  0.00    -0.060 I 
ATOM     10  F2  UNL d   1      -0.003   4.717  -0.443  0.00  0.00    -0.096 F 
ATOM     11  F3  UNL d   1       1.213   3.870  -2.710  0.00  0.00    -0.097 F 
ATOM     12  F4  UNL d   1       1.926   1.253  -2.999  0.00  0.00    -0.092 F 
ENDROOT
TORSDOF 0
ENDMDL
