MODEL 1
REMARK minimizedAffinity 3.53397751
REMARK minimizedRMSD -1
REMARK  0 active torsions:
REMARK  status: ('A' for Active; 'I' for Inactive)
ROOT
ATOM      1  C   UNL d   1      -1.506   1.654   2.294  0.00  0.00     0.124 A 
ATOM      2  C1  UNL d   1      -1.917   2.796   1.621  0.00  0.00     0.062 A 
ATOM      3  C2  UNL d   1      -1.367   3.115   0.383  0.00  0.00     0.162 A 
ATOM      4  C3  UNL d   1      -0.399   2.290  -0.191  0.00  0.00    -0.034 A 
ATOM      5  C4  UNL d   1       0.010   1.144   0.492  0.00  0.00     0.162 A 
ATOM      6  C5  UNL d   1      -0.543   0.829   1.729  0.00  0.00     0.062 A 
ATOM      7  F   UNL d   1      -0.145  -0.275   2.378  0.00  0.00    -0.097 F 
ATOM      8  F1  UNL d   1       0.938   0.329  -0.030  0.00  0.00    -0.096 F 
ATOM      9  I   UNL d   1       0.426   2.764  -2.042  0.00  0.00    -0.060 I 
ATOM     10  F2  UNL d   1      -1.783   4.225  -0.245  0.00  0.00    -0.096 F 
ATOM     11  F3  UNL d   1      -2.847   3.595   2.164  0.00  0.00    -0.097 F 
ATOM     12  F4  UNL d   1      -2.037   1.350   3.485  0.00  0.00    -0.092 F 
ENDROOT
TORSDOF 0
ENDMDL
