MODEL 1
REMARK minimizedAffinity 12.5694723
REMARK minimizedRMSD -1
REMARK  0 active torsions:
REMARK  status: ('A' for Active; 'I' for Inactive)
ROOT
ATOM      1  C   UNL d   1      -0.838   2.407   0.264  0.00  0.00     0.124 A 
ATOM      2  C1  UNL d   1      -0.098   2.322  -0.907  0.00  0.00     0.062 A 
ATOM      3  C2  UNL d   1       0.895   1.356  -1.039  0.00  0.00     0.162 A 
ATOM      4  C3  UNL d   1       1.154   0.466   0.004  0.00  0.00    -0.034 A 
ATOM      5  C4  UNL d   1       0.406   0.558   1.179  0.00  0.00     0.162 A 
ATOM      6  C5  UNL d   1      -0.586   1.525   1.306  0.00  0.00     0.062 A 
ATOM      7  F   UNL d   1      -1.300   1.606   2.438  0.00  0.00    -0.097 F 
ATOM      8  F1  UNL d   1       0.629  -0.282   2.201  0.00  0.00    -0.096 F 
ATOM      9  I   UNL d   1       2.639  -0.980  -0.189  0.00  0.00    -0.060 I 
ATOM     10  F2  UNL d   1       1.595   1.297  -2.181  0.00  0.00    -0.096 F 
ATOM     11  F3  UNL d   1      -0.340   3.173  -1.914  0.00  0.00    -0.097 F 
ATOM     12  F4  UNL d   1      -1.793   3.338   0.388  0.00  0.00    -0.092 F 
ENDROOT
TORSDOF 0
ENDMDL
