MODEL 1
REMARK minimizedAffinity 7.16117573
REMARK minimizedRMSD -1
REMARK  0 active torsions:
REMARK  status: ('A' for Active; 'I' for Inactive)
ROOT
ATOM      1  C   UNL d   1       0.134   4.617   0.199  0.00  0.00     0.124 A 
ATOM      2  C1  UNL d   1       0.553   4.487  -1.118  0.00  0.00     0.062 A 
ATOM      3  C2  UNL d   1       0.494   3.249  -1.752  0.00  0.00     0.162 A 
ATOM      4  C3  UNL d   1       0.014   2.131  -1.070  0.00  0.00    -0.034 A 
ATOM      5  C4  UNL d   1      -0.404   2.269   0.255  0.00  0.00     0.162 A 
ATOM      6  C5  UNL d   1      -0.344   3.509   0.884  0.00  0.00     0.062 A 
ATOM      7  F   UNL d   1      -0.749   3.632   2.157  0.00  0.00    -0.097 F 
ATOM      8  F1  UNL d   1      -0.871   1.215   0.940  0.00  0.00    -0.096 F 
ATOM      9  I   UNL d   1      -0.074   0.279  -2.015  0.00  0.00    -0.060 I 
ATOM     10  F2  UNL d   1       0.905   3.153  -3.025  0.00  0.00    -0.096 F 
ATOM     11  F3  UNL d   1       1.015   5.556  -1.781  0.00  0.00    -0.097 F 
ATOM     12  F4  UNL d   1       0.192   5.809   0.807  0.00  0.00    -0.092 F 
ENDROOT
TORSDOF 0
ENDMDL
