MODEL 1
REMARK minimizedAffinity 6.2577858
REMARK minimizedRMSD -1
REMARK  0 active torsions:
REMARK  status: ('A' for Active; 'I' for Inactive)
ROOT
ATOM      1  C   UNL d   1       1.149   4.596   0.439  0.00  0.00     0.124 A 
ATOM      2  C1  UNL d   1       1.048   4.384   1.807  0.00  0.00     0.062 A 
ATOM      3  C2  UNL d   1       0.163   3.431   2.303  0.00  0.00     0.162 A 
ATOM      4  C3  UNL d   1      -0.626   2.681   1.431  0.00  0.00    -0.034 A 
ATOM      5  C4  UNL d   1      -0.519   2.901   0.057  0.00  0.00     0.162 A 
ATOM      6  C5  UNL d   1       0.366   3.855  -0.434  0.00  0.00     0.062 A 
ATOM      7  F   UNL d   1       0.463   4.059  -1.756  0.00  0.00    -0.097 F 
ATOM      8  F1  UNL d   1      -1.264   2.198  -0.810  0.00  0.00    -0.096 F 
ATOM      9  I   UNL d   1      -1.950   1.255   2.170  0.00  0.00    -0.060 I 
ATOM     10  F2  UNL d   1       0.086   3.246   3.630  0.00  0.00    -0.096 F 
ATOM     11  F3  UNL d   1       1.803   5.099   2.653  0.00  0.00    -0.097 F 
ATOM     12  F4  UNL d   1       2.001   5.515  -0.036  0.00  0.00    -0.092 F 
ENDROOT
TORSDOF 0
ENDMDL
