MODEL 1
REMARK minimizedAffinity 5.60547781
REMARK minimizedRMSD -1
REMARK  0 active torsions:
REMARK  status: ('A' for Active; 'I' for Inactive)
ROOT
ATOM      1  C   UNL d   1      -1.202   3.040   0.550  0.00  0.00     0.124 A 
ATOM      2  C1  UNL d   1      -0.532   3.124  -0.663  0.00  0.00     0.062 A 
ATOM      3  C2  UNL d   1       0.401   2.153  -1.017  0.00  0.00     0.162 A 
ATOM      4  C3  UNL d   1       0.668   1.088  -0.157  0.00  0.00    -0.034 A 
ATOM      5  C4  UNL d   1      -0.009   1.010   1.062  0.00  0.00     0.162 A 
ATOM      6  C5  UNL d   1      -0.940   1.983   1.410  0.00  0.00     0.062 A 
ATOM      7  F   UNL d   1      -1.587   1.900   2.582  0.00  0.00    -0.097 F 
ATOM      8  F1  UNL d   1       0.224  -0.001   1.912  0.00  0.00    -0.096 F 
ATOM      9  I   UNL d   1       2.062  -0.366  -0.682  0.00  0.00    -0.060 I 
ATOM     10  F2  UNL d   1       1.034   2.260  -2.194  0.00  0.00    -0.096 F 
ATOM     11  F3  UNL d   1      -0.782   4.145  -1.496  0.00  0.00    -0.097 F 
ATOM     12  F4  UNL d   1      -2.098   3.976   0.888  0.00  0.00    -0.092 F 
ENDROOT
TORSDOF 0
ENDMDL
