MODEL 1
REMARK minimizedAffinity 16.5101376
REMARK minimizedRMSD -1
REMARK  0 active torsions:
REMARK  status: ('A' for Active; 'I' for Inactive)
ROOT
ATOM      1  C   UNL d   1       0.009   0.523   1.431  0.00  0.00     0.124 A 
ATOM      2  C1  UNL d   1       0.723   0.487   0.241  0.00  0.00     0.062 A 
ATOM      3  C2  UNL d   1       0.569   1.503  -0.698  0.00  0.00     0.162 A 
ATOM      4  C3  UNL d   1      -0.301   2.565  -0.450  0.00  0.00    -0.034 A 
ATOM      5  C4  UNL d   1      -1.016   2.593   0.749  0.00  0.00     0.162 A 
ATOM      6  C5  UNL d   1      -0.859   1.575   1.684  0.00  0.00     0.062 A 
ATOM      7  F   UNL d   1      -1.549   1.611   2.833  0.00  0.00    -0.097 F 
ATOM      8  F1  UNL d   1      -1.861   3.599   1.019  0.00  0.00    -0.096 F 
ATOM      9  I   UNL d   1      -0.534   4.086  -1.851  0.00  0.00    -0.060 I 
ATOM     10  F2  UNL d   1       1.271   1.443  -1.839  0.00  0.00    -0.096 F 
ATOM     11  F3  UNL d   1       1.562  -0.529  -0.006  0.00  0.00    -0.097 F 
ATOM     12  F4  UNL d   1       0.158  -0.457   2.332  0.00  0.00    -0.092 F 
ENDROOT
TORSDOF 0
ENDMDL
