MODEL 1
REMARK minimizedAffinity 16.3074341
REMARK minimizedRMSD -1
REMARK  0 active torsions:
REMARK  status: ('A' for Active; 'I' for Inactive)
ROOT
ATOM      1  C   UNL d   1      -1.473   1.197   1.414  0.00  0.00     0.124 A 
ATOM      2  C1  UNL d   1      -1.135   0.377   2.482  0.00  0.00     0.062 A 
ATOM      3  C2  UNL d   1       0.088  -0.288   2.493  0.00  0.00     0.162 A 
ATOM      4  C3  UNL d   1       0.982  -0.136   1.433  0.00  0.00    -0.034 A 
ATOM      5  C4  UNL d   1       0.633   0.689   0.362  0.00  0.00     0.162 A 
ATOM      6  C5  UNL d   1      -0.590   1.352   0.356  0.00  0.00     0.062 A 
ATOM      7  F   UNL d   1      -0.915   2.143  -0.677  0.00  0.00    -0.097 F 
ATOM      8  F1  UNL d   1       1.469   0.858  -0.673  0.00  0.00    -0.096 F 
ATOM      9  I   UNL d   1       2.811  -1.129   1.446  0.00  0.00    -0.060 I 
ATOM     10  F2  UNL d   1       0.389  -1.074   3.538  0.00  0.00    -0.096 F 
ATOM     11  F3  UNL d   1      -1.987   0.225   3.505  0.00  0.00    -0.097 F 
ATOM     12  F4  UNL d   1      -2.651   1.835   1.406  0.00  0.00    -0.092 F 
ENDROOT
TORSDOF 0
ENDMDL
