MODEL 1
REMARK minimizedAffinity 18.5352249
REMARK minimizedRMSD -1
REMARK  0 active torsions:
REMARK  status: ('A' for Active; 'I' for Inactive)
ROOT
ATOM      1  C   UNL d   1      -0.974  -0.690  -3.050  0.00  0.00     0.124 A 
ATOM      2  C1  UNL d   1       0.206   0.033  -3.157  0.00  0.00     0.062 A 
ATOM      3  C2  UNL d   1       0.447   1.109  -2.309  0.00  0.00     0.162 A 
ATOM      4  C3  UNL d   1      -0.493   1.469  -1.343  0.00  0.00    -0.034 A 
ATOM      5  C4  UNL d   1      -1.678   0.738  -1.242  0.00  0.00     0.162 A 
ATOM      6  C5  UNL d   1      -1.915  -0.337  -2.092  0.00  0.00     0.062 A 
ATOM      7  F   UNL d   1      -3.055  -1.034  -1.987  0.00  0.00    -0.097 F 
ATOM      8  F1  UNL d   1      -2.604   1.057  -0.325  0.00  0.00    -0.096 F 
ATOM      9  I   UNL d   1      -0.136   3.078  -0.072  0.00  0.00    -0.060 I 
ATOM     10  F2  UNL d   1       1.596   1.790  -2.435  0.00  0.00    -0.096 F 
ATOM     11  F3  UNL d   1       1.116  -0.306  -4.082  0.00  0.00    -0.097 F 
ATOM     12  F4  UNL d   1      -1.204  -1.724  -3.868  0.00  0.00    -0.092 F 
ENDROOT
TORSDOF 0
ENDMDL
