MODEL 1
REMARK minimizedAffinity 10.8519716
REMARK minimizedRMSD -1
REMARK  0 active torsions:
REMARK  status: ('A' for Active; 'I' for Inactive)
ROOT
ATOM      1  C   UNL d   1      -0.301   3.175  -0.992  0.00  0.00     0.124 A 
ATOM      2  C1  UNL d   1      -0.960   3.137   0.229  0.00  0.00     0.062 A 
ATOM      3  C2  UNL d   1      -0.774   2.061   1.091  0.00  0.00     0.162 A 
ATOM      4  C3  UNL d   1       0.076   1.013   0.736  0.00  0.00    -0.034 A 
ATOM      5  C4  UNL d   1       0.734   1.058  -0.494  0.00  0.00     0.162 A 
ATOM      6  C5  UNL d   1       0.545   2.136  -1.353  0.00  0.00     0.062 A 
ATOM      7  F   UNL d   1       1.182   2.171  -2.532  0.00  0.00    -0.097 F 
ATOM      8  F1  UNL d   1       1.558   0.067  -0.867  0.00  0.00    -0.096 F 
ATOM      9  I   UNL d   1       0.357  -0.599   2.023  0.00  0.00    -0.060 I 
ATOM     10  F2  UNL d   1      -1.423   2.050   2.265  0.00  0.00    -0.096 F 
ATOM     11  F3  UNL d   1      -1.778   4.140   0.579  0.00  0.00    -0.097 F 
ATOM     12  F4  UNL d   1      -0.482   4.212  -1.821  0.00  0.00    -0.092 F 
ENDROOT
TORSDOF 0
ENDMDL
