MODEL 1
REMARK minimizedAffinity -5.54016209
REMARK minimizedRMSD -1
REMARK  0 active torsions:
REMARK  status: ('A' for Active; 'I' for Inactive)
ROOT
ATOM      1  C2' OXE d   1       0.346  -0.030  -0.377  0.00  0.00     0.078 C 
ATOM      2  C1' OXE d   1       2.445  -0.728   1.351  0.00  0.00     0.078 C 
ATOM      3  C1  OXE d   1       1.230  -0.066   1.952  0.00  0.00    -0.078 A 
ATOM      4  C2  OXE d   1       0.228   0.314   1.092  0.00  0.00    -0.078 A 
ATOM      5  C3  OXE d   1      -0.939   0.878   1.600  0.00  0.00     0.003 A 
ATOM      6  C4  OXE d   1      -1.036   1.202   2.959  0.00  0.00    -0.002 A 
ATOM      7  C5  OXE d   1      -0.010   0.860   3.845  0.00  0.00    -0.002 A 
ATOM      8  C6  OXE d   1       1.109   0.188   3.366  0.00  0.00     0.003 A 
ENDROOT
TORSDOF 0
ENDMDL
