MODEL 1
REMARK minimizedAffinity -4.29123211
REMARK minimizedRMSD -1
REMARK  0 active torsions:
REMARK  status: ('A' for Active; 'I' for Inactive)
ROOT
ATOM      1  C2' OXE d   1      -2.473   0.053  -0.626  0.00  0.00     0.078 C 
ATOM      2  C1' OXE d   1       0.241  -0.526  -1.051  0.00  0.00     0.078 C 
ATOM      3  C1  OXE d   1      -0.149   0.090   0.270  0.00  0.00    -0.078 A 
ATOM      4  C2  OXE d   1      -1.472   0.413   0.451  0.00  0.00    -0.078 A 
ATOM      5  C3  OXE d   1      -1.894   0.933   1.671  0.00  0.00     0.003 A 
ATOM      6  C4  OXE d   1      -0.961   1.272   2.658  0.00  0.00    -0.002 A 
ATOM      7  C5  OXE d   1       0.397   0.988   2.478  0.00  0.00    -0.002 A 
ATOM      8  C6  OXE d   1       0.813   0.359   1.310  0.00  0.00     0.003 A 
ENDROOT
TORSDOF 0
ENDMDL
