MODEL 1
REMARK minimizedAffinity -5.47548437
REMARK minimizedRMSD -1
REMARK  0 active torsions:
REMARK  status: ('A' for Active; 'I' for Inactive)
ROOT
ATOM      1  C2' OXE d   1       1.123  -1.358  -0.260  0.00  0.00     0.078 C 
ATOM      2  C1' OXE d   1      -1.204   0.187  -0.540  0.00  0.00     0.078 C 
ATOM      3  C1  OXE d   1      -0.485   0.230   0.786  0.00  0.00    -0.078 A 
ATOM      4  C2  OXE d   1       0.626  -0.565   0.929  0.00  0.00    -0.078 A 
ATOM      5  C3  OXE d   1       1.357  -0.522   2.112  0.00  0.00     0.003 A 
ATOM      6  C4  OXE d   1       0.885   0.207   3.211  0.00  0.00    -0.002 A 
ATOM      7  C5  OXE d   1      -0.267   0.993   3.099  0.00  0.00    -0.002 A 
ATOM      8  C6  OXE d   1      -0.939   1.048   1.883  0.00  0.00     0.003 A 
ENDROOT
TORSDOF 0
ENDMDL
