MODEL 1
REMARK minimizedAffinity -3.04281449
REMARK minimizedRMSD -1
REMARK  0 active torsions:
REMARK  status: ('A' for Active; 'I' for Inactive)
ROOT
ATOM      1  C2' OXE d   1       0.420   0.079  -0.787  0.00  0.00     0.078 C 
ATOM      2  C1' OXE d   1      -2.126  -0.729   0.078  0.00  0.00     0.078 C 
ATOM      3  C1  OXE d   1      -1.241  -0.013   1.067  0.00  0.00    -0.078 A 
ATOM      4  C2  OXE d   1       0.020   0.338   0.650  0.00  0.00    -0.078 A 
ATOM      5  C3  OXE d   1       0.857   1.049   1.505  0.00  0.00     0.003 A 
ATOM      6  C4  OXE d   1       0.484   1.275   2.836  0.00  0.00    -0.002 A 
ATOM      7  C5  OXE d   1      -0.781   0.891   3.293  0.00  0.00    -0.002 A 
ATOM      8  C6  OXE d   1      -1.670   0.286   2.412  0.00  0.00     0.003 A 
ENDROOT
TORSDOF 0
ENDMDL
