MODEL 1
REMARK minimizedAffinity -5.5858922
REMARK minimizedRMSD -1
REMARK  0 active torsions:
REMARK  status: ('A' for Active; 'I' for Inactive)
ROOT
ATOM      1  C2' OXE d   1       0.688  -0.957  -0.563  0.00  0.00     0.078 C 
ATOM      2  C1' OXE d   1       2.243  -0.448   1.718  0.00  0.00     0.078 C 
ATOM      3  C1  OXE d   1       0.818   0.044   1.715  0.00  0.00    -0.078 A 
ATOM      4  C2  OXE d   1       0.079  -0.168   0.576  0.00  0.00    -0.078 A 
ATOM      5  C3  OXE d   1      -1.258   0.218   0.540  0.00  0.00     0.003 A 
ATOM      6  C4  OXE d   1      -1.812   0.956   1.593  0.00  0.00    -0.002 A 
ATOM      7  C5  OXE d   1      -1.064   1.218   2.746  0.00  0.00    -0.002 A 
ATOM      8  C6  OXE d   1       0.236   0.733   2.840  0.00  0.00     0.003 A 
ENDROOT
TORSDOF 0
ENDMDL
