MODEL 1
REMARK minimizedAffinity -5.39879751
REMARK minimizedRMSD -1
REMARK  0 active torsions:
REMARK  status: ('A' for Active; 'I' for Inactive)
ROOT
ATOM      1  C2' OXE d   1       0.013   0.110  -0.090  0.00  0.00     0.078 C 
ATOM      2  C1' OXE d   1      -1.891   1.135   1.701  0.00  0.00     0.078 C 
ATOM      3  C1  OXE d   1      -0.580   0.650   2.269  0.00  0.00    -0.078 A 
ATOM      4  C2  OXE d   1       0.327   0.108   1.391  0.00  0.00    -0.078 A 
ATOM      5  C3  OXE d   1       1.574  -0.304   1.854  0.00  0.00     0.003 A 
ATOM      6  C4  OXE d   1       1.853  -0.312   3.226  0.00  0.00    -0.002 A 
ATOM      7  C5  OXE d   1       0.927   0.200   4.142  0.00  0.00    -0.002 A 
ATOM      8  C6  OXE d   1      -0.274   0.723   3.676  0.00  0.00     0.003 A 
ENDROOT
TORSDOF 0
ENDMDL
