MODEL 1
REMARK minimizedAffinity -0.960317016
REMARK minimizedRMSD -1
REMARK  0 active torsions:
REMARK  status: ('A' for Active; 'I' for Inactive)
ROOT
ATOM      1  C2' OXE d   1      -1.894   0.704   1.865  0.00  0.00     0.078 C 
ATOM      2  C1' OXE d   1      -3.021  -0.359  -0.476  0.00  0.00     0.078 C 
ATOM      3  C1  OXE d   1      -1.530  -0.489  -0.291  0.00  0.00    -0.078 A 
ATOM      4  C2  OXE d   1      -0.981   0.075   0.836  0.00  0.00    -0.078 A 
ATOM      5  C3  OXE d   1       0.382  -0.064   1.082  0.00  0.00     0.003 A 
ATOM      6  C4  OXE d   1       1.221  -0.639   0.120  0.00  0.00    -0.002 A 
ATOM      7  C5  OXE d   1       0.688  -1.185  -1.052  0.00  0.00    -0.002 A 
ATOM      8  C6  OXE d   1      -0.688  -1.156  -1.253  0.00  0.00     0.003 A 
ENDROOT
TORSDOF 0
ENDMDL
