MODEL 1
REMARK minimizedAffinity -2.22773433
REMARK minimizedRMSD -1
REMARK  2 active torsions:
REMARK  status: ('A' for Active; 'I' for Inactive)
REMARK    1  A    between atoms: C2'_3  and  C1'_4 
REMARK    2  A    between atoms: C1'_4  and  C1_5 
ROOT
ATOM      1  C1  I4B d   1       0.384  -0.029  -2.581  0.00  0.00    -0.075 A 
ATOM      2  C2  I4B d   1      -0.351  -0.749  -3.490  0.00  0.00     0.003 A 
ATOM      3  C3  I4B d   1      -0.506  -0.276  -4.816  0.00  0.00     0.002 A 
ATOM      4  C4  I4B d   1       0.044   0.938  -5.173  0.00  0.00    -0.004 A 
ATOM      5  C5  I4B d   1       0.808   1.655  -4.257  0.00  0.00     0.002 A 
ATOM      6  C6  I4B d   1       0.990   1.164  -2.956  0.00  0.00     0.003 A 
ENDROOT
BRANCH   1   7
ATOM      7  C1' I4B d   1       0.500  -0.541  -1.181  0.00  0.00     0.060 C 
BRANCH   7   8
ATOM      8  C2' I4B d   1      -0.232   0.423  -0.269  0.00  0.00    -0.013 C 
ATOM      9  C4' I4B d   1      -1.622  -0.067   0.038  0.00  0.00     0.013 C 
ATOM     10  C3' I4B d   1       0.577   0.579   0.985  0.00  0.00     0.013 C 
ENDBRANCH   7   8
ENDBRANCH   1   7
TORSDOF 2
ENDMDL
