MODEL 1
REMARK minimizedAffinity -0.805603862
REMARK minimizedRMSD -1
REMARK  2 active torsions:
REMARK  status: ('A' for Active; 'I' for Inactive)
REMARK    1  A    between atoms: C2'_3  and  C1'_4 
REMARK    2  A    between atoms: C1'_4  and  C1_5 
ROOT
ATOM      1  C1  I4B d   1       0.388   0.091  -0.730  0.00  0.00    -0.075 A 
ATOM      2  C2  I4B d   1       1.061  -0.313   0.397  0.00  0.00     0.003 A 
ATOM      3  C3  I4B d   1       0.410  -0.314   1.654  0.00  0.00     0.002 A 
ATOM      4  C4  I4B d   1      -0.890   0.141   1.747  0.00  0.00    -0.004 A 
ATOM      5  C5  I4B d   1      -1.578   0.528   0.600  0.00  0.00     0.002 A 
ATOM      6  C6  I4B d   1      -0.939   0.491  -0.648  0.00  0.00     0.003 A 
ENDROOT
BRANCH   1   7
ATOM      7  C1' I4B d   1       1.117   0.111  -2.036  0.00  0.00     0.060 C 
BRANCH   7   8
ATOM      8  C2' I4B d   1       0.095  -0.054  -3.143  0.00  0.00    -0.013 C 
ATOM      9  C4' I4B d   1       0.425   0.820  -4.324  0.00  0.00     0.013 C 
ATOM     10  C3' I4B d   1       0.065  -1.502  -3.533  0.00  0.00     0.013 C 
ENDBRANCH   7   8
ENDBRANCH   1   7
TORSDOF 2
ENDMDL
