MODEL 1
REMARK minimizedAffinity -1.92053282
REMARK minimizedRMSD -1
REMARK  2 active torsions:
REMARK  status: ('A' for Active; 'I' for Inactive)
REMARK    1  A    between atoms: C2'_3  and  C1'_4 
REMARK    2  A    between atoms: C1'_4  and  C1_5 
ROOT
ATOM      1  C1  I4B d   1       0.225  -0.349   1.074  0.00  0.00    -0.075 A 
ATOM      2  C2  I4B d   1      -1.005   0.037   1.545  0.00  0.00     0.003 A 
ATOM      3  C3  I4B d   1      -1.203   0.250   2.931  0.00  0.00     0.002 A 
ATOM      4  C4  I4B d   1      -0.165   0.018   3.809  0.00  0.00    -0.004 A 
ATOM      5  C5  I4B d   1       1.088  -0.352   3.328  0.00  0.00     0.002 A 
ATOM      6  C6  I4B d   1       1.288  -0.524   1.950  0.00  0.00     0.003 A 
ENDROOT
BRANCH   1   7
ATOM      7  C1' I4B d   1       0.390  -0.596  -0.392  0.00  0.00     0.060 C 
BRANCH   7   8
ATOM      8  C2' I4B d   1       0.055   0.687  -1.123  0.00  0.00    -0.013 C 
ATOM      9  C4' I4B d   1       0.807   1.857  -0.545  0.00  0.00     0.013 C 
ATOM     10  C3' I4B d   1       0.385   0.495  -2.573  0.00  0.00     0.013 C 
ENDBRANCH   7   8
ENDBRANCH   1   7
TORSDOF 2
ENDMDL
