MODEL 1
REMARK minimizedAffinity -1.97734475
REMARK minimizedRMSD -1
REMARK  2 active torsions:
REMARK  status: ('A' for Active; 'I' for Inactive)
REMARK    1  A    between atoms: C2'_3  and  C1'_4 
REMARK    2  A    between atoms: C1'_4  and  C1_5 
ROOT
ATOM      1  C1  I4B d   1       0.660  -0.222  -1.759  0.00  0.00    -0.075 A 
ATOM      2  C2  I4B d   1       1.336   0.968  -1.853  0.00  0.00     0.003 A 
ATOM      3  C3  I4B d   1       1.668   1.502  -3.122  0.00  0.00     0.002 A 
ATOM      4  C4  I4B d   1       1.351   0.791  -4.261  0.00  0.00    -0.004 A 
ATOM      5  C5  I4B d   1       0.645  -0.405  -4.165  0.00  0.00     0.002 A 
ATOM      6  C6  I4B d   1       0.286  -0.909  -2.906  0.00  0.00     0.003 A 
ENDROOT
BRANCH   1   7
ATOM      7  C1' I4B d   1       0.355  -0.773  -0.402  0.00  0.00     0.060 C 
BRANCH   7   8
ATOM      8  C2' I4B d   1      -0.925  -0.125   0.088  0.00  0.00    -0.013 C 
ATOM      9  C4' I4B d   1      -2.135  -0.896  -0.369  0.00  0.00     0.013 C 
ATOM     10  C3' I4B d   1      -0.863  -0.050   1.584  0.00  0.00     0.013 C 
ENDBRANCH   7   8
ENDBRANCH   1   7
TORSDOF 2
ENDMDL
