MODEL 1
REMARK minimizedAffinity 6.13001394
REMARK minimizedRMSD -1
REMARK  2 active torsions:
REMARK  status: ('A' for Active; 'I' for Inactive)
REMARK    1  A    between atoms: C2'_3  and  C1'_4 
REMARK    2  A    between atoms: C1'_4  and  C1_5 
ROOT
ATOM      1  C1  I4B d   1       5.075   1.116   3.600  0.00  0.00    -0.075 A 
ATOM      2  C2  I4B d   1       5.606   0.372   4.624  0.00  0.00     0.003 A 
ATOM      3  C3  I4B d   1       5.938   0.988   5.855  0.00  0.00     0.002 A 
ATOM      4  C4  I4B d   1       5.770   2.351   6.000  0.00  0.00    -0.004 A 
ATOM      5  C5  I4B d   1       5.211   3.099   4.969  0.00  0.00     0.002 A 
ATOM      6  C6  I4B d   1       4.849   2.477   3.765  0.00  0.00     0.003 A 
ENDROOT
BRANCH   1   7
ATOM      7  C1' I4B d   1       4.767   0.440   2.302  0.00  0.00     0.060 C 
BRANCH   7   8
ATOM      8  C2' I4B d   1       4.117  -0.893   2.613  0.00  0.00    -0.013 C 
ATOM      9  C4' I4B d   1       2.615  -0.780   2.618  0.00  0.00     0.013 C 
ATOM     10  C3' I4B d   1       4.582  -1.885   1.589  0.00  0.00     0.013 C 
ENDBRANCH   7   8
ENDBRANCH   1   7
TORSDOF 2
ENDMDL
