MODEL 1
REMARK minimizedAffinity -1.4976927
REMARK minimizedRMSD -1
REMARK  0 active torsions:
REMARK  status: ('A' for Active; 'I' for Inactive)
ROOT
ATOM      1  C1  BNZ d   1       0.205  -1.065  -1.841  0.00  0.00     0.000 A 
ATOM      2  C2  BNZ d   1      -0.127  -2.019  -0.916  0.00  0.00     0.000 A 
ATOM      3  C3  BNZ d   1      -0.394  -1.675   0.380  0.00  0.00     0.000 A 
ATOM      4  C4  BNZ d   1      -0.290  -0.385   0.758  0.00  0.00     0.000 A 
ATOM      5  C5  BNZ d   1       0.052   0.588  -0.160  0.00  0.00     0.000 A 
ATOM      6  C6  BNZ d   1       0.282   0.243  -1.472  0.00  0.00     0.000 A 
ENDROOT
TORSDOF 0
ENDMDL
