MODEL 1
REMARK minimizedAffinity -2.22341108
REMARK minimizedRMSD -1
REMARK  0 active torsions:
REMARK  status: ('A' for Active; 'I' for Inactive)
ROOT
ATOM      1  C1  BNZ d   1      -0.273  -0.006   1.307  0.00  0.00     0.000 A 
ATOM      2  C2  BNZ d   1      -0.697  -1.203   1.819  0.00  0.00     0.000 A 
ATOM      3  C3  BNZ d   1      -0.921  -2.275   1.001  0.00  0.00     0.000 A 
ATOM      4  C4  BNZ d   1      -0.759  -2.137  -0.331  0.00  0.00     0.000 A 
ATOM      5  C5  BNZ d   1      -0.342  -0.933  -0.864  0.00  0.00     0.000 A 
ATOM      6  C6  BNZ d   1      -0.080   0.132  -0.033  0.00  0.00     0.000 A 
ENDROOT
TORSDOF 0
ENDMDL
