MODEL 1
REMARK minimizedAffinity -3.8871851
REMARK minimizedRMSD -1
REMARK  0 active torsions:
REMARK  status: ('A' for Active; 'I' for Inactive)
ROOT
ATOM      1  C1  BNZ d   1      -0.485  -0.549   1.111  0.00  0.00     0.000 A 
ATOM      2  C2  BNZ d   1      -0.249  -1.872   0.844  0.00  0.00     0.000 A 
ATOM      3  C3  BNZ d   1       0.349  -2.254  -0.324  0.00  0.00     0.000 A 
ATOM      4  C4  BNZ d   1       0.673  -1.319  -1.240  0.00  0.00     0.000 A 
ATOM      5  C5  BNZ d   1       0.433   0.018  -0.989  0.00  0.00     0.000 A 
ATOM      6  C6  BNZ d   1      -0.134   0.402   0.204  0.00  0.00     0.000 A 
ENDROOT
TORSDOF 0
ENDMDL
