MODEL 1
REMARK minimizedAffinity -4.33353662
REMARK minimizedRMSD -1
REMARK  0 active torsions:
REMARK  status: ('A' for Active; 'I' for Inactive)
ROOT
ATOM      1  C1  BNZ d   1       0.789  -0.365   0.898  0.00  0.00     0.000 A 
ATOM      2  C2  BNZ d   1       0.963  -1.708   0.691  0.00  0.00     0.000 A 
ATOM      3  C3  BNZ d   1      -0.113  -2.538   0.543  0.00  0.00     0.000 A 
ATOM      4  C4  BNZ d   1      -1.359  -2.033   0.641  0.00  0.00     0.000 A 
ATOM      5  C5  BNZ d   1      -1.551  -0.683   0.858  0.00  0.00     0.000 A 
ATOM      6  C6  BNZ d   1      -0.466   0.156   0.968  0.00  0.00     0.000 A 
ENDROOT
TORSDOF 0
ENDMDL
