MODEL 1
REMARK minimizedAffinity -4.8330121
REMARK minimizedRMSD -1
REMARK  0 active torsions:
REMARK  status: ('A' for Active; 'I' for Inactive)
ROOT
ATOM      1  C1  BNZ d   1      -0.435  -1.356   0.560  0.00  0.00     0.000 A 
ATOM      2  C2  BNZ d   1      -0.641  -2.703   0.421  0.00  0.00     0.000 A 
ATOM      3  C3  BNZ d   1      -0.423  -3.325  -0.777  0.00  0.00     0.000 A 
ATOM      4  C4  BNZ d   1      -0.037  -2.594  -1.843  0.00  0.00     0.000 A 
ATOM      5  C5  BNZ d   1       0.167  -1.234  -1.721  0.00  0.00     0.000 A 
ATOM      6  C6  BNZ d   1      -0.017  -0.618  -0.504  0.00  0.00     0.000 A 
ENDROOT
TORSDOF 0
ENDMDL
