MODEL 1
REMARK minimizedAffinity -1.54330707
REMARK minimizedRMSD -1
REMARK  0 active torsions:
REMARK  status: ('A' for Active; 'I' for Inactive)
ROOT
ATOM      1  C1  BNZ d   1      -0.002  -0.148   1.393  0.00  0.00     0.000 A 
ATOM      2  C2  BNZ d   1      -0.861  -0.986   2.054  0.00  0.00     0.000 A 
ATOM      3  C3  BNZ d   1      -1.249  -2.172   1.497  0.00  0.00     0.000 A 
ATOM      4  C4  BNZ d   1      -0.811  -2.500   0.265  0.00  0.00     0.000 A 
ATOM      5  C5  BNZ d   1       0.047  -1.662  -0.419  0.00  0.00     0.000 A 
ATOM      6  C6  BNZ d   1       0.467  -0.487   0.162  0.00  0.00     0.000 A 
ENDROOT
TORSDOF 0
ENDMDL
