MODEL 1
REMARK minimizedAffinity -5.17445946
REMARK minimizedRMSD -1
REMARK  0 active torsions:
REMARK  status: ('A' for Active; 'I' for Inactive)
ROOT
ATOM      1  C1  BNZ d   1      -0.132  -3.162  -0.142  0.00  0.00     0.000 A 
ATOM      2  C2  BNZ d   1      -0.168  -2.419   1.008  0.00  0.00     0.000 A 
ATOM      3  C3  BNZ d   1       0.033  -1.067   0.975  0.00  0.00     0.000 A 
ATOM      4  C4  BNZ d   1       0.309  -0.467  -0.201  0.00  0.00     0.000 A 
ATOM      5  C5  BNZ d   1       0.358  -1.203  -1.368  0.00  0.00     0.000 A 
ATOM      6  C6  BNZ d   1       0.117  -2.557  -1.336  0.00  0.00     0.000 A 
ENDROOT
TORSDOF 0
ENDMDL
