MODEL 1
REMARK minimizedAffinity -2.98181748
REMARK minimizedRMSD -1
REMARK  0 active torsions:
REMARK  status: ('A' for Active; 'I' for Inactive)
ROOT
ATOM      1  C1  BNZ d   1       0.790   0.678   0.391  0.00  0.00     0.000 A 
ATOM      2  C2  BNZ d   1       1.522   1.802   0.668  0.00  0.00     0.000 A 
ATOM      3  C3  BNZ d   1       1.143   3.022   0.183  0.00  0.00     0.000 A 
ATOM      4  C4  BNZ d   1       0.055   3.111  -0.610  0.00  0.00     0.000 A 
ATOM      5  C5  BNZ d   1      -0.688   1.986  -0.906  0.00  0.00     0.000 A 
ATOM      6  C6  BNZ d   1      -0.325   0.765  -0.384  0.00  0.00     0.000 A 
ENDROOT
TORSDOF 0
ENDMDL
