MODEL 1
REMARK minimizedAffinity -4.12438583
REMARK minimizedRMSD -1
REMARK  0 active torsions:
REMARK  status: ('A' for Active; 'I' for Inactive)
ROOT
ATOM      1  C1  BNZ d   1       0.039  -2.847   0.906  0.00  0.00     0.000 A 
ATOM      2  C2  BNZ d   1      -0.115  -3.318  -0.371  0.00  0.00     0.000 A 
ATOM      3  C3  BNZ d   1      -0.082  -2.468  -1.440  0.00  0.00     0.000 A 
ATOM      4  C4  BNZ d   1       0.064  -1.144  -1.230  0.00  0.00     0.000 A 
ATOM      5  C5  BNZ d   1       0.212  -0.652   0.052  0.00  0.00     0.000 A 
ATOM      6  C6  BNZ d   1       0.217  -1.515   1.123  0.00  0.00     0.000 A 
ENDROOT
TORSDOF 0
ENDMDL
