MODEL 1
REMARK minimizedAffinity -2.69760013
REMARK minimizedRMSD -1
REMARK  0 active torsions:
REMARK  status: ('A' for Active; 'I' for Inactive)
ROOT
ATOM      1  C1  BNZ d   1       0.227   0.457   1.388  0.00  0.00     0.000 A 
ATOM      2  C2  BNZ d   1       0.400   1.782   1.086  0.00  0.00     0.000 A 
ATOM      3  C3  BNZ d   1       0.228   2.236  -0.192  0.00  0.00     0.000 A 
ATOM      4  C4  BNZ d   1      -0.078   1.361  -1.171  0.00  0.00     0.000 A 
ATOM      5  C5  BNZ d   1      -0.247   0.021  -0.884  0.00  0.00     0.000 A 
ATOM      6  C6  BNZ d   1      -0.111  -0.426   0.410  0.00  0.00     0.000 A 
ENDROOT
TORSDOF 0
ENDMDL
