MODEL 1
REMARK minimizedAffinity -3.56730747
REMARK minimizedRMSD -1
REMARK  0 active torsions:
REMARK  status: ('A' for Active; 'I' for Inactive)
ROOT
ATOM      1  C1  BNZ d   1       0.923  -1.435   0.562  0.00  0.00     0.000 A 
ATOM      2  C2  BNZ d   1       0.290  -0.231   0.718  0.00  0.00     0.000 A 
ATOM      3  C3  BNZ d   1      -1.074  -0.158   0.770  0.00  0.00     0.000 A 
ATOM      4  C4  BNZ d   1      -1.803  -1.283   0.624  0.00  0.00     0.000 A 
ATOM      5  C5  BNZ d   1      -1.180  -2.503   0.455  0.00  0.00     0.000 A 
ATOM      6  C6  BNZ d   1       0.193  -2.578   0.444  0.00  0.00     0.000 A 
ENDROOT
TORSDOF 0
ENDMDL
