MODEL 1
REMARK minimizedAffinity -4.21260786
REMARK minimizedRMSD -1
REMARK  0 active torsions:
REMARK  status: ('A' for Active; 'I' for Inactive)
ROOT
ATOM      1  C1  BNZ d   1       0.463  -1.948  -0.824  0.00  0.00     0.000 A 
ATOM      2  C2  BNZ d   1       0.544  -0.633  -0.450  0.00  0.00     0.000 A 
ATOM      3  C3  BNZ d   1      -0.056  -0.194   0.697  0.00  0.00     0.000 A 
ATOM      4  C4  BNZ d   1      -0.769  -1.059   1.446  0.00  0.00     0.000 A 
ATOM      5  C5  BNZ d   1      -0.868  -2.386   1.077  0.00  0.00     0.000 A 
ATOM      6  C6  BNZ d   1      -0.230  -2.833  -0.057  0.00  0.00     0.000 A 
ENDROOT
TORSDOF 0
ENDMDL
