MODEL 1
REMARK minimizedAffinity -2.68027282
REMARK minimizedRMSD -1
REMARK  0 active torsions:
REMARK  status: ('A' for Active; 'I' for Inactive)
ROOT
ATOM      1  C1  BNZ d   1      -0.970  -0.021   1.463  0.00  0.00     0.000 A 
ATOM      2  C2  BNZ d   1      -1.179  -1.357   1.246  0.00  0.00     0.000 A 
ATOM      3  C3  BNZ d   1      -0.397  -2.054   0.367  0.00  0.00     0.000 A 
ATOM      4  C4  BNZ d   1       0.565  -1.407  -0.321  0.00  0.00     0.000 A 
ATOM      5  C5  BNZ d   1       0.782  -0.058  -0.120  0.00  0.00     0.000 A 
ATOM      6  C6  BNZ d   1       0.019   0.631   0.794  0.00  0.00     0.000 A 
ENDROOT
TORSDOF 0
ENDMDL
