MODEL 1
REMARK minimizedAffinity 13.8357201
REMARK minimizedRMSD -1
REMARK  3 active torsions:
REMARK  status: ('A' for Active; 'I' for Inactive)
REMARK    1  A    between atoms: C3'_2  and  C2'_3 
REMARK    2  A    between atoms: C2'_3  and  C1'_4 
REMARK    3  A    between atoms: C1'_4  and  C1_5 
ROOT
ATOM      1  C1  N4B d   1      -0.577  -0.077   0.327  0.00  0.00    -0.075 A 
ATOM      2  C2  N4B d   1      -0.939   0.253   1.652  0.00  0.00     0.002 A 
ATOM      3  C3  N4B d   1      -2.242   0.569   1.948  0.00  0.00     0.002 A 
ATOM      4  C4  N4B d   1      -3.193   0.580   0.938  0.00  0.00    -0.004 A 
ATOM      5  C5  N4B d   1      -2.840   0.235  -0.334  0.00  0.00     0.002 A 
ATOM      6  C6  N4B d   1      -1.534  -0.089  -0.645  0.00  0.00     0.002 A 
ENDROOT
BRANCH   1   7
ATOM      7  C1' N4B d   1       0.851  -0.346  -0.062  0.00  0.00     0.057 C 
BRANCH   7   8
ATOM      8  C2' N4B d   1       1.779   0.376   0.911  0.00  0.00     0.009 C 
BRANCH   8   9
ATOM      9  C3' N4B d   1       2.878   1.137   0.189  0.00  0.00     0.004 C 
ATOM     10  C4' N4B d   1       3.056   0.692  -1.232  0.00  0.00     0.003 C 
ENDBRANCH   8   9
ENDBRANCH   7   8
ENDBRANCH   1   7
TORSDOF 3
ENDMDL
