MODEL 1
REMARK minimizedAffinity -0.613156617
REMARK minimizedRMSD -1
REMARK  3 active torsions:
REMARK  status: ('A' for Active; 'I' for Inactive)
REMARK    1  A    between atoms: C3'_2  and  C2'_3 
REMARK    2  A    between atoms: C2'_3  and  C1'_4 
REMARK    3  A    between atoms: C1'_4  and  C1_5 
ROOT
ATOM      1  C1  N4B d   1       0.993  -0.652  -1.858  0.00  0.00    -0.075 A 
ATOM      2  C2  N4B d   1       1.710   0.392  -2.483  0.00  0.00     0.002 A 
ATOM      3  C3  N4B d   1       1.455   0.709  -3.795  0.00  0.00     0.002 A 
ATOM      4  C4  N4B d   1       0.507  -0.013  -4.504  0.00  0.00    -0.004 A 
ATOM      5  C5  N4B d   1      -0.198  -1.003  -3.885  0.00  0.00     0.002 A 
ATOM      6  C6  N4B d   1       0.044  -1.330  -2.566  0.00  0.00     0.002 A 
ENDROOT
BRANCH   1   7
ATOM      7  C1' N4B d   1       1.297  -1.092  -0.452  0.00  0.00     0.057 C 
BRANCH   7   8
ATOM      8  C2' N4B d   1       0.479  -0.251   0.524  0.00  0.00     0.009 C 
BRANCH   8   9
ATOM      9  C3' N4B d   1      -1.012  -0.353   0.250  0.00  0.00     0.004 C 
ATOM     10  C4' N4B d   1      -1.843   0.320   1.301  0.00  0.00     0.003 C 
ENDBRANCH   8   9
ENDBRANCH   7   8
ENDBRANCH   1   7
TORSDOF 3
ENDMDL
