MODEL 1
REMARK minimizedAffinity 2.1838944
REMARK minimizedRMSD -1
REMARK  3 active torsions:
REMARK  status: ('A' for Active; 'I' for Inactive)
REMARK    1  A    between atoms: C3'_2  and  C2'_3 
REMARK    2  A    between atoms: C2'_3  and  C1'_4 
REMARK    3  A    between atoms: C1'_4  and  C1_5 
ROOT
ATOM      1  C1  N4B d   1      -0.898  -0.162   1.931  0.00  0.00    -0.075 A 
ATOM      2  C2  N4B d   1      -1.359   1.131   1.598  0.00  0.00     0.002 A 
ATOM      3  C3  N4B d   1      -1.003   1.699   0.399  0.00  0.00     0.002 A 
ATOM      4  C4  N4B d   1      -0.175   1.005  -0.470  0.00  0.00    -0.004 A 
ATOM      5  C5  N4B d   1       0.246  -0.254  -0.151  0.00  0.00     0.002 A 
ATOM      6  C6  N4B d   1      -0.108  -0.839   1.048  0.00  0.00     0.002 A 
ENDROOT
BRANCH   1   7
ATOM      7  C1' N4B d   1      -1.191  -0.790   3.266  0.00  0.00     0.057 C 
BRANCH   7   8
ATOM      8  C2' N4B d   1       0.004  -0.579   4.191  0.00  0.00     0.009 C 
BRANCH   8   9
ATOM      9  C3' N4B d   1       0.501  -1.886   4.784  0.00  0.00     0.004 C 
ATOM     10  C4' N4B d   1      -0.610  -2.846   5.088  0.00  0.00     0.003 C 
ENDBRANCH   8   9
ENDBRANCH   7   8
ENDBRANCH   1   7
TORSDOF 3
ENDMDL
