MODEL 1
REMARK minimizedAffinity -5.06490183
REMARK minimizedRMSD -1
REMARK  0 active torsions:
REMARK  status: ('A' for Active; 'I' for Inactive)
ROOT
ATOM      1  C1  DEN d   1       2.705   0.489  -0.188  0.00  0.00     0.130 A 
ATOM      2  C2  DEN d   1       3.047  -0.514  -1.192  0.00  0.00    -0.031 A 
ATOM      3  C3  DEN d   1       1.820  -1.267  -1.522  0.00  0.00     0.027 A 
ATOM      4  C4  DEN d   1      -0.564  -0.976  -0.582  0.00  0.00     0.027 A 
ATOM      5  C5  DEN d   1      -1.343  -0.262   0.301  0.00  0.00    -0.003 A 
ATOM      6  C6  DEN d   1      -0.825   0.722   1.101  0.00  0.00     0.001 A 
ATOM      7  C7  DEN d   1       0.501   1.049   1.001  0.00  0.00     0.017 A 
ATOM      8  C8  DEN d   1       1.295   0.329   0.119  0.00  0.00    -0.094 A 
ATOM      9  C9  DEN d   1       0.750  -0.654  -0.691  0.00  0.00    -0.072 A 
ENDROOT
TORSDOF 0
ENDMDL
