MODEL 1
REMARK minimizedAffinity 1.33241534
REMARK minimizedRMSD -1
REMARK  0 active torsions:
REMARK  status: ('A' for Active; 'I' for Inactive)
ROOT
ATOM      1  C1  DEN d   1       1.261   0.659  -1.610  0.00  0.00     0.130 A 
ATOM      2  C2  DEN d   1       2.177  -0.401  -2.022  0.00  0.00    -0.031 A 
ATOM      3  C3  DEN d   1       1.836  -1.620  -1.262  0.00  0.00     0.027 A 
ATOM      4  C4  DEN d   1      -0.014  -1.969   0.501  0.00  0.00     0.027 A 
ATOM      5  C5  DEN d   1      -1.036  -1.357   1.191  0.00  0.00    -0.003 A 
ATOM      6  C6  DEN d   1      -1.341  -0.032   1.022  0.00  0.00     0.001 A 
ATOM      7  C7  DEN d   1      -0.644   0.714   0.109  0.00  0.00     0.017 A 
ATOM      8  C8  DEN d   1       0.394   0.105  -0.586  0.00  0.00    -0.094 A 
ATOM      9  C9  DEN d   1       0.678  -1.239  -0.410  0.00  0.00    -0.072 A 
ENDROOT
TORSDOF 0
ENDMDL
