MODEL 1
REMARK minimizedAffinity -5.44292212
REMARK minimizedRMSD -1
REMARK  0 active torsions:
REMARK  status: ('A' for Active; 'I' for Inactive)
ROOT
ATOM      1  C1  DEN d   1       2.119  -0.572  -1.663  0.00  0.00     0.130 A 
ATOM      2  C2  DEN d   1       2.159  -1.656  -0.686  0.00  0.00    -0.031 A 
ATOM      3  C3  DEN d   1       0.914  -1.602   0.106  0.00  0.00     0.027 A 
ATOM      4  C4  DEN d   1      -1.063   0.042  -0.089  0.00  0.00     0.027 A 
ATOM      5  C5  DEN d   1      -1.547   1.141  -0.764  0.00  0.00    -0.003 A 
ATOM      6  C6  DEN d   1      -0.834   1.762  -1.755  0.00  0.00     0.001 A 
ATOM      7  C7  DEN d   1       0.384   1.260  -2.130  0.00  0.00     0.017 A 
ATOM      8  C8  DEN d   1       0.882   0.157  -1.449  0.00  0.00    -0.094 A 
ATOM      9  C9  DEN d   1       0.140  -0.464  -0.458  0.00  0.00    -0.072 A 
ENDROOT
TORSDOF 0
ENDMDL
