MODEL 1
REMARK minimizedAffinity -6.6482501
REMARK minimizedRMSD -1
REMARK  0 active torsions:
REMARK  status: ('A' for Active; 'I' for Inactive)
ROOT
ATOM      1  C1  DEN d   1       2.094   0.895  -1.349  0.00  0.00     0.130 A 
ATOM      2  C2  DEN d   1       3.041  -0.216  -1.293  0.00  0.00    -0.031 A 
ATOM      3  C3  DEN d   1       2.343  -1.382  -0.716  0.00  0.00     0.027 A 
ATOM      4  C4  DEN d   1      -0.100  -1.577   0.087  0.00  0.00     0.027 A 
ATOM      5  C5  DEN d   1      -1.286  -0.895   0.249  0.00  0.00    -0.003 A 
ATOM      6  C6  DEN d   1      -1.418   0.429  -0.076  0.00  0.00     0.001 A 
ATOM      7  C7  DEN d   1      -0.358   1.102  -0.622  0.00  0.00     0.017 A 
ATOM      8  C8  DEN d   1       0.844   0.424  -0.782  0.00  0.00    -0.094 A 
ATOM      9  C9  DEN d   1       0.953  -0.918  -0.459  0.00  0.00    -0.072 A 
ENDROOT
TORSDOF 0
ENDMDL
