MODEL 1
REMARK minimizedAffinity -4.86377859
REMARK minimizedRMSD -1
REMARK  0 active torsions:
REMARK  status: ('A' for Active; 'I' for Inactive)
ROOT
ATOM      1  C1  DEN d   1       2.506   0.548  -1.219  0.00  0.00     0.130 A 
ATOM      2  C2  DEN d   1       3.071  -0.771  -1.489  0.00  0.00    -0.031 A 
ATOM      3  C3  DEN d   1       2.052  -1.783  -1.148  0.00  0.00     0.027 A 
ATOM      4  C4  DEN d   1      -0.336  -1.438  -0.236  0.00  0.00     0.027 A 
ATOM      5  C5  DEN d   1      -1.259  -0.498   0.165  0.00  0.00    -0.003 A 
ATOM      6  C6  DEN d   1      -0.983   0.844   0.165  0.00  0.00     0.001 A 
ATOM      7  C7  DEN d   1       0.232   1.286  -0.287  0.00  0.00     0.017 A 
ATOM      8  C8  DEN d   1       1.171   0.344  -0.686  0.00  0.00    -0.094 A 
ATOM      9  C9  DEN d   1       0.868  -1.007  -0.690  0.00  0.00    -0.072 A 
ENDROOT
TORSDOF 0
ENDMDL
