MODEL 1
REMARK minimizedAffinity -4.40472078
REMARK minimizedRMSD -1
REMARK  0 active torsions:
REMARK  status: ('A' for Active; 'I' for Inactive)
ROOT
ATOM      1  C1  DEN d   1       3.016   0.375  -0.822  0.00  0.00     0.130 A 
ATOM      2  C2  DEN d   1       3.283  -0.738  -1.729  0.00  0.00    -0.031 A 
ATOM      3  C3  DEN d   1       2.083  -1.598  -1.763  0.00  0.00     0.027 A 
ATOM      4  C4  DEN d   1      -0.153  -1.313  -0.508  0.00  0.00     0.027 A 
ATOM      5  C5  DEN d   1      -0.846  -0.528   0.386  0.00  0.00    -0.003 A 
ATOM      6  C6  DEN d   1      -0.293   0.585   0.962  0.00  0.00     0.001 A 
ATOM      7  C7  DEN d   1       0.975   0.970   0.615  0.00  0.00     0.017 A 
ATOM      8  C8  DEN d   1       1.683   0.179  -0.281  0.00  0.00    -0.094 A 
ATOM      9  C9  DEN d   1       1.102  -0.936  -0.861  0.00  0.00    -0.072 A 
ENDROOT
TORSDOF 0
ENDMDL
