MODEL 1
REMARK minimizedAffinity -6.44459057
REMARK minimizedRMSD -1
REMARK  0 active torsions:
REMARK  status: ('A' for Active; 'I' for Inactive)
ROOT
ATOM      1  C1  DEN d   1       2.155   1.069  -1.052  0.00  0.00     0.130 A 
ATOM      2  C2  DEN d   1       3.142   0.021  -1.297  0.00  0.00    -0.031 A 
ATOM      3  C3  DEN d   1       2.498  -1.282  -1.036  0.00  0.00     0.027 A 
ATOM      4  C4  DEN d   1       0.081  -1.777  -0.286  0.00  0.00     0.027 A 
ATOM      5  C5  DEN d   1      -1.125  -1.209   0.061  0.00  0.00    -0.003 A 
ATOM      6  C6  DEN d   1      -1.311   0.148   0.094  0.00  0.00     0.001 A 
ATOM      7  C7  DEN d   1      -0.287   0.982  -0.270  0.00  0.00     0.017 A 
ATOM      8  C8  DEN d   1       0.934   0.417  -0.614  0.00  0.00    -0.094 A 
ATOM      9  C9  DEN d   1       1.098  -0.957  -0.652  0.00  0.00    -0.072 A 
ENDROOT
TORSDOF 0
ENDMDL
