MODEL 1
REMARK minimizedAffinity -4.99929428
REMARK minimizedRMSD -1
REMARK  0 active torsions:
REMARK  status: ('A' for Active; 'I' for Inactive)
ROOT
ATOM      1  C1  DEN d   1       2.547   0.646  -1.112  0.00  0.00     0.130 A 
ATOM      2  C2  DEN d   1       3.215  -0.621  -1.397  0.00  0.00    -0.031 A 
ATOM      3  C3  DEN d   1       2.306  -1.715  -1.001  0.00  0.00     0.027 A 
ATOM      4  C4  DEN d   1      -0.061  -1.571   0.013  0.00  0.00     0.027 A 
ATOM      5  C5  DEN d   1      -1.046  -0.712   0.447  0.00  0.00    -0.003 A 
ATOM      6  C6  DEN d   1      -0.890   0.649   0.424  0.00  0.00     0.001 A 
ATOM      7  C7  DEN d   1       0.259   1.192  -0.086  0.00  0.00     0.017 A 
ATOM      8  C8  DEN d   1       1.260   0.331  -0.519  0.00  0.00    -0.094 A 
ATOM      9  C9  DEN d   1       1.079  -1.041  -0.498  0.00  0.00    -0.072 A 
ENDROOT
TORSDOF 0
ENDMDL
