MODEL 1
REMARK minimizedAffinity -4.29865599
REMARK minimizedRMSD -1
REMARK  0 active torsions:
REMARK  status: ('A' for Active; 'I' for Inactive)
ROOT
ATOM      1  C1  DEN d   1       2.127   0.646  -1.692  0.00  0.00     0.130 A 
ATOM      2  C2  DEN d   1       3.103  -0.439  -1.647  0.00  0.00    -0.031 A 
ATOM      3  C3  DEN d   1       2.501  -1.565  -0.905  0.00  0.00     0.027 A 
ATOM      4  C4  DEN d   1       0.162  -1.734   0.168  0.00  0.00     0.027 A 
ATOM      5  C5  DEN d   1      -1.018  -1.062   0.400  0.00  0.00    -0.003 A 
ATOM      6  C6  DEN d   1      -1.218   0.228  -0.015  0.00  0.00     0.001 A 
ATOM      7  C7  DEN d   1      -0.239   0.871  -0.726  0.00  0.00     0.017 A 
ATOM      8  C8  DEN d   1       0.956   0.203  -0.957  0.00  0.00    -0.094 A 
ATOM      9  C9  DEN d   1       1.134  -1.105  -0.539  0.00  0.00    -0.072 A 
ENDROOT
TORSDOF 0
ENDMDL
