MODEL 1
REMARK minimizedAffinity -4.26971245
REMARK minimizedRMSD -1
REMARK  0 active torsions:
REMARK  status: ('A' for Active; 'I' for Inactive)
ROOT
ATOM      1  C1  DEN d   1       0.982  -1.691   0.465  0.00  0.00     0.130 A 
ATOM      2  C2  DEN d   1       1.984  -1.732  -0.597  0.00  0.00    -0.031 A 
ATOM      3  C3  DEN d   1       1.713  -0.615  -1.524  0.00  0.00     0.027 A 
ATOM      4  C4  DEN d   1      -0.149   1.167  -1.417  0.00  0.00     0.027 A 
ATOM      5  C5  DEN d   1      -1.245   1.603  -0.707  0.00  0.00    -0.003 A 
ATOM      6  C6  DEN d   1      -1.693   0.958   0.416  0.00  0.00     0.001 A 
ATOM      7  C7  DEN d   1      -1.013  -0.134   0.887  0.00  0.00     0.017 A 
ATOM      8  C8  DEN d   1       0.088  -0.585   0.172  0.00  0.00    -0.094 A 
ATOM      9  C9  DEN d   1       0.532   0.088  -0.954  0.00  0.00    -0.072 A 
ENDROOT
TORSDOF 0
ENDMDL
