MODEL 1
REMARK minimizedAffinity -4.49305248
REMARK minimizedRMSD -1
REMARK  0 active torsions:
REMARK  status: ('A' for Active; 'I' for Inactive)
ROOT
ATOM      1  C1  DEN d   1      -0.803   1.292   3.006  0.00  0.00     0.130 A 
ATOM      2  C2  DEN d   1      -2.231   1.017   3.137  0.00  0.00    -0.031 A 
ATOM      3  C3  DEN d   1      -2.678   0.328   1.910  0.00  0.00     0.027 A 
ATOM      4  C4  DEN d   1      -1.304  -0.340  -0.168  0.00  0.00     0.027 A 
ATOM      5  C5  DEN d   1      -0.054  -0.308  -0.745  0.00  0.00    -0.003 A 
ATOM      6  C6  DEN d   1       1.018   0.286  -0.133  0.00  0.00     0.001 A 
ATOM      7  C7  DEN d   1       0.870   0.831   1.115  0.00  0.00     0.017 A 
ATOM      8  C8  DEN d   1      -0.389   0.809   1.701  0.00  0.00    -0.094 A 
ATOM      9  C9  DEN d   1      -1.457   0.193   1.070  0.00  0.00    -0.072 A 
ENDROOT
TORSDOF 0
ENDMDL
