MODEL 1
REMARK minimizedAffinity -4.84323549
REMARK minimizedRMSD -1
REMARK  0 active torsions:
REMARK  status: ('A' for Active; 'I' for Inactive)
ROOT
ATOM      1  C1  DEN d   1       2.149   0.656  -1.621  0.00  0.00     0.130 A 
ATOM      2  C2  DEN d   1       2.928  -0.576  -1.714  0.00  0.00    -0.031 A 
ATOM      3  C3  DEN d   1       2.200  -1.632  -0.983  0.00  0.00     0.027 A 
ATOM      4  C4  DEN d   1      -0.048  -1.482   0.272  0.00  0.00     0.027 A 
ATOM      5  C5  DEN d   1      -1.076  -0.642   0.637  0.00  0.00    -0.003 A 
ATOM      6  C6  DEN d   1      -1.085   0.688   0.306  0.00  0.00     0.001 A 
ATOM      7  C7  DEN d   1      -0.066   1.205  -0.450  0.00  0.00     0.017 A 
ATOM      8  C8  DEN d   1       0.978   0.366  -0.815  0.00  0.00    -0.094 A 
ATOM      9  C9  DEN d   1       0.962  -0.978  -0.481  0.00  0.00    -0.072 A 
ENDROOT
TORSDOF 0
ENDMDL
