MODEL 1
REMARK minimizedAffinity -3.0755372
REMARK minimizedRMSD -1
REMARK  1 active torsions:
REMARK  status: ('A' for Active; 'I' for Inactive)
REMARK    1  A    between atoms: C1_2  and  C2_3 
ROOT
ATOM      1  C2  UNL d   1      -4.615   3.556  -5.801  0.00  0.00    -0.081 A 
ATOM      2  C3  UNL d   1      -3.428   2.848  -5.577  0.00  0.00     0.006 A 
ATOM      3  C4  UNL d   1      -3.428   1.451  -5.560  0.00  0.00     0.002 A 
ATOM      4  C5  UNL d   1      -4.613   0.739  -5.776  0.00  0.00    -0.080 A 
ATOM      5  C6  UNL d   1      -4.621  -0.761  -5.790  0.00  0.00     0.076 C 
ATOM      6  C7  UNL d   1      -5.802   1.446  -5.982  0.00  0.00     0.002 A 
ATOM      7  C8  UNL d   1      -5.803   2.842  -5.998  0.00  0.00     0.006 A 
ENDROOT
BRANCH   1   8
ATOM      8  C1  UNL d   1      -4.607   5.061  -5.884  0.00  0.00     0.054 C 
ATOM      9  C   UNL d   1      -3.187   5.603  -5.957  0.00  0.00     0.018 C 
ENDBRANCH   1   8
TORSDOF 1
ENDMDL
