MODEL 1
REMARK minimizedAffinity 3.14470601
REMARK minimizedRMSD -1
REMARK  1 active torsions:
REMARK  status: ('A' for Active; 'I' for Inactive)
REMARK    1  A    between atoms: C1_2  and  C2_3 
ROOT
ATOM      1  C2  UNL d   1      -1.978   0.288   1.386  0.00  0.00    -0.081 A 
ATOM      2  C3  UNL d   1      -0.648   0.684   1.570  0.00  0.00     0.006 A 
ATOM      3  C4  UNL d   1       0.384   0.044   0.878  0.00  0.00     0.002 A 
ATOM      4  C5  UNL d   1       0.101  -0.996  -0.013  0.00  0.00    -0.080 A 
ATOM      5  C6  UNL d   1       1.196  -1.671  -0.785  0.00  0.00     0.076 C 
ATOM      6  C7  UNL d   1      -1.226  -1.404  -0.183  0.00  0.00     0.002 A 
ATOM      7  C8  UNL d   1      -2.257  -0.765   0.508  0.00  0.00     0.006 A 
ENDROOT
BRANCH   1   8
ATOM      8  C1  UNL d   1      -3.098   1.019   2.082  0.00  0.00     0.054 C 
ATOM      9  C   UNL d   1      -4.450   0.655   1.485  0.00  0.00     0.018 C 
ENDBRANCH   1   8
TORSDOF 1
ENDMDL
