MODEL 1
REMARK minimizedAffinity -4.22616577
REMARK minimizedRMSD -1
REMARK  1 active torsions:
REMARK  status: ('A' for Active; 'I' for Inactive)
REMARK    1  A    between atoms: C1_2  and  C2_3 
ROOT
ATOM      1  C2  UNL d   1      -1.191   0.786   0.598  0.00  0.00    -0.081 A 
ATOM      2  C3  UNL d   1      -0.173  -0.121   0.915  0.00  0.00     0.006 A 
ATOM      3  C4  UNL d   1       1.001  -0.161   0.158  0.00  0.00     0.002 A 
ATOM      4  C5  UNL d   1       1.179   0.710  -0.921  0.00  0.00    -0.080 A 
ATOM      5  C6  UNL d   1       2.447   0.698  -1.723  0.00  0.00     0.076 C 
ATOM      6  C7  UNL d   1       0.155   1.605  -1.249  0.00  0.00     0.002 A 
ATOM      7  C8  UNL d   1      -1.019   1.645  -0.494  0.00  0.00     0.006 A 
ENDROOT
BRANCH   1   8
ATOM      8  C1  UNL d   1      -2.431   0.876   1.451  0.00  0.00     0.054 C 
ATOM      9  C   UNL d   1      -2.944   2.307   1.532  0.00  0.00     0.018 C 
ENDBRANCH   1   8
TORSDOF 1
ENDMDL
