MODEL 1
REMARK minimizedAffinity -0.980072081
REMARK minimizedRMSD -1
REMARK  1 active torsions:
REMARK  status: ('A' for Active; 'I' for Inactive)
REMARK    1  A    between atoms: C1_2  and  C2_3 
ROOT
ATOM      1  C2  UNL d   1       0.010  -1.103  -0.850  0.00  0.00    -0.081 A 
ATOM      2  C3  UNL d   1       0.658  -0.063  -1.527  0.00  0.00     0.006 A 
ATOM      3  C4  UNL d   1       1.180   1.024  -0.822  0.00  0.00     0.002 A 
ATOM      4  C5  UNL d   1       1.070   1.085   0.572  0.00  0.00    -0.080 A 
ATOM      5  C6  UNL d   1       1.653   2.232   1.344  0.00  0.00     0.076 C 
ATOM      6  C7  UNL d   1       0.407   0.055   1.246  0.00  0.00     0.002 A 
ATOM      7  C8  UNL d   1      -0.116  -1.032   0.542  0.00  0.00     0.006 A 
ENDROOT
BRANCH   1   8
ATOM      8  C1  UNL d   1      -0.497  -2.307  -1.601  0.00  0.00     0.054 C 
ATOM      9  C   UNL d   1       0.055  -3.598  -1.014  0.00  0.00     0.018 C 
ENDBRANCH   1   8
TORSDOF 1
ENDMDL
