MODEL 1
REMARK minimizedAffinity -3.11975551
REMARK minimizedRMSD -1
REMARK  1 active torsions:
REMARK  status: ('A' for Active; 'I' for Inactive)
REMARK    1  A    between atoms: C1_2  and  C2_3 
ROOT
ATOM      1  C2  UNL d   1       0.719   0.370  -0.675  0.00  0.00    -0.081 A 
ATOM      2  C3  UNL d   1       1.411  -0.233  -1.732  0.00  0.00     0.006 A 
ATOM      3  C4  UNL d   1       2.775   0.009  -1.915  0.00  0.00     0.002 A 
ATOM      4  C5  UNL d   1       3.470   0.851  -1.040  0.00  0.00    -0.080 A 
ATOM      5  C6  UNL d   1       4.941   1.095  -1.207  0.00  0.00     0.076 C 
ATOM      6  C7  UNL d   1       2.775   1.467   0.006  0.00  0.00     0.002 A 
ATOM      7  C8  UNL d   1       1.411   1.226   0.189  0.00  0.00     0.006 A 
ENDROOT
BRANCH   1   8
ATOM      8  C1  UNL d   1      -0.737   0.061  -0.437  0.00  0.00     0.054 C 
ATOM      9  C   UNL d   1      -0.995  -0.301   1.019  0.00  0.00     0.018 C 
ENDBRANCH   1   8
TORSDOF 1
ENDMDL
