MODEL 1
REMARK minimizedAffinity -5.11320639
REMARK minimizedRMSD -1
REMARK  1 active torsions:
REMARK  status: ('A' for Active; 'I' for Inactive)
REMARK    1  A    between atoms: C1_2  and  C2_3 
ROOT
ATOM      1  C2  UNL d   1      -0.104  -0.114   0.518  0.00  0.00    -0.081 A 
ATOM      2  C3  UNL d   1       0.473   1.073   0.050  0.00  0.00     0.006 A 
ATOM      3  C4  UNL d   1       1.206   1.083  -1.139  0.00  0.00     0.002 A 
ATOM      4  C5  UNL d   1       1.369  -0.090  -1.882  0.00  0.00    -0.080 A 
ATOM      5  C6  UNL d   1       2.129  -0.087  -3.176  0.00  0.00     0.076 C 
ATOM      6  C7  UNL d   1       0.809  -1.280  -1.406  0.00  0.00     0.002 A 
ATOM      7  C8  UNL d   1       0.075  -1.291  -0.217  0.00  0.00     0.006 A 
ENDROOT
BRANCH   1   8
ATOM      8  C1  UNL d   1      -0.950  -0.115   1.766  0.00  0.00     0.054 C 
ATOM      9  C   UNL d   1      -1.678   1.209   1.942  0.00  0.00     0.018 C 
ENDBRANCH   1   8
TORSDOF 1
ENDMDL
