MODEL 1
REMARK minimizedAffinity -3.79853463
REMARK minimizedRMSD -1
REMARK  1 active torsions:
REMARK  status: ('A' for Active; 'I' for Inactive)
REMARK    1  A    between atoms: C1_2  and  C2_3 
ROOT
ATOM      1  C2  UNL d   1      -0.108   0.471   0.596  0.00  0.00    -0.081 A 
ATOM      2  C3  UNL d   1       0.752   1.448   0.080  0.00  0.00     0.006 A 
ATOM      3  C4  UNL d   1       1.508   1.192  -1.066  0.00  0.00     0.002 A 
ATOM      4  C5  UNL d   1       1.411  -0.042  -1.719  0.00  0.00    -0.080 A 
ATOM      5  C6  UNL d   1       2.195  -0.319  -2.968  0.00  0.00     0.076 C 
ATOM      6  C7  UNL d   1       0.565  -1.024  -1.194  0.00  0.00     0.002 A 
ATOM      7  C8  UNL d   1      -0.191  -0.768  -0.047  0.00  0.00     0.006 A 
ENDROOT
BRANCH   1   8
ATOM      8  C1  UNL d   1      -0.973   0.768   1.795  0.00  0.00     0.054 C 
ATOM      9  C   UNL d   1      -2.451   0.712   1.437  0.00  0.00     0.018 C 
ENDBRANCH   1   8
TORSDOF 1
ENDMDL
