MODEL 1
REMARK minimizedAffinity -4.48483181
REMARK minimizedRMSD -1
REMARK  1 active torsions:
REMARK  status: ('A' for Active; 'I' for Inactive)
REMARK    1  A    between atoms: C1_2  and  C2_3 
ROOT
ATOM      1  C2  UNL d   1       1.339   0.010  -1.402  0.00  0.00    -0.081 A 
ATOM      2  C3  UNL d   1       0.488  -1.045  -1.049  0.00  0.00     0.006 A 
ATOM      3  C4  UNL d   1      -0.386  -0.917   0.033  0.00  0.00     0.002 A 
ATOM      4  C5  UNL d   1      -0.429   0.268   0.775  0.00  0.00    -0.080 A 
ATOM      5  C6  UNL d   1      -1.384   0.429   1.921  0.00  0.00     0.076 C 
ATOM      6  C7  UNL d   1       0.434   1.315   0.433  0.00  0.00     0.002 A 
ATOM      7  C8  UNL d   1       1.308   1.188  -0.648  0.00  0.00     0.006 A 
ENDROOT
BRANCH   1   8
ATOM      8  C1  UNL d   1       2.236  -0.101  -2.608  0.00  0.00     0.054 C 
ATOM      9  C   UNL d   1       2.563  -1.553  -2.924  0.00  0.00     0.018 C 
ENDBRANCH   1   8
TORSDOF 1
ENDMDL
