MODEL 1
REMARK minimizedAffinity -0.822568238
REMARK minimizedRMSD -1
REMARK  1 active torsions:
REMARK  status: ('A' for Active; 'I' for Inactive)
REMARK    1  A    between atoms: C1_2  and  C2_3 
ROOT
ATOM      1  C2  UNL d   1      -0.919   0.044   1.099  0.00  0.00    -0.081 A 
ATOM      2  C3  UNL d   1      -0.129   1.156   0.782  0.00  0.00     0.006 A 
ATOM      3  C4  UNL d   1       0.765   1.106  -0.290  0.00  0.00     0.002 A 
ATOM      4  C5  UNL d   1       0.879  -0.052  -1.067  0.00  0.00    -0.080 A 
ATOM      5  C6  UNL d   1       1.813  -0.107  -2.239  0.00  0.00     0.076 C 
ATOM      6  C7  UNL d   1       0.103  -1.168  -0.739  0.00  0.00     0.002 A 
ATOM      7  C8  UNL d   1      -0.791  -1.120   0.333  0.00  0.00     0.006 A 
ENDROOT
BRANCH   1   8
ATOM      8  C1  UNL d   1      -1.931   0.116   2.214  0.00  0.00     0.054 C 
ATOM      9  C   UNL d   1      -3.209   0.805   1.758  0.00  0.00     0.018 C 
ENDBRANCH   1   8
TORSDOF 1
ENDMDL
