MODEL 1
REMARK minimizedAffinity -1.73503554
REMARK minimizedRMSD -1
REMARK  1 active torsions:
REMARK  status: ('A' for Active; 'I' for Inactive)
REMARK    1  A    between atoms: C1_2  and  C2_3 
ROOT
ATOM      1  C2  UNL d   1       2.192  -1.461  -1.371  0.00  0.00    -0.081 A 
ATOM      2  C3  UNL d   1       2.840  -0.301  -1.812  0.00  0.00     0.006 A 
ATOM      3  C4  UNL d   1       2.373   0.960  -1.432  0.00  0.00     0.002 A 
ATOM      4  C5  UNL d   1       1.256   1.081  -0.599  0.00  0.00    -0.080 A 
ATOM      5  C6  UNL d   1       0.763   2.427  -0.158  0.00  0.00     0.076 C 
ATOM      6  C7  UNL d   1       0.598  -0.077  -0.172  0.00  0.00     0.002 A 
ATOM      7  C8  UNL d   1       1.064  -1.338  -0.553  0.00  0.00     0.006 A 
ENDROOT
BRANCH   1   8
ATOM      8  C1  UNL d   1       2.731  -2.823  -1.727  0.00  0.00     0.054 C 
ATOM      9  C   UNL d   1       4.078  -3.074  -1.065  0.00  0.00     0.018 C 
ENDBRANCH   1   8
TORSDOF 1
ENDMDL
