MODEL 1
REMARK minimizedAffinity -1.7101419
REMARK minimizedRMSD -1
REMARK  0 active torsions:
REMARK  status: ('A' for Active; 'I' for Inactive)
ROOT
ATOM      1  C   UNL d   1      -4.743  -5.983  -3.707  0.00  0.00     0.172 C 
ATOM      2  N   UNL d   1      -3.329  -5.987  -3.999  0.00  0.00    -0.070 N 
ATOM      3  C1  UNL d   1      -2.772  -6.000  -5.249  0.00  0.00    -0.004 A 
ATOM      4  C2  UNL d   1      -1.401  -5.998  -5.101  0.00  0.00    -0.047 A 
ATOM      5  C3  UNL d   1      -1.126  -5.985  -3.713  0.00  0.00    -0.047 A 
ATOM      6  C4  UNL d   1      -2.337  -5.978  -3.054  0.00  0.00    -0.004 A 
ENDROOT
TORSDOF 0
ENDMDL
