MODEL 1
REMARK minimizedAffinity -1.31954432
REMARK minimizedRMSD -1
REMARK  0 active torsions:
REMARK  status: ('A' for Active; 'I' for Inactive)
ROOT
ATOM      1  C   UNL d   1      -0.696  -5.992  -5.972  0.00  0.00     0.172 C 
ATOM      2  N   UNL d   1      -1.271  -5.995  -4.647  0.00  0.00    -0.070 N 
ATOM      3  C1  UNL d   1      -2.609  -5.996  -4.357  0.00  0.00    -0.004 A 
ATOM      4  C2  UNL d   1      -2.744  -6.000  -2.986  0.00  0.00    -0.047 A 
ATOM      5  C3  UNL d   1      -1.441  -5.999  -2.432  0.00  0.00    -0.047 A 
ATOM      6  C4  UNL d   1      -0.548  -5.996  -3.483  0.00  0.00    -0.004 A 
ENDROOT
TORSDOF 0
ENDMDL
