MODEL 1
REMARK minimizedAffinity -1.13163376
REMARK minimizedRMSD -1
REMARK  0 active torsions:
REMARK  status: ('A' for Active; 'I' for Inactive)
ROOT
ATOM      1  C   UNL d   1      -3.025  -6.000  -3.310  0.00  0.00     0.172 C 
ATOM      2  N   UNL d   1      -1.871  -5.973  -4.179  0.00  0.00    -0.070 N 
ATOM      3  C1  UNL d   1      -1.902  -5.990  -5.548  0.00  0.00    -0.004 A 
ATOM      4  C2  UNL d   1      -0.601  -5.953  -6.000  0.00  0.00    -0.047 A 
ATOM      5  C3  UNL d   1       0.241  -5.913  -4.863  0.00  0.00    -0.047 A 
ATOM      6  C4  UNL d   1      -0.571  -5.926  -3.749  0.00  0.00    -0.004 A 
ENDROOT
TORSDOF 0
ENDMDL
