MODEL 1
REMARK minimizedAffinity 0.0472826995
REMARK minimizedRMSD -1
REMARK  0 active torsions:
REMARK  status: ('A' for Active; 'I' for Inactive)
ROOT
ATOM      1  C   UNL d   1      -3.074  -6.000  -2.595  0.00  0.00     0.172 C 
ATOM      2  N   UNL d   1      -1.742  -5.990  -3.154  0.00  0.00    -0.070 N 
ATOM      3  C1  UNL d   1      -1.436  -6.000  -4.488  0.00  0.00    -0.004 A 
ATOM      4  C2  UNL d   1      -0.063  -5.985  -4.606  0.00  0.00    -0.047 A 
ATOM      5  C3  UNL d   1       0.475  -5.967  -3.297  0.00  0.00    -0.047 A 
ATOM      6  C4  UNL d   1      -0.587  -5.970  -2.417  0.00  0.00    -0.004 A 
ENDROOT
TORSDOF 0
ENDMDL
