MODEL 1
REMARK minimizedAffinity 7.1032362
REMARK minimizedRMSD -1
REMARK  0 active torsions:
REMARK  status: ('A' for Active; 'I' for Inactive)
ROOT
ATOM      1  C   UNL d   1      -2.952   1.835  -3.383  0.00  0.00     0.172 C 
ATOM      2  N   UNL d   1      -1.812   2.688  -3.620  0.00  0.00    -0.070 N 
ATOM      3  C1  UNL d   1      -0.501   2.342  -3.424  0.00  0.00    -0.004 A 
ATOM      4  C2  UNL d   1       0.278   3.427  -3.764  0.00  0.00    -0.047 A 
ATOM      5  C3  UNL d   1      -0.595   4.461  -4.177  0.00  0.00    -0.047 A 
ATOM      6  C4  UNL d   1      -1.882   3.977  -4.078  0.00  0.00    -0.004 A 
ENDROOT
TORSDOF 0
ENDMDL
