MODEL 1
REMARK minimizedAffinity -2.72692013
REMARK minimizedRMSD -1
REMARK  0 active torsions:
REMARK  status: ('A' for Active; 'I' for Inactive)
ROOT
ATOM      1  C   UNL d   1       0.044  -5.074  -5.246  0.00  0.00     0.172 C 
ATOM      2  N   UNL d   1      -0.915  -5.300  -4.190  0.00  0.00    -0.070 N 
ATOM      3  C1  UNL d   1      -2.209  -4.853  -4.178  0.00  0.00    -0.004 A 
ATOM      4  C2  UNL d   1      -2.791  -5.275  -3.002  0.00  0.00    -0.047 A 
ATOM      5  C3  UNL d   1      -1.812  -6.000  -2.282  0.00  0.00    -0.047 A 
ATOM      6  C4  UNL d   1      -0.660  -5.999  -3.040  0.00  0.00    -0.004 A 
ENDROOT
TORSDOF 0
ENDMDL
