MODEL 1
REMARK minimizedAffinity -1.75238764
REMARK minimizedRMSD -1
REMARK  0 active torsions:
REMARK  status: ('A' for Active; 'I' for Inactive)
ROOT
ATOM      1  C   UNL d   1      -2.936   1.796  -3.157  0.00  0.00     0.172 C 
ATOM      2  N   UNL d   1      -1.796   2.611  -3.504  0.00  0.00    -0.070 N 
ATOM      3  C1  UNL d   1      -0.517   2.431  -3.048  0.00  0.00    -0.004 A 
ATOM      4  C2  UNL d   1       0.273   3.410  -3.610  0.00  0.00    -0.047 A 
ATOM      5  C3  UNL d   1      -0.560   4.208  -4.431  0.00  0.00    -0.047 A 
ATOM      6  C4  UNL d   1      -1.835   3.691  -4.347  0.00  0.00    -0.004 A 
ENDROOT
TORSDOF 0
ENDMDL
