MODEL 1
REMARK minimizedAffinity 0.048311241
REMARK minimizedRMSD -1
REMARK  0 active torsions:
REMARK  status: ('A' for Active; 'I' for Inactive)
ROOT
ATOM      1  C   UNL d   1      -0.415  -5.998  -5.975  0.00  0.00     0.172 C 
ATOM      2  N   UNL d   1      -0.729  -5.996  -4.565  0.00  0.00    -0.070 N 
ATOM      3  C1  UNL d   1      -1.989  -5.989  -4.028  0.00  0.00    -0.004 A 
ATOM      4  C2  UNL d   1      -1.863  -5.989  -2.656  0.00  0.00    -0.047 A 
ATOM      5  C3  UNL d   1      -0.480  -5.996  -2.358  0.00  0.00    -0.047 A 
ATOM      6  C4  UNL d   1       0.199  -6.000  -3.558  0.00  0.00    -0.004 A 
ENDROOT
TORSDOF 0
ENDMDL
