MODEL 1
REMARK minimizedAffinity 1.1071105
REMARK minimizedRMSD -1
REMARK  0 active torsions:
REMARK  status: ('A' for Active; 'I' for Inactive)
ROOT
ATOM      1  C   UNL d   1       1.672  -6.000  -5.439  0.00  0.00     0.172 C 
ATOM      2  N   UNL d   1       0.513  -5.983  -4.577  0.00  0.00    -0.070 N 
ATOM      3  C1  UNL d   1      -0.791  -6.000  -4.993  0.00  0.00    -0.004 A 
ATOM      4  C2  UNL d   1      -1.592  -5.976  -3.871  0.00  0.00    -0.047 A 
ATOM      5  C3  UNL d   1      -0.739  -5.942  -2.743  0.00  0.00    -0.047 A 
ATOM      6  C4  UNL d   1       0.559  -5.948  -3.208  0.00  0.00    -0.004 A 
ENDROOT
TORSDOF 0
ENDMDL
