MODEL 1
REMARK minimizedAffinity -1.82828176
REMARK minimizedRMSD -1
REMARK  0 active torsions:
REMARK  status: ('A' for Active; 'I' for Inactive)
ROOT
ATOM      1  C   UNL d   1      -1.366  -5.973  -2.610  0.00  0.00     0.172 C 
ATOM      2  N   UNL d   1      -0.601  -5.958  -3.834  0.00  0.00    -0.070 N 
ATOM      3  C1  UNL d   1       0.765  -5.993  -3.923  0.00  0.00    -0.004 A 
ATOM      4  C2  UNL d   1       1.102  -5.964  -5.259  0.00  0.00    -0.047 A 
ATOM      5  C3  UNL d   1      -0.104  -5.909  -5.999  0.00  0.00    -0.047 A 
ATOM      6  C4  UNL d   1      -1.142  -5.907  -5.092  0.00  0.00    -0.004 A 
ENDROOT
TORSDOF 0
ENDMDL
