MODEL 1
REMARK minimizedAffinity -1.25627542
REMARK minimizedRMSD -1
REMARK  0 active torsions:
REMARK  status: ('A' for Active; 'I' for Inactive)
ROOT
ATOM      1  C   UNL d   1      -2.778  -5.773  -4.015  0.00  0.00     0.172 C 
ATOM      2  N   UNL d   1      -1.450  -5.695  -4.577  0.00  0.00    -0.070 N 
ATOM      3  C1  UNL d   1      -1.145  -5.310  -5.855  0.00  0.00    -0.004 A 
ATOM      4  C2  UNL d   1       0.224  -5.368  -5.998  0.00  0.00    -0.047 A 
ATOM      5  C3  UNL d   1       0.761  -5.804  -4.763  0.00  0.00    -0.047 A 
ATOM      6  C4  UNL d   1      -0.298  -5.999  -3.902  0.00  0.00    -0.004 A 
ENDROOT
TORSDOF 0
ENDMDL
