MODEL 1
REMARK minimizedAffinity -2.29223776
REMARK minimizedRMSD -1
REMARK  0 active torsions:
REMARK  status: ('A' for Active; 'I' for Inactive)
ROOT
ATOM      1  C   UNL d   1      -0.001  -5.669  -5.999  0.00  0.00     0.172 C 
ATOM      2  N   UNL d   1      -0.654  -5.642  -4.711  0.00  0.00    -0.070 N 
ATOM      3  C1  UNL d   1      -0.083  -5.999  -3.519  0.00  0.00    -0.004 A 
ATOM      4  C2  UNL d   1      -1.029  -5.833  -2.531  0.00  0.00    -0.047 A 
ATOM      5  C3  UNL d   1      -2.210  -5.361  -3.151  0.00  0.00    -0.047 A 
ATOM      6  C4  UNL d   1      -1.950  -5.252  -4.501  0.00  0.00    -0.004 A 
ENDROOT
TORSDOF 0
ENDMDL
