MODEL 1
REMARK minimizedAffinity -2.85697556
REMARK minimizedRMSD -1
REMARK  0 active torsions:
REMARK  status: ('A' for Active; 'I' for Inactive)
ROOT
ATOM      1  C   UNL d   1      -0.851  -5.902  -6.000  0.00  0.00     0.172 C 
ATOM      2  N   UNL d   1      -1.554  -5.939  -4.739  0.00  0.00    -0.070 N 
ATOM      3  C1  UNL d   1      -0.971  -5.950  -3.500  0.00  0.00    -0.004 A 
ATOM      4  C2  UNL d   1      -1.978  -5.986  -2.560  0.00  0.00    -0.047 A 
ATOM      5  C3  UNL d   1      -3.209  -5.998  -3.258  0.00  0.00    -0.047 A 
ATOM      6  C4  UNL d   1      -2.917  -5.968  -4.605  0.00  0.00    -0.004 A 
ENDROOT
TORSDOF 0
ENDMDL
