MODEL 1
REMARK minimizedAffinity -0.558261096
REMARK minimizedRMSD -1
REMARK  0 active torsions:
REMARK  status: ('A' for Active; 'I' for Inactive)
ROOT
ATOM      1  C   UNL d   1      -0.098  -5.786  -6.000  0.00  0.00     0.172 C 
ATOM      2  N   UNL d   1      -1.220  -5.873  -5.094  0.00  0.00    -0.070 N 
ATOM      3  C1  UNL d   1      -2.539  -5.920  -5.459  0.00  0.00    -0.004 A 
ATOM      4  C2  UNL d   1      -3.293  -6.000  -4.308  0.00  0.00    -0.047 A 
ATOM      5  C3  UNL d   1      -2.395  -6.000  -3.213  0.00  0.00    -0.047 A 
ATOM      6  C4  UNL d   1      -1.119  -5.920  -3.729  0.00  0.00    -0.004 A 
ENDROOT
TORSDOF 0
ENDMDL
