MODEL 1
REMARK minimizedAffinity -0.765561759
REMARK minimizedRMSD -1
REMARK  0 active torsions:
REMARK  status: ('A' for Active; 'I' for Inactive)
ROOT
ATOM      1  C   UNL d   1       0.317  -5.981  -5.066  0.00  0.00     0.172 C 
ATOM      2  N   UNL d   1      -0.689  -5.988  -4.029  0.00  0.00    -0.070 N 
ATOM      3  C1  UNL d   1      -2.043  -5.992  -4.232  0.00  0.00    -0.004 A 
ATOM      4  C2  UNL d   1      -2.655  -5.999  -2.996  0.00  0.00    -0.047 A 
ATOM      5  C3  UNL d   1      -1.632  -6.000  -2.018  0.00  0.00    -0.047 A 
ATOM      6  C4  UNL d   1      -0.425  -5.993  -2.685  0.00  0.00    -0.004 A 
ENDROOT
TORSDOF 0
ENDMDL
