MODEL 1
REMARK minimizedAffinity -2.75559354
REMARK minimizedRMSD -1
REMARK  0 active torsions:
REMARK  status: ('A' for Active; 'I' for Inactive)
ROOT
ATOM      1  C   UNL d   1       1.543  -0.630  -0.295  0.00  0.00     0.124 A 
ATOM      2  C1  UNL d   1       0.485  -1.424  -0.713  0.00  0.00     0.062 A 
ATOM      3  C2  UNL d   1      -0.714  -0.840  -1.113  0.00  0.00     0.162 A 
ATOM      4  C3  UNL d   1      -0.860   0.547  -1.098  0.00  0.00    -0.034 A 
ATOM      5  C4  UNL d   1       0.209   1.340  -0.676  0.00  0.00     0.162 A 
ATOM      6  C5  UNL d   1       1.405   0.751  -0.277  0.00  0.00     0.062 A 
ATOM      7  F   UNL d   1       2.427   1.520   0.126  0.00  0.00    -0.097 F 
ATOM      8  F1  UNL d   1       0.103   2.676  -0.649  0.00  0.00    -0.096 F 
ATOM      9  I   UNL d   1      -2.650   1.425  -1.695  0.00  0.00    -0.060 I 
ATOM     10  F2  UNL d   1      -1.720  -1.632  -1.511  0.00  0.00    -0.096 F 
ATOM     11  F3  UNL d   1       0.615  -2.759  -0.730  0.00  0.00    -0.097 F 
ATOM     12  F4  UNL d   1       2.695  -1.195   0.090  0.00  0.00    -0.092 F 
ENDROOT
TORSDOF 0
ENDMDL
