MODEL 1
REMARK minimizedAffinity 6.74127245
REMARK minimizedRMSD -1
REMARK  0 active torsions:
REMARK  status: ('A' for Active; 'I' for Inactive)
ROOT
ATOM      1  C   UNL d   1       1.138  -2.273   0.942  0.00  0.00     0.124 A 
ATOM      2  C1  UNL d   1       2.025  -1.457   0.253  0.00  0.00     0.062 A 
ATOM      3  C2  UNL d   1       1.554  -0.363  -0.468  0.00  0.00     0.162 A 
ATOM      4  C3  UNL d   1       0.189  -0.077  -0.501  0.00  0.00    -0.034 A 
ATOM      5  C4  UNL d   1      -0.697  -0.903   0.194  0.00  0.00     0.162 A 
ATOM      6  C5  UNL d   1      -0.221  -1.995   0.912  0.00  0.00     0.062 A 
ATOM      7  F   UNL d   1      -1.079  -2.782   1.578  0.00  0.00    -0.097 F 
ATOM      8  F1  UNL d   1      -2.015  -0.657   0.183  0.00  0.00    -0.096 F 
ATOM      9  I   UNL d   1      -0.519   1.558  -1.577  0.00  0.00    -0.060 I 
ATOM     10  F2  UNL d   1       2.433   0.408  -1.124  0.00  0.00    -0.096 F 
ATOM     11  F3  UNL d   1       3.338  -1.724   0.279  0.00  0.00    -0.097 F 
ATOM     12  F4  UNL d   1       1.594  -3.325   1.634  0.00  0.00    -0.092 F 
ENDROOT
TORSDOF 0
ENDMDL
