MODEL 1
REMARK minimizedAffinity 0.74866122
REMARK minimizedRMSD -1
REMARK  0 active torsions:
REMARK  status: ('A' for Active; 'I' for Inactive)
ROOT
ATOM      1  C   UNL d   1      -1.796   0.887  -1.369  0.00  0.00     0.124 A 
ATOM      2  C1  UNL d   1      -0.776   0.339  -2.134  0.00  0.00     0.062 A 
ATOM      3  C2  UNL d   1       0.194  -0.461  -1.538  0.00  0.00     0.162 A 
ATOM      4  C3  UNL d   1       0.149  -0.719  -0.168  0.00  0.00    -0.034 A 
ATOM      5  C4  UNL d   1      -0.880  -0.164   0.596  0.00  0.00     0.162 A 
ATOM      6  C5  UNL d   1      -1.847   0.635  -0.005  0.00  0.00     0.062 A 
ATOM      7  F   UNL d   1      -2.832   1.163   0.736  0.00  0.00    -0.097 F 
ATOM      8  F1  UNL d   1      -0.953  -0.392   1.915  0.00  0.00    -0.096 F 
ATOM      9  I   UNL d   1       1.598  -1.915   0.728  0.00  0.00    -0.060 I 
ATOM     10  F2  UNL d   1       1.169  -0.977  -2.302  0.00  0.00    -0.096 F 
ATOM     11  F3  UNL d   1      -0.724   0.582  -3.452  0.00  0.00    -0.097 F 
ATOM     12  F4  UNL d   1      -2.728   1.657  -1.945  0.00  0.00    -0.092 F 
ENDROOT
TORSDOF 0
ENDMDL
