MODEL 1
REMARK minimizedAffinity -1.0407815
REMARK minimizedRMSD -1
REMARK  0 active torsions:
REMARK  status: ('A' for Active; 'I' for Inactive)
ROOT
ATOM      1  C   UNL d   1       0.894  -1.762   1.283  0.00  0.00     0.124 A 
ATOM      2  C1  UNL d   1       1.427  -1.606   0.011  0.00  0.00     0.062 A 
ATOM      3  C2  UNL d   1       0.876  -0.682  -0.872  0.00  0.00     0.162 A 
ATOM      4  C3  UNL d   1      -0.215   0.096  -0.485  0.00  0.00    -0.034 A 
ATOM      5  C4  UNL d   1      -0.747  -0.066   0.795  0.00  0.00     0.162 A 
ATOM      6  C5  UNL d   1      -0.193  -0.992   1.674  0.00  0.00     0.062 A 
ATOM      7  F   UNL d   1      -0.710  -1.140   2.902  0.00  0.00    -0.097 F 
ATOM      8  F1  UNL d   1      -1.796   0.665   1.200  0.00  0.00    -0.096 F 
ATOM      9  I   UNL d   1      -1.042   1.480  -1.802  0.00  0.00    -0.060 I 
ATOM     10  F2  UNL d   1       1.413  -0.553  -2.094  0.00  0.00    -0.096 F 
ATOM     11  F3  UNL d   1       2.476  -2.350  -0.370  0.00  0.00    -0.097 F 
ATOM     12  F4  UNL d   1       1.425  -2.653   2.129  0.00  0.00    -0.092 F 
ENDROOT
TORSDOF 0
ENDMDL
