MODEL 1
REMARK minimizedAffinity 0.7525931
REMARK minimizedRMSD -1
REMARK  0 active torsions:
REMARK  status: ('A' for Active; 'I' for Inactive)
ROOT
ATOM      1  C   UNL d   1       0.844  -1.302   0.878  0.00  0.00     0.124 A 
ATOM      2  C1  UNL d   1       1.539  -0.844  -0.233  0.00  0.00     0.062 A 
ATOM      3  C2  UNL d   1       0.934   0.039  -1.123  0.00  0.00     0.162 A 
ATOM      4  C3  UNL d   1      -0.374   0.472  -0.904  0.00  0.00    -0.034 A 
ATOM      5  C4  UNL d   1      -1.067   0.007   0.215  0.00  0.00     0.162 A 
ATOM      6  C5  UNL d   1      -0.458  -0.876   1.101  0.00  0.00     0.062 A 
ATOM      7  F   UNL d   1      -1.131  -1.316   2.174  0.00  0.00    -0.097 F 
ATOM      8  F1  UNL d   1      -2.326   0.403   0.455  0.00  0.00    -0.096 F 
ATOM      9  I   UNL d   1      -1.282   1.793  -2.232  0.00  0.00    -0.060 I 
ATOM     10  F2  UNL d   1       1.629   0.464  -2.188  0.00  0.00    -0.096 F 
ATOM     11  F3  UNL d   1       2.796  -1.255  -0.451  0.00  0.00    -0.097 F 
ATOM     12  F4  UNL d   1       1.428  -2.152   1.732  0.00  0.00    -0.092 F 
ENDROOT
TORSDOF 0
ENDMDL
