MODEL 1
REMARK minimizedAffinity 1.00549793
REMARK minimizedRMSD -1
REMARK  0 active torsions:
REMARK  status: ('A' for Active; 'I' for Inactive)
ROOT
ATOM      1  C   UNL d   1      -1.415   0.929  -1.456  0.00  0.00     0.124 A 
ATOM      2  C1  UNL d   1      -0.603   0.187  -2.302  0.00  0.00     0.062 A 
ATOM      3  C2  UNL d   1       0.292  -0.741  -1.778  0.00  0.00     0.162 A 
ATOM      4  C3  UNL d   1       0.378  -0.934  -0.399  0.00  0.00    -0.034 A 
ATOM      5  C4  UNL d   1      -0.441  -0.183   0.446  0.00  0.00     0.162 A 
ATOM      6  C5  UNL d   1      -1.333   0.744  -0.083  0.00  0.00     0.062 A 
ATOM      7  F   UNL d   1      -2.117   1.460   0.736  0.00  0.00    -0.097 F 
ATOM      8  F1  UNL d   1      -0.383  -0.342   1.777  0.00  0.00    -0.096 F 
ATOM      9  I   UNL d   1       1.714  -2.321   0.390  0.00  0.00    -0.060 I 
ATOM     10  F2  UNL d   1       1.064  -1.445  -2.619  0.00  0.00    -0.096 F 
ATOM     11  F3  UNL d   1      -0.679   0.365  -3.629  0.00  0.00    -0.097 F 
ATOM     12  F4  UNL d   1      -2.274   1.823  -1.964  0.00  0.00    -0.092 F 
ENDROOT
TORSDOF 0
ENDMDL
