MODEL 1
REMARK minimizedAffinity -0.749687135
REMARK minimizedRMSD -1
REMARK  0 active torsions:
REMARK  status: ('A' for Active; 'I' for Inactive)
ROOT
ATOM      1  C   UNL d   1       0.825  -1.018  -0.573  0.00  0.00     0.124 A 
ATOM      2  C1  UNL d   1       0.251  -0.114   0.310  0.00  0.00     0.062 A 
ATOM      3  C2  UNL d   1      -0.602   0.880  -0.162  0.00  0.00     0.162 A 
ATOM      4  C3  UNL d   1      -0.886   0.975  -1.524  0.00  0.00    -0.034 A 
ATOM      5  C4  UNL d   1      -0.304   0.063  -2.406  0.00  0.00     0.162 A 
ATOM      6  C5  UNL d   1       0.548  -0.929  -1.929  0.00  0.00     0.062 A 
ATOM      7  F   UNL d   1       1.102  -1.801  -2.784  0.00  0.00    -0.097 F 
ATOM      8  F1  UNL d   1      -0.555   0.125  -3.722  0.00  0.00    -0.096 F 
ATOM      9  I   UNL d   1      -2.160   2.460  -2.234  0.00  0.00    -0.060 I 
ATOM     10  F2  UNL d   1      -1.143   1.740   0.714  0.00  0.00    -0.096 F 
ATOM     11  F3  UNL d   1       0.518  -0.198   1.622  0.00  0.00    -0.097 F 
ATOM     12  F4  UNL d   1       1.646  -1.973  -0.116  0.00  0.00    -0.092 F 
ENDROOT
TORSDOF 0
ENDMDL
