MODEL 1
REMARK minimizedAffinity 0.306253225
REMARK minimizedRMSD -1
REMARK  0 active torsions:
REMARK  status: ('A' for Active; 'I' for Inactive)
ROOT
ATOM      1  C   UNL d   1       0.498  -2.324   2.099  0.00  0.00     0.124 A 
ATOM      2  C1  UNL d   1       1.208  -2.183   0.915  0.00  0.00     0.062 A 
ATOM      3  C2  UNL d   1       0.906  -1.145   0.037  0.00  0.00     0.162 A 
ATOM      4  C3  UNL d   1      -0.111  -0.240   0.341  0.00  0.00    -0.034 A 
ATOM      5  C4  UNL d   1      -0.820  -0.389   1.534  0.00  0.00     0.162 A 
ATOM      6  C5  UNL d   1      -0.515  -1.427   2.408  0.00  0.00     0.062 A 
ATOM      7  F   UNL d   1      -1.202  -1.562   3.552  0.00  0.00    -0.097 F 
ATOM      8  F1  UNL d   1      -1.804   0.464   1.858  0.00  0.00    -0.096 F 
ATOM      9  I   UNL d   1      -0.565   1.313  -0.968  0.00  0.00    -0.060 I 
ATOM     10  F2  UNL d   1       1.608  -1.033  -1.100  0.00  0.00    -0.096 F 
ATOM     11  F3  UNL d   1       2.186  -3.048   0.614  0.00  0.00    -0.097 F 
ATOM     12  F4  UNL d   1       0.790  -3.324   2.941  0.00  0.00    -0.092 F 
ENDROOT
TORSDOF 0
ENDMDL
