MODEL 1
REMARK minimizedAffinity -1.37380695
REMARK minimizedRMSD -1
REMARK  0 active torsions:
REMARK  status: ('A' for Active; 'I' for Inactive)
ROOT
ATOM      1  C   UNL d   1       1.093  -2.421   1.593  0.00  0.00     0.124 A 
ATOM      2  C1  UNL d   1      -0.293  -2.344   1.635  0.00  0.00     0.062 A 
ATOM      3  C2  UNL d   1      -0.958  -1.323   0.963  0.00  0.00     0.162 A 
ATOM      4  C3  UNL d   1      -0.239  -0.370   0.241  0.00  0.00    -0.034 A 
ATOM      5  C4  UNL d   1       1.154  -0.453   0.204  0.00  0.00     0.162 A 
ATOM      6  C5  UNL d   1       1.815  -1.476   0.878  0.00  0.00     0.062 A 
ATOM      7  F   UNL d   1       3.153  -1.548   0.836  0.00  0.00    -0.097 F 
ATOM      8  F1  UNL d   1       1.877   0.446  -0.480  0.00  0.00    -0.096 F 
ATOM      9  I   UNL d   1      -1.229   1.158  -0.766  0.00  0.00    -0.060 I 
ATOM     10  F2  UNL d   1      -2.297  -1.273   1.021  0.00  0.00    -0.096 F 
ATOM     11  F3  UNL d   1      -0.993  -3.255   2.326  0.00  0.00    -0.097 F 
ATOM     12  F4  UNL d   1       1.730  -3.404   2.242  0.00  0.00    -0.092 F 
ENDROOT
TORSDOF 0
ENDMDL
