MODEL 1
REMARK minimizedAffinity 1.74674988
REMARK minimizedRMSD -1
REMARK  0 active torsions:
REMARK  status: ('A' for Active; 'I' for Inactive)
ROOT
ATOM      1  C   UNL d   1       0.423  -1.444   1.175  0.00  0.00     0.124 A 
ATOM      2  C1  UNL d   1      -0.693  -0.682   1.489  0.00  0.00     0.062 A 
ATOM      3  C2  UNL d   1      -1.134   0.309   0.616  0.00  0.00     0.162 A 
ATOM      4  C3  UNL d   1      -0.458   0.542  -0.582  0.00  0.00    -0.034 A 
ATOM      5  C4  UNL d   1       0.665  -0.227  -0.891  0.00  0.00     0.162 A 
ATOM      6  C5  UNL d   1       1.101  -1.216  -0.015  0.00  0.00     0.062 A 
ATOM      7  F   UNL d   1       2.181  -1.951  -0.320  0.00  0.00    -0.097 F 
ATOM      8  F1  UNL d   1       1.339  -0.029  -2.034  0.00  0.00    -0.096 F 
ATOM      9  I   UNL d   1      -1.113   2.022  -1.891  0.00  0.00    -0.060 I 
ATOM     10  F2  UNL d   1      -2.216   1.030   0.945  0.00  0.00    -0.096 F 
ATOM     11  F3  UNL d   1      -1.350  -0.899   2.638  0.00  0.00    -0.097 F 
ATOM     12  F4  UNL d   1       0.845  -2.395   2.017  0.00  0.00    -0.092 F 
ENDROOT
TORSDOF 0
ENDMDL
