MODEL 1
REMARK minimizedAffinity 3.03878069
REMARK minimizedRMSD -1
REMARK  0 active torsions:
REMARK  status: ('A' for Active; 'I' for Inactive)
ROOT
ATOM      1  C   UNL d   1      -0.110  -0.646   1.166  0.00  0.00     0.124 A 
ATOM      2  C1  UNL d   1       1.178  -1.163   1.158  0.00  0.00     0.062 A 
ATOM      3  C2  UNL d   1       2.206  -0.469   0.526  0.00  0.00     0.162 A 
ATOM      4  C3  UNL d   1       1.951   0.749  -0.103  0.00  0.00    -0.034 A 
ATOM      5  C4  UNL d   1       0.652   1.262  -0.092  0.00  0.00     0.162 A 
ATOM      6  C5  UNL d   1      -0.372   0.565   0.541  0.00  0.00     0.062 A 
ATOM      7  F   UNL d   1      -1.616   1.065   0.547  0.00  0.00    -0.097 F 
ATOM      8  F1  UNL d   1       0.372   2.431  -0.687  0.00  0.00    -0.096 F 
ATOM      9  I   UNL d   1       3.486   1.789  -1.049  0.00  0.00    -0.060 I 
ATOM     10  F2  UNL d   1       3.442  -0.992   0.535  0.00  0.00    -0.096 F 
ATOM     11  F3  UNL d   1       1.433  -2.333   1.760  0.00  0.00    -0.097 F 
ATOM     12  F4  UNL d   1      -1.098  -1.316   1.774  0.00  0.00    -0.092 F 
ENDROOT
TORSDOF 0
ENDMDL
