MODEL 1
REMARK minimizedAffinity -2.91084504
REMARK minimizedRMSD -1
REMARK  0 active torsions:
REMARK  status: ('A' for Active; 'I' for Inactive)
ROOT
ATOM      1  C   UNL d   1      -0.513  -1.123  -0.668  0.00  0.00     0.124 A 
ATOM      2  C1  UNL d   1      -1.667  -1.205  -1.434  0.00  0.00     0.062 A 
ATOM      3  C2  UNL d   1      -2.031  -0.151  -2.268  0.00  0.00     0.162 A 
ATOM      4  C3  UNL d   1      -1.238   0.994  -2.340  0.00  0.00    -0.034 A 
ATOM      5  C4  UNL d   1      -0.079   1.070  -1.565  0.00  0.00     0.162 A 
ATOM      6  C5  UNL d   1       0.280   0.014  -0.734  0.00  0.00     0.062 A 
ATOM      7  F   UNL d   1       1.395   0.095   0.006  0.00  0.00    -0.097 F 
ATOM      8  F1  UNL d   1       0.706   2.157  -1.611  0.00  0.00    -0.096 F 
ATOM      9  I   UNL d   1      -1.778   2.572  -3.585  0.00  0.00    -0.060 I 
ATOM     10  F2  UNL d   1      -3.151  -0.258  -2.997  0.00  0.00    -0.096 F 
ATOM     11  F3  UNL d   1      -2.435  -2.303  -1.372  0.00  0.00    -0.097 F 
ATOM     12  F4  UNL d   1      -0.166  -2.138   0.134  0.00  0.00    -0.092 F 
ENDROOT
TORSDOF 0
ENDMDL
