MODEL 1
REMARK minimizedAffinity 6.88712835
REMARK minimizedRMSD -1
REMARK  2 active torsions:
REMARK  status: ('A' for Active; 'I' for Inactive)
REMARK    1  A    between atoms: C1_2  and  C2_3 
REMARK    2  A    between atoms: C2_3  and  C3_4 
ROOT
ATOM      1  C3  UNL d   1       0.211   1.622  -0.405  0.00  0.00    -0.075 A 
ATOM      2  C4  UNL d   1       1.332   0.989   0.151  0.00  0.00     0.002 A 
ATOM      3  C5  UNL d   1       1.800   1.358   1.413  0.00  0.00     0.002 A 
ATOM      4  C6  UNL d   1       1.161   2.369   2.128  0.00  0.00    -0.004 A 
ATOM      5  C7  UNL d   1       0.057   3.016   1.578  0.00  0.00     0.002 A 
ATOM      6  C8  UNL d   1      -0.416   2.646   0.318  0.00  0.00     0.002 A 
ENDROOT
BRANCH   1   7
ATOM      7  C2  UNL d   1      -0.319   1.207  -1.757  0.00  0.00     0.056 C 
BRANCH   7   8
ATOM      8  C1  UNL d   1      -1.291   0.024  -1.710  0.00  0.00     0.007 C 
ATOM      9  C   UNL d   1      -1.879  -0.325  -3.071  0.00  0.00     0.009 C 
ENDBRANCH   7   8
ENDBRANCH   1   7
TORSDOF 2
ENDMDL
