MODEL 1
REMARK minimizedAffinity 1.24757838
REMARK minimizedRMSD -1
REMARK  2 active torsions:
REMARK  status: ('A' for Active; 'I' for Inactive)
REMARK    1  A    between atoms: C1_2  and  C2_3 
REMARK    2  A    between atoms: C2_3  and  C3_4 
ROOT
ATOM      1  C3  UNL d   1      -1.082   1.726   0.380  0.00  0.00    -0.075 A 
ATOM      2  C4  UNL d   1      -1.378   0.671  -0.496  0.00  0.00     0.002 A 
ATOM      3  C5  UNL d   1      -0.411  -0.284  -0.808  0.00  0.00     0.002 A 
ATOM      4  C6  UNL d   1       0.866  -0.192  -0.258  0.00  0.00    -0.004 A 
ATOM      5  C7  UNL d   1       1.177   0.861   0.600  0.00  0.00     0.002 A 
ATOM      6  C8  UNL d   1       0.209   1.816   0.917  0.00  0.00     0.002 A 
ENDROOT
BRANCH   1   7
ATOM      7  C2  UNL d   1      -2.133   2.746   0.744  0.00  0.00     0.056 C 
BRANCH   7   8
ATOM      8  C1  UNL d   1      -3.137   2.260   1.795  0.00  0.00     0.007 C 
ATOM      9  C   UNL d   1      -3.626   3.369   2.716  0.00  0.00     0.009 C 
ENDBRANCH   7   8
ENDBRANCH   1   7
TORSDOF 2
ENDMDL
