MODEL 1
REMARK minimizedAffinity 2.08690882
REMARK minimizedRMSD -1
REMARK  2 active torsions:
REMARK  status: ('A' for Active; 'I' for Inactive)
REMARK    1  A    between atoms: C1_2  and  C2_3 
REMARK    2  A    between atoms: C2_3  and  C3_4 
ROOT
ATOM      1  C3  UNL d   1      -4.512   0.770  -3.112  0.00  0.00    -0.075 A 
ATOM      2  C4  UNL d   1      -3.219   1.018  -3.594  0.00  0.00     0.002 A 
ATOM      3  C5  UNL d   1      -3.000   2.002  -4.558  0.00  0.00     0.002 A 
ATOM      4  C6  UNL d   1      -4.069   2.743  -5.059  0.00  0.00    -0.004 A 
ATOM      5  C7  UNL d   1      -5.360   2.494  -4.598  0.00  0.00     0.002 A 
ATOM      6  C8  UNL d   1      -5.582   1.512  -3.630  0.00  0.00     0.002 A 
ENDROOT
BRANCH   1   7
ATOM      7  C2  UNL d   1      -4.753  -0.273  -2.047  0.00  0.00     0.056 C 
BRANCH   7   8
ATOM      8  C1  UNL d   1      -5.678   0.190  -0.917  0.00  0.00     0.007 C 
ATOM      9  C   UNL d   1      -4.942   0.910   0.205  0.00  0.00     0.009 C 
ENDBRANCH   7   8
ENDBRANCH   1   7
TORSDOF 2
ENDMDL
