MODEL 1
REMARK minimizedAffinity 6.17717886
REMARK minimizedRMSD -1
REMARK  2 active torsions:
REMARK  status: ('A' for Active; 'I' for Inactive)
REMARK    1  A    between atoms: C1_2  and  C2_3 
REMARK    2  A    between atoms: C2_3  and  C3_4 
ROOT
ATOM      1  C3  UNL d   1       2.663   0.481   0.507  0.00  0.00    -0.075 A 
ATOM      2  C4  UNL d   1       2.765  -0.354  -0.615  0.00  0.00     0.002 A 
ATOM      3  C5  UNL d   1       3.015  -1.718  -0.462  0.00  0.00     0.002 A 
ATOM      4  C6  UNL d   1       3.177  -2.261   0.810  0.00  0.00    -0.004 A 
ATOM      5  C7  UNL d   1       3.094  -1.438   1.931  0.00  0.00     0.002 A 
ATOM      6  C8  UNL d   1       2.840  -0.073   1.781  0.00  0.00     0.002 A 
ENDROOT
BRANCH   1   7
ATOM      7  C2  UNL d   1       2.363   1.953   0.350  0.00  0.00     0.056 C 
BRANCH   7   8
ATOM      8  C1  UNL d   1       1.293   2.263  -0.703  0.00  0.00     0.007 C 
ATOM      9  C   UNL d   1      -0.081   1.717  -0.339  0.00  0.00     0.009 C 
ENDBRANCH   7   8
ENDBRANCH   1   7
TORSDOF 2
ENDMDL
