MODEL 1
REMARK minimizedAffinity 4.43766928
REMARK minimizedRMSD -1
REMARK  2 active torsions:
REMARK  status: ('A' for Active; 'I' for Inactive)
REMARK    1  A    between atoms: C1_2  and  C2_3 
REMARK    2  A    between atoms: C2_3  and  C3_4 
ROOT
ATOM      1  C3  UNL d   1       1.812   0.715  -0.197  0.00  0.00    -0.075 A 
ATOM      2  C4  UNL d   1       1.804  -0.583  -0.728  0.00  0.00     0.002 A 
ATOM      3  C5  UNL d   1       2.700  -1.544  -0.261  0.00  0.00     0.002 A 
ATOM      4  C6  UNL d   1       3.621  -1.219   0.733  0.00  0.00    -0.004 A 
ATOM      5  C7  UNL d   1       3.648   0.072   1.256  0.00  0.00     0.002 A 
ATOM      6  C8  UNL d   1       2.750   1.035   0.793  0.00  0.00     0.002 A 
ENDROOT
BRANCH   1   7
ATOM      7  C2  UNL d   1       0.825   1.752  -0.678  0.00  0.00     0.056 C 
BRANCH   7   8
ATOM      8  C1  UNL d   1      -0.541   1.179  -1.070  0.00  0.00     0.007 C 
ATOM      9  C   UNL d   1      -0.648   0.842  -2.551  0.00  0.00     0.009 C 
ENDBRANCH   7   8
ENDBRANCH   1   7
TORSDOF 2
ENDMDL
