MODEL 1
REMARK minimizedAffinity 5.97999907
REMARK minimizedRMSD -1
REMARK  2 active torsions:
REMARK  status: ('A' for Active; 'I' for Inactive)
REMARK    1  A    between atoms: C1_2  and  C2_3 
REMARK    2  A    between atoms: C2_3  and  C3_4 
ROOT
ATOM      1  C3  UNL d   1      -5.117   1.564  -2.972  0.00  0.00    -0.075 A 
ATOM      2  C4  UNL d   1      -4.890   2.702  -3.759  0.00  0.00     0.002 A 
ATOM      3  C5  UNL d   1      -4.492   2.576  -5.090  0.00  0.00     0.002 A 
ATOM      4  C6  UNL d   1      -4.306   1.314  -5.648  0.00  0.00    -0.004 A 
ATOM      5  C7  UNL d   1      -4.512   0.175  -4.871  0.00  0.00     0.002 A 
ATOM      6  C8  UNL d   1      -4.915   0.299  -3.540  0.00  0.00     0.002 A 
ENDROOT
BRANCH   1   7
ATOM      7  C2  UNL d   1      -5.576   1.693  -1.539  0.00  0.00     0.056 C 
BRANCH   7   8
ATOM      8  C1  UNL d   1      -5.194   0.503  -0.652  0.00  0.00     0.007 C 
ATOM      9  C   UNL d   1      -5.144   0.851   0.829  0.00  0.00     0.009 C 
ENDBRANCH   7   8
ENDBRANCH   1   7
TORSDOF 2
ENDMDL
