MODEL 1
REMARK minimizedAffinity 14.0450106
REMARK minimizedRMSD -1
REMARK  2 active torsions:
REMARK  status: ('A' for Active; 'I' for Inactive)
REMARK    1  A    between atoms: C1_2  and  C2_3 
REMARK    2  A    between atoms: C2_3  and  C3_4 
ROOT
ATOM      1  C3  UNL d   1      -1.814   2.275   2.288  0.00  0.00    -0.075 A 
ATOM      2  C4  UNL d   1      -1.014   2.881   1.309  0.00  0.00     0.002 A 
ATOM      3  C5  UNL d   1       0.360   2.645   1.271  0.00  0.00     0.002 A 
ATOM      4  C6  UNL d   1       0.953   1.809   2.215  0.00  0.00    -0.004 A 
ATOM      5  C7  UNL d   1       0.170   1.215   3.202  0.00  0.00     0.002 A 
ATOM      6  C8  UNL d   1      -1.206   1.446   3.240  0.00  0.00     0.002 A 
ENDROOT
BRANCH   1   7
ATOM      7  C2  UNL d   1      -3.307   2.503   2.317  0.00  0.00     0.056 C 
BRANCH   7   8
ATOM      8  C1  UNL d   1      -4.128   1.328   1.778  0.00  0.00     0.007 C 
ATOM      9  C   UNL d   1      -5.593   1.379   2.191  0.00  0.00     0.009 C 
ENDBRANCH   7   8
ENDBRANCH   1   7
TORSDOF 2
ENDMDL
