MODEL 1
REMARK minimizedAffinity 18.2287502
REMARK minimizedRMSD -1
REMARK  1 active torsions:
REMARK  status: ('A' for Active; 'I' for Inactive)
REMARK    1  A    between atoms: C1_2  and  C2_3 
ROOT
ATOM      1  C2  UNL d   1      -5.893   5.239   3.858  0.00  0.00    -0.076 A 
ATOM      2  C3  UNL d   1      -5.844   5.970   2.658  0.00  0.00     0.004 A 
ATOM      3  C4  UNL d   1      -5.802   5.323   1.424  0.00  0.00    -0.003 A 
ATOM      4  C5  UNL d   1      -5.810   3.933   1.371  0.00  0.00     0.000 A 
ATOM      5  C6  UNL d   1      -5.877   3.192   2.550  0.00  0.00     0.000 A 
ATOM      6  C7  UNL d   1      -5.935   3.830   3.801  0.00  0.00    -0.073 A 
ATOM      7  C8  UNL d   1      -6.000   2.982   5.042  0.00  0.00     0.078 C 
ENDROOT
BRANCH   1   8
ATOM      8  C1  UNL d   1      -5.909   5.996   5.167  0.00  0.00     0.053 C 
ATOM      9  C   UNL d   1      -4.589   5.892   5.916  0.00  0.00     0.018 C 
ENDBRANCH   1   8
TORSDOF 1
ENDMDL
