MODEL 1
REMARK minimizedAffinity 14.3022766
REMARK minimizedRMSD -1
REMARK  1 active torsions:
REMARK  status: ('A' for Active; 'I' for Inactive)
REMARK    1  A    between atoms: C1_2  and  C2_3 
ROOT
ATOM      1  C2  UNL d   1       4.195   0.347   0.195  0.00  0.00    -0.076 A 
ATOM      2  C3  UNL d   1       3.411  -0.782   0.487  0.00  0.00     0.004 A 
ATOM      3  C4  UNL d   1       2.160  -0.959  -0.101  0.00  0.00    -0.003 A 
ATOM      4  C5  UNL d   1       1.672  -0.008  -0.992  0.00  0.00     0.000 A 
ATOM      5  C6  UNL d   1       2.444   1.110  -1.306  0.00  0.00     0.000 A 
ATOM      6  C7  UNL d   1       3.715   1.294  -0.734  0.00  0.00    -0.073 A 
ATOM      7  C8  UNL d   1       4.502   2.522  -1.105  0.00  0.00     0.078 C 
ENDROOT
BRANCH   1   8
ATOM      8  C1  UNL d   1       5.532   0.499   0.885  0.00  0.00     0.053 C 
ATOM      9  C   UNL d   1       5.999  -0.792   1.540  0.00  0.00     0.018 C 
ENDBRANCH   1   8
TORSDOF 1
ENDMDL
