MODEL 1
REMARK minimizedAffinity 5.92984676
REMARK minimizedRMSD -1
REMARK  1 active torsions:
REMARK  status: ('A' for Active; 'I' for Inactive)
REMARK    1  A    between atoms: C1_2  and  C2_3 
ROOT
ATOM      1  C2  UNL d   1       3.939   0.519   0.756  0.00  0.00    -0.076 A 
ATOM      2  C3  UNL d   1       4.096   1.690  -0.006  0.00  0.00     0.004 A 
ATOM      3  C4  UNL d   1       3.226   1.986  -1.053  0.00  0.00    -0.003 A 
ATOM      4  C5  UNL d   1       2.183   1.117  -1.356  0.00  0.00     0.000 A 
ATOM      5  C6  UNL d   1       2.002  -0.040  -0.599  0.00  0.00     0.000 A 
ATOM      6  C7  UNL d   1       2.861  -0.346   0.470  0.00  0.00    -0.073 A 
ATOM      7  C8  UNL d   1       2.622  -1.611   1.249  0.00  0.00     0.078 C 
ENDROOT
BRANCH   1   8
ATOM      8  C1  UNL d   1       4.930   0.236   1.862  0.00  0.00     0.053 C 
ATOM      9  C   UNL d   1       5.998  -0.764   1.446  0.00  0.00     0.018 C 
ENDBRANCH   1   8
TORSDOF 1
ENDMDL
