MODEL 1
REMARK minimizedAffinity 9.3222971
REMARK minimizedRMSD -1
REMARK  1 active torsions:
REMARK  status: ('A' for Active; 'I' for Inactive)
REMARK    1  A    between atoms: C1_2  and  C2_3 
ROOT
ATOM      1  C2  UNL d   1       4.463   2.606   0.437  0.00  0.00    -0.076 A 
ATOM      2  C3  UNL d   1       3.755   1.683   1.226  0.00  0.00     0.004 A 
ATOM      3  C4  UNL d   1       2.837   0.805   0.654  0.00  0.00    -0.003 A 
ATOM      4  C5  UNL d   1       2.612   0.834  -0.718  0.00  0.00     0.000 A 
ATOM      5  C6  UNL d   1       3.318   1.731  -1.519  0.00  0.00     0.000 A 
ATOM      6  C7  UNL d   1       4.259   2.612  -0.960  0.00  0.00    -0.073 A 
ATOM      7  C8  UNL d   1       4.988   3.563  -1.870  0.00  0.00     0.078 C 
ENDROOT
BRANCH   1   8
ATOM      8  C1  UNL d   1       5.426   3.553   1.117  0.00  0.00     0.053 C 
ATOM      9  C   UNL d   1       5.263   3.563   2.629  0.00  0.00     0.018 C 
ENDBRANCH   1   8
TORSDOF 1
ENDMDL
