MODEL 1
REMARK minimizedAffinity 11.843894
REMARK minimizedRMSD -1
REMARK  1 active torsions:
REMARK  status: ('A' for Active; 'I' for Inactive)
REMARK    1  A    between atoms: C1_2  and  C2_3 
ROOT
ATOM      1  C2  UNL d   1       2.848   0.192  -2.123  0.00  0.00    -0.076 A 
ATOM      2  C3  UNL d   1       3.547   0.625  -3.263  0.00  0.00     0.004 A 
ATOM      3  C4  UNL d   1       4.072   1.914  -3.336  0.00  0.00    -0.003 A 
ATOM      4  C5  UNL d   1       3.907   2.791  -2.270  0.00  0.00     0.000 A 
ATOM      5  C6  UNL d   1       3.231   2.373  -1.124  0.00  0.00     0.000 A 
ATOM      6  C7  UNL d   1       2.710   1.071  -1.027  0.00  0.00    -0.073 A 
ATOM      7  C8  UNL d   1       1.986   0.675   0.230  0.00  0.00     0.078 C 
ENDROOT
BRANCH   1   8
ATOM      8  C1  UNL d   1       2.278  -1.208  -2.111  0.00  0.00     0.053 C 
ATOM      9  C   UNL d   1       2.220  -1.825  -3.500  0.00  0.00     0.018 C 
ENDBRANCH   1   8
TORSDOF 1
ENDMDL
