MODEL 1
REMARK minimizedAffinity 16.3856564
REMARK minimizedRMSD -1
REMARK  1 active torsions:
REMARK  status: ('A' for Active; 'I' for Inactive)
REMARK    1  A    between atoms: C1_2  and  C2_3 
ROOT
ATOM      1  C2  UNL d   1       4.922   3.562  -2.108  0.00  0.00    -0.076 A 
ATOM      2  C3  UNL d   1       4.908   4.786  -1.417  0.00  0.00     0.004 A 
ATOM      3  C4  UNL d   1       5.439   5.940  -1.992  0.00  0.00    -0.003 A 
ATOM      4  C5  UNL d   1       5.993   5.888  -3.266  0.00  0.00     0.000 A 
ATOM      5  C6  UNL d   1       6.000   4.686  -3.972  0.00  0.00     0.000 A 
ATOM      6  C7  UNL d   1       5.454   3.517  -3.414  0.00  0.00    -0.073 A 
ATOM      7  C8  UNL d   1       5.493   2.246  -4.219  0.00  0.00     0.078 C 
ENDROOT
BRANCH   1   8
ATOM      8  C1  UNL d   1       4.356   2.338  -1.423  0.00  0.00     0.053 C 
ATOM      9  C   UNL d   1       2.857   2.194  -1.633  0.00  0.00     0.018 C 
ENDBRANCH   1   8
TORSDOF 1
ENDMDL
