MODEL 1
REMARK minimizedAffinity 10.8002701
REMARK minimizedRMSD -1
REMARK  1 active torsions:
REMARK  status: ('A' for Active; 'I' for Inactive)
REMARK    1  A    between atoms: C1_2  and  C2_3 
ROOT
ATOM      1  C2  UNL d   1       2.869   0.366  -0.872  0.00  0.00    -0.076 A 
ATOM      2  C3  UNL d   1       2.305  -0.688  -1.611  0.00  0.00     0.004 A 
ATOM      3  C4  UNL d   1       1.958  -1.890  -0.997  0.00  0.00    -0.003 A 
ATOM      4  C5  UNL d   1       2.170  -2.059   0.366  0.00  0.00     0.000 A 
ATOM      5  C6  UNL d   1       2.713  -1.018   1.119  0.00  0.00     0.000 A 
ATOM      6  C7  UNL d   1       3.053   0.207   0.519  0.00  0.00    -0.073 A 
ATOM      7  C8  UNL d   1       3.640   1.293   1.377  0.00  0.00     0.078 C 
ENDROOT
BRANCH   1   8
ATOM      8  C1  UNL d   1       3.250   1.637  -1.596  0.00  0.00     0.053 C 
ATOM      9  C   UNL d   1       4.071   1.370  -2.849  0.00  0.00     0.018 C 
ENDBRANCH   1   8
TORSDOF 1
ENDMDL
