MODEL 1
REMARK minimizedAffinity 7.71507978
REMARK minimizedRMSD -1
REMARK  1 active torsions:
REMARK  status: ('A' for Active; 'I' for Inactive)
REMARK    1  A    between atoms: C1_2  and  C2_3 
ROOT
ATOM      1  C2  UNL d   1      -0.685  -2.745  -2.326  0.00  0.00    -0.076 A 
ATOM      2  C3  UNL d   1      -1.815  -3.577  -2.250  0.00  0.00     0.004 A 
ATOM      3  C4  UNL d   1      -1.923  -4.553  -1.261  0.00  0.00    -0.003 A 
ATOM      4  C5  UNL d   1      -0.901  -4.712  -0.331  0.00  0.00     0.000 A 
ATOM      5  C6  UNL d   1       0.219  -3.884  -0.380  0.00  0.00     0.000 A 
ATOM      6  C7  UNL d   1       0.336  -2.885  -1.362  0.00  0.00    -0.073 A 
ATOM      7  C8  UNL d   1       1.569  -2.024  -1.372  0.00  0.00     0.078 C 
ENDROOT
BRANCH   1   8
ATOM      8  C1  UNL d   1      -0.612  -1.723  -3.438  0.00  0.00     0.053 C 
ATOM      9  C   UNL d   1      -1.891  -0.910  -3.567  0.00  0.00     0.018 C 
ENDBRANCH   1   8
TORSDOF 1
ENDMDL
