MODEL 1
REMARK minimizedAffinity 0.827080071
REMARK minimizedRMSD -1
REMARK  1 active torsions:
REMARK  status: ('A' for Active; 'I' for Inactive)
REMARK    1  A    between atoms: C1_2  and  C2_3 
ROOT
ATOM      1  C2  UNL d   1      -5.427   1.870  -2.248  0.00  0.00    -0.076 A 
ATOM      2  C3  UNL d   1      -5.250   0.504  -1.965  0.00  0.00     0.004 A 
ATOM      3  C4  UNL d   1      -4.703   0.088  -0.753  0.00  0.00    -0.003 A 
ATOM      4  C5  UNL d   1      -4.325   1.030   0.197  0.00  0.00     0.000 A 
ATOM      5  C6  UNL d   1      -4.509   2.388  -0.060  0.00  0.00     0.000 A 
ATOM      6  C7  UNL d   1      -5.074   2.824  -1.270  0.00  0.00    -0.073 A 
ATOM      7  C8  UNL d   1      -5.244   4.302  -1.497  0.00  0.00     0.078 C 
ENDROOT
BRANCH   1   8
ATOM      8  C1  UNL d   1      -6.000   2.263  -3.591  0.00  0.00     0.053 C 
ATOM      9  C   UNL d   1      -6.000   1.111  -4.584  0.00  0.00     0.018 C 
ENDBRANCH   1   8
TORSDOF 1
ENDMDL
