MODEL 1
REMARK minimizedAffinity 13.6167707
REMARK minimizedRMSD -1
REMARK  1 active torsions:
REMARK  status: ('A' for Active; 'I' for Inactive)
REMARK    1  A    between atoms: C1_2  and  C2_3 
ROOT
ATOM      1  C2  UNL d   1       4.277   2.621   0.625  0.00  0.00    -0.076 A 
ATOM      2  C3  UNL d   1       3.702   1.410   1.047  0.00  0.00     0.004 A 
ATOM      3  C4  UNL d   1       3.162   0.513   0.127  0.00  0.00    -0.003 A 
ATOM      4  C5  UNL d   1       3.188   0.812  -1.231  0.00  0.00     0.000 A 
ATOM      5  C6  UNL d   1       3.770   2.001  -1.669  0.00  0.00     0.000 A 
ATOM      6  C7  UNL d   1       4.334   2.909  -0.756  0.00  0.00    -0.073 A 
ATOM      7  C8  UNL d   1       4.943   4.179  -1.283  0.00  0.00     0.078 C 
ENDROOT
BRANCH   1   8
ATOM      8  C1  UNL d   1       4.823   3.567   1.670  0.00  0.00     0.053 C 
ATOM      9  C   UNL d   1       4.230   3.317   3.048  0.00  0.00     0.018 C 
ENDBRANCH   1   8
TORSDOF 1
ENDMDL
