MODEL 1
REMARK minimizedAffinity 12.3538694
REMARK minimizedRMSD -1
REMARK  2 active torsions:
REMARK  status: ('A' for Active; 'I' for Inactive)
REMARK    1  A    between atoms: C2'_3  and  C1'_4 
REMARK    2  A    between atoms: C1'_4  and  C1_5 
ROOT
ATOM      1  C1  I4B d   1      -1.466   1.791   3.575  0.00  0.00    -0.075 A 
ATOM      2  C2  I4B d   1      -2.316   0.919   4.209  0.00  0.00     0.003 A 
ATOM      3  C3  I4B d   1      -2.935  -0.127   3.482  0.00  0.00     0.002 A 
ATOM      4  C4  I4B d   1      -2.717  -0.233   2.123  0.00  0.00    -0.004 A 
ATOM      5  C5  I4B d   1      -1.837   0.639   1.488  0.00  0.00     0.002 A 
ATOM      6  C6  I4B d   1      -1.198   1.650   2.220  0.00  0.00     0.003 A 
ENDROOT
BRANCH   1   7
ATOM      7  C1' I4B d   1      -0.855   2.904   4.366  0.00  0.00     0.060 C 
BRANCH   7   8
ATOM      8  C2' I4B d   1      -1.921   3.958   4.589  0.00  0.00    -0.013 C 
ATOM      9  C4' I4B d   1      -1.812   4.561   5.965  0.00  0.00     0.013 C 
ATOM     10  C3' I4B d   1      -1.768   5.004   3.526  0.00  0.00     0.013 C 
ENDBRANCH   7   8
ENDBRANCH   1   7
TORSDOF 2
ENDMDL
