MODEL 1
REMARK minimizedAffinity 10.7269402
REMARK minimizedRMSD -1
REMARK  2 active torsions:
REMARK  status: ('A' for Active; 'I' for Inactive)
REMARK    1  A    between atoms: C2'_3  and  C1'_4 
REMARK    2  A    between atoms: C1'_4  and  C1_5 
ROOT
ATOM      1  C1  I4B d   1       1.118  -0.503  -2.246  0.00  0.00    -0.075 A 
ATOM      2  C2  I4B d   1       2.198   0.152  -2.784  0.00  0.00     0.003 A 
ATOM      3  C3  I4B d   1       2.161   1.556  -2.967  0.00  0.00     0.002 A 
ATOM      4  C4  I4B d   1       1.014   2.253  -2.647  0.00  0.00    -0.004 A 
ATOM      5  C5  I4B d   1      -0.071   1.590  -2.081  0.00  0.00     0.002 A 
ATOM      6  C6  I4B d   1      -0.014   0.205  -1.867  0.00  0.00     0.003 A 
ENDROOT
BRANCH   1   7
ATOM      7  C1' I4B d   1       1.179  -1.990  -2.097  0.00  0.00     0.060 C 
BRANCH   7   8
ATOM      8  C2' I4B d   1      -0.022  -2.580  -2.809  0.00  0.00    -0.013 C 
ATOM      9  C4' I4B d   1       0.374  -3.757  -3.662  0.00  0.00     0.013 C 
ATOM     10  C3' I4B d   1      -1.027  -2.978  -1.770  0.00  0.00     0.013 C 
ENDBRANCH   7   8
ENDBRANCH   1   7
TORSDOF 2
ENDMDL
