MODEL 1
REMARK minimizedAffinity 12.4271669
REMARK minimizedRMSD -1
REMARK  2 active torsions:
REMARK  status: ('A' for Active; 'I' for Inactive)
REMARK    1  A    between atoms: C2'_3  and  C1'_4 
REMARK    2  A    between atoms: C1'_4  and  C1_5 
ROOT
ATOM      1  C1  I4B d   1       1.173  -0.944  -2.511  0.00  0.00    -0.075 A 
ATOM      2  C2  I4B d   1       0.803  -0.767  -3.821  0.00  0.00     0.003 A 
ATOM      3  C3  I4B d   1       0.683   0.538  -4.358  0.00  0.00     0.002 A 
ATOM      4  C4  I4B d   1       0.893   1.630  -3.542  0.00  0.00    -0.004 A 
ATOM      5  C5  I4B d   1       1.291   1.449  -2.220  0.00  0.00     0.002 A 
ATOM      6  C6  I4B d   1       1.444   0.153  -1.705  0.00  0.00     0.003 A 
ENDROOT
BRANCH   1   7
ATOM      7  C1' I4B d   1       1.257  -2.335  -1.968  0.00  0.00     0.060 C 
BRANCH   7   8
ATOM      8  C2' I4B d   1       0.173  -3.161  -2.629  0.00  0.00    -0.013 C 
ATOM      9  C4' I4B d   1       0.734  -4.434  -3.207  0.00  0.00     0.013 C 
ATOM     10  C3' I4B d   1      -0.880  -3.451  -1.602  0.00  0.00     0.013 C 
ENDBRANCH   7   8
ENDBRANCH   1   7
TORSDOF 2
ENDMDL
