MODEL 1
REMARK minimizedAffinity 14.3263979
REMARK minimizedRMSD -1
REMARK  2 active torsions:
REMARK  status: ('A' for Active; 'I' for Inactive)
REMARK    1  A    between atoms: C2'_3  and  C1'_4 
REMARK    2  A    between atoms: C1'_4  and  C1_5 
ROOT
ATOM      1  C1  I4B d   1       1.579  -1.292  -2.243  0.00  0.00    -0.075 A 
ATOM      2  C2  I4B d   1       1.933  -2.393  -1.503  0.00  0.00     0.003 A 
ATOM      3  C3  I4B d   1       1.459  -3.677  -1.865  0.00  0.00     0.002 A 
ATOM      4  C4  I4B d   1       0.600  -3.807  -2.937  0.00  0.00    -0.004 A 
ATOM      5  C5  I4B d   1       0.261  -2.693  -3.700  0.00  0.00     0.002 A 
ATOM      6  C6  I4B d   1       0.763  -1.429  -3.358  0.00  0.00     0.003 A 
ENDROOT
BRANCH   1   7
ATOM      7  C1' I4B d   1       2.071   0.054  -1.813  0.00  0.00     0.060 C 
BRANCH   7   8
ATOM      8  C2' I4B d   1       1.232   1.103  -2.514  0.00  0.00    -0.013 C 
ATOM      9  C4' I4B d   1      -0.098   1.284  -1.831  0.00  0.00     0.013 C 
ATOM     10  C3' I4B d   1       2.012   2.384  -2.529  0.00  0.00     0.013 C 
ENDBRANCH   7   8
ENDBRANCH   1   7
TORSDOF 2
ENDMDL
