MODEL 1
REMARK minimizedAffinity 2.22713017
REMARK minimizedRMSD -1
REMARK  2 active torsions:
REMARK  status: ('A' for Active; 'I' for Inactive)
REMARK    1  A    between atoms: C2'_3  and  C1'_4 
REMARK    2  A    between atoms: C1'_4  and  C1_5 
ROOT
ATOM      1  C1  I4B d   1       4.437   6.000   2.181  0.00  0.00    -0.075 A 
ATOM      2  C2  I4B d   1       3.391   5.999   3.070  0.00  0.00     0.003 A 
ATOM      3  C3  I4B d   1       3.640   5.984   4.464  0.00  0.00     0.002 A 
ATOM      4  C4  I4B d   1       4.940   5.919   4.921  0.00  0.00    -0.004 A 
ATOM      5  C5  I4B d   1       6.000   5.943   4.019  0.00  0.00     0.002 A 
ATOM      6  C6  I4B d   1       5.748   5.996   2.641  0.00  0.00     0.003 A 
ENDROOT
BRANCH   1   7
ATOM      7  C1' I4B d   1       4.137   5.983   0.716  0.00  0.00     0.060 C 
BRANCH   7   8
ATOM      8  C2' I4B d   1       4.989   4.904   0.078  0.00  0.00    -0.013 C 
ATOM      9  C4' I4B d   1       5.220   3.758   1.028  0.00  0.00     0.013 C 
ATOM     10  C3' I4B d   1       4.293   4.441  -1.168  0.00  0.00     0.013 C 
ENDBRANCH   7   8
ENDBRANCH   1   7
TORSDOF 2
ENDMDL
