MODEL 1
REMARK minimizedAffinity 18.096981
REMARK minimizedRMSD -1
REMARK  2 active torsions:
REMARK  status: ('A' for Active; 'I' for Inactive)
REMARK    1  A    between atoms: C2'_3  and  C1'_4 
REMARK    2  A    between atoms: C1'_4  and  C1_5 
ROOT
ATOM      1  C1  I4B d   1      -2.297   2.695   2.947  0.00  0.00    -0.075 A 
ATOM      2  C2  I4B d   1      -3.285   3.031   2.055  0.00  0.00     0.003 A 
ATOM      3  C3  I4B d   1      -3.711   4.376   1.939  0.00  0.00     0.002 A 
ATOM      4  C4  I4B d   1      -3.163   5.337   2.763  0.00  0.00    -0.004 A 
ATOM      5  C5  I4B d   1      -2.146   4.998   3.651  0.00  0.00     0.002 A 
ATOM      6  C6  I4B d   1      -1.701   3.671   3.735  0.00  0.00     0.003 A 
ENDROOT
BRANCH   1   7
ATOM      7  C1' I4B d   1      -1.894   1.259   3.068  0.00  0.00     0.060 C 
BRANCH   7   8
ATOM      8  C2' I4B d   1      -3.147   0.413   2.978  0.00  0.00    -0.013 C 
ATOM      9  C4' I4B d   1      -2.869  -0.902   2.297  0.00  0.00     0.013 C 
ATOM     10  C3' I4B d   1      -3.665   0.203   4.369  0.00  0.00     0.013 C 
ENDBRANCH   7   8
ENDBRANCH   1   7
TORSDOF 2
ENDMDL
