MODEL 1
REMARK minimizedAffinity 0.346531808
REMARK minimizedRMSD -1
REMARK  2 active torsions:
REMARK  status: ('A' for Active; 'I' for Inactive)
REMARK    1  A    between atoms: C2'_3  and  C1'_4 
REMARK    2  A    between atoms: C1'_4  and  C1_5 
ROOT
ATOM      1  C1  I4B d   1       4.773   5.532   2.329  0.00  0.00    -0.075 A 
ATOM      2  C2  I4B d   1       3.883   6.000   1.395  0.00  0.00     0.003 A 
ATOM      3  C3  I4B d   1       4.034   5.654   0.030  0.00  0.00     0.002 A 
ATOM      4  C4  I4B d   1       5.110   4.884  -0.361  0.00  0.00    -0.004 A 
ATOM      5  C5  I4B d   1       5.999   4.392   0.590  0.00  0.00     0.002 A 
ATOM      6  C6  I4B d   1       5.823   4.707   1.945  0.00  0.00     0.003 A 
ENDROOT
BRANCH   1   7
ATOM      7  C1' I4B d   1       4.603   5.943   3.757  0.00  0.00     0.060 C 
BRANCH   7   8
ATOM      8  C2' I4B d   1       5.856   5.546   4.510  0.00  0.00    -0.013 C 
ATOM      9  C4' I4B d   1       5.797   5.999   5.944  0.00  0.00     0.013 C 
ATOM     10  C3' I4B d   1       5.999   4.056   4.418  0.00  0.00     0.013 C 
ENDBRANCH   7   8
ENDBRANCH   1   7
TORSDOF 2
ENDMDL
