MODEL 1
REMARK minimizedAffinity 6.47146177
REMARK minimizedRMSD -1
REMARK  2 active torsions:
REMARK  status: ('A' for Active; 'I' for Inactive)
REMARK    1  A    between atoms: C2'_3  and  C1'_4 
REMARK    2  A    between atoms: C1'_4  and  C1_5 
ROOT
ATOM      1  C1  I4B d   1      -3.193   3.268   1.890  0.00  0.00    -0.075 A 
ATOM      2  C2  I4B d   1      -4.444   3.625   1.455  0.00  0.00     0.003 A 
ATOM      3  C3  I4B d   1      -4.992   4.881   1.813  0.00  0.00     0.002 A 
ATOM      4  C4  I4B d   1      -4.278   5.722   2.643  0.00  0.00    -0.004 A 
ATOM      5  C5  I4B d   1      -3.000   5.367   3.064  0.00  0.00     0.002 A 
ATOM      6  C6  I4B d   1      -2.448   4.138   2.676  0.00  0.00     0.003 A 
ENDROOT
BRANCH   1   7
ATOM      7  C1' I4B d   1      -2.659   1.920   1.520  0.00  0.00     0.060 C 
BRANCH   7   8
ATOM      8  C2' I4B d   1      -2.520   1.108   2.792  0.00  0.00    -0.013 C 
ATOM      9  C4' I4B d   1      -2.731  -0.359   2.527  0.00  0.00     0.013 C 
ATOM     10  C3' I4B d   1      -1.156   1.366   3.360  0.00  0.00     0.013 C 
ENDBRANCH   7   8
ENDBRANCH   1   7
TORSDOF 2
ENDMDL
