MODEL 1
REMARK minimizedAffinity 4.98540545
REMARK minimizedRMSD -1
REMARK  2 active torsions:
REMARK  status: ('A' for Active; 'I' for Inactive)
REMARK    1  A    between atoms: C1_2  and  C2_3 
REMARK    2  A    between atoms: C2_3  and  C3_4 
ROOT
ATOM      1  C3  UNL d   1      -1.042  -2.037   3.708  0.00  0.00    -0.075 A 
ATOM      2  C4  UNL d   1      -0.147  -0.957   3.735  0.00  0.00     0.002 A 
ATOM      3  C5  UNL d   1      -0.092  -0.110   4.843  0.00  0.00     0.002 A 
ATOM      4  C6  UNL d   1      -0.936  -0.325   5.930  0.00  0.00    -0.004 A 
ATOM      5  C7  UNL d   1      -1.841  -1.384   5.907  0.00  0.00     0.002 A 
ATOM      6  C8  UNL d   1      -1.895  -2.236   4.802  0.00  0.00     0.002 A 
ENDROOT
BRANCH   1   7
ATOM      7  C2  UNL d   1      -1.085  -2.974   2.525  0.00  0.00     0.056 C 
BRANCH   7   8
ATOM      8  C1  UNL d   1       0.295  -3.426   2.036  0.00  0.00     0.007 C 
ATOM      9  C   UNL d   1       0.700  -2.791   0.713  0.00  0.00     0.009 C 
ENDBRANCH   7   8
ENDBRANCH   1   7
TORSDOF 2
ENDMDL
