MODEL 1
REMARK minimizedAffinity 7.4647789
REMARK minimizedRMSD -1
REMARK  2 active torsions:
REMARK  status: ('A' for Active; 'I' for Inactive)
REMARK    1  A    between atoms: C1_2  and  C2_3 
REMARK    2  A    between atoms: C2_3  and  C3_4 
ROOT
ATOM      1  C3  UNL d   1       2.910  -1.440   0.779  0.00  0.00    -0.075 A 
ATOM      2  C4  UNL d   1       2.173  -0.540   1.562  0.00  0.00     0.002 A 
ATOM      3  C5  UNL d   1       1.072  -0.978   2.299  0.00  0.00     0.002 A 
ATOM      4  C6  UNL d   1       0.689  -2.317   2.255  0.00  0.00    -0.004 A 
ATOM      5  C7  UNL d   1       1.404  -3.217   1.467  0.00  0.00     0.002 A 
ATOM      6  C8  UNL d   1       2.508  -2.781   0.732  0.00  0.00     0.002 A 
ENDROOT
BRANCH   1   7
ATOM      7  C2  UNL d   1       4.120  -0.977   0.003  0.00  0.00     0.056 C 
BRANCH   7   8
ATOM      8  C1  UNL d   1       3.938   0.380  -0.684  0.00  0.00     0.007 C 
ATOM      9  C   UNL d   1       4.561   0.438  -2.073  0.00  0.00     0.009 C 
ENDBRANCH   7   8
ENDBRANCH   1   7
TORSDOF 2
ENDMDL
