MODEL 1
REMARK minimizedAffinity 13.4440613
REMARK minimizedRMSD -1
REMARK  2 active torsions:
REMARK  status: ('A' for Active; 'I' for Inactive)
REMARK    1  A    between atoms: C1_2  and  C2_3 
REMARK    2  A    between atoms: C2_3  and  C3_4 
ROOT
ATOM      1  C3  UNL d   1      -2.259   3.653  -3.358  0.00  0.00    -0.075 A 
ATOM      2  C4  UNL d   1      -2.236   3.381  -4.734  0.00  0.00     0.002 A 
ATOM      3  C5  UNL d   1      -2.021   4.406  -5.655  0.00  0.00     0.002 A 
ATOM      4  C6  UNL d   1      -1.836   5.715  -5.215  0.00  0.00    -0.004 A 
ATOM      5  C7  UNL d   1      -1.873   6.000  -3.852  0.00  0.00     0.002 A 
ATOM      6  C8  UNL d   1      -2.084   4.975  -2.928  0.00  0.00     0.002 A 
ENDROOT
BRANCH   1   7
ATOM      7  C2  UNL d   1      -2.462   2.544  -2.354  0.00  0.00     0.056 C 
BRANCH   7   8
ATOM      8  C1  UNL d   1      -1.161   1.891  -1.874  0.00  0.00     0.007 C 
ATOM      9  C   UNL d   1      -0.236   2.859  -1.149  0.00  0.00     0.009 C 
ENDBRANCH   7   8
ENDBRANCH   1   7
TORSDOF 2
ENDMDL
