MODEL 1
REMARK minimizedAffinity 12.4058237
REMARK minimizedRMSD -1
REMARK  2 active torsions:
REMARK  status: ('A' for Active; 'I' for Inactive)
REMARK    1  A    between atoms: C1_2  and  C2_3 
REMARK    2  A    between atoms: C2_3  and  C3_4 
ROOT
ATOM      1  C3  UNL d   1       0.993  -0.852   4.045  0.00  0.00    -0.075 A 
ATOM      2  C4  UNL d   1       0.754  -1.835   3.074  0.00  0.00     0.002 A 
ATOM      3  C5  UNL d   1       1.606  -1.970   1.977  0.00  0.00     0.002 A 
ATOM      4  C6  UNL d   1       2.700  -1.119   1.833  0.00  0.00    -0.004 A 
ATOM      5  C7  UNL d   1       2.937  -0.128   2.783  0.00  0.00     0.002 A 
ATOM      6  C8  UNL d   1       2.089   0.006   3.883  0.00  0.00     0.002 A 
ENDROOT
BRANCH   1   7
ATOM      7  C2  UNL d   1       0.092  -0.721   5.249  0.00  0.00     0.056 C 
BRANCH   7   8
ATOM      8  C1  UNL d   1      -1.403  -0.724   4.913  0.00  0.00     0.007 C 
ATOM      9  C   UNL d   1      -2.259  -1.378   5.989  0.00  0.00     0.009 C 
ENDBRANCH   7   8
ENDBRANCH   1   7
TORSDOF 2
ENDMDL
