MODEL 1
REMARK minimizedAffinity 9.24985313
REMARK minimizedRMSD -1
REMARK  2 active torsions:
REMARK  status: ('A' for Active; 'I' for Inactive)
REMARK    1  A    between atoms: C1_2  and  C2_3 
REMARK    2  A    between atoms: C2_3  and  C3_4 
ROOT
ATOM      1  C3  UNL d   1      -0.465  -2.331   3.872  0.00  0.00    -0.075 A 
ATOM      2  C4  UNL d   1       0.055  -1.171   4.463  0.00  0.00     0.002 A 
ATOM      3  C5  UNL d   1      -0.611  -0.557   5.524  0.00  0.00     0.002 A 
ATOM      4  C6  UNL d   1      -1.808  -1.088   5.999  0.00  0.00    -0.004 A 
ATOM      5  C7  UNL d   1      -2.342  -2.231   5.408  0.00  0.00     0.002 A 
ATOM      6  C8  UNL d   1      -1.675  -2.850   4.349  0.00  0.00     0.002 A 
ENDROOT
BRANCH   1   7
ATOM      7  C2  UNL d   1       0.267  -3.017   2.743  0.00  0.00     0.056 C 
BRANCH   7   8
ATOM      8  C1  UNL d   1       0.687  -2.076   1.609  0.00  0.00     0.007 C 
ATOM      9  C   UNL d   1       1.034  -2.807   0.319  0.00  0.00     0.009 C 
ENDBRANCH   7   8
ENDBRANCH   1   7
TORSDOF 2
ENDMDL
