MODEL 1
REMARK minimizedAffinity 7.55589771
REMARK minimizedRMSD -1
REMARK  2 active torsions:
REMARK  status: ('A' for Active; 'I' for Inactive)
REMARK    1  A    between atoms: C1_2  and  C2_3 
REMARK    2  A    between atoms: C2_3  and  C3_4 
ROOT
ATOM      1  C3  UNL d   1       5.131  -2.156  -3.944  0.00  0.00    -0.075 A 
ATOM      2  C4  UNL d   1       5.996  -3.253  -3.826  0.00  0.00     0.002 A 
ATOM      3  C5  UNL d   1       5.998  -4.260  -4.792  0.00  0.00     0.002 A 
ATOM      4  C6  UNL d   1       5.130  -4.189  -5.879  0.00  0.00    -0.004 A 
ATOM      5  C7  UNL d   1       4.255  -3.111  -5.998  0.00  0.00     0.002 A 
ATOM      6  C8  UNL d   1       4.253  -2.100  -5.035  0.00  0.00     0.002 A 
ENDROOT
BRANCH   1   7
ATOM      7  C2  UNL d   1       5.144  -1.048  -2.918  0.00  0.00     0.056 C 
BRANCH   7   8
ATOM      8  C1  UNL d   1       5.656  -1.480  -1.540  0.00  0.00     0.007 C 
ATOM      9  C   UNL d   1       4.878  -0.858  -0.388  0.00  0.00     0.009 C 
ENDBRANCH   7   8
ENDBRANCH   1   7
TORSDOF 2
ENDMDL
