MODEL 1
REMARK minimizedAffinity 9.85265923
REMARK minimizedRMSD -1
REMARK  2 active torsions:
REMARK  status: ('A' for Active; 'I' for Inactive)
REMARK    1  A    between atoms: C1_2  and  C2_3 
REMARK    2  A    between atoms: C2_3  and  C3_4 
ROOT
ATOM      1  C3  UNL d   1      -1.152  -2.393   2.478  0.00  0.00    -0.075 A 
ATOM      2  C4  UNL d   1      -0.097  -2.449   1.554  0.00  0.00     0.002 A 
ATOM      3  C5  UNL d   1       0.922  -1.498   1.585  0.00  0.00     0.002 A 
ATOM      4  C6  UNL d   1       0.896  -0.474   2.529  0.00  0.00    -0.004 A 
ATOM      5  C7  UNL d   1      -0.155  -0.398   3.440  0.00  0.00     0.002 A 
ATOM      6  C8  UNL d   1      -1.174  -1.352   3.415  0.00  0.00     0.002 A 
ENDROOT
BRANCH   1   7
ATOM      7  C2  UNL d   1      -2.243  -3.437   2.469  0.00  0.00     0.056 C 
BRANCH   7   8
ATOM      8  C1  UNL d   1      -3.400  -3.122   1.515  0.00  0.00     0.007 C 
ATOM      9  C   UNL d   1      -4.592  -2.478   2.209  0.00  0.00     0.009 C 
ENDBRANCH   7   8
ENDBRANCH   1   7
TORSDOF 2
ENDMDL
