MODEL 1
REMARK minimizedAffinity 6.46187735
REMARK minimizedRMSD -1
REMARK  2 active torsions:
REMARK  status: ('A' for Active; 'I' for Inactive)
REMARK    1  A    between atoms: C1_2  and  C2_3 
REMARK    2  A    between atoms: C2_3  and  C3_4 
ROOT
ATOM      1  C3  UNL d   1      -0.565  -1.848   3.621  0.00  0.00    -0.075 A 
ATOM      2  C4  UNL d   1      -0.154  -0.761   4.406  0.00  0.00     0.002 A 
ATOM      3  C5  UNL d   1       0.938   0.017   4.022  0.00  0.00     0.002 A 
ATOM      4  C6  UNL d   1       1.637  -0.286   2.856  0.00  0.00    -0.004 A 
ATOM      5  C7  UNL d   1       1.248  -1.373   2.077  0.00  0.00     0.002 A 
ATOM      6  C8  UNL d   1       0.153  -2.152   2.457  0.00  0.00     0.002 A 
ENDROOT
BRANCH   1   7
ATOM      7  C2  UNL d   1      -1.764  -2.677   4.017  0.00  0.00     0.056 C 
BRANCH   7   8
ATOM      8  C1  UNL d   1      -1.961  -3.935   3.164  0.00  0.00     0.007 C 
ATOM      9  C   UNL d   1      -2.903  -3.722   1.987  0.00  0.00     0.009 C 
ENDBRANCH   7   8
ENDBRANCH   1   7
TORSDOF 2
ENDMDL
