MODEL 1
REMARK minimizedAffinity 9.22035313
REMARK minimizedRMSD -1
REMARK  2 active torsions:
REMARK  status: ('A' for Active; 'I' for Inactive)
REMARK    1  A    between atoms: C1_2  and  C2_3 
REMARK    2  A    between atoms: C2_3  and  C3_4 
ROOT
ATOM      1  C3  UNL d   1      -2.950   3.159  -2.327  0.00  0.00    -0.075 A 
ATOM      2  C4  UNL d   1      -3.355   4.220  -1.505  0.00  0.00     0.002 A 
ATOM      3  C5  UNL d   1      -4.565   4.157  -0.812  0.00  0.00     0.002 A 
ATOM      4  C6  UNL d   1      -5.387   3.039  -0.941  0.00  0.00    -0.004 A 
ATOM      5  C7  UNL d   1      -5.002   1.987  -1.768  0.00  0.00     0.002 A 
ATOM      6  C8  UNL d   1      -3.790   2.046  -2.459  0.00  0.00     0.002 A 
ENDROOT
BRANCH   1   7
ATOM      7  C2  UNL d   1      -1.628   3.209  -3.056  0.00  0.00     0.056 C 
BRANCH   7   8
ATOM      8  C1  UNL d   1      -0.553   2.294  -2.461  0.00  0.00     0.007 C 
ATOM      9  C   UNL d   1      -0.361   2.489  -0.963  0.00  0.00     0.009 C 
ENDBRANCH   7   8
ENDBRANCH   1   7
TORSDOF 2
ENDMDL
