MODEL 1
REMARK minimizedAffinity 9.479002
REMARK minimizedRMSD -1
REMARK  2 active torsions:
REMARK  status: ('A' for Active; 'I' for Inactive)
REMARK    1  A    between atoms: C1_2  and  C2_3 
REMARK    2  A    between atoms: C2_3  and  C3_4 
ROOT
ATOM      1  C3  UNL d   1       3.434  -5.067  -5.997  0.00  0.00    -0.075 A 
ATOM      2  C4  UNL d   1       4.575  -5.882  -6.000  0.00  0.00     0.002 A 
ATOM      3  C5  UNL d   1       5.850  -5.315  -5.982  0.00  0.00     0.002 A 
ATOM      4  C6  UNL d   1       6.000  -3.930  -5.972  0.00  0.00    -0.004 A 
ATOM      5  C7  UNL d   1       4.873  -3.111  -5.986  0.00  0.00     0.002 A 
ATOM      6  C8  UNL d   1       3.596  -3.675  -5.999  0.00  0.00     0.002 A 
ENDROOT
BRANCH   1   7
ATOM      7  C2  UNL d   1       2.051  -5.674  -5.986  0.00  0.00     0.056 C 
BRANCH   7   8
ATOM      8  C1  UNL d   1       1.037  -4.900  -5.138  0.00  0.00     0.007 C 
ATOM      9  C   UNL d   1       0.722  -5.577  -3.811  0.00  0.00     0.009 C 
ENDBRANCH   7   8
ENDBRANCH   1   7
TORSDOF 2
ENDMDL
