MODEL 1
REMARK minimizedAffinity 22.8460999
REMARK minimizedRMSD -1
REMARK  2 active torsions:
REMARK  status: ('A' for Active; 'I' for Inactive)
REMARK    1  A    between atoms: C1_2  and  C2_3 
REMARK    2  A    between atoms: C2_3  and  C3_4 
ROOT
ATOM      1  C3  UNL d   1       1.396   0.601   0.897  0.00  0.00    -0.075 A 
ATOM      2  C4  UNL d   1       2.612  -0.019   1.217  0.00  0.00     0.002 A 
ATOM      3  C5  UNL d   1       2.634  -1.329   1.698  0.00  0.00     0.002 A 
ATOM      4  C6  UNL d   1       1.443  -2.030   1.873  0.00  0.00    -0.004 A 
ATOM      5  C7  UNL d   1       0.228  -1.417   1.574  0.00  0.00     0.002 A 
ATOM      6  C8  UNL d   1       0.203  -0.109   1.089  0.00  0.00     0.002 A 
ENDROOT
BRANCH   1   7
ATOM      7  C2  UNL d   1       1.367   2.008   0.349  0.00  0.00     0.056 C 
BRANCH   7   8
ATOM      8  C1  UNL d   1       0.085   2.354  -0.416  0.00  0.00     0.007 C 
ATOM      9  C   UNL d   1       0.331   2.675  -1.885  0.00  0.00     0.009 C 
ENDBRANCH   7   8
ENDBRANCH   1   7
TORSDOF 2
ENDMDL
