MODEL 1
REMARK minimizedAffinity 19.1676121
REMARK minimizedRMSD -1
REMARK  2 active torsions:
REMARK  status: ('A' for Active; 'I' for Inactive)
REMARK    1  A    between atoms: C1_2  and  C2_3 
REMARK    2  A    between atoms: C2_3  and  C3_4 
ROOT
ATOM      1  C3  UNL d   1       1.495   0.950   0.641  0.00  0.00    -0.075 A 
ATOM      2  C4  UNL d   1       2.685   0.253   0.898  0.00  0.00     0.002 A 
ATOM      3  C5  UNL d   1       2.654  -1.100   1.237  0.00  0.00     0.002 A 
ATOM      4  C6  UNL d   1       1.436  -1.770   1.333  0.00  0.00    -0.004 A 
ATOM      5  C7  UNL d   1       0.248  -1.083   1.096  0.00  0.00     0.002 A 
ATOM      6  C8  UNL d   1       0.276   0.270   0.752  0.00  0.00     0.002 A 
ENDROOT
BRANCH   1   7
ATOM      7  C2  UNL d   1       1.524   2.407   0.245  0.00  0.00     0.056 C 
BRANCH   7   8
ATOM      8  C1  UNL d   1       0.188   2.934  -0.289  0.00  0.00     0.007 C 
ATOM      9  C   UNL d   1       0.170   3.101  -1.802  0.00  0.00     0.009 C 
ENDBRANCH   7   8
ENDBRANCH   1   7
TORSDOF 2
ENDMDL
