MODEL 1
REMARK minimizedAffinity 15.0133133
REMARK minimizedRMSD -1
REMARK  1 active torsions:
REMARK  status: ('A' for Active; 'I' for Inactive)
REMARK    1  A    between atoms: C1_2  and  C2_3 
ROOT
ATOM      1  C2  UNL d   1      -4.714  -3.593  -3.550  0.00  0.00    -0.073 A 
ATOM      2  C3  UNL d   1      -5.930  -3.696  -4.234  0.00  0.00    -0.002 A 
ATOM      3  C4  UNL d   1      -5.998  -4.370  -5.454  0.00  0.00     0.004 A 
ATOM      4  C5  UNL d   1      -4.854  -4.953  -5.998  0.00  0.00    -0.004 A 
ATOM      5  C6  UNL d   1      -3.631  -4.871  -5.324  0.00  0.00    -0.075 A 
ATOM      6  C7  UNL d   1      -2.391  -5.490  -5.897  0.00  0.00     0.076 C 
ATOM      7  C8  UNL d   1      -3.571  -4.190  -4.100  0.00  0.00     0.001 A 
ENDROOT
BRANCH   1   8
ATOM      8  C1  UNL d   1      -4.637  -2.872  -2.229  0.00  0.00     0.053 C 
ATOM      9  C   UNL d   1      -5.997  -2.365  -1.776  0.00  0.00     0.018 C 
ENDBRANCH   1   8
TORSDOF 1
ENDMDL
