MODEL 1
REMARK minimizedAffinity 8.74237919
REMARK minimizedRMSD -1
REMARK  1 active torsions:
REMARK  status: ('A' for Active; 'I' for Inactive)
REMARK    1  A    between atoms: C1_2  and  C2_3 
ROOT
ATOM      1  C2  UNL d   1       4.499  -5.761  -3.913  0.00  0.00    -0.073 A 
ATOM      2  C3  UNL d   1       5.677  -5.923  -3.175  0.00  0.00    -0.002 A 
ATOM      3  C4  UNL d   1       5.631  -5.999  -1.782  0.00  0.00     0.004 A 
ATOM      4  C5  UNL d   1       4.408  -5.921  -1.115  0.00  0.00    -0.004 A 
ATOM      5  C6  UNL d   1       3.219  -5.771  -1.836  0.00  0.00    -0.075 A 
ATOM      6  C7  UNL d   1       1.897  -5.683  -1.133  0.00  0.00     0.076 C 
ATOM      7  C8  UNL d   1       3.274  -5.693  -3.234  0.00  0.00     0.001 A 
ENDROOT
BRANCH   1   8
ATOM      8  C1  UNL d   1       4.543  -5.684  -5.418  0.00  0.00     0.053 C 
ATOM      9  C   UNL d   1       5.912  -5.263  -5.927  0.00  0.00     0.018 C 
ENDBRANCH   1   8
TORSDOF 1
ENDMDL
