MODEL 1
REMARK minimizedAffinity 6.68169785
REMARK minimizedRMSD -1
REMARK  1 active torsions:
REMARK  status: ('A' for Active; 'I' for Inactive)
REMARK    1  A    between atoms: C1_2  and  C2_3 
ROOT
ATOM      1  C2  UNL d   1      -4.355   2.569  -1.095  0.00  0.00    -0.073 A 
ATOM      2  C3  UNL d   1      -3.144   1.932  -0.803  0.00  0.00    -0.002 A 
ATOM      3  C4  UNL d   1      -2.640   1.936   0.498  0.00  0.00     0.004 A 
ATOM      4  C5  UNL d   1      -3.344   2.572   1.521  0.00  0.00    -0.004 A 
ATOM      5  C6  UNL d   1      -4.562   3.204   1.252  0.00  0.00    -0.075 A 
ATOM      6  C7  UNL d   1      -5.330   3.894   2.341  0.00  0.00     0.076 C 
ATOM      7  C8  UNL d   1      -5.060   3.197  -0.058  0.00  0.00     0.001 A 
ENDROOT
BRANCH   1   8
ATOM      8  C1  UNL d   1      -4.906   2.561  -2.497  0.00  0.00     0.053 C 
ATOM      9  C   UNL d   1      -3.804   2.486  -3.542  0.00  0.00     0.018 C 
ENDBRANCH   1   8
TORSDOF 1
ENDMDL
