MODEL 1
REMARK minimizedAffinity 8.99813557
REMARK minimizedRMSD -1
REMARK  1 active torsions:
REMARK  status: ('A' for Active; 'I' for Inactive)
REMARK    1  A    between atoms: C3_4  and  O_7 
ROOT
ATOM      1  C   UNL d   1      -0.267  -5.995  -0.233  0.00  0.00    -0.033 A 
ATOM      2  C1  UNL d   1      -1.444  -5.998   0.519  0.00  0.00     0.039 A 
ATOM      3  C2  UNL d   1      -2.684  -5.999  -0.123  0.00  0.00    -0.080 A 
ATOM      4  C3  UNL d   1      -2.734  -5.999  -1.514  0.00  0.00     0.150 A 
ATOM      5  C4  UNL d   1      -1.566  -6.000  -2.269  0.00  0.00    -0.007 A 
ATOM      6  C5  UNL d   1      -0.329  -5.997  -1.627  0.00  0.00     0.039 A 
ENDROOT
BRANCH   4   7
ATOM      7  O   UNL d   1      -3.921  -5.996  -2.184  0.00  0.00    -0.526 OA
ATOM      8  H5  UNL d   1      -4.642  -5.966  -1.533  0.00  0.00     0.418 HD
ENDBRANCH   4   7
TORSDOF 1
ENDMDL
