MODEL 1
REMARK minimizedAffinity 6.17755747
REMARK minimizedRMSD -1
REMARK  1 active torsions:
REMARK  status: ('A' for Active; 'I' for Inactive)
REMARK    1  A    between atoms: C3_4  and  O_7 
ROOT
ATOM      1  C   UNL d   1       2.699  -0.201   0.343  0.00  0.00    -0.033 A 
ATOM      2  C1  UNL d   1       2.701  -0.441  -1.032  0.00  0.00     0.039 A 
ATOM      3  C2  UNL d   1       3.245   0.503  -1.906  0.00  0.00    -0.080 A 
ATOM      4  C3  UNL d   1       3.782   1.680  -1.392  0.00  0.00     0.150 A 
ATOM      5  C4  UNL d   1       3.786   1.924  -0.023  0.00  0.00    -0.007 A 
ATOM      6  C5  UNL d   1       3.243   0.980   0.848  0.00  0.00     0.039 A 
ENDROOT
BRANCH   4   7
ATOM      7  O   UNL d   1       4.319   2.633  -2.206  0.00  0.00    -0.526 OA
ATOM      8  H5  UNL d   1       4.221   2.341  -3.128  0.00  0.00     0.418 HD
ENDBRANCH   4   7
TORSDOF 1
ENDMDL
