MODEL 1
REMARK minimizedAffinity -0.560326457
REMARK minimizedRMSD -1
REMARK  1 active torsions:
REMARK  status: ('A' for Active; 'I' for Inactive)
REMARK    1  A    between atoms: C3_4  and  O_7 
ROOT
ATOM      1  C   UNL d   1      -4.838   5.984   6.000  0.00  0.00    -0.033 A 
ATOM      2  C1  UNL d   1      -3.683   5.826   5.232  0.00  0.00     0.039 A 
ATOM      3  C2  UNL d   1      -3.683   4.959   4.138  0.00  0.00    -0.080 A 
ATOM      4  C3  UNL d   1      -4.843   4.257   3.822  0.00  0.00     0.150 A 
ATOM      5  C4  UNL d   1      -5.998   4.412   4.581  0.00  0.00    -0.007 A 
ATOM      6  C5  UNL d   1      -5.997   5.278   5.673  0.00  0.00     0.039 A 
ENDROOT
BRANCH   4   7
ATOM      7  O   UNL d   1      -4.889   3.395   2.767  0.00  0.00    -0.526 OA
ATOM      8  H5  UNL d   1      -4.010   3.368   2.353  0.00  0.00     0.418 HD
ENDBRANCH   4   7
TORSDOF 1
ENDMDL
