MODEL 1
REMARK minimizedAffinity 11.0089846
REMARK minimizedRMSD -1
REMARK  1 active torsions:
REMARK  status: ('A' for Active; 'I' for Inactive)
REMARK    1  A    between atoms: C3_4  and  O_7 
ROOT
ATOM      1  C   UNL d   1       5.942   2.563  -0.783  0.00  0.00    -0.033 A 
ATOM      2  C1  UNL d   1       5.480   2.016   0.415  0.00  0.00     0.039 A 
ATOM      3  C2  UNL d   1       4.173   1.532   0.505  0.00  0.00    -0.080 A 
ATOM      4  C3  UNL d   1       3.341   1.601  -0.609  0.00  0.00     0.150 A 
ATOM      5  C4  UNL d   1       3.796   2.141  -1.807  0.00  0.00    -0.007 A 
ATOM      6  C5  UNL d   1       5.101   2.625  -1.895  0.00  0.00     0.039 A 
ENDROOT
BRANCH   4   7
ATOM      7  O   UNL d   1       2.056   1.146  -0.568  0.00  0.00    -0.526 OA
ATOM      8  H5  UNL d   1       1.871   0.827   0.332  0.00  0.00     0.418 HD
ENDBRANCH   4   7
TORSDOF 1
ENDMDL
