MODEL 1
REMARK minimizedAffinity 0.672306955
REMARK minimizedRMSD -1
REMARK  1 active torsions:
REMARK  status: ('A' for Active; 'I' for Inactive)
REMARK    1  A    between atoms: C3_4  and  O_7 
ROOT
ATOM      1  C   UNL d   1      -5.209   5.577   6.000  0.00  0.00    -0.033 A 
ATOM      2  C1  UNL d   1      -4.451   5.965   4.893  0.00  0.00     0.039 A 
ATOM      3  C2  UNL d   1      -4.461   5.191   3.732  0.00  0.00    -0.080 A 
ATOM      4  C3  UNL d   1      -5.233   4.033   3.689  0.00  0.00     0.150 A 
ATOM      5  C4  UNL d   1      -5.993   3.643   4.786  0.00  0.00    -0.007 A 
ATOM      6  C5  UNL d   1      -5.981   4.417   5.946  0.00  0.00     0.039 A 
ENDROOT
BRANCH   4   7
ATOM      7  O   UNL d   1      -5.271   3.242   2.579  0.00  0.00    -0.526 OA
ATOM      8  H5  UNL d   1      -4.675   3.621   1.911  0.00  0.00     0.418 HD
ENDBRANCH   4   7
TORSDOF 1
ENDMDL
