MODEL 1
REMARK minimizedAffinity -2.91443586
REMARK minimizedRMSD -1
REMARK  0 active torsions:
REMARK  status: ('A' for Active; 'I' for Inactive)
ROOT
ATOM      1  C1  BNZ d   1       1.334  -0.961  -0.754  0.00  0.00     0.000 A 
ATOM      2  C2  BNZ d   1       0.422  -0.394   0.095  0.00  0.00     0.000 A 
ATOM      3  C3  BNZ d   1       0.249   0.962   0.134  0.00  0.00     0.000 A 
ATOM      4  C4  BNZ d   1       1.017   1.750  -0.646  0.00  0.00     0.000 A 
ATOM      5  C5  BNZ d   1       1.948   1.194  -1.501  0.00  0.00     0.000 A 
ATOM      6  C6  BNZ d   1       2.091  -0.173  -1.565  0.00  0.00     0.000 A 
ENDROOT
TORSDOF 0
ENDMDL
