MODEL 1
REMARK minimizedAffinity -2.13340402
REMARK minimizedRMSD -1
REMARK  0 active torsions:
REMARK  status: ('A' for Active; 'I' for Inactive)
ROOT
ATOM      1  C1  BNZ d   1       1.480   0.553  -0.873  0.00  0.00     0.000 A 
ATOM      2  C2  BNZ d   1       2.411  -0.131  -1.609  0.00  0.00     0.000 A 
ATOM      3  C3  BNZ d   1       2.373  -1.494  -1.693  0.00  0.00     0.000 A 
ATOM      4  C4  BNZ d   1       1.430  -2.175  -1.010  0.00  0.00     0.000 A 
ATOM      5  C5  BNZ d   1       0.490  -1.500  -0.256  0.00  0.00     0.000 A 
ATOM      6  C6  BNZ d   1       0.508  -0.125  -0.205  0.00  0.00     0.000 A 
ENDROOT
TORSDOF 0
ENDMDL
