MODEL 1
REMARK minimizedAffinity -3.17725253
REMARK minimizedRMSD -1
REMARK  0 active torsions:
REMARK  status: ('A' for Active; 'I' for Inactive)
ROOT
ATOM      1  C1  BNZ d   1       0.134   1.272   0.255  0.00  0.00     0.000 A 
ATOM      2  C2  BNZ d   1       1.056   2.064  -0.375  0.00  0.00     0.000 A 
ATOM      3  C3  BNZ d   1       1.909   1.541  -1.306  0.00  0.00     0.000 A 
ATOM      4  C4  BNZ d   1       1.866   0.220  -1.576  0.00  0.00     0.000 A 
ATOM      5  C5  BNZ d   1       0.948  -0.594  -0.942  0.00  0.00     0.000 A 
ATOM      6  C6  BNZ d   1       0.065  -0.056  -0.034  0.00  0.00     0.000 A 
ENDROOT
TORSDOF 0
ENDMDL
