MODEL 1
REMARK minimizedAffinity -3.14784336
REMARK minimizedRMSD -1
REMARK  0 active torsions:
REMARK  status: ('A' for Active; 'I' for Inactive)
ROOT
ATOM      1  C1  BNZ d   1       1.709  -0.760  -1.056  0.00  0.00     0.000 A 
ATOM      2  C2  BNZ d   1       2.157   0.402  -1.625  0.00  0.00     0.000 A 
ATOM      3  C3  BNZ d   1       1.618   1.607  -1.271  0.00  0.00     0.000 A 
ATOM      4  C4  BNZ d   1       0.606   1.645  -0.381  0.00  0.00     0.000 A 
ATOM      5  C5  BNZ d   1       0.136   0.481   0.194  0.00  0.00     0.000 A 
ATOM      6  C6  BNZ d   1       0.708  -0.726  -0.135  0.00  0.00     0.000 A 
ENDROOT
TORSDOF 0
ENDMDL
