MODEL 1
REMARK minimizedAffinity -4.463027
REMARK minimizedRMSD -1
REMARK  0 active torsions:
REMARK  status: ('A' for Active; 'I' for Inactive)
ROOT
ATOM      1  C1  BNZ d   1       0.002  -0.962  -0.212  0.00  0.00     0.000 A 
ATOM      2  C2  BNZ d   1       0.531  -1.381  -1.403  0.00  0.00     0.000 A 
ATOM      3  C3  BNZ d   1       1.273  -0.532  -2.177  0.00  0.00     0.000 A 
ATOM      4  C4  BNZ d   1       1.450   0.744  -1.779  0.00  0.00     0.000 A 
ATOM      5  C5  BNZ d   1       0.915   1.185  -0.585  0.00  0.00     0.000 A 
ATOM      6  C6  BNZ d   1       0.202   0.317   0.210  0.00  0.00     0.000 A 
ENDROOT
TORSDOF 0
ENDMDL
