MODEL 1
REMARK minimizedAffinity -2.55826139
REMARK minimizedRMSD -1
REMARK  0 active torsions:
REMARK  status: ('A' for Active; 'I' for Inactive)
ROOT
ATOM      1  C1  BNZ d   1       0.374   1.470   0.019  0.00  0.00     0.000 A 
ATOM      2  C2  BNZ d   1      -0.328   0.532   0.728  0.00  0.00     0.000 A 
ATOM      3  C3  BNZ d   1      -0.054  -0.800   0.589  0.00  0.00     0.000 A 
ATOM      4  C4  BNZ d   1       0.893  -1.195  -0.286  0.00  0.00     0.000 A 
ATOM      5  C5  BNZ d   1       1.604  -0.262  -1.015  0.00  0.00     0.000 A 
ATOM      6  C6  BNZ d   1       1.352   1.080  -0.844  0.00  0.00     0.000 A 
ENDROOT
TORSDOF 0
ENDMDL
