MODEL 1
REMARK minimizedAffinity -0.276487499
REMARK minimizedRMSD -1
REMARK  0 active torsions:
REMARK  status: ('A' for Active; 'I' for Inactive)
ROOT
ATOM      1  C1  BNZ d   1      -3.140   4.757  -5.565  0.00  0.00     0.000 A 
ATOM      2  C2  BNZ d   1      -3.913   3.684  -5.210  0.00  0.00     0.000 A 
ATOM      3  C3  BNZ d   1      -5.277   3.753  -5.271  0.00  0.00     0.000 A 
ATOM      4  C4  BNZ d   1      -5.866   4.906  -5.648  0.00  0.00     0.000 A 
ATOM      5  C5  BNZ d   1      -5.101   6.000  -6.000  0.00  0.00     0.000 A 
ATOM      6  C6  BNZ d   1      -3.728   5.914  -5.974  0.00  0.00     0.000 A 
ENDROOT
TORSDOF 0
ENDMDL
