MODEL 1
REMARK minimizedAffinity -2.42374301
REMARK minimizedRMSD -1
REMARK  0 active torsions:
REMARK  status: ('A' for Active; 'I' for Inactive)
ROOT
ATOM      1  C1  BNZ d   1      -3.173   1.759   2.222  0.00  0.00     0.000 A 
ATOM      2  C2  BNZ d   1      -4.049   0.962   1.534  0.00  0.00     0.000 A 
ATOM      3  C3  BNZ d   1      -3.622  -0.184   0.924  0.00  0.00     0.000 A 
ATOM      4  C4  BNZ d   1      -2.314  -0.511   0.969  0.00  0.00     0.000 A 
ATOM      5  C5  BNZ d   1      -1.417   0.286   1.651  0.00  0.00     0.000 A 
ATOM      6  C6  BNZ d   1      -1.858   1.419   2.297  0.00  0.00     0.000 A 
ENDROOT
TORSDOF 0
ENDMDL
