MODEL 1
REMARK minimizedAffinity -2.42632031
REMARK minimizedRMSD -1
REMARK  0 active torsions:
REMARK  status: ('A' for Active; 'I' for Inactive)
ROOT
ATOM      1  C1  BNZ d   1       0.665   0.959  -0.701  0.00  0.00     0.000 A 
ATOM      2  C2  BNZ d   1      -0.693   1.063  -0.844  0.00  0.00     0.000 A 
ATOM      3  C3  BNZ d   1      -1.538   0.487   0.064  0.00  0.00     0.000 A 
ATOM      4  C4  BNZ d   1      -1.025  -0.225   1.088  0.00  0.00     0.000 A 
ATOM      5  C5  BNZ d   1       0.341  -0.347   1.240  0.00  0.00     0.000 A 
ATOM      6  C6  BNZ d   1       1.189   0.267   0.347  0.00  0.00     0.000 A 
ENDROOT
TORSDOF 0
ENDMDL
