MODEL 1
REMARK minimizedAffinity -3.45245528
REMARK minimizedRMSD -1
REMARK  0 active torsions:
REMARK  status: ('A' for Active; 'I' for Inactive)
ROOT
ATOM      1  C1  BNZ d   1       0.795  -0.740  -1.254  0.00  0.00     0.000 A 
ATOM      2  C2  BNZ d   1       0.096  -0.483  -0.105  0.00  0.00     0.000 A 
ATOM      3  C3  BNZ d   1       0.197   0.728   0.521  0.00  0.00     0.000 A 
ATOM      4  C4  BNZ d   1       1.027   1.665   0.019  0.00  0.00     0.000 A 
ATOM      5  C5  BNZ d   1       1.746   1.419  -1.134  0.00  0.00     0.000 A 
ATOM      6  C6  BNZ d   1       1.611   0.213  -1.782  0.00  0.00     0.000 A 
ENDROOT
TORSDOF 0
ENDMDL
