MODEL 1
REMARK minimizedAffinity -2.79215598
REMARK minimizedRMSD -1
REMARK  0 active torsions:
REMARK  status: ('A' for Active; 'I' for Inactive)
ROOT
ATOM      1  C1  BNZ d   1      -1.962   1.355   2.478  0.00  0.00     0.000 A 
ATOM      2  C2  BNZ d   1      -1.508   0.627   1.411  0.00  0.00     0.000 A 
ATOM      3  C3  BNZ d   1      -2.369  -0.116   0.653  0.00  0.00     0.000 A 
ATOM      4  C4  BNZ d   1      -3.675  -0.163   0.987  0.00  0.00     0.000 A 
ATOM      5  C5  BNZ d   1      -4.147   0.557   2.066  0.00  0.00     0.000 A 
ATOM      6  C6  BNZ d   1      -3.284   1.336   2.803  0.00  0.00     0.000 A 
ENDROOT
TORSDOF 0
ENDMDL
