MODEL 1
REMARK minimizedAffinity -3.08931375
REMARK minimizedRMSD -1
REMARK  0 active torsions:
REMARK  status: ('A' for Active; 'I' for Inactive)
ROOT
ATOM      1  C1  BNZ d   1       1.829  -1.785  -1.271  0.00  0.00     0.000 A 
ATOM      2  C2  BNZ d   1       2.404  -0.725  -1.918  0.00  0.00     0.000 A 
ATOM      3  C3  BNZ d   1       1.986   0.554  -1.676  0.00  0.00     0.000 A 
ATOM      4  C4  BNZ d   1       0.968   0.767  -0.817  0.00  0.00     0.000 A 
ATOM      5  C5  BNZ d   1       0.371  -0.293  -0.164  0.00  0.00     0.000 A 
ATOM      6  C6  BNZ d   1       0.821  -1.575  -0.381  0.00  0.00     0.000 A 
ENDROOT
TORSDOF 0
ENDMDL
