MODEL 1
REMARK minimizedAffinity -2.33848906
REMARK minimizedRMSD -1
REMARK  0 active torsions:
REMARK  status: ('A' for Active; 'I' for Inactive)
ROOT
ATOM      1  C1  BNZ d   1       0.778  -1.066  -1.075  0.00  0.00     0.000 A 
ATOM      2  C2  BNZ d   1      -0.015  -0.808   0.011  0.00  0.00     0.000 A 
ATOM      3  C3  BNZ d   1      -0.074   0.446   0.552  0.00  0.00     0.000 A 
ATOM      4  C4  BNZ d   1       0.688   1.429   0.032  0.00  0.00     0.000 A 
ATOM      5  C5  BNZ d   1       1.500   1.183  -1.057  0.00  0.00     0.000 A 
ATOM      6  C6  BNZ d   1       1.528  -0.071  -1.623  0.00  0.00     0.000 A 
ENDROOT
TORSDOF 0
ENDMDL
