MODEL 1
REMARK minimizedAffinity -3.40275478
REMARK minimizedRMSD -1
REMARK  0 active torsions:
REMARK  status: ('A' for Active; 'I' for Inactive)
ROOT
ATOM      1  C1  BNZ d   1       0.168   0.043   0.449  0.00  0.00     0.000 A 
ATOM      2  C2  BNZ d   1       0.842   0.938  -0.338  0.00  0.00     0.000 A 
ATOM      3  C3  BNZ d   1       1.664   0.506  -1.342  0.00  0.00     0.000 A 
ATOM      4  C4  BNZ d   1       1.841  -0.818  -1.531  0.00  0.00     0.000 A 
ATOM      5  C5  BNZ d   1       1.175  -1.732  -0.739  0.00  0.00     0.000 A 
ATOM      6  C6  BNZ d   1       0.319  -1.294   0.245  0.00  0.00     0.000 A 
ENDROOT
TORSDOF 0
ENDMDL
