MODEL 1
REMARK minimizedAffinity -1.29424429
REMARK minimizedRMSD -1
REMARK  0 active torsions:
REMARK  status: ('A' for Active; 'I' for Inactive)
ROOT
ATOM      1  C1  BNZ d   1       1.101  -0.020  -0.868  0.00  0.00     0.000 A 
ATOM      2  C2  BNZ d   1       0.783  -1.349  -0.960  0.00  0.00     0.000 A 
ATOM      3  C3  BNZ d   1       0.001  -1.948  -0.013  0.00  0.00     0.000 A 
ATOM      4  C4  BNZ d   1      -0.428  -1.230   1.044  0.00  0.00     0.000 A 
ATOM      5  C5  BNZ d   1      -0.108   0.109   1.156  0.00  0.00     0.000 A 
ATOM      6  C6  BNZ d   1       0.647   0.718   0.181  0.00  0.00     0.000 A 
ENDROOT
TORSDOF 0
ENDMDL
