MODEL 1
REMARK minimizedAffinity -3.47344279
REMARK minimizedRMSD -1
REMARK  0 active torsions:
REMARK  status: ('A' for Active; 'I' for Inactive)
ROOT
ATOM      1  C1  BNZ d   1       0.713   0.736  -0.845  0.00  0.00     0.000 A 
ATOM      2  C2  BNZ d   1       1.785   0.914  -1.679  0.00  0.00     0.000 A 
ATOM      3  C3  BNZ d   1       2.472  -0.160  -2.173  0.00  0.00     0.000 A 
ATOM      4  C4  BNZ d   1       2.113  -1.405  -1.801  0.00  0.00     0.000 A 
ATOM      5  C5  BNZ d   1       1.041  -1.600  -0.954  0.00  0.00     0.000 A 
ATOM      6  C6  BNZ d   1       0.327  -0.519  -0.489  0.00  0.00     0.000 A 
ENDROOT
TORSDOF 0
ENDMDL
