MODEL 1
REMARK minimizedAffinity -1.93132055
REMARK minimizedRMSD -1
REMARK  0 active torsions:
REMARK  status: ('A' for Active; 'I' for Inactive)
ROOT
ATOM      1  C1  BNZ d   1      -3.143   1.404   2.936  0.00  0.00     0.000 A 
ATOM      2  C2  BNZ d   1      -1.866   1.130   2.524  0.00  0.00     0.000 A 
ATOM      3  C3  BNZ d   1      -1.637   0.368   1.413  0.00  0.00     0.000 A 
ATOM      4  C4  BNZ d   1      -2.683  -0.152   0.739  0.00  0.00     0.000 A 
ATOM      5  C5  BNZ d   1      -3.977   0.107   1.148  0.00  0.00     0.000 A 
ATOM      6  C6  BNZ d   1      -4.204   0.906   2.244  0.00  0.00     0.000 A 
ENDROOT
TORSDOF 0
ENDMDL
