MODEL 1
REMARK minimizedAffinity 3.45471168
REMARK minimizedRMSD -1
REMARK  0 active torsions:
REMARK  status: ('A' for Active; 'I' for Inactive)
ROOT
ATOM      1  C1  BNZ d   1       1.046   2.465  -2.006  0.00  0.00     0.000 A 
ATOM      2  C2  BNZ d   1       1.099   1.245  -2.626  0.00  0.00     0.000 A 
ATOM      3  C3  BNZ d   1       1.913   0.254  -2.153  0.00  0.00     0.000 A 
ATOM      4  C4  BNZ d   1       2.702   0.497  -1.087  0.00  0.00     0.000 A 
ATOM      5  C5  BNZ d   1       2.667   1.725  -0.457  0.00  0.00     0.000 A 
ATOM      6  C6  BNZ d   1       1.817   2.707  -0.912  0.00  0.00     0.000 A 
ENDROOT
TORSDOF 0
ENDMDL
