MODEL 1
REMARK minimizedAffinity -2.54083538
REMARK minimizedRMSD -1
REMARK  0 active torsions:
REMARK  status: ('A' for Active; 'I' for Inactive)
ROOT
ATOM      1  C1  BNZ d   1       2.022  -0.856  -2.442  0.00  0.00     0.000 A 
ATOM      2  C2  BNZ d   1       2.014   0.396  -2.998  0.00  0.00     0.000 A 
ATOM      3  C3  BNZ d   1       1.916   1.510  -2.212  0.00  0.00     0.000 A 
ATOM      4  C4  BNZ d   1       1.786   1.370  -0.877  0.00  0.00     0.000 A 
ATOM      5  C5  BNZ d   1       1.783   0.115  -0.302  0.00  0.00     0.000 A 
ATOM      6  C6  BNZ d   1       1.921  -1.003  -1.093  0.00  0.00     0.000 A 
ENDROOT
TORSDOF 0
ENDMDL
