MODEL 1
REMARK minimizedAffinity -2.66958117
REMARK minimizedRMSD -1
REMARK  0 active torsions:
REMARK  status: ('A' for Active; 'I' for Inactive)
ROOT
ATOM      1  C1  BNZ d   1      -0.002  -1.739   0.710  0.00  0.00     0.000 A 
ATOM      2  C2  BNZ d   1       0.675  -1.863  -0.474  0.00  0.00     0.000 A 
ATOM      3  C3  BNZ d   1       1.124  -0.758  -1.142  0.00  0.00     0.000 A 
ATOM      4  C4  BNZ d   1       0.862   0.469  -0.647  0.00  0.00     0.000 A 
ATOM      5  C5  BNZ d   1       0.173   0.610   0.541  0.00  0.00     0.000 A 
ATOM      6  C6  BNZ d   1      -0.244  -0.505   1.231  0.00  0.00     0.000 A 
ENDROOT
TORSDOF 0
ENDMDL
