MODEL 1
REMARK minimizedAffinity 4.17161703
REMARK minimizedRMSD -1
REMARK  1 active torsions:
REMARK  status: ('A' for Active; 'I' for Inactive)
REMARK    1  A    between atoms: C1_2  and  C2_3 
ROOT
ATOM      1  C2  UNL d   1      -3.261   1.906  -2.882  0.00  0.00    -0.081 A 
ATOM      2  C3  UNL d   1      -3.652   2.727  -3.947  0.00  0.00     0.006 A 
ATOM      3  C4  UNL d   1      -4.446   3.853  -3.719  0.00  0.00     0.002 A 
ATOM      4  C5  UNL d   1      -4.856   4.181  -2.422  0.00  0.00    -0.080 A 
ATOM      5  C6  UNL d   1      -5.683   5.405  -2.160  0.00  0.00     0.076 C 
ATOM      6  C7  UNL d   1      -4.480   3.352  -1.360  0.00  0.00     0.002 A 
ATOM      7  C8  UNL d   1      -3.687   2.225  -1.588  0.00  0.00     0.006 A 
ENDROOT
BRANCH   1   8
ATOM      8  C1  UNL d   1      -2.351   0.727  -3.116  0.00  0.00     0.054 C 
ATOM      9  C   UNL d   1      -3.134  -0.492  -3.581  0.00  0.00     0.018 C 
ENDBRANCH   1   8
TORSDOF 1
ENDMDL
