MODEL 1
REMARK minimizedAffinity 8.66752529
REMARK minimizedRMSD -1
REMARK  1 active torsions:
REMARK  status: ('A' for Active; 'I' for Inactive)
REMARK    1  A    between atoms: C1_2  and  C2_3 
ROOT
ATOM      1  C2  UNL d   1       0.590  -1.615   0.611  0.00  0.00    -0.081 A 
ATOM      2  C3  UNL d   1       0.849  -2.042  -0.698  0.00  0.00     0.006 A 
ATOM      3  C4  UNL d   1      -0.081  -1.812  -1.714  0.00  0.00     0.002 A 
ATOM      4  C5  UNL d   1      -1.280  -1.144  -1.442  0.00  0.00    -0.080 A 
ATOM      5  C6  UNL d   1      -2.273  -0.864  -2.530  0.00  0.00     0.076 C 
ATOM      6  C7  UNL d   1      -1.546  -0.733  -0.131  0.00  0.00     0.002 A 
ATOM      7  C8  UNL d   1      -0.617  -0.964   0.886  0.00  0.00     0.006 A 
ENDROOT
BRANCH   1   8
ATOM      8  C1  UNL d   1       1.619  -1.804   1.696  0.00  0.00     0.054 C 
ATOM      9  C   UNL d   1       1.368  -0.864   2.867  0.00  0.00     0.018 C 
ENDBRANCH   1   8
TORSDOF 1
ENDMDL
