MODEL 1
REMARK minimizedAffinity 5.63913012
REMARK minimizedRMSD -1
REMARK  1 active torsions:
REMARK  status: ('A' for Active; 'I' for Inactive)
REMARK    1  A    between atoms: C1_2  and  C2_3 
ROOT
ATOM      1  C2  UNL d   1       1.915  -2.133   3.612  0.00  0.00    -0.081 A 
ATOM      2  C3  UNL d   1       1.440  -0.973   2.987  0.00  0.00     0.006 A 
ATOM      3  C4  UNL d   1       1.288  -0.928   1.599  0.00  0.00     0.002 A 
ATOM      4  C5  UNL d   1       1.599  -2.044   0.815  0.00  0.00    -0.080 A 
ATOM      5  C6  UNL d   1       1.411  -2.019  -0.673  0.00  0.00     0.076 C 
ATOM      6  C7  UNL d   1       2.090  -3.197   1.437  0.00  0.00     0.002 A 
ATOM      7  C8  UNL d   1       2.243  -3.242   2.825  0.00  0.00     0.006 A 
ENDROOT
BRANCH   1   8
ATOM      8  C1  UNL d   1       2.019  -2.206   5.114  0.00  0.00     0.054 C 
ATOM      9  C   UNL d   1       1.326  -3.448   5.657  0.00  0.00     0.018 C 
ENDBRANCH   1   8
TORSDOF 1
ENDMDL
