MODEL 1
REMARK minimizedAffinity 13.563117
REMARK minimizedRMSD -1
REMARK  1 active torsions:
REMARK  status: ('A' for Active; 'I' for Inactive)
REMARK    1  A    between atoms: C1_2  and  C2_3 
ROOT
ATOM      1  C2  UNL d   1       2.621   0.037   2.599  0.00  0.00    -0.081 A 
ATOM      2  C3  UNL d   1       1.865   1.209   2.726  0.00  0.00     0.006 A 
ATOM      3  C4  UNL d   1       2.121   2.309   1.904  0.00  0.00     0.002 A 
ATOM      4  C5  UNL d   1       3.131   2.254   0.938  0.00  0.00    -0.080 A 
ATOM      5  C6  UNL d   1       3.396   3.417   0.029  0.00  0.00     0.076 C 
ATOM      6  C7  UNL d   1       3.898   1.090   0.823  0.00  0.00     0.002 A 
ATOM      7  C8  UNL d   1       3.643  -0.011   1.644  0.00  0.00     0.006 A 
ENDROOT
BRANCH   1   8
ATOM      8  C1  UNL d   1       2.305  -1.174   3.439  0.00  0.00     0.054 C 
ATOM      9  C   UNL d   1       1.847  -0.775   4.835  0.00  0.00     0.018 C 
ENDBRANCH   1   8
TORSDOF 1
ENDMDL
