MODEL 1
REMARK minimizedAffinity 5.04148245
REMARK minimizedRMSD -1
REMARK  1 active torsions:
REMARK  status: ('A' for Active; 'I' for Inactive)
REMARK    1  A    between atoms: C1_2  and  C2_3 
ROOT
ATOM      1  C2  UNL d   1      -5.595   1.799  -4.837  0.00  0.00    -0.081 A 
ATOM      2  C3  UNL d   1      -5.488   2.254  -3.518  0.00  0.00     0.006 A 
ATOM      3  C4  UNL d   1      -5.630   1.366  -2.449  0.00  0.00     0.002 A 
ATOM      4  C5  UNL d   1      -5.875   0.009  -2.681  0.00  0.00    -0.080 A 
ATOM      5  C6  UNL d   1      -6.000  -0.960  -1.543  0.00  0.00     0.076 C 
ATOM      6  C7  UNL d   1      -6.000  -0.443  -3.999  0.00  0.00     0.002 A 
ATOM      7  C8  UNL d   1      -5.858   0.444  -5.069  0.00  0.00     0.006 A 
ENDROOT
BRANCH   1   8
ATOM      8  C1  UNL d   1      -5.378   2.742  -5.993  0.00  0.00     0.054 C 
ATOM      9  C   UNL d   1      -3.990   3.364  -5.946  0.00  0.00     0.018 C 
ENDBRANCH   1   8
TORSDOF 1
ENDMDL
