MODEL 1
REMARK minimizedAffinity 8.01590919
REMARK minimizedRMSD -1
REMARK  1 active torsions:
REMARK  status: ('A' for Active; 'I' for Inactive)
REMARK    1  A    between atoms: C1_2  and  C2_3 
ROOT
ATOM      1  C2  UNL d   1       2.351  -0.838   2.950  0.00  0.00    -0.081 A 
ATOM      2  C3  UNL d   1       2.814  -1.036   1.643  0.00  0.00     0.006 A 
ATOM      3  C4  UNL d   1       3.111   0.056   0.824  0.00  0.00     0.002 A 
ATOM      4  C5  UNL d   1       2.958   1.362   1.300  0.00  0.00    -0.080 A 
ATOM      5  C6  UNL d   1       3.303   2.543   0.441  0.00  0.00     0.076 C 
ATOM      6  C7  UNL d   1       2.480   1.561   2.599  0.00  0.00     0.002 A 
ATOM      7  C8  UNL d   1       2.182   0.469   3.419  0.00  0.00     0.006 A 
ENDROOT
BRANCH   1   8
ATOM      8  C1  UNL d   1       2.092  -2.013   3.857  0.00  0.00     0.054 C 
ATOM      9  C   UNL d   1       3.334  -2.878   4.012  0.00  0.00     0.018 C 
ENDBRANCH   1   8
TORSDOF 1
ENDMDL
