MODEL 1
REMARK minimizedAffinity 8.23876095
REMARK minimizedRMSD -1
REMARK  1 active torsions:
REMARK  status: ('A' for Active; 'I' for Inactive)
REMARK    1  A    between atoms: C1_2  and  C2_3 
ROOT
ATOM      1  C2  UNL d   1       1.984  -0.943   2.078  0.00  0.00    -0.081 A 
ATOM      2  C3  UNL d   1       3.068  -0.169   1.647  0.00  0.00     0.006 A 
ATOM      3  C4  UNL d   1       4.368  -0.485   2.050  0.00  0.00     0.002 A 
ATOM      4  C5  UNL d   1       4.606  -1.583   2.883  0.00  0.00    -0.080 A 
ATOM      5  C6  UNL d   1       5.999  -1.952   3.298  0.00  0.00     0.076 C 
ATOM      6  C7  UNL d   1       3.520  -2.346   3.327  0.00  0.00     0.002 A 
ATOM      7  C8  UNL d   1       2.221  -2.031   2.925  0.00  0.00     0.006 A 
ENDROOT
BRANCH   1   8
ATOM      8  C1  UNL d   1       0.588  -0.643   1.593  0.00  0.00     0.054 C 
ATOM      9  C   UNL d   1       0.366  -1.176   0.184  0.00  0.00     0.018 C 
ENDBRANCH   1   8
TORSDOF 1
ENDMDL
