MODEL 1
REMARK minimizedAffinity 1.32796335
REMARK minimizedRMSD -1
REMARK  1 active torsions:
REMARK  status: ('A' for Active; 'I' for Inactive)
REMARK    1  A    between atoms: C1_2  and  C2_3 
ROOT
ATOM      1  C2  UNL d   1       2.092  -2.440   4.640  0.00  0.00    -0.081 A 
ATOM      2  C3  UNL d   1       1.387  -1.352   4.110  0.00  0.00     0.006 A 
ATOM      3  C4  UNL d   1       1.813  -0.740   2.929  0.00  0.00     0.002 A 
ATOM      4  C5  UNL d   1       2.944  -1.210   2.254  0.00  0.00    -0.080 A 
ATOM      5  C6  UNL d   1       3.395  -0.581   0.969  0.00  0.00     0.076 C 
ATOM      6  C7  UNL d   1       3.659  -2.286   2.792  0.00  0.00     0.002 A 
ATOM      7  C8  UNL d   1       3.234  -2.898   3.974  0.00  0.00     0.006 A 
ENDROOT
BRANCH   1   8
ATOM      8  C1  UNL d   1       1.598  -3.143   5.879  0.00  0.00     0.054 C 
ATOM      9  C   UNL d   1       1.663  -4.656   5.720  0.00  0.00     0.018 C 
ENDBRANCH   1   8
TORSDOF 1
ENDMDL
