MODEL 1
REMARK minimizedAffinity -6.27341557
REMARK minimizedRMSD -1
REMARK  0 active torsions:
REMARK  status: ('A' for Active; 'I' for Inactive)
ROOT
ATOM      1  C1  DEN d   1      -0.867   1.962   0.033  0.00  0.00     0.130 A 
ATOM      2  C2  DEN d   1      -0.063   3.181   0.010  0.00  0.00    -0.031 A 
ATOM      3  C3  DEN d   1       1.356   2.795   0.149  0.00  0.00     0.027 A 
ATOM      4  C4  DEN d   1       2.380   0.440   0.393  0.00  0.00     0.027 A 
ATOM      5  C5  DEN d   1       2.095  -0.905   0.478  0.00  0.00    -0.003 A 
ATOM      6  C6  DEN d   1       0.811  -1.382   0.454  0.00  0.00     0.001 A 
ATOM      7  C7  DEN d   1      -0.234  -0.511   0.298  0.00  0.00     0.017 A 
ATOM      8  C8  DEN d   1       0.045   0.848   0.220  0.00  0.00    -0.094 A 
ATOM      9  C9  DEN d   1       1.350   1.309   0.233  0.00  0.00    -0.072 A 
ENDROOT
TORSDOF 0
ENDMDL
