MODEL 1
REMARK minimizedAffinity -6.43276024
REMARK minimizedRMSD -1
REMARK  0 active torsions:
REMARK  status: ('A' for Active; 'I' for Inactive)
ROOT
ATOM      1  C1  DEN d   1      -1.522   0.031   0.847  0.00  0.00     0.130 A 
ATOM      2  C2  DEN d   1      -0.995  -1.248   0.381  0.00  0.00    -0.031 A 
ATOM      3  C3  DEN d   1       0.312  -0.998  -0.260  0.00  0.00     0.027 A 
ATOM      4  C4  DEN d   1       1.565   1.235  -0.571  0.00  0.00     0.027 A 
ATOM      5  C5  DEN d   1       1.509   2.594  -0.351  0.00  0.00    -0.003 A 
ATOM      6  C6  DEN d   1       0.433   3.193   0.249  0.00  0.00     0.001 A 
ATOM      7  C7  DEN d   1      -0.613   2.425   0.690  0.00  0.00     0.017 A 
ATOM      8  C8  DEN d   1      -0.567   1.056   0.465  0.00  0.00    -0.094 A 
ATOM      9  C9  DEN d   1       0.535   0.468  -0.132  0.00  0.00    -0.072 A 
ENDROOT
TORSDOF 0
ENDMDL
