MODEL 1
REMARK minimizedAffinity -3.54094434
REMARK minimizedRMSD -1
REMARK  0 active torsions:
REMARK  status: ('A' for Active; 'I' for Inactive)
ROOT
ATOM      1  C1  DEN d   1       1.266   2.454  -0.004  0.00  0.00     0.130 A 
ATOM      2  C2  DEN d   1       0.283   3.355   0.592  0.00  0.00    -0.031 A 
ATOM      3  C3  DEN d   1      -0.875   2.547   1.022  0.00  0.00     0.027 A 
ATOM      4  C4  DEN d   1      -1.238   0.000   0.831  0.00  0.00     0.027 A 
ATOM      5  C5  DEN d   1      -0.688  -1.182   0.387  0.00  0.00    -0.003 A 
ATOM      6  C6  DEN d   1       0.527  -1.230  -0.243  0.00  0.00     0.001 A 
ATOM      7  C7  DEN d   1       1.253  -0.080  -0.407  0.00  0.00     0.017 A 
ATOM      8  C8  DEN d   1       0.701   1.117   0.031  0.00  0.00    -0.094 A 
ATOM      9  C9  DEN d   1      -0.523   1.143   0.677  0.00  0.00    -0.072 A 
ENDROOT
TORSDOF 0
ENDMDL
