MODEL 1
REMARK minimizedAffinity -6.40453529
REMARK minimizedRMSD -1
REMARK  0 active torsions:
REMARK  status: ('A' for Active; 'I' for Inactive)
ROOT
ATOM      1  C1  DEN d   1      -0.089  -0.517   0.153  0.00  0.00     0.130 A 
ATOM      2  C2  DEN d   1       1.122  -1.313   0.336  0.00  0.00    -0.031 A 
ATOM      3  C3  DEN d   1       2.228  -0.391   0.668  0.00  0.00     0.027 A 
ATOM      4  C4  DEN d   1       2.181   2.175   0.921  0.00  0.00     0.027 A 
ATOM      5  C5  DEN d   1       1.383   3.296   0.849  0.00  0.00    -0.003 A 
ATOM      6  C6  DEN d   1       0.058   3.228   0.510  0.00  0.00     0.001 A 
ATOM      7  C7  DEN d   1      -0.521   2.009   0.274  0.00  0.00     0.017 A 
ATOM      8  C8  DEN d   1       0.278   0.875   0.337  0.00  0.00    -0.094 A 
ATOM      9  C9  DEN d   1       1.613   0.963   0.693  0.00  0.00    -0.072 A 
ENDROOT
TORSDOF 0
ENDMDL
