MODEL 1
REMARK minimizedAffinity -4.08414412
REMARK minimizedRMSD -1
REMARK  0 active torsions:
REMARK  status: ('A' for Active; 'I' for Inactive)
ROOT
ATOM      1  C1  DEN d   1       1.245  -0.711  -0.056  0.00  0.00     0.130 A 
ATOM      2  C2  DEN d   1       0.143  -1.640   0.178  0.00  0.00    -0.031 A 
ATOM      3  C3  DEN d   1      -1.109  -0.858   0.235  0.00  0.00     0.027 A 
ATOM      4  C4  DEN d   1      -1.446   1.686  -0.017  0.00  0.00     0.027 A 
ATOM      5  C5  DEN d   1      -0.805   2.889  -0.216  0.00  0.00    -0.003 A 
ATOM      6  C6  DEN d   1       0.556   2.980  -0.341  0.00  0.00     0.001 A 
ATOM      7  C7  DEN d   1       1.317   1.841  -0.313  0.00  0.00     0.017 A 
ATOM      8  C8  DEN d   1       0.679   0.625  -0.105  0.00  0.00    -0.094 A 
ATOM      9  C9  DEN d   1      -0.699   0.553   0.007  0.00  0.00    -0.072 A 
ENDROOT
TORSDOF 0
ENDMDL
