MODEL 1
REMARK minimizedAffinity -5.81024218
REMARK minimizedRMSD -1
REMARK  0 active torsions:
REMARK  status: ('A' for Active; 'I' for Inactive)
ROOT
ATOM      1  C1  DEN d   1      -1.493   1.516  -0.049  0.00  0.00     0.130 A 
ATOM      2  C2  DEN d   1      -0.866   2.819  -0.254  0.00  0.00    -0.031 A 
ATOM      3  C3  DEN d   1       0.597   2.642  -0.156  0.00  0.00     0.027 A 
ATOM      4  C4  DEN d   1       1.945   0.489   0.287  0.00  0.00     0.027 A 
ATOM      5  C5  DEN d   1       1.852  -0.863   0.536  0.00  0.00    -0.003 A 
ATOM      6  C6  DEN d   1       0.646  -1.505   0.641  0.00  0.00     0.001 A 
ATOM      7  C7  DEN d   1      -0.515  -0.803   0.450  0.00  0.00     0.017 A 
ATOM      8  C8  DEN d   1      -0.429   0.561   0.206  0.00  0.00    -0.094 A 
ATOM      9  C9  DEN d   1       0.800   1.189   0.092  0.00  0.00    -0.072 A 
ENDROOT
TORSDOF 0
ENDMDL
