MODEL 1
REMARK minimizedAffinity -5.31075478
REMARK minimizedRMSD -1
REMARK  0 active torsions:
REMARK  status: ('A' for Active; 'I' for Inactive)
ROOT
ATOM      1  C1  DEN d   1       1.695   1.250  -0.695  0.00  0.00     0.130 A 
ATOM      2  C2  DEN d   1       1.124   2.586  -0.547  0.00  0.00    -0.031 A 
ATOM      3  C3  DEN d   1      -0.271   2.437  -0.086  0.00  0.00     0.027 A 
ATOM      4  C4  DEN d   1      -1.594   0.281   0.414  0.00  0.00     0.027 A 
ATOM      5  C5  DEN d   1      -1.536  -1.095   0.423  0.00  0.00    -0.003 A 
ATOM      6  C6  DEN d   1      -0.417  -1.781   0.031  0.00  0.00     0.001 A 
ATOM      7  C7  DEN d   1       0.706  -1.091  -0.344  0.00  0.00     0.017 A 
ATOM      8  C8  DEN d   1       0.652   0.296  -0.363  0.00  0.00    -0.094 A 
ATOM      9  C9  DEN d   1      -0.485   0.971   0.049  0.00  0.00    -0.072 A 
ENDROOT
TORSDOF 0
ENDMDL
