MODEL 1
REMARK minimizedAffinity -4.9710393
REMARK minimizedRMSD -1
REMARK  0 active torsions:
REMARK  status: ('A' for Active; 'I' for Inactive)
ROOT
ATOM      1  C1  DEN d   1       1.322   2.336  -0.276  0.00  0.00     0.130 A 
ATOM      2  C2  DEN d   1       0.324   3.366  -0.000  0.00  0.00    -0.031 A 
ATOM      3  C3  DEN d   1      -0.943   2.692   0.350  0.00  0.00     0.027 A 
ATOM      4  C4  DEN d   1      -1.452   0.168   0.495  0.00  0.00     0.027 A 
ATOM      5  C5  DEN d   1      -0.924  -1.095   0.338  0.00  0.00    -0.003 A 
ATOM      6  C6  DEN d   1       0.369  -1.301  -0.065  0.00  0.00     0.001 A 
ATOM      7  C7  DEN d   1       1.192  -0.227  -0.281  0.00  0.00     0.017 A 
ATOM      8  C8  DEN d   1       0.665   1.049  -0.131  0.00  0.00    -0.094 A 
ATOM      9  C9  DEN d   1      -0.641   1.237   0.289  0.00  0.00    -0.072 A 
ENDROOT
TORSDOF 0
ENDMDL
