MODEL 1
REMARK minimizedAffinity -4.29050016
REMARK minimizedRMSD -1
REMARK  0 active torsions:
REMARK  status: ('A' for Active; 'I' for Inactive)
ROOT
ATOM      1  C1  DEN d   1       1.531   1.770  -0.036  0.00  0.00     0.130 A 
ATOM      2  C2  DEN d   1       0.809   3.012   0.226  0.00  0.00    -0.031 A 
ATOM      3  C3  DEN d   1      -0.595   2.668   0.528  0.00  0.00     0.027 A 
ATOM      4  C4  DEN d   1      -1.713   0.346   0.622  0.00  0.00     0.027 A 
ATOM      5  C5  DEN d   1      -1.507  -1.006   0.461  0.00  0.00    -0.003 A 
ATOM      6  C6  DEN d   1      -0.292  -1.521   0.094  0.00  0.00     0.001 A 
ATOM      7  C7  DEN d   1       0.776  -0.682  -0.081  0.00  0.00     0.017 A 
ATOM      8  C8  DEN d   1       0.574   0.684   0.071  0.00  0.00    -0.094 A 
ATOM      9  C9  DEN d   1      -0.659   1.184   0.455  0.00  0.00    -0.072 A 
ENDROOT
TORSDOF 0
ENDMDL
