MODEL 1
REMARK minimizedAffinity -3.0149374
REMARK minimizedRMSD -1
REMARK  0 active torsions:
REMARK  status: ('A' for Active; 'I' for Inactive)
ROOT
ATOM      1  C1  DEN d   1       0.810   2.641  -0.656  0.00  0.00     0.130 A 
ATOM      2  C2  DEN d   1       0.011   3.620   0.076  0.00  0.00    -0.031 A 
ATOM      3  C3  DEN d   1      -0.995   2.887   0.870  0.00  0.00     0.027 A 
ATOM      4  C4  DEN d   1      -1.388   0.344   1.041  0.00  0.00     0.027 A 
ATOM      5  C5  DEN d   1      -0.967  -0.890   0.595  0.00  0.00    -0.003 A 
ATOM      6  C6  DEN d   1       0.045  -1.030  -0.317  0.00  0.00     0.001 A 
ATOM      7  C7  DEN d   1       0.701   0.081  -0.779  0.00  0.00     0.017 A 
ATOM      8  C8  DEN d   1       0.277   1.328  -0.340  0.00  0.00    -0.094 A 
ATOM      9  C9  DEN d   1      -0.740   1.448   0.592  0.00  0.00    -0.072 A 
ENDROOT
TORSDOF 0
ENDMDL
