MODEL 1
REMARK minimizedAffinity -3.38276863
REMARK minimizedRMSD -1
REMARK  0 active torsions:
REMARK  status: ('A' for Active; 'I' for Inactive)
ROOT
ATOM      1  C1  DEN d   1       1.157   2.502  -0.295  0.00  0.00     0.130 A 
ATOM      2  C2  DEN d   1       0.263   3.580   0.119  0.00  0.00    -0.031 A 
ATOM      3  C3  DEN d   1      -1.032   2.979   0.498  0.00  0.00     0.027 A 
ATOM      4  C4  DEN d   1      -1.733   0.497   0.489  0.00  0.00     0.027 A 
ATOM      5  C5  DEN d   1      -1.318  -0.786   0.206  0.00  0.00    -0.003 A 
ATOM      6  C6  DEN d   1      -0.071  -1.057  -0.292  0.00  0.00     0.001 A 
ATOM      7  C7  DEN d   1       0.822  -0.035  -0.480  0.00  0.00     0.017 A 
ATOM      8  C8  DEN d   1       0.408   1.262  -0.204  0.00  0.00    -0.094 A 
ATOM      9  C9  DEN d   1      -0.852   1.514   0.311  0.00  0.00    -0.072 A 
ENDROOT
TORSDOF 0
ENDMDL
