MODEL 1
REMARK minimizedAffinity -3.38570666
REMARK minimizedRMSD -1
REMARK  0 active torsions:
REMARK  status: ('A' for Active; 'I' for Inactive)
ROOT
ATOM      1  C1  DEN d   1       0.605   3.070  -0.790  0.00  0.00     0.130 A 
ATOM      2  C2  DEN d   1       0.416   3.884   0.408  0.00  0.00    -0.031 A 
ATOM      3  C3  DEN d   1      -0.136   3.015   1.467  0.00  0.00     0.027 A 
ATOM      4  C4  DEN d   1      -0.709   0.502   1.370  0.00  0.00     0.027 A 
ATOM      5  C5  DEN d   1      -0.731  -0.614   0.563  0.00  0.00    -0.003 A 
ATOM      6  C6  DEN d   1      -0.344  -0.573  -0.751  0.00  0.00     0.001 A 
ATOM      7  C7  DEN d   1       0.124   0.599  -1.284  0.00  0.00     0.017 A 
ATOM      8  C8  DEN d   1       0.142   1.730  -0.479  0.00  0.00    -0.094 A 
ATOM      9  C9  DEN d   1      -0.241   1.665   0.850  0.00  0.00    -0.072 A 
ENDROOT
TORSDOF 0
ENDMDL
