MODEL 1
REMARK minimizedAffinity 1.38467658
REMARK minimizedRMSD -1
REMARK  0 active torsions:
REMARK  status: ('A' for Active; 'I' for Inactive)
ROOT
ATOM      1  C   UNL d   1       1.489  -3.870  -2.793  0.00  0.00     0.124 A 
ATOM      2  C1  UNL d   1       2.661  -4.454  -2.333  0.00  0.00     0.062 A 
ATOM      3  C2  UNL d   1       3.817  -4.407  -3.106  0.00  0.00     0.162 A 
ATOM      4  C3  UNL d   1       3.807  -3.774  -4.349  0.00  0.00    -0.034 A 
ATOM      5  C4  UNL d   1       2.624  -3.190  -4.806  0.00  0.00     0.162 A 
ATOM      6  C5  UNL d   1       1.472  -3.239  -4.029  0.00  0.00     0.062 A 
ATOM      7  F   UNL d   1       0.340  -2.674  -4.476  0.00  0.00    -0.097 F 
ATOM      8  F1  UNL d   1       2.580  -2.573  -5.996  0.00  0.00    -0.096 F 
ATOM      9  I   UNL d   1       5.534  -3.702  -5.509  0.00  0.00    -0.060 I 
ATOM     10  F2  UNL d   1       4.935  -4.980  -2.636  0.00  0.00    -0.096 F 
ATOM     11  F3  UNL d   1       2.680  -5.065  -1.139  0.00  0.00    -0.097 F 
ATOM     12  F4  UNL d   1       0.378  -3.917  -2.047  0.00  0.00    -0.092 F 
ENDROOT
TORSDOF 0
ENDMDL
