MODEL 1
REMARK minimizedAffinity 13.2984934
REMARK minimizedRMSD -1
REMARK  0 active torsions:
REMARK  status: ('A' for Active; 'I' for Inactive)
ROOT
ATOM      1  C   UNL d   1       2.618  -2.171  -3.371  0.00  0.00     0.124 A 
ATOM      2  C1  UNL d   1       2.450  -3.511  -3.689  0.00  0.00     0.062 A 
ATOM      3  C2  UNL d   1       3.414  -4.179  -4.439  0.00  0.00     0.162 A 
ATOM      4  C3  UNL d   1       4.556  -3.506  -4.876  0.00  0.00    -0.034 A 
ATOM      5  C4  UNL d   1       4.717  -2.158  -4.553  0.00  0.00     0.162 A 
ATOM      6  C5  UNL d   1       3.751  -1.496  -3.803  0.00  0.00     0.062 A 
ATOM      7  F   UNL d   1       3.915  -0.200  -3.496  0.00  0.00    -0.097 F 
ATOM      8  F1  UNL d   1       5.803  -1.482  -4.956  0.00  0.00    -0.096 F 
ATOM      9  I   UNL d   1       5.999  -4.501  -5.998  0.00  0.00    -0.060 I 
ATOM     10  F2  UNL d   1       3.226  -5.474  -4.732  0.00  0.00    -0.096 F 
ATOM     11  F3  UNL d   1       1.356  -4.166  -3.274  0.00  0.00    -0.097 F 
ATOM     12  F4  UNL d   1       1.688  -1.531  -2.649  0.00  0.00    -0.092 F 
ENDROOT
TORSDOF 0
ENDMDL
