MODEL 1
REMARK minimizedAffinity 13.00072
REMARK minimizedRMSD -1
REMARK  0 active torsions:
REMARK  status: ('A' for Active; 'I' for Inactive)
ROOT
ATOM      1  C   UNL d   1       1.244  -4.127  -1.861  0.00  0.00     0.124 A 
ATOM      2  C1  UNL d   1       2.133  -3.064  -1.932  0.00  0.00     0.062 A 
ATOM      3  C2  UNL d   1       3.045  -2.843  -0.904  0.00  0.00     0.162 A 
ATOM      4  C3  UNL d   1       3.074  -3.689   0.205  0.00  0.00    -0.034 A 
ATOM      5  C4  UNL d   1       2.176  -4.756   0.270  0.00  0.00     0.162 A 
ATOM      6  C5  UNL d   1       1.266  -4.972  -0.760  0.00  0.00     0.062 A 
ATOM      7  F   UNL d   1       0.408  -6.000  -0.689  0.00  0.00    -0.097 F 
ATOM      8  F1  UNL d   1       2.176  -5.589   1.321  0.00  0.00    -0.096 F 
ATOM      9  I   UNL d   1       4.436  -3.364   1.744  0.00  0.00    -0.060 I 
ATOM     10  F2  UNL d   1       3.893  -1.808  -1.000  0.00  0.00    -0.096 F 
ATOM     11  F3  UNL d   1       2.113  -2.245  -2.994  0.00  0.00    -0.097 F 
ATOM     12  F4  UNL d   1       0.367  -4.336  -2.851  0.00  0.00    -0.092 F 
ENDROOT
TORSDOF 0
ENDMDL
