MODEL 1
REMARK minimizedAffinity 18.2068272
REMARK minimizedRMSD -1
REMARK  0 active torsions:
REMARK  status: ('A' for Active; 'I' for Inactive)
ROOT
ATOM      1  C   UNL d   1       2.095  -1.501   3.970  0.00  0.00     0.124 A 
ATOM      2  C1  UNL d   1       2.771  -2.569   4.543  0.00  0.00     0.062 A 
ATOM      3  C2  UNL d   1       3.548  -3.411   3.752  0.00  0.00     0.162 A 
ATOM      4  C3  UNL d   1       3.653  -3.187   2.379  0.00  0.00    -0.034 A 
ATOM      5  C4  UNL d   1       2.969  -2.111   1.810  0.00  0.00     0.162 A 
ATOM      6  C5  UNL d   1       2.195  -1.273   2.605  0.00  0.00     0.062 A 
ATOM      7  F   UNL d   1       1.542  -0.241   2.050  0.00  0.00    -0.097 F 
ATOM      8  F1  UNL d   1       3.049  -1.868   0.494  0.00  0.00    -0.096 F 
ATOM      9  I   UNL d   1       4.813  -4.444   1.193  0.00  0.00    -0.060 I 
ATOM     10  F2  UNL d   1       4.190  -4.436   4.332  0.00  0.00    -0.096 F 
ATOM     11  F3  UNL d   1       2.676  -2.792   5.862  0.00  0.00    -0.097 F 
ATOM     12  F4  UNL d   1       1.348  -0.693   4.733  0.00  0.00    -0.092 F 
ENDROOT
TORSDOF 0
ENDMDL
