MODEL 1
REMARK minimizedAffinity -4.18941355
REMARK minimizedRMSD -1
REMARK  0 active torsions:
REMARK  status: ('A' for Active; 'I' for Inactive)
ROOT
ATOM      1  C   UNL d   1       1.612   0.789   0.133  0.00  0.00     0.124 A 
ATOM      2  C1  UNL d   1       2.590  -0.093   0.573  0.00  0.00     0.062 A 
ATOM      3  C2  UNL d   1       2.768  -0.318   1.935  0.00  0.00     0.162 A 
ATOM      4  C3  UNL d   1       1.966   0.340   2.868  0.00  0.00    -0.034 A 
ATOM      5  C4  UNL d   1       0.986   1.226   2.418  0.00  0.00     0.162 A 
ATOM      6  C5  UNL d   1       0.812   1.448   1.055  0.00  0.00     0.062 A 
ATOM      7  F   UNL d   1      -0.133   2.300   0.632  0.00  0.00    -0.097 F 
ATOM      8  F1  UNL d   1       0.197   1.875   3.287  0.00  0.00    -0.096 F 
ATOM      9  I   UNL d   1       2.229   0.006   4.905  0.00  0.00    -0.060 I 
ATOM     10  F2  UNL d   1       3.720  -1.175   2.331  0.00  0.00    -0.096 F 
ATOM     11  F3  UNL d   1       3.366  -0.729  -0.316  0.00  0.00    -0.097 F 
ATOM     12  F4  UNL d   1       1.444   1.005  -1.178  0.00  0.00    -0.092 F 
ENDROOT
TORSDOF 0
ENDMDL
