MODEL 1
REMARK minimizedAffinity 3.59948015
REMARK minimizedRMSD -1
REMARK  0 active torsions:
REMARK  status: ('A' for Active; 'I' for Inactive)
ROOT
ATOM      1  C2' OXE d   1      -5.972   3.034  -3.186  0.00  0.00     0.078 C 
ATOM      2  C1' OXE d   1      -3.184   3.291  -2.984  0.00  0.00     0.078 C 
ATOM      3  C1  OXE d   1      -3.909   4.214  -3.932  0.00  0.00    -0.078 A 
ATOM      4  C2  OXE d   1      -5.267   4.049  -4.059  0.00  0.00    -0.078 A 
ATOM      5  C3  OXE d   1      -5.992   4.910  -4.879  0.00  0.00     0.003 A 
ATOM      6  C4  OXE d   1      -5.331   5.840  -5.691  0.00  0.00    -0.002 A 
ATOM      7  C5  OXE d   1      -3.944   5.996  -5.606  0.00  0.00    -0.002 A 
ATOM      8  C6  OXE d   1      -3.224   5.222  -4.703  0.00  0.00     0.003 A 
ENDROOT
TORSDOF 0
ENDMDL
