MODEL 1
REMARK minimizedAffinity 1.77457058
REMARK minimizedRMSD -1
REMARK  0 active torsions:
REMARK  status: ('A' for Active; 'I' for Inactive)
ROOT
ATOM      1  C2' OXE d   1      -1.956   3.565  -2.097  0.00  0.00     0.078 C 
ATOM      2  C1' OXE d   1      -0.080   3.137  -0.054  0.00  0.00     0.078 C 
ATOM      3  C1  OXE d   1      -0.489   1.952  -0.893  0.00  0.00    -0.078 A 
ATOM      4  C2  OXE d   1      -1.442   2.162  -1.860  0.00  0.00    -0.078 A 
ATOM      5  C3  OXE d   1      -1.815   1.115  -2.698  0.00  0.00     0.003 A 
ATOM      6  C4  OXE d   1      -1.343  -0.182  -2.465  0.00  0.00    -0.002 A 
ATOM      7  C5  OXE d   1      -0.401  -0.425  -1.460  0.00  0.00    -0.002 A 
ATOM      8  C6  OXE d   1       0.068   0.637  -0.694  0.00  0.00     0.003 A 
ENDROOT
TORSDOF 0
ENDMDL
