MODEL 1
REMARK minimizedAffinity 7.64243746
REMARK minimizedRMSD -1
REMARK  0 active torsions:
REMARK  status: ('A' for Active; 'I' for Inactive)
ROOT
ATOM      1  C2' OXE d   1      -0.030   3.655   1.077  0.00  0.00     0.078 C 
ATOM      2  C1' OXE d   1      -1.633   5.959   1.108  0.00  0.00     0.078 C 
ATOM      3  C1  OXE d   1      -1.224   5.404  -0.234  0.00  0.00    -0.078 A 
ATOM      4  C2  OXE d   1      -0.401   4.304  -0.239  0.00  0.00    -0.078 A 
ATOM      5  C3  OXE d   1      -0.039   3.720  -1.449  0.00  0.00     0.003 A 
ATOM      6  C4  OXE d   1      -0.378   4.332  -2.662  0.00  0.00    -0.002 A 
ATOM      7  C5  OXE d   1      -1.183   5.476  -2.678  0.00  0.00    -0.002 A 
ATOM      8  C6  OXE d   1      -1.649   5.999  -1.477  0.00  0.00     0.003 A 
ENDROOT
TORSDOF 0
ENDMDL
