MODEL 1
REMARK minimizedAffinity 7.88082361
REMARK minimizedRMSD -1
REMARK  0 active torsions:
REMARK  status: ('A' for Active; 'I' for Inactive)
ROOT
ATOM      1  C2' OXE d   1      -5.701   3.578  -5.842  0.00  0.00     0.078 C 
ATOM      2  C1' OXE d   1      -5.790   0.776  -6.000  0.00  0.00     0.078 C 
ATOM      3  C1  OXE d   1      -5.862   1.406  -4.631  0.00  0.00    -0.078 A 
ATOM      4  C2  OXE d   1      -5.771   2.776  -4.560  0.00  0.00    -0.078 A 
ATOM      5  C3  OXE d   1      -5.887   3.411  -3.327  0.00  0.00     0.003 A 
ATOM      6  C4  OXE d   1      -5.941   2.662  -2.146  0.00  0.00    -0.002 A 
ATOM      7  C5  OXE d   1      -5.995   1.264  -2.193  0.00  0.00    -0.002 A 
ATOM      8  C6  OXE d   1      -6.000   0.624  -3.428  0.00  0.00     0.003 A 
ENDROOT
TORSDOF 0
ENDMDL
