MODEL 1
REMARK minimizedAffinity -0.407639354
REMARK minimizedRMSD -1
REMARK  0 active torsions:
REMARK  status: ('A' for Active; 'I' for Inactive)
ROOT
ATOM      1  C2' OXE d   1      -3.159   3.738  -2.363  0.00  0.00     0.078 C 
ATOM      2  C1' OXE d   1      -1.754   1.443  -1.566  0.00  0.00     0.078 C 
ATOM      3  C1  OXE d   1      -1.138   2.785  -1.262  0.00  0.00    -0.078 A 
ATOM      4  C2  OXE d   1      -1.810   3.902  -1.697  0.00  0.00    -0.078 A 
ATOM      5  C3  OXE d   1      -1.313   5.167  -1.394  0.00  0.00     0.003 A 
ATOM      6  C4  OXE d   1      -0.060   5.310  -0.787  0.00  0.00    -0.002 A 
ATOM      7  C5  OXE d   1       0.660   4.184  -0.371  0.00  0.00    -0.002 A 
ATOM      8  C6  OXE d   1       0.116   2.919  -0.562  0.00  0.00     0.003 A 
ENDROOT
TORSDOF 0
ENDMDL
