MODEL 1
REMARK minimizedAffinity 0.188512579
REMARK minimizedRMSD -1
REMARK  0 active torsions:
REMARK  status: ('A' for Active; 'I' for Inactive)
ROOT
ATOM      1  C2' OXE d   1      -0.090   3.381   1.167  0.00  0.00     0.078 C 
ATOM      2  C1' OXE d   1       2.132   4.452  -0.173  0.00  0.00     0.078 C 
ATOM      3  C1  OXE d   1       0.762   4.778  -0.712  0.00  0.00    -0.078 A 
ATOM      4  C2  OXE d   1      -0.318   4.212  -0.077  0.00  0.00    -0.078 A 
ATOM      5  C3  OXE d   1      -1.607   4.524  -0.500  0.00  0.00     0.003 A 
ATOM      6  C4  OXE d   1      -1.809   5.285  -1.658  0.00  0.00    -0.002 A 
ATOM      7  C5  OXE d   1      -0.722   5.838  -2.342  0.00  0.00    -0.002 A 
ATOM      8  C6  OXE d   1       0.565   5.630  -1.859  0.00  0.00     0.003 A 
ENDROOT
TORSDOF 0
ENDMDL
