MODEL 1
REMARK minimizedAffinity 3.68753719
REMARK minimizedRMSD -1
REMARK  0 active torsions:
REMARK  status: ('A' for Active; 'I' for Inactive)
ROOT
ATOM      1  C2' OXE d   1       0.728   5.997  -3.573  0.00  0.00     0.078 C 
ATOM      2  C1' OXE d   1      -1.889   5.193  -2.955  0.00  0.00     0.078 C 
ATOM      3  C1  OXE d   1      -0.800   4.862  -1.966  0.00  0.00    -0.078 A 
ATOM      4  C2  OXE d   1       0.485   5.218  -2.299  0.00  0.00    -0.078 A 
ATOM      5  C3  OXE d   1       1.520   4.984  -1.398  0.00  0.00     0.003 A 
ATOM      6  C4  OXE d   1       1.289   4.254  -0.226  0.00  0.00    -0.002 A 
ATOM      7  C5  OXE d   1      -0.006   3.847   0.113  0.00  0.00    -0.002 A 
ATOM      8  C6  OXE d   1      -1.066   4.180  -0.724  0.00  0.00     0.003 A 
ENDROOT
TORSDOF 0
ENDMDL
