MODEL 1
REMARK minimizedAffinity 2.62844992
REMARK minimizedRMSD -1
REMARK  0 active torsions:
REMARK  status: ('A' for Active; 'I' for Inactive)
ROOT
ATOM      1  C2' OXE d   1       1.743   4.529  -0.431  0.00  0.00     0.078 C 
ATOM      2  C1' OXE d   1      -0.163   2.744   0.600  0.00  0.00     0.078 C 
ATOM      3  C1  OXE d   1      -0.598   3.680  -0.500  0.00  0.00    -0.078 A 
ATOM      4  C2  OXE d   1       0.328   4.581  -0.966  0.00  0.00    -0.078 A 
ATOM      5  C3  OXE d   1      -0.005   5.430  -2.018  0.00  0.00     0.003 A 
ATOM      6  C4  OXE d   1      -1.319   5.479  -2.501  0.00  0.00    -0.002 A 
ATOM      7  C5  OXE d   1      -2.288   4.597  -2.012  0.00  0.00    -0.002 A 
ATOM      8  C6  OXE d   1      -1.934   3.664  -1.043  0.00  0.00     0.003 A 
ENDROOT
TORSDOF 0
ENDMDL
