MODEL 1
REMARK minimizedAffinity 4.65986204
REMARK minimizedRMSD -1
REMARK  0 active torsions:
REMARK  status: ('A' for Active; 'I' for Inactive)
ROOT
ATOM      1  C2' OXE d   1       2.312   3.062   2.209  0.00  0.00     0.078 C 
ATOM      2  C1' OXE d   1       0.014   3.691   0.724  0.00  0.00     0.078 C 
ATOM      3  C1  OXE d   1      -0.117   2.665   1.822  0.00  0.00    -0.078 A 
ATOM      4  C2  OXE d   1       1.023   2.329   2.513  0.00  0.00    -0.078 A 
ATOM      5  C3  OXE d   1       0.947   1.429   3.572  0.00  0.00     0.003 A 
ATOM      6  C4  OXE d   1      -0.247   0.748   3.839  0.00  0.00    -0.002 A 
ATOM      7  C5  OXE d   1      -1.410   1.046   3.121  0.00  0.00    -0.002 A 
ATOM      8  C6  OXE d   1      -1.372   2.031   2.140  0.00  0.00     0.003 A 
ENDROOT
TORSDOF 0
ENDMDL
