MODEL 1
REMARK minimizedAffinity 12.9367723
REMARK minimizedRMSD -1
REMARK  0 active torsions:
REMARK  status: ('A' for Active; 'I' for Inactive)
ROOT
ATOM      1  C2' OXE d   1      -0.032   3.917  -0.682  0.00  0.00     0.078 C 
ATOM      2  C1' OXE d   1       1.804   5.696   0.478  0.00  0.00     0.078 C 
ATOM      3  C1  OXE d   1       1.315   4.542   1.318  0.00  0.00    -0.078 A 
ATOM      4  C2  OXE d   1       0.382   3.703   0.758  0.00  0.00    -0.078 A 
ATOM      5  C3  OXE d   1      -0.061   2.591   1.469  0.00  0.00     0.003 A 
ATOM      6  C4  OXE d   1       0.319   2.407   2.804  0.00  0.00    -0.002 A 
ATOM      7  C5  OXE d   1       1.239   3.272   3.407  0.00  0.00    -0.002 A 
ATOM      8  C6  OXE d   1       1.778   4.317   2.665  0.00  0.00     0.003 A 
ENDROOT
TORSDOF 0
ENDMDL
