MODEL 1
REMARK minimizedAffinity 7.64618731
REMARK minimizedRMSD -1
REMARK  0 active torsions:
REMARK  status: ('A' for Active; 'I' for Inactive)
ROOT
ATOM      1  C2' OXE d   1      -0.018   3.322   0.076  0.00  0.00     0.078 C 
ATOM      2  C1' OXE d   1      -1.547   2.242   2.168  0.00  0.00     0.078 C 
ATOM      3  C1  OXE d   1      -0.066   2.411   2.394  0.00  0.00    -0.078 A 
ATOM      4  C2  OXE d   1       0.682   2.896   1.348  0.00  0.00    -0.078 A 
ATOM      5  C3  OXE d   1       2.045   3.122   1.522  0.00  0.00     0.003 A 
ATOM      6  C4  OXE d   1       2.687   2.716   2.698  0.00  0.00    -0.002 A 
ATOM      7  C5  OXE d   1       1.950   2.182   3.761  0.00  0.00    -0.002 A 
ATOM      8  C6  OXE d   1       0.570   2.063   3.641  0.00  0.00     0.003 A 
ENDROOT
TORSDOF 0
ENDMDL
