MODEL 1
REMARK minimizedAffinity 1.36023557
REMARK minimizedRMSD -1
REMARK  0 active torsions:
REMARK  status: ('A' for Active; 'I' for Inactive)
ROOT
ATOM      1  C   UNL d   1       2.241  -1.116   1.546  0.00  0.00     0.124 A 
ATOM      2  C1  UNL d   1       2.352  -0.086   0.622  0.00  0.00     0.062 A 
ATOM      3  C2  UNL d   1       1.253   0.286  -0.147  0.00  0.00     0.162 A 
ATOM      4  C3  UNL d   1       0.033  -0.372   0.006  0.00  0.00    -0.034 A 
ATOM      5  C4  UNL d   1      -0.071  -1.407   0.937  0.00  0.00     0.162 A 
ATOM      6  C5  UNL d   1       1.030  -1.775   1.703  0.00  0.00     0.062 A 
ATOM      7  F   UNL d   1       0.921  -2.770   2.595  0.00  0.00    -0.097 F 
ATOM      8  F1  UNL d   1      -1.230  -2.060   1.110  0.00  0.00    -0.096 F 
ATOM      9  I   UNL d   1      -1.613   0.182  -1.141  0.00  0.00    -0.060 I 
ATOM     10  F2  UNL d   1       1.389   1.284  -1.032  0.00  0.00    -0.096 F 
ATOM     11  F3  UNL d   1       3.522   0.551   0.468  0.00  0.00    -0.097 F 
ATOM     12  F4  UNL d   1       3.301  -1.472   2.284  0.00  0.00    -0.092 F 
ENDROOT
TORSDOF 0
ENDMDL
