MODEL 1
REMARK minimizedAffinity -0.230217844
REMARK minimizedRMSD -1
REMARK  0 active torsions:
REMARK  status: ('A' for Active; 'I' for Inactive)
ROOT
ATOM      1  C   UNL d   1       2.417  -0.159   1.049  0.00  0.00     0.124 A 
ATOM      2  C1  UNL d   1       1.643  -1.263   0.720  0.00  0.00     0.062 A 
ATOM      3  C2  UNL d   1       0.376  -1.090   0.170  0.00  0.00     0.162 A 
ATOM      4  C3  UNL d   1      -0.125   0.192  -0.055  0.00  0.00    -0.034 A 
ATOM      5  C4  UNL d   1       0.660   1.297   0.279  0.00  0.00     0.162 A 
ATOM      6  C5  UNL d   1       1.925   1.119   0.828  0.00  0.00     0.062 A 
ATOM      7  F   UNL d   1       2.672   2.187   1.146  0.00  0.00    -0.097 F 
ATOM      8  F1  UNL d   1       0.209   2.544   0.076  0.00  0.00    -0.096 F 
ATOM      9  I   UNL d   1      -2.019   0.454  -0.877  0.00  0.00    -0.060 I 
ATOM     10  F2  UNL d   1      -0.351  -2.175  -0.138  0.00  0.00    -0.096 F 
ATOM     11  F3  UNL d   1       2.116  -2.500   0.933  0.00  0.00    -0.097 F 
ATOM     12  F4  UNL d   1       3.636  -0.328   1.579  0.00  0.00    -0.092 F 
ENDROOT
TORSDOF 0
ENDMDL
