MODEL 1
REMARK minimizedAffinity -0.328800052
REMARK minimizedRMSD -1
REMARK  0 active torsions:
REMARK  status: ('A' for Active; 'I' for Inactive)
ROOT
ATOM      1  C   UNL d   1       2.369  -0.551   1.912  0.00  0.00     0.124 A 
ATOM      2  C1  UNL d   1       2.243   0.723   1.377  0.00  0.00     0.062 A 
ATOM      3  C2  UNL d   1       1.137   1.050   0.598  0.00  0.00     0.162 A 
ATOM      4  C3  UNL d   1       0.146   0.100   0.350  0.00  0.00    -0.034 A 
ATOM      5  C4  UNL d   1       0.279  -1.180   0.890  0.00  0.00     0.162 A 
ATOM      6  C5  UNL d   1       1.387  -1.502   1.668  0.00  0.00     0.062 A 
ATOM      7  F   UNL d   1       1.507  -2.734   2.184  0.00  0.00    -0.097 F 
ATOM      8  F1  UNL d   1      -0.655  -2.117   0.672  0.00  0.00    -0.096 F 
ATOM      9  I   UNL d   1      -1.510   0.584  -0.814  0.00  0.00    -0.060 I 
ATOM     10  F2  UNL d   1       1.042   2.289   0.094  0.00  0.00    -0.096 F 
ATOM     11  F3  UNL d   1       3.191   1.643   1.610  0.00  0.00    -0.097 F 
ATOM     12  F4  UNL d   1       3.435  -0.863   2.660  0.00  0.00    -0.092 F 
ENDROOT
TORSDOF 0
ENDMDL
