MODEL 1
REMARK minimizedAffinity 0.169002101
REMARK minimizedRMSD -1
REMARK  0 active torsions:
REMARK  status: ('A' for Active; 'I' for Inactive)
ROOT
ATOM      1  C   UNL d   1       2.849   0.355   0.998  0.00  0.00     0.124 A 
ATOM      2  C1  UNL d   1       2.405  -0.917   1.333  0.00  0.00     0.062 A 
ATOM      3  C2  UNL d   1       1.063  -1.252   1.180  0.00  0.00     0.162 A 
ATOM      4  C3  UNL d   1       0.154  -0.315   0.689  0.00  0.00    -0.034 A 
ATOM      5  C4  UNL d   1       0.608   0.963   0.355  0.00  0.00     0.162 A 
ATOM      6  C5  UNL d   1       1.951   1.293   0.509  0.00  0.00     0.062 A 
ATOM      7  F   UNL d   1       2.378   2.522   0.185  0.00  0.00    -0.097 F 
ATOM      8  F1  UNL d   1      -0.238   1.888  -0.121  0.00  0.00    -0.096 F 
ATOM      9  I   UNL d   1      -1.853  -0.812   0.458  0.00  0.00    -0.060 I 
ATOM     10  F2  UNL d   1       0.661  -2.488   1.512  0.00  0.00    -0.096 F 
ATOM     11  F3  UNL d   1       3.270  -1.824   1.807  0.00  0.00    -0.097 F 
ATOM     12  F4  UNL d   1       4.141   0.676   1.147  0.00  0.00    -0.092 F 
ENDROOT
TORSDOF 0
ENDMDL
