MODEL 1
REMARK minimizedAffinity -2.03265405
REMARK minimizedRMSD -1
REMARK  0 active torsions:
REMARK  status: ('A' for Active; 'I' for Inactive)
ROOT
ATOM      1  C   UNL d   1       2.401  -0.940   1.778  0.00  0.00     0.124 A 
ATOM      2  C1  UNL d   1       2.199   0.224   1.050  0.00  0.00     0.062 A 
ATOM      3  C2  UNL d   1       1.001   0.426   0.370  0.00  0.00     0.162 A 
ATOM      4  C3  UNL d   1      -0.006  -0.538   0.417  0.00  0.00    -0.034 A 
ATOM      5  C4  UNL d   1       0.205  -1.707   1.151  0.00  0.00     0.162 A 
ATOM      6  C5  UNL d   1       1.404  -1.904   1.828  0.00  0.00     0.062 A 
ATOM      7  F   UNL d   1       1.597  -3.030   2.531  0.00  0.00    -0.097 F 
ATOM      8  F1  UNL d   1      -0.742  -2.655   1.217  0.00  0.00    -0.096 F 
ATOM      9  I   UNL d   1      -1.799  -0.240  -0.597  0.00  0.00    -0.060 I 
ATOM     10  F2  UNL d   1       0.833   1.560  -0.325  0.00  0.00    -0.096 F 
ATOM     11  F3  UNL d   1       3.160   1.157   0.999  0.00  0.00    -0.097 F 
ATOM     12  F4  UNL d   1       3.555  -1.132   2.430  0.00  0.00    -0.092 F 
ENDROOT
TORSDOF 0
ENDMDL
