MODEL 1
REMARK minimizedAffinity 13.3428488
REMARK minimizedRMSD -1
REMARK  0 active torsions:
REMARK  status: ('A' for Active; 'I' for Inactive)
ROOT
ATOM      1  C   UNL d   1       0.017  -1.002   1.068  0.00  0.00     0.124 A 
ATOM      2  C1  UNL d   1      -1.137  -0.687   0.365  0.00  0.00     0.062 A 
ATOM      3  C2  UNL d   1      -2.089   0.160   0.925  0.00  0.00     0.162 A 
ATOM      4  C3  UNL d   1      -1.891   0.699   2.196  0.00  0.00    -0.034 A 
ATOM      5  C4  UNL d   1      -0.728   0.377   2.898  0.00  0.00     0.162 A 
ATOM      6  C5  UNL d   1       0.220  -0.470   2.334  0.00  0.00     0.062 A 
ATOM      7  F   UNL d   1       1.335  -0.773   3.015  0.00  0.00    -0.097 F 
ATOM      8  F1  UNL d   1      -0.506   0.878   4.122  0.00  0.00    -0.096 F 
ATOM      9  I   UNL d   1      -3.312   1.966   3.036  0.00  0.00    -0.060 I 
ATOM     10  F2  UNL d   1      -3.195   0.448   0.222  0.00  0.00    -0.096 F 
ATOM     11  F3  UNL d   1      -1.337  -1.200  -0.858  0.00  0.00    -0.097 F 
ATOM     12  F4  UNL d   1       0.931  -1.818   0.528  0.00  0.00    -0.092 F 
ENDROOT
TORSDOF 0
ENDMDL
