MODEL 1
REMARK minimizedAffinity 11.161417
REMARK minimizedRMSD -1
REMARK  0 active torsions:
REMARK  status: ('A' for Active; 'I' for Inactive)
ROOT
ATOM      1  C   UNL d   1       2.046  -2.850   0.445  0.00  0.00     0.124 A 
ATOM      2  C1  UNL d   1       1.856  -1.567  -0.049  0.00  0.00     0.062 A 
ATOM      3  C2  UNL d   1       0.893  -0.735   0.515  0.00  0.00     0.162 A 
ATOM      4  C3  UNL d   1       0.113  -1.183   1.581  0.00  0.00    -0.034 A 
ATOM      5  C4  UNL d   1       0.309  -2.475   2.072  0.00  0.00     0.162 A 
ATOM      6  C5  UNL d   1       1.273  -3.303   1.505  0.00  0.00     0.062 A 
ATOM      7  F   UNL d   1       1.455  -4.542   1.984  0.00  0.00    -0.097 F 
ATOM      8  F1  UNL d   1      -0.423  -2.938   3.096  0.00  0.00    -0.096 F 
ATOM      9  I   UNL d   1      -1.327   0.058   2.428  0.00  0.00    -0.060 I 
ATOM     10  F2  UNL d   1       0.731   0.500   0.017  0.00  0.00    -0.096 F 
ATOM     11  F3  UNL d   1       2.601  -1.128  -1.074  0.00  0.00    -0.097 F 
ATOM     12  F4  UNL d   1       2.972  -3.649  -0.100  0.00  0.00    -0.092 F 
ENDROOT
TORSDOF 0
ENDMDL
