MODEL 1
REMARK minimizedAffinity 13.1536875
REMARK minimizedRMSD -1
REMARK  0 active torsions:
REMARK  status: ('A' for Active; 'I' for Inactive)
ROOT
ATOM      1  C   UNL d   1       1.492   3.721   3.448  0.00  0.00     0.124 A 
ATOM      2  C1  UNL d   1       1.509   4.611   4.513  0.00  0.00     0.062 A 
ATOM      3  C2  UNL d   1       2.716   5.134   4.968  0.00  0.00     0.162 A 
ATOM      4  C3  UNL d   1       3.916   4.768   4.359  0.00  0.00    -0.034 A 
ATOM      5  C4  UNL d   1       3.891   3.871   3.289  0.00  0.00     0.162 A 
ATOM      6  C5  UNL d   1       2.682   3.352   2.837  0.00  0.00     0.062 A 
ATOM      7  F   UNL d   1       2.668   2.492   1.809  0.00  0.00    -0.097 F 
ATOM      8  F1  UNL d   1       5.027   3.498   2.680  0.00  0.00    -0.096 F 
ATOM      9  I   UNL d   1       5.723   5.547   5.037  0.00  0.00    -0.060 I 
ATOM     10  F2  UNL d   1       2.703   5.992   5.999  0.00  0.00    -0.096 F 
ATOM     11  F3  UNL d   1       0.361   4.968   5.105  0.00  0.00    -0.097 F 
ATOM     12  F4  UNL d   1       0.330   3.219   3.012  0.00  0.00    -0.092 F 
ENDROOT
TORSDOF 0
ENDMDL
