MODEL 1
REMARK minimizedAffinity 17.9913311
REMARK minimizedRMSD -1
REMARK  0 active torsions:
REMARK  status: ('A' for Active; 'I' for Inactive)
ROOT
ATOM      1  C   UNL d   1       1.665  -3.383   0.989  0.00  0.00     0.124 A 
ATOM      2  C1  UNL d   1       1.829  -4.543   0.244  0.00  0.00     0.062 A 
ATOM      3  C2  UNL d   1       3.061  -4.835  -0.334  0.00  0.00     0.162 A 
ATOM      4  C3  UNL d   1       4.140  -3.967  -0.168  0.00  0.00    -0.034 A 
ATOM      5  C4  UNL d   1       3.967  -2.802   0.582  0.00  0.00     0.162 A 
ATOM      6  C5  UNL d   1       2.734  -2.514   1.157  0.00  0.00     0.062 A 
ATOM      7  F   UNL d   1       2.577  -1.393   1.877  0.00  0.00    -0.097 F 
ATOM      8  F1  UNL d   1       4.983  -1.945   0.761  0.00  0.00    -0.096 F 
ATOM      9  I   UNL d   1       5.983  -4.400  -1.031  0.00  0.00    -0.060 I 
ATOM     10  F2  UNL d   1       3.190  -5.963  -1.049  0.00  0.00    -0.096 F 
ATOM     11  F3  UNL d   1       0.797  -5.383   0.079  0.00  0.00    -0.097 F 
ATOM     12  F4  UNL d   1       0.478  -3.104   1.543  0.00  0.00    -0.092 F 
ENDROOT
TORSDOF 0
ENDMDL
