MODEL 1
REMARK minimizedAffinity 8.22353268
REMARK minimizedRMSD -1
REMARK  0 active torsions:
REMARK  status: ('A' for Active; 'I' for Inactive)
ROOT
ATOM      1  C   UNL d   1       1.432   3.894   3.142  0.00  0.00     0.124 A 
ATOM      2  C1  UNL d   1       1.403   4.693   4.277  0.00  0.00     0.062 A 
ATOM      3  C2  UNL d   1       2.590   5.143   4.847  0.00  0.00     0.162 A 
ATOM      4  C3  UNL d   1       3.817   4.795   4.283  0.00  0.00    -0.034 A 
ATOM      5  C4  UNL d   1       3.839   3.990   3.143  0.00  0.00     0.162 A 
ATOM      6  C5  UNL d   1       2.650   3.543   2.577  0.00  0.00     0.062 A 
ATOM      7  F   UNL d   1       2.680   2.771   1.481  0.00  0.00    -0.097 F 
ATOM      8  F1  UNL d   1       5.002   3.637   2.576  0.00  0.00    -0.096 F 
ATOM      9  I   UNL d   1       5.595   5.466   5.133  0.00  0.00    -0.060 I 
ATOM     10  F2  UNL d   1       2.531   5.914   5.943  0.00  0.00    -0.096 F 
ATOM     11  F3  UNL d   1       0.227   5.033   4.825  0.00  0.00    -0.097 F 
ATOM     12  F4  UNL d   1       0.288   3.462   2.596  0.00  0.00    -0.092 F 
ENDROOT
TORSDOF 0
ENDMDL
