MODEL 1
REMARK minimizedAffinity 18.3607426
REMARK minimizedRMSD -1
REMARK  0 active torsions:
REMARK  status: ('A' for Active; 'I' for Inactive)
ROOT
ATOM      1  C   UNL d   1      -0.378   1.755  -4.658  0.00  0.00     0.124 A 
ATOM      2  C1  UNL d   1       0.969   1.604  -4.959  0.00  0.00     0.062 A 
ATOM      3  C2  UNL d   1       1.729   2.706  -5.341  0.00  0.00     0.162 A 
ATOM      4  C3  UNL d   1       1.144   3.969  -5.425  0.00  0.00    -0.034 A 
ATOM      5  C4  UNL d   1      -0.211   4.113  -5.122  0.00  0.00     0.162 A 
ATOM      6  C5  UNL d   1      -0.966   3.009  -4.740  0.00  0.00     0.062 A 
ATOM      7  F   UNL d   1      -2.267   3.158  -4.450  0.00  0.00    -0.097 F 
ATOM      8  F1  UNL d   1      -0.805   5.314  -5.192  0.00  0.00    -0.096 F 
ATOM      9  I   UNL d   1       2.277   5.619  -5.997  0.00  0.00    -0.060 I 
ATOM     10  F2  UNL d   1       3.028   2.530  -5.626  0.00  0.00    -0.096 F 
ATOM     11  F3  UNL d   1       1.540   0.393  -4.881  0.00  0.00    -0.097 F 
ATOM     12  F4  UNL d   1      -1.107   0.694  -4.291  0.00  0.00    -0.092 F 
ENDROOT
TORSDOF 0
ENDMDL
