MODEL 1
REMARK minimizedAffinity 33.3429337
REMARK minimizedRMSD -1
REMARK  0 active torsions:
REMARK  status: ('A' for Active; 'I' for Inactive)
ROOT
ATOM      1  C   UNL d   1       2.031  -1.507   1.814  0.00  0.00     0.124 A 
ATOM      2  C1  UNL d   1       1.049  -1.207   2.748  0.00  0.00     0.062 A 
ATOM      3  C2  UNL d   1      -0.123  -1.956   2.796  0.00  0.00     0.162 A 
ATOM      4  C3  UNL d   1      -0.319  -3.013   1.908  0.00  0.00    -0.034 A 
ATOM      5  C4  UNL d   1       0.672  -3.309   0.971  0.00  0.00     0.162 A 
ATOM      6  C5  UNL d   1       1.842  -2.557   0.927  0.00  0.00     0.062 A 
ATOM      7  F   UNL d   1       2.790  -2.849   0.024  0.00  0.00    -0.097 F 
ATOM      8  F1  UNL d   1       0.516  -4.319   0.103  0.00  0.00    -0.096 F 
ATOM      9  I   UNL d   1      -2.071  -4.136   1.977  0.00  0.00    -0.060 I 
ATOM     10  F2  UNL d   1      -1.055  -1.643   3.709  0.00  0.00    -0.096 F 
ATOM     11  F3  UNL d   1       1.229  -0.192   3.605  0.00  0.00    -0.097 F 
ATOM     12  F4  UNL d   1       3.158  -0.784   1.769  0.00  0.00    -0.092 F 
ENDROOT
TORSDOF 0
ENDMDL
