MODEL 1
REMARK minimizedAffinity 0.628154457
REMARK minimizedRMSD -1
REMARK  0 active torsions:
REMARK  status: ('A' for Active; 'I' for Inactive)
ROOT
ATOM      1  C   UNL d   1       0.604   4.777   3.890  0.00  0.00     0.124 A 
ATOM      2  C1  UNL d   1       1.326   4.155   2.881  0.00  0.00     0.062 A 
ATOM      3  C2  UNL d   1       2.717   4.150   2.917  0.00  0.00     0.162 A 
ATOM      4  C3  UNL d   1       3.397   4.770   3.966  0.00  0.00    -0.034 A 
ATOM      5  C4  UNL d   1       2.664   5.395   4.976  0.00  0.00     0.162 A 
ATOM      6  C5  UNL d   1       1.273   5.397   4.936  0.00  0.00     0.062 A 
ATOM      7  F   UNL d   1       0.577   5.999   5.912  0.00  0.00    -0.097 F 
ATOM      8  F1  UNL d   1       3.285   6.000   6.000  0.00  0.00    -0.096 F 
ATOM      9  I   UNL d   1       5.477   4.765   4.023  0.00  0.00    -0.060 I 
ATOM     10  F2  UNL d   1       3.389   3.541   1.929  0.00  0.00    -0.096 F 
ATOM     11  F3  UNL d   1       0.682   3.557   1.869  0.00  0.00    -0.097 F 
ATOM     12  F4  UNL d   1      -0.735   4.781   3.853  0.00  0.00    -0.092 F 
ENDROOT
TORSDOF 0
ENDMDL
