MODEL 1
REMARK minimizedAffinity 19.7913265
REMARK minimizedRMSD -1
REMARK  0 active torsions:
REMARK  status: ('A' for Active; 'I' for Inactive)
ROOT
ATOM      1  C   UNL d   1       1.828   3.680   3.218  0.00  0.00     0.124 A 
ATOM      2  C1  UNL d   1       1.642   4.527   4.302  0.00  0.00     0.062 A 
ATOM      3  C2  UNL d   1       2.728   5.187   4.869  0.00  0.00     0.162 A 
ATOM      4  C3  UNL d   1       4.011   5.003   4.353  0.00  0.00    -0.034 A 
ATOM      5  C4  UNL d   1       4.190   4.149   3.263  0.00  0.00     0.162 A 
ATOM      6  C5  UNL d   1       3.101   3.492   2.700  0.00  0.00     0.062 A 
ATOM      7  F   UNL d   1       3.283   2.675   1.652  0.00  0.00    -0.097 F 
ATOM      8  F1  UNL d   1       5.410   3.950   2.742  0.00  0.00    -0.096 F 
ATOM      9  I   UNL d   1       5.638   5.987   5.199  0.00  0.00    -0.060 I 
ATOM     10  F2  UNL d   1       2.519   5.999   5.916  0.00  0.00    -0.096 F 
ATOM     11  F3  UNL d   1       0.413   4.710   4.805  0.00  0.00    -0.097 F 
ATOM     12  F4  UNL d   1       0.781   3.046   2.675  0.00  0.00    -0.092 F 
ENDROOT
TORSDOF 0
ENDMDL
