MODEL 1
REMARK minimizedAffinity 15.8477917
REMARK minimizedRMSD -1
REMARK  0 active torsions:
REMARK  status: ('A' for Active; 'I' for Inactive)
ROOT
ATOM      1  C   UNL d   1       1.647  -3.164   1.400  0.00  0.00     0.124 A 
ATOM      2  C1  UNL d   1       2.762  -2.480   1.864  0.00  0.00     0.062 A 
ATOM      3  C2  UNL d   1       3.990  -2.629   1.226  0.00  0.00     0.162 A 
ATOM      4  C3  UNL d   1       4.109  -3.465   0.116  0.00  0.00    -0.034 A 
ATOM      5  C4  UNL d   1       2.984  -4.151  -0.345  0.00  0.00     0.162 A 
ATOM      6  C5  UNL d   1       1.759  -3.998   0.296  0.00  0.00     0.062 A 
ATOM      7  F   UNL d   1       0.682  -4.660  -0.153  0.00  0.00    -0.097 F 
ATOM      8  F1  UNL d   1       3.063  -4.962  -1.410  0.00  0.00    -0.096 F 
ATOM      9  I   UNL d   1       5.944  -3.691  -0.841  0.00  0.00    -0.060 I 
ATOM     10  F2  UNL d   1       5.051  -1.957   1.696  0.00  0.00    -0.096 F 
ATOM     11  F3  UNL d   1       2.657  -1.675   2.930  0.00  0.00    -0.097 F 
ATOM     12  F4  UNL d   1       0.467  -3.020   2.016  0.00  0.00    -0.092 F 
ENDROOT
TORSDOF 0
ENDMDL
