MODEL 1
REMARK minimizedAffinity 6.92253637
REMARK minimizedRMSD -1
REMARK  0 active torsions:
REMARK  status: ('A' for Active; 'I' for Inactive)
ROOT
ATOM      1  C   UNL d   1      -3.889  -0.100   0.490  0.00  0.00     0.020 A 
ATOM      2  C1  UNL d   1      -4.296   1.233   0.468  0.00  0.00     0.020 A 
ATOM      3  C2  UNL d   1      -3.478   2.222   1.020  0.00  0.00     0.034 A 
ATOM      4  C3  UNL d   1      -2.250   1.878   1.597  0.00  0.00     0.017 A 
ATOM      5  C4  UNL d   1      -1.843   0.539   1.619  0.00  0.00     0.017 A 
ATOM      6  C5  UNL d   1      -2.666  -0.446   1.064  0.00  0.00     0.034 A 
ATOM      7 Cl   UNL d   1      -0.342   0.039   2.313  0.00  0.00    -0.070 Cl
ATOM      8 Cl1  UNL d   1      -1.290   3.152   2.261  0.00  0.00    -0.070 Cl
ENDROOT
TORSDOF 0
ENDMDL
