MODEL 1
REMARK minimizedAffinity 5.59418201
REMARK minimizedRMSD -1
REMARK  0 active torsions:
REMARK  status: ('A' for Active; 'I' for Inactive)
ROOT
ATOM      1  C   UNL d   1      -3.214   1.016   1.686  0.00  0.00     0.020 A 
ATOM      2  C1  UNL d   1      -1.896   0.658   1.964  0.00  0.00     0.020 A 
ATOM      3  C2  UNL d   1      -1.413  -0.592   1.569  0.00  0.00     0.034 A 
ATOM      4  C3  UNL d   1      -2.250  -1.488   0.895  0.00  0.00     0.017 A 
ATOM      5  C4  UNL d   1      -3.573  -1.128   0.616  0.00  0.00     0.017 A 
ATOM      6  C5  UNL d   1      -4.051   0.125   1.013  0.00  0.00     0.034 A 
ATOM      7 Cl   UNL d   1      -4.665  -2.180  -0.213  0.00  0.00    -0.070 Cl
ATOM      8 Cl1  UNL d   1      -1.587  -3.016   0.436  0.00  0.00    -0.070 Cl
ENDROOT
TORSDOF 0
ENDMDL
