MODEL 1
REMARK minimizedAffinity 7.50167322
REMARK minimizedRMSD -1
REMARK  0 active torsions:
REMARK  status: ('A' for Active; 'I' for Inactive)
ROOT
ATOM      1  C   UNL d   1      -1.468  -0.972  -5.998  0.00  0.00     0.020 A 
ATOM      2  C1  UNL d   1      -2.836  -0.700  -5.997  0.00  0.00     0.020 A 
ATOM      3  C2  UNL d   1      -3.757  -1.749  -5.996  0.00  0.00     0.034 A 
ATOM      4  C3  UNL d   1      -3.312  -3.076  -5.997  0.00  0.00     0.017 A 
ATOM      5  C4  UNL d   1      -1.939  -3.349  -5.998  0.00  0.00     0.017 A 
ATOM      6  C5  UNL d   1      -1.021  -2.294  -5.999  0.00  0.00     0.034 A 
ATOM      7 Cl   UNL d   1      -1.314  -4.960  -5.998  0.00  0.00    -0.070 Cl
ATOM      8 Cl1  UNL d   1      -4.506  -4.324  -5.995  0.00  0.00    -0.070 Cl
ENDROOT
TORSDOF 0
ENDMDL
