MODEL 1
REMARK minimizedAffinity -2.71560407
REMARK minimizedRMSD -1
REMARK  0 active torsions:
REMARK  status: ('A' for Active; 'I' for Inactive)
ROOT
ATOM      1  C   UNL d   1      -2.371  -1.367   0.652  0.00  0.00     0.020 A 
ATOM      2  C1  UNL d   1      -3.448  -0.560   1.014  0.00  0.00     0.020 A 
ATOM      3  C2  UNL d   1      -3.243   0.554   1.830  0.00  0.00     0.034 A 
ATOM      4  C3  UNL d   1      -1.957   0.865   2.287  0.00  0.00     0.017 A 
ATOM      5  C4  UNL d   1      -0.876   0.054   1.923  0.00  0.00     0.017 A 
ATOM      6  C5  UNL d   1      -1.087  -1.061   1.106  0.00  0.00     0.034 A 
ATOM      7 Cl   UNL d   1       0.740   0.373   2.448  0.00  0.00    -0.070 Cl
ATOM      8 Cl1  UNL d   1      -1.776   2.258   3.293  0.00  0.00    -0.070 Cl
ENDROOT
TORSDOF 0
ENDMDL
