MODEL 1
REMARK minimizedAffinity 9.08163643
REMARK minimizedRMSD -1
REMARK  0 active torsions:
REMARK  status: ('A' for Active; 'I' for Inactive)
ROOT
ATOM      1  C   UNL d   1      -5.628  -4.070  -6.000  0.00  0.00     0.020 A 
ATOM      2  C1  UNL d   1      -4.570  -4.978  -5.999  0.00  0.00     0.020 A 
ATOM      3  C2  UNL d   1      -3.252  -4.514  -5.998  0.00  0.00     0.034 A 
ATOM      4  C3  UNL d   1      -2.990  -3.139  -5.998  0.00  0.00     0.017 A 
ATOM      5  C4  UNL d   1      -4.053  -2.229  -5.998  0.00  0.00     0.017 A 
ATOM      6  C5  UNL d   1      -5.370  -2.699  -5.999  0.00  0.00     0.034 A 
ATOM      7 Cl   UNL d   1      -3.808  -0.518  -5.998  0.00  0.00    -0.070 Cl
ATOM      8 Cl1  UNL d   1      -1.337  -2.637  -5.996  0.00  0.00    -0.070 Cl
ENDROOT
TORSDOF 0
ENDMDL
