MODEL 1
REMARK minimizedAffinity 7.98238707
REMARK minimizedRMSD -1
REMARK  0 active torsions:
REMARK  status: ('A' for Active; 'I' for Inactive)
ROOT
ATOM      1  C   UNL d   1      -4.734  -1.589  -6.000  0.00  0.00     0.020 A 
ATOM      2  C1  UNL d   1      -4.407  -2.945  -5.999  0.00  0.00     0.020 A 
ATOM      3  C2  UNL d   1      -3.067  -3.339  -5.990  0.00  0.00     0.034 A 
ATOM      4  C3  UNL d   1      -2.050  -2.378  -5.981  0.00  0.00     0.017 A 
ATOM      5  C4  UNL d   1      -2.380  -1.018  -5.982  0.00  0.00     0.017 A 
ATOM      6  C5  UNL d   1      -3.723  -0.628  -5.992  0.00  0.00     0.034 A 
ATOM      7 Cl   UNL d   1      -1.181   0.227  -5.972  0.00  0.00    -0.070 Cl
ATOM      8 Cl1  UNL d   1      -0.416  -2.937  -5.970  0.00  0.00    -0.070 Cl
ENDROOT
TORSDOF 0
ENDMDL
