MODEL 1
REMARK minimizedAffinity 10.4818525
REMARK minimizedRMSD -1
REMARK  0 active torsions:
REMARK  status: ('A' for Active; 'I' for Inactive)
ROOT
ATOM      1  C   UNL d   1      -1.656   1.361   2.382  0.00  0.00     0.020 A 
ATOM      2  C1  UNL d   1      -1.277   0.047   2.108  0.00  0.00     0.020 A 
ATOM      3  C2  UNL d   1      -2.189  -0.837   1.529  0.00  0.00     0.034 A 
ATOM      4  C3  UNL d   1      -3.486  -0.408   1.222  0.00  0.00     0.017 A 
ATOM      5  C4  UNL d   1      -3.866   0.910   1.497  0.00  0.00     0.017 A 
ATOM      6  C5  UNL d   1      -2.948   1.791   2.077  0.00  0.00     0.034 A 
ATOM      7 Cl   UNL d   1      -5.448   1.512   1.147  0.00  0.00    -0.070 Cl
ATOM      8 Cl1  UNL d   1      -4.563  -1.555   0.507  0.00  0.00    -0.070 Cl
ENDROOT
TORSDOF 0
ENDMDL
