MODEL 1
REMARK minimizedAffinity 9.593297
REMARK minimizedRMSD -1
REMARK  0 active torsions:
REMARK  status: ('A' for Active; 'I' for Inactive)
ROOT
ATOM      1  C   UNL d   1      -3.042   0.748   1.122  0.00  0.00     0.020 A 
ATOM      2  C1  UNL d   1      -4.118   0.446   1.954  0.00  0.00     0.020 A 
ATOM      3  C2  UNL d   1      -3.891  -0.087   3.225  0.00  0.00     0.034 A 
ATOM      4  C3  UNL d   1      -2.583  -0.320   3.667  0.00  0.00     0.017 A 
ATOM      5  C4  UNL d   1      -1.503  -0.016   2.830  0.00  0.00     0.017 A 
ATOM      6  C5  UNL d   1      -1.737   0.518   1.559  0.00  0.00     0.034 A 
ATOM      7 Cl   UNL d   1       0.139  -0.275   3.306  0.00  0.00    -0.070 Cl
ATOM      8 Cl1  UNL d   1      -2.375  -0.981   5.250  0.00  0.00    -0.070 Cl
ENDROOT
TORSDOF 0
ENDMDL
