MODEL 1
REMARK minimizedAffinity 3.50737643
REMARK minimizedRMSD -1
REMARK  0 active torsions:
REMARK  status: ('A' for Active; 'I' for Inactive)
ROOT
ATOM      1  C   UNL d   1      -5.260  -1.681  -5.996  0.00  0.00     0.020 A 
ATOM      2  C1  UNL d   1      -4.979  -3.047  -5.999  0.00  0.00     0.020 A 
ATOM      3  C2  UNL d   1      -3.654  -3.487  -5.999  0.00  0.00     0.034 A 
ATOM      4  C3  UNL d   1      -2.604  -2.561  -5.995  0.00  0.00     0.017 A 
ATOM      5  C4  UNL d   1      -2.887  -1.190  -5.992  0.00  0.00     0.017 A 
ATOM      6  C5  UNL d   1      -4.216  -0.755  -5.992  0.00  0.00     0.034 A 
ATOM      7 Cl   UNL d   1      -1.646   0.012  -5.987  0.00  0.00    -0.070 Cl
ATOM      8 Cl1  UNL d   1      -0.990  -3.176  -5.995  0.00  0.00    -0.070 Cl
ENDROOT
TORSDOF 0
ENDMDL
