MODEL 1
REMARK minimizedAffinity -1.81867075
REMARK minimizedRMSD -1
REMARK  0 active torsions:
REMARK  status: ('A' for Active; 'I' for Inactive)
ROOT
ATOM      1  C   UNL d   1      -5.096  -4.138  -5.978  0.00  0.00     0.020 A 
ATOM      2  C1  UNL d   1      -5.707  -2.885  -5.978  0.00  0.00     0.020 A 
ATOM      3  C2  UNL d   1      -4.926  -1.727  -5.985  0.00  0.00     0.034 A 
ATOM      4  C3  UNL d   1      -3.529  -1.821  -5.992  0.00  0.00     0.017 A 
ATOM      5  C4  UNL d   1      -2.917  -3.080  -5.992  0.00  0.00     0.017 A 
ATOM      6  C5  UNL d   1      -3.704  -4.235  -5.985  0.00  0.00     0.034 A 
ATOM      7 Cl   UNL d   1      -1.200  -3.275  -6.000  0.00  0.00    -0.070 Cl
ATOM      8 Cl1  UNL d   1      -2.625  -0.348  -6.000  0.00  0.00    -0.070 Cl
ENDROOT
TORSDOF 0
ENDMDL
