MODEL 1
REMARK minimizedAffinity 2.60620093
REMARK minimizedRMSD -1
REMARK  0 active torsions:
REMARK  status: ('A' for Active; 'I' for Inactive)
ROOT
ATOM      1  C   UNL d   1      -4.870  -1.942  -5.985  0.00  0.00     0.020 A 
ATOM      2  C1  UNL d   1      -3.568  -1.441  -5.985  0.00  0.00     0.020 A 
ATOM      3  C2  UNL d   1      -2.482  -2.318  -5.989  0.00  0.00     0.034 A 
ATOM      4  C3  UNL d   1      -2.695  -3.702  -5.994  0.00  0.00     0.017 A 
ATOM      5  C4  UNL d   1      -4.002  -4.204  -5.994  0.00  0.00     0.017 A 
ATOM      6  C5  UNL d   1      -5.086  -3.320  -5.989  0.00  0.00     0.034 A 
ATOM      7 Cl   UNL d   1      -4.344  -5.898  -6.000  0.00  0.00    -0.070 Cl
ATOM      8 Cl1  UNL d   1      -1.306  -4.729  -6.000  0.00  0.00    -0.070 Cl
ENDROOT
TORSDOF 0
ENDMDL
