MODEL 1
REMARK minimizedAffinity 0.566553116
REMARK minimizedRMSD -1
REMARK  0 active torsions:
REMARK  status: ('A' for Active; 'I' for Inactive)
ROOT
ATOM      1  C   UNL d   1      -1.346   0.656   3.302  0.00  0.00     0.020 A 
ATOM      2  C1  UNL d   1      -1.348   0.708   1.909  0.00  0.00     0.020 A 
ATOM      3  C2  UNL d   1      -2.553   0.850   1.217  0.00  0.00     0.034 A 
ATOM      4  C3  UNL d   1      -3.761   0.941   1.919  0.00  0.00     0.017 A 
ATOM      5  C4  UNL d   1      -3.758   0.889   3.318  0.00  0.00     0.017 A 
ATOM      6  C5  UNL d   1      -2.548   0.746   4.005  0.00  0.00     0.034 A 
ATOM      7 Cl   UNL d   1      -5.207   0.994   4.253  0.00  0.00    -0.070 Cl
ATOM      8 Cl1  UNL d   1      -5.213   1.116   0.999  0.00  0.00    -0.070 Cl
ENDROOT
TORSDOF 0
ENDMDL
