MODEL 1
REMARK minimizedAffinity 0.196389973
REMARK minimizedRMSD -1
REMARK  0 active torsions:
REMARK  status: ('A' for Active; 'I' for Inactive)
ROOT
ATOM      1  C   UNL d   1      -5.099  -3.471  -5.992  0.00  0.00     0.020 A 
ATOM      2  C1  UNL d   1      -5.573  -2.160  -5.975  0.00  0.00     0.020 A 
ATOM      3  C2  UNL d   1      -4.674  -1.092  -5.964  0.00  0.00     0.034 A 
ATOM      4  C3  UNL d   1      -3.295  -1.333  -5.972  0.00  0.00     0.017 A 
ATOM      5  C4  UNL d   1      -2.820  -2.649  -5.990  0.00  0.00     0.017 A 
ATOM      6  C5  UNL d   1      -3.725  -3.715  -6.000  0.00  0.00     0.034 A 
ATOM      7 Cl   UNL d   1      -1.133  -3.025  -6.000  0.00  0.00    -0.070 Cl
ATOM      8 Cl1  UNL d   1      -2.241   0.036  -5.959  0.00  0.00    -0.070 Cl
ENDROOT
TORSDOF 0
ENDMDL
