MODEL 1
REMARK minimizedAffinity 8.5807066
REMARK minimizedRMSD -1
REMARK  0 active torsions:
REMARK  status: ('A' for Active; 'I' for Inactive)
ROOT
ATOM      1  C   UNL d   1       1.086  -0.199  -2.882  0.00  0.00     0.020 A 
ATOM      2  C1  UNL d   1       1.171  -0.804  -4.135  0.00  0.00     0.020 A 
ATOM      3  C2  UNL d   1       2.136  -0.380  -5.051  0.00  0.00     0.034 A 
ATOM      4  C3  UNL d   1       3.019   0.652  -4.716  0.00  0.00     0.017 A 
ATOM      5  C4  UNL d   1       2.933   1.259  -3.457  0.00  0.00     0.017 A 
ATOM      6  C5  UNL d   1       1.966   0.830  -2.544  0.00  0.00     0.034 A 
ATOM      7 Cl   UNL d   1       3.989   2.539  -2.971  0.00  0.00    -0.070 Cl
ATOM      8 Cl1  UNL d   1       4.188   1.126  -5.897  0.00  0.00    -0.070 Cl
ENDROOT
TORSDOF 0
ENDMDL
