MODEL 1
REMARK minimizedAffinity 11.2981377
REMARK minimizedRMSD -1
REMARK  0 active torsions:
REMARK  status: ('A' for Active; 'I' for Inactive)
ROOT
ATOM      1  C   UNL d   1      -0.772  -2.954  -5.988  0.00  0.00     0.020 A 
ATOM      2  C1  UNL d   1      -1.056  -1.589  -5.982  0.00  0.00     0.020 A 
ATOM      3  C2  UNL d   1      -2.382  -1.152  -5.982  0.00  0.00     0.034 A 
ATOM      4  C3  UNL d   1      -3.429  -2.080  -5.987  0.00  0.00     0.017 A 
ATOM      5  C4  UNL d   1      -3.144  -3.450  -5.993  0.00  0.00     0.017 A 
ATOM      6  C5  UNL d   1      -1.814  -3.882  -5.993  0.00  0.00     0.034 A 
ATOM      7 Cl   UNL d   1      -4.383  -4.655  -5.999  0.00  0.00    -0.070 Cl
ATOM      8 Cl1  UNL d   1      -5.045  -1.468  -5.986  0.00  0.00    -0.070 Cl
ENDROOT
TORSDOF 0
ENDMDL
