MODEL 1
REMARK minimizedAffinity -0.172047317
REMARK minimizedRMSD -1
REMARK  0 active torsions:
REMARK  status: ('A' for Active; 'I' for Inactive)
ROOT
ATOM      1  C   UNL d   1      -5.620  -2.533  -5.952  0.00  0.00     0.020 A 
ATOM      2  C1  UNL d   1      -4.996  -3.780  -5.959  0.00  0.00     0.020 A 
ATOM      3  C2  UNL d   1      -3.602  -3.862  -5.972  0.00  0.00     0.034 A 
ATOM      4  C3  UNL d   1      -2.828  -2.696  -5.978  0.00  0.00     0.017 A 
ATOM      5  C4  UNL d   1      -3.455  -1.445  -5.971  0.00  0.00     0.017 A 
ATOM      6  C5  UNL d   1      -4.852  -1.369  -5.958  0.00  0.00     0.034 A 
ATOM      7 Cl   UNL d   1      -2.568   0.037  -5.978  0.00  0.00    -0.070 Cl
ATOM      8 Cl1  UNL d   1      -1.109  -2.873  -5.993  0.00  0.00    -0.070 Cl
ENDROOT
TORSDOF 0
ENDMDL
