MODEL 1
REMARK minimizedAffinity 14.3396721
REMARK minimizedRMSD -1
REMARK  0 active torsions:
REMARK  status: ('A' for Active; 'I' for Inactive)
ROOT
ATOM      1  C   UNL d   1      -0.788  -0.299   2.543  0.00  0.00     0.020 A 
ATOM      2  C1  UNL d   1      -0.925  -0.908   1.296  0.00  0.00     0.020 A 
ATOM      3  C2  UNL d   1      -0.155  -0.471   0.217  0.00  0.00     0.034 A 
ATOM      4  C3  UNL d   1       0.757   0.578   0.382  0.00  0.00     0.017 A 
ATOM      5  C4  UNL d   1       0.894   1.189   1.633  0.00  0.00     0.017 A 
ATOM      6  C5  UNL d   1       0.120   0.748   2.711  0.00  0.00     0.034 A 
ATOM      7 Cl   UNL d   1       1.997   2.490   1.914  0.00  0.00    -0.070 Cl
ATOM      8 Cl1  UNL d   1       1.677   1.067  -0.997  0.00  0.00    -0.070 Cl
ENDROOT
TORSDOF 0
ENDMDL
