MODEL 1
REMARK minimizedAffinity 10.3653135
REMARK minimizedRMSD -1
REMARK  0 active torsions:
REMARK  status: ('A' for Active; 'I' for Inactive)
ROOT
ATOM      1  C   UNL d   1      -0.758   0.384   1.710  0.00  0.00     0.020 A 
ATOM      2  C1  UNL d   1      -0.476   1.747   1.781  0.00  0.00     0.020 A 
ATOM      3  C2  UNL d   1      -1.506   2.663   2.006  0.00  0.00     0.034 A 
ATOM      4  C3  UNL d   1      -2.823   2.216   2.160  0.00  0.00     0.017 A 
ATOM      5  C4  UNL d   1      -3.106   0.847   2.089  0.00  0.00     0.017 A 
ATOM      6  C5  UNL d   1      -2.071  -0.065   1.864  0.00  0.00     0.034 A 
ATOM      7 Cl   UNL d   1      -4.706   0.221   2.270  0.00  0.00    -0.070 Cl
ATOM      8 Cl1  UNL d   1      -4.047   3.404   2.436  0.00  0.00    -0.070 Cl
ENDROOT
TORSDOF 0
ENDMDL
