MODEL 1
REMARK minimizedAffinity -5.33572197
REMARK minimizedRMSD -1
REMARK  0 active torsions:
REMARK  status: ('A' for Active; 'I' for Inactive)
ROOT
ATOM      1  C2' OXE d   1       0.617  -0.515  -0.998  0.00  0.00     0.078 C 
ATOM      2  C1' OXE d   1      -2.096   0.111  -0.638  0.00  0.00     0.078 C 
ATOM      3  C1  OXE d   1      -1.133   0.498   0.457  0.00  0.00    -0.078 A 
ATOM      4  C2  OXE d   1       0.185   0.146   0.293  0.00  0.00    -0.078 A 
ATOM      5  C3  OXE d   1       1.124   0.527   1.247  0.00  0.00     0.003 A 
ATOM      6  C4  OXE d   1       0.715   1.129   2.443  0.00  0.00    -0.002 A 
ATOM      7  C5  OXE d   1      -0.628   1.461   2.648  0.00  0.00    -0.002 A 
ATOM      8  C6  OXE d   1      -1.557   1.191   1.649  0.00  0.00     0.003 A 
ENDROOT
TORSDOF 0
ENDMDL
