MODEL 1
REMARK minimizedAffinity -2.31703234
REMARK minimizedRMSD -1
REMARK  0 active torsions:
REMARK  status: ('A' for Active; 'I' for Inactive)
ROOT
ATOM      1  C2' OXE d   1      -2.337  -0.385  -0.756  0.00  0.00     0.078 C 
ATOM      2  C1' OXE d   1       0.384  -0.825  -1.285  0.00  0.00     0.078 C 
ATOM      3  C1  OXE d   1       0.016  -0.208   0.041  0.00  0.00    -0.078 A 
ATOM      4  C2  OXE d   1      -1.314   0.047   0.273  0.00  0.00    -0.078 A 
ATOM      5  C3  OXE d   1      -1.713   0.564   1.502  0.00  0.00     0.003 A 
ATOM      6  C4  OXE d   1      -0.759   0.970   2.443  0.00  0.00    -0.002 A 
ATOM      7  C5  OXE d   1       0.603   0.756   2.211  0.00  0.00    -0.002 A 
ATOM      8  C6  OXE d   1       1.004   0.130   1.036  0.00  0.00     0.003 A 
ENDROOT
TORSDOF 0
ENDMDL
