MODEL 1
REMARK minimizedAffinity -4.59648943
REMARK minimizedRMSD -1
REMARK  0 active torsions:
REMARK  status: ('A' for Active; 'I' for Inactive)
ROOT
ATOM      1  C2' OXE d   1       2.147   0.475   1.964  0.00  0.00     0.078 C 
ATOM      2  C1' OXE d   1      -0.306   1.681   2.603  0.00  0.00     0.078 C 
ATOM      3  C1  OXE d   1      -0.268   0.748   1.418  0.00  0.00    -0.078 A 
ATOM      4  C2  OXE d   1       0.947   0.199   1.084  0.00  0.00    -0.078 A 
ATOM      5  C3  OXE d   1       1.027  -0.711   0.034  0.00  0.00     0.003 A 
ATOM      6  C4  OXE d   1      -0.086  -0.953  -0.781  0.00  0.00    -0.002 A 
ATOM      7  C5  OXE d   1      -1.324  -0.373  -0.483  0.00  0.00    -0.002 A 
ATOM      8  C6  OXE d   1      -1.441   0.445   0.636  0.00  0.00     0.003 A 
ENDROOT
TORSDOF 0
ENDMDL
