MODEL 1
REMARK minimizedAffinity -3.3279779
REMARK minimizedRMSD -1
REMARK  0 active torsions:
REMARK  status: ('A' for Active; 'I' for Inactive)
ROOT
ATOM      1  C2' OXE d   1      -1.306   1.329   2.269  0.00  0.00     0.078 C 
ATOM      2  C1' OXE d   1      -2.710   0.665  -0.070  0.00  0.00     0.078 C 
ATOM      3  C1  OXE d   1      -1.242   0.325  -0.010  0.00  0.00    -0.078 A 
ATOM      4  C2  OXE d   1      -0.552   0.695   1.119  0.00  0.00    -0.078 A 
ATOM      5  C3  OXE d   1       0.791   0.356   1.248  0.00  0.00     0.003 A 
ATOM      6  C4  OXE d   1       1.483  -0.221   0.176  0.00  0.00    -0.002 A 
ATOM      7  C5  OXE d   1       0.809  -0.570  -0.998  0.00  0.00    -0.002 A 
ATOM      8  C6  OXE d   1      -0.560  -0.343  -1.091  0.00  0.00     0.003 A 
ENDROOT
TORSDOF 0
ENDMDL
