MODEL 1
REMARK minimizedAffinity -5.14138365
REMARK minimizedRMSD -1
REMARK  0 active torsions:
REMARK  status: ('A' for Active; 'I' for Inactive)
ROOT
ATOM      1  C2' OXE d   1      -2.388  -0.604  -0.338  0.00  0.00     0.078 C 
ATOM      2  C1' OXE d   1       0.368  -0.677  -0.867  0.00  0.00     0.078 C 
ATOM      3  C1  OXE d   1      -0.094   0.082   0.351  0.00  0.00    -0.078 A 
ATOM      4  C2  OXE d   1      -1.448   0.152   0.577  0.00  0.00    -0.078 A 
ATOM      5  C3  OXE d   1      -1.925   0.793   1.716  0.00  0.00     0.003 A 
ATOM      6  C4  OXE d   1      -1.050   1.498   2.551  0.00  0.00    -0.002 A 
ATOM      7  C5  OXE d   1       0.329   1.473   2.318  0.00  0.00    -0.002 A 
ATOM      8  C6  OXE d   1       0.826   0.736   1.249  0.00  0.00     0.003 A 
ENDROOT
TORSDOF 0
ENDMDL
