MODEL 1
REMARK minimizedAffinity 1.2303859
REMARK minimizedRMSD -1
REMARK  0 active torsions:
REMARK  status: ('A' for Active; 'I' for Inactive)
ROOT
ATOM      1  C2' OXE d   1       1.730   0.502   1.760  0.00  0.00     0.078 C 
ATOM      2  C1' OXE d   1      -0.323   1.757   3.205  0.00  0.00     0.078 C 
ATOM      3  C1  OXE d   1      -0.701   1.013   1.948  0.00  0.00    -0.078 A 
ATOM      4  C2  OXE d   1       0.317   0.442   1.222  0.00  0.00    -0.078 A 
ATOM      5  C3  OXE d   1       0.018  -0.302   0.085  0.00  0.00     0.003 A 
ATOM      6  C4  OXE d   1      -1.291  -0.345  -0.411  0.00  0.00    -0.002 A 
ATOM      7  C5  OXE d   1      -2.336   0.264   0.291  0.00  0.00    -0.002 A 
ATOM      8  C6  OXE d   1      -2.065   0.910   1.492  0.00  0.00     0.003 A 
ENDROOT
TORSDOF 0
ENDMDL
