MODEL 1
REMARK minimizedAffinity -4.37254286
REMARK minimizedRMSD -1
REMARK  2 active torsions:
REMARK  status: ('A' for Active; 'I' for Inactive)
REMARK    1  A    between atoms: C2'_3  and  C1'_4 
REMARK    2  A    between atoms: C1'_4  and  C1_5 
ROOT
ATOM      1  C1  I4B d   1       0.727  -0.601   0.400  0.00  0.00    -0.075 A 
ATOM      2  C2  I4B d   1       0.913  -1.736  -0.349  0.00  0.00     0.003 A 
ATOM      3  C3  I4B d   1       2.181  -2.364  -0.389  0.00  0.00     0.002 A 
ATOM      4  C4  I4B d   1       3.241  -1.799   0.290  0.00  0.00    -0.004 A 
ATOM      5  C5  I4B d   1       3.046  -0.662   1.068  0.00  0.00     0.002 A 
ATOM      6  C6  I4B d   1       1.778  -0.066   1.134  0.00  0.00     0.003 A 
ENDROOT
BRANCH   1   7
ATOM      7  C1' I4B d   1      -0.617   0.055   0.394  0.00  0.00     0.060 C 
BRANCH   7   8
ATOM      8  C2' I4B d   1      -0.987   0.376   1.828  0.00  0.00    -0.013 C 
ATOM      9  C4' I4B d   1      -2.130   1.354   1.890  0.00  0.00     0.013 C 
ATOM     10  C3' I4B d   1      -1.337  -0.911   2.515  0.00  0.00     0.013 C 
ENDBRANCH   7   8
ENDBRANCH   1   7
TORSDOF 2
ENDMDL
