MODEL 1
REMARK minimizedAffinity 0.538560808
REMARK minimizedRMSD -1
REMARK  2 active torsions:
REMARK  status: ('A' for Active; 'I' for Inactive)
REMARK    1  A    between atoms: C2'_3  and  C1'_4 
REMARK    2  A    between atoms: C1'_4  and  C1_5 
ROOT
ATOM      1  C1  I4B d   1      -0.008  -1.216   0.575  0.00  0.00    -0.075 A 
ATOM      2  C2  I4B d   1      -0.212  -2.548   0.314  0.00  0.00     0.003 A 
ATOM      3  C3  I4B d   1       0.869  -3.370  -0.087  0.00  0.00     0.002 A 
ATOM      4  C4  I4B d   1       2.118  -2.811  -0.264  0.00  0.00    -0.004 A 
ATOM      5  C5  I4B d   1       2.328  -1.465   0.023  0.00  0.00     0.002 A 
ATOM      6  C6  I4B d   1       1.261  -0.665   0.457  0.00  0.00     0.003 A 
ENDROOT
BRANCH   1   7
ATOM      7  C1' I4B d   1      -1.178  -0.371   0.966  0.00  0.00     0.060 C 
BRANCH   7   8
ATOM      8  C2' I4B d   1      -0.705   0.635   1.995  0.00  0.00    -0.013 C 
ATOM      9  C4' I4B d   1      -1.641   1.812   2.078  0.00  0.00     0.013 C 
ATOM     10  C3' I4B d   1      -0.601  -0.069   3.316  0.00  0.00     0.013 C 
ENDBRANCH   7   8
ENDBRANCH   1   7
TORSDOF 2
ENDMDL
