MODEL 1
REMARK minimizedAffinity -1.24266481
REMARK minimizedRMSD -1
REMARK  2 active torsions:
REMARK  status: ('A' for Active; 'I' for Inactive)
REMARK    1  A    between atoms: C2'_3  and  C1'_4 
REMARK    2  A    between atoms: C1'_4  and  C1_5 
ROOT
ATOM      1  C1  I4B d   1       4.623   4.127  -0.574  0.00  0.00    -0.075 A 
ATOM      2  C2  I4B d   1       3.624   3.796   0.307  0.00  0.00     0.003 A 
ATOM      3  C3  I4B d   1       3.405   4.580   1.466  0.00  0.00     0.002 A 
ATOM      4  C4  I4B d   1       4.236   5.650   1.728  0.00  0.00    -0.004 A 
ATOM      5  C5  I4B d   1       5.233   5.999   0.822  0.00  0.00     0.002 A 
ATOM      6  C6  I4B d   1       5.421   5.240  -0.342  0.00  0.00     0.003 A 
ENDROOT
BRANCH   1   7
ATOM      7  C1' I4B d   1       4.847   3.258  -1.770  0.00  0.00     0.060 C 
BRANCH   7   8
ATOM      8  C2' I4B d   1       3.618   2.390  -1.953  0.00  0.00    -0.013 C 
ATOM      9  C4' I4B d   1       2.938   2.676  -3.266  0.00  0.00     0.013 C 
ATOM     10  C3' I4B d   1       4.048   0.955  -1.867  0.00  0.00     0.013 C 
ENDBRANCH   7   8
ENDBRANCH   1   7
TORSDOF 2
ENDMDL
