MODEL 1
REMARK minimizedAffinity 3.06980109
REMARK minimizedRMSD -1
REMARK  2 active torsions:
REMARK  status: ('A' for Active; 'I' for Inactive)
REMARK    1  A    between atoms: C2'_3  and  C1'_4 
REMARK    2  A    between atoms: C1'_4  and  C1_5 
ROOT
ATOM      1  C1  I4B d   1       0.477  -1.907  -0.132  0.00  0.00    -0.075 A 
ATOM      2  C2  I4B d   1      -0.722  -1.502   0.398  0.00  0.00     0.003 A 
ATOM      3  C3  I4B d   1      -0.754  -0.519   1.417  0.00  0.00     0.002 A 
ATOM      4  C4  I4B d   1       0.430  -0.008   1.907  0.00  0.00    -0.004 A 
ATOM      5  C5  I4B d   1       1.644  -0.403   1.352  0.00  0.00     0.002 A 
ATOM      6  C6  I4B d   1       1.667  -1.350   0.317  0.00  0.00     0.003 A 
ENDROOT
BRANCH   1   7
ATOM      7  C1' I4B d   1       0.477  -2.971  -1.184  0.00  0.00     0.060 C 
BRANCH   7   8
ATOM      8  C2' I4B d   1       0.172  -2.313  -2.514  0.00  0.00    -0.013 C 
ATOM      9  C4' I4B d   1       1.082  -1.139  -2.763  0.00  0.00     0.013 C 
ATOM     10  C3' I4B d   1       0.320  -3.349  -3.588  0.00  0.00     0.013 C 
ENDBRANCH   7   8
ENDBRANCH   1   7
TORSDOF 2
ENDMDL
