MODEL 1
REMARK minimizedAffinity 0.125951439
REMARK minimizedRMSD -1
REMARK  2 active torsions:
REMARK  status: ('A' for Active; 'I' for Inactive)
REMARK    1  A    between atoms: C2'_3  and  C1'_4 
REMARK    2  A    between atoms: C1'_4  and  C1_5 
ROOT
ATOM      1  C1  I4B d   1       0.762  -2.524  -0.199  0.00  0.00    -0.075 A 
ATOM      2  C2  I4B d   1      -0.331  -3.002   0.479  0.00  0.00     0.003 A 
ATOM      3  C3  I4B d   1      -1.156  -2.117   1.215  0.00  0.00     0.002 A 
ATOM      4  C4  I4B d   1      -0.824  -0.780   1.287  0.00  0.00    -0.004 A 
ATOM      5  C5  I4B d   1       0.271  -0.293   0.580  0.00  0.00     0.002 A 
ATOM      6  C6  I4B d   1       1.063  -1.168  -0.178  0.00  0.00     0.003 A 
ENDROOT
BRANCH   1   7
ATOM      7  C1' I4B d   1       1.630  -3.491  -0.940  0.00  0.00     0.060 C 
BRANCH   7   8
ATOM      8  C2' I4B d   1       2.953  -3.587  -0.207  0.00  0.00    -0.013 C 
ATOM      9  C4' I4B d   1       3.740  -4.789  -0.657  0.00  0.00     0.013 C 
ATOM     10  C3' I4B d   1       3.712  -2.318  -0.455  0.00  0.00     0.013 C 
ENDBRANCH   7   8
ENDBRANCH   1   7
TORSDOF 2
ENDMDL
