MODEL 1
REMARK minimizedAffinity 1.44218767
REMARK minimizedRMSD -1
REMARK  2 active torsions:
REMARK  status: ('A' for Active; 'I' for Inactive)
REMARK    1  A    between atoms: C2'_3  and  C1'_4 
REMARK    2  A    between atoms: C1'_4  and  C1_5 
ROOT
ATOM      1  C1  I4B d   1       0.342  -1.837   0.833  0.00  0.00    -0.075 A 
ATOM      2  C2  I4B d   1       0.534  -1.823   2.192  0.00  0.00     0.003 A 
ATOM      3  C3  I4B d   1       1.077  -0.679   2.824  0.00  0.00     0.002 A 
ATOM      4  C4  I4B d   1       1.459   0.404   2.058  0.00  0.00    -0.004 A 
ATOM      5  C5  I4B d   1       1.243   0.397   0.683  0.00  0.00     0.002 A 
ATOM      6  C6  I4B d   1       0.670  -0.725   0.068  0.00  0.00     0.003 A 
ENDROOT
BRANCH   1   7
ATOM      7  C1' I4B d   1      -0.203  -3.075   0.194  0.00  0.00     0.060 C 
BRANCH   7   8
ATOM      8  C2' I4B d   1       0.749  -3.489  -0.909  0.00  0.00    -0.013 C 
ATOM      9  C4' I4B d   1       2.038  -4.025  -0.345  0.00  0.00     0.013 C 
ATOM     10  C3' I4B d   1       0.059  -4.517  -1.755  0.00  0.00     0.013 C 
ENDBRANCH   7   8
ENDBRANCH   1   7
TORSDOF 2
ENDMDL
