MODEL 1
REMARK minimizedAffinity 1.40698028
REMARK minimizedRMSD -1
REMARK  2 active torsions:
REMARK  status: ('A' for Active; 'I' for Inactive)
REMARK    1  A    between atoms: C2'_3  and  C1'_4 
REMARK    2  A    between atoms: C1'_4  and  C1_5 
ROOT
ATOM      1  C1  I4B d   1       0.569  -1.846   0.495  0.00  0.00    -0.075 A 
ATOM      2  C2  I4B d   1       1.768  -1.182   0.553  0.00  0.00     0.003 A 
ATOM      3  C3  I4B d   1       2.941  -1.782   0.033  0.00  0.00     0.002 A 
ATOM      4  C4  I4B d   1       2.878  -3.059  -0.486  0.00  0.00    -0.004 A 
ATOM      5  C5  I4B d   1       1.656  -3.722  -0.565  0.00  0.00     0.002 A 
ATOM      6  C6  I4B d   1       0.492  -3.107  -0.082  0.00  0.00     0.003 A 
ENDROOT
BRANCH   1   7
ATOM      7  C1' I4B d   1      -0.644  -1.196   1.083  0.00  0.00     0.060 C 
BRANCH   7   8
ATOM      8  C2' I4B d   1      -0.187   0.007   1.883  0.00  0.00    -0.013 C 
ATOM      9  C4' I4B d   1      -1.039   1.213   1.588  0.00  0.00     0.013 C 
ATOM     10  C3' I4B d   1      -0.244  -0.354   3.337  0.00  0.00     0.013 C 
ENDBRANCH   7   8
ENDBRANCH   1   7
TORSDOF 2
ENDMDL
