MODEL 1
REMARK minimizedAffinity 1.52170503
REMARK minimizedRMSD -1
REMARK  2 active torsions:
REMARK  status: ('A' for Active; 'I' for Inactive)
REMARK    1  A    between atoms: C2'_3  and  C1'_4 
REMARK    2  A    between atoms: C1'_4  and  C1_5 
ROOT
ATOM      1  C1  I4B d   1       1.385  -2.502  -0.139  0.00  0.00    -0.075 A 
ATOM      2  C2  I4B d   1       0.014  -2.566  -0.139  0.00  0.00     0.003 A 
ATOM      3  C3  I4B d   1      -0.748  -1.527   0.449  0.00  0.00     0.002 A 
ATOM      4  C4  I4B d   1      -0.101  -0.475   1.065  0.00  0.00    -0.004 A 
ATOM      5  C5  I4B d   1       1.289  -0.400   1.044  0.00  0.00     0.002 A 
ATOM      6  C6  I4B d   1       2.037  -1.414   0.427  0.00  0.00     0.003 A 
ENDROOT
BRANCH   1   7
ATOM      7  C1' I4B d   1       2.159  -3.632  -0.740  0.00  0.00     0.060 C 
BRANCH   7   8
ATOM      8  C2' I4B d   1       3.450  -3.780   0.040  0.00  0.00    -0.013 C 
ATOM      9  C4' I4B d   1       4.188  -5.030  -0.360  0.00  0.00     0.013 C 
ATOM     10  C3' I4B d   1       4.283  -2.557  -0.208  0.00  0.00     0.013 C 
ENDBRANCH   7   8
ENDBRANCH   1   7
TORSDOF 2
ENDMDL
