MODEL 1
REMARK minimizedAffinity -1.52604938
REMARK minimizedRMSD -1
REMARK  2 active torsions:
REMARK  status: ('A' for Active; 'I' for Inactive)
REMARK    1  A    between atoms: C1_2  and  C2_3 
REMARK    2  A    between atoms: C2_3  and  C3_4 
ROOT
ATOM      1  C3  UNL d   1      -0.993   0.405   1.701  0.00  0.00    -0.075 A 
ATOM      2  C4  UNL d   1      -1.864   1.379   2.212  0.00  0.00     0.002 A 
ATOM      3  C5  UNL d   1      -2.162   2.522   1.470  0.00  0.00     0.002 A 
ATOM      4  C6  UNL d   1      -1.587   2.710   0.215  0.00  0.00    -0.004 A 
ATOM      5  C7  UNL d   1      -0.708   1.757  -0.296  0.00  0.00     0.002 A 
ATOM      6  C8  UNL d   1      -0.412   0.611   0.443  0.00  0.00     0.002 A 
ENDROOT
BRANCH   1   7
ATOM      7  C2  UNL d   1      -0.690  -0.849   2.487  0.00  0.00     0.056 C 
BRANCH   7   8
ATOM      8  C1  UNL d   1      -1.842  -1.319   3.380  0.00  0.00     0.007 C 
ATOM      9  C   UNL d   1      -1.728  -2.783   3.786  0.00  0.00     0.009 C 
ENDBRANCH   7   8
ENDBRANCH   1   7
TORSDOF 2
ENDMDL
