MODEL 1
REMARK minimizedAffinity 6.20531797
REMARK minimizedRMSD -1
REMARK  2 active torsions:
REMARK  status: ('A' for Active; 'I' for Inactive)
REMARK    1  A    between atoms: C1_2  and  C2_3 
REMARK    2  A    between atoms: C2_3  and  C3_4 
ROOT
ATOM      1  C3  UNL d   1      -0.707   1.842  -0.313  0.00  0.00    -0.075 A 
ATOM      2  C4  UNL d   1      -2.011   2.327  -0.487  0.00  0.00     0.002 A 
ATOM      3  C5  UNL d   1      -2.853   2.505   0.611  0.00  0.00     0.002 A 
ATOM      4  C6  UNL d   1      -2.408   2.192   1.893  0.00  0.00    -0.004 A 
ATOM      5  C7  UNL d   1      -1.119   1.694   2.076  0.00  0.00     0.002 A 
ATOM      6  C8  UNL d   1      -0.273   1.519   0.980  0.00  0.00     0.002 A 
ENDROOT
BRANCH   1   7
ATOM      7  C2  UNL d   1       0.220   1.675  -1.493  0.00  0.00     0.056 C 
BRANCH   7   8
ATOM      8  C1  UNL d   1       1.134   0.449  -1.400  0.00  0.00     0.007 C 
ATOM      9  C   UNL d   1       0.906  -0.556  -2.521  0.00  0.00     0.009 C 
ENDBRANCH   7   8
ENDBRANCH   1   7
TORSDOF 2
ENDMDL
