MODEL 1
REMARK minimizedAffinity -0.691960394
REMARK minimizedRMSD -1
REMARK  2 active torsions:
REMARK  status: ('A' for Active; 'I' for Inactive)
REMARK    1  A    between atoms: C1_2  and  C2_3 
REMARK    2  A    between atoms: C2_3  and  C3_4 
ROOT
ATOM      1  C3  UNL d   1      -3.287   0.580   0.976  0.00  0.00    -0.075 A 
ATOM      2  C4  UNL d   1      -2.066   0.113   1.483  0.00  0.00     0.002 A 
ATOM      3  C5  UNL d   1      -1.226   0.964   2.203  0.00  0.00     0.002 A 
ATOM      4  C6  UNL d   1      -1.590   2.292   2.415  0.00  0.00    -0.004 A 
ATOM      5  C7  UNL d   1      -2.794   2.771   1.902  0.00  0.00     0.002 A 
ATOM      6  C8  UNL d   1      -3.638   1.920   1.185  0.00  0.00     0.002 A 
ENDROOT
BRANCH   1   7
ATOM      7  C2  UNL d   1      -4.214  -0.343   0.223  0.00  0.00     0.056 C 
BRANCH   7   8
ATOM      8  C1  UNL d   1      -4.392  -1.718   0.875  0.00  0.00     0.007 C 
ATOM      9  C   UNL d   1      -5.774  -2.316   0.649  0.00  0.00     0.009 C 
ENDBRANCH   7   8
ENDBRANCH   1   7
TORSDOF 2
ENDMDL
