MODEL 1
REMARK minimizedAffinity 7.31570101
REMARK minimizedRMSD -1
REMARK  2 active torsions:
REMARK  status: ('A' for Active; 'I' for Inactive)
REMARK    1  A    between atoms: C1_2  and  C2_3 
REMARK    2  A    between atoms: C2_3  and  C3_4 
ROOT
ATOM      1  C3  UNL d   1      -1.355   1.952   1.653  0.00  0.00    -0.075 A 
ATOM      2  C4  UNL d   1      -2.564   2.515   1.219  0.00  0.00     0.002 A 
ATOM      3  C5  UNL d   1      -2.738   2.875  -0.117  0.00  0.00     0.002 A 
ATOM      4  C6  UNL d   1      -1.705   2.687  -1.033  0.00  0.00    -0.004 A 
ATOM      5  C7  UNL d   1      -0.494   2.144  -0.609  0.00  0.00     0.002 A 
ATOM      6  C8  UNL d   1      -0.319   1.778   0.726  0.00  0.00     0.002 A 
ENDROOT
BRANCH   1   7
ATOM      7  C2  UNL d   1      -1.171   1.533   3.092  0.00  0.00     0.056 C 
BRANCH   7   8
ATOM      8  C1  UNL d   1      -0.604   2.634   3.995  0.00  0.00     0.007 C 
ATOM      9  C   UNL d   1       0.664   3.271   3.442  0.00  0.00     0.009 C 
ENDBRANCH   7   8
ENDBRANCH   1   7
TORSDOF 2
ENDMDL
