MODEL 1
REMARK minimizedAffinity 11.3385448
REMARK minimizedRMSD -1
REMARK  2 active torsions:
REMARK  status: ('A' for Active; 'I' for Inactive)
REMARK    1  A    between atoms: C1_2  and  C2_3 
REMARK    2  A    between atoms: C2_3  and  C3_4 
ROOT
ATOM      1  C3  UNL d   1      -0.970  -0.657   3.381  0.00  0.00    -0.075 A 
ATOM      2  C4  UNL d   1       0.342  -0.167   3.306  0.00  0.00     0.002 A 
ATOM      3  C5  UNL d   1       0.584   1.156   2.935  0.00  0.00     0.002 A 
ATOM      4  C6  UNL d   1      -0.479   2.001   2.625  0.00  0.00    -0.004 A 
ATOM      5  C7  UNL d   1      -1.786   1.520   2.680  0.00  0.00     0.002 A 
ATOM      6  C8  UNL d   1      -2.031   0.198   3.056  0.00  0.00     0.002 A 
ENDROOT
BRANCH   1   7
ATOM      7  C2  UNL d   1      -1.240  -2.079   3.811  0.00  0.00     0.056 C 
BRANCH   7   8
ATOM      8  C1  UNL d   1      -0.029  -3.010   3.685  0.00  0.00     0.007 C 
ATOM      9  C   UNL d   1       0.653  -3.291   5.017  0.00  0.00     0.009 C 
ENDBRANCH   7   8
ENDBRANCH   1   7
TORSDOF 2
ENDMDL
