MODEL 1
REMARK minimizedAffinity 5.36702442
REMARK minimizedRMSD -1
REMARK  2 active torsions:
REMARK  status: ('A' for Active; 'I' for Inactive)
REMARK    1  A    between atoms: C1_2  and  C2_3 
REMARK    2  A    between atoms: C2_3  and  C3_4 
ROOT
ATOM      1  C3  UNL d   1      -1.291   0.524   2.319  0.00  0.00    -0.075 A 
ATOM      2  C4  UNL d   1      -2.395   1.322   2.653  0.00  0.00     0.002 A 
ATOM      3  C5  UNL d   1      -2.768   2.391   1.837  0.00  0.00     0.002 A 
ATOM      4  C6  UNL d   1      -2.038   2.682   0.687  0.00  0.00    -0.004 A 
ATOM      5  C7  UNL d   1      -0.930   1.905   0.355  0.00  0.00     0.002 A 
ATOM      6  C8  UNL d   1      -0.557   0.832   1.167  0.00  0.00     0.002 A 
ENDROOT
BRANCH   1   7
ATOM      7  C2  UNL d   1      -0.900  -0.653   3.181  0.00  0.00     0.056 C 
BRANCH   7   8
ATOM      8  C1  UNL d   1      -2.027  -1.669   3.399  0.00  0.00     0.007 C 
ATOM      9  C   UNL d   1      -1.554  -2.958   4.057  0.00  0.00     0.009 C 
ENDBRANCH   7   8
ENDBRANCH   1   7
TORSDOF 2
ENDMDL
