MODEL 1
REMARK minimizedAffinity 7.8626442
REMARK minimizedRMSD -1
REMARK  2 active torsions:
REMARK  status: ('A' for Active; 'I' for Inactive)
REMARK    1  A    between atoms: C1_2  and  C2_3 
REMARK    2  A    between atoms: C2_3  and  C3_4 
ROOT
ATOM      1  C3  UNL d   1       3.744  -3.303  -4.497  0.00  0.00    -0.075 A 
ATOM      2  C4  UNL d   1       4.979  -2.641  -4.551  0.00  0.00     0.002 A 
ATOM      3  C5  UNL d   1       5.999  -2.969  -3.657  0.00  0.00     0.002 A 
ATOM      4  C6  UNL d   1       5.793  -3.953  -2.693  0.00  0.00    -0.004 A 
ATOM      5  C7  UNL d   1       4.564  -4.606  -2.618  0.00  0.00     0.002 A 
ATOM      6  C8  UNL d   1       3.544  -4.282  -3.515  0.00  0.00     0.002 A 
ENDROOT
BRANCH   1   7
ATOM      7  C2  UNL d   1       2.647  -2.973  -5.480  0.00  0.00     0.056 C 
BRANCH   7   8
ATOM      8  C1  UNL d   1       2.308  -1.481  -5.560  0.00  0.00     0.007 C 
ATOM      9  C   UNL d   1       1.186  -1.068  -4.617  0.00  0.00     0.009 C 
ENDBRANCH   7   8
ENDBRANCH   1   7
TORSDOF 2
ENDMDL
