MODEL 1
REMARK minimizedAffinity 0.7984218
REMARK minimizedRMSD -1
REMARK  2 active torsions:
REMARK  status: ('A' for Active; 'I' for Inactive)
REMARK    1  A    between atoms: C1_2  and  C2_3 
REMARK    2  A    between atoms: C2_3  and  C3_4 
ROOT
ATOM      1  C3  UNL d   1      -0.801   1.130   0.791  0.00  0.00    -0.075 A 
ATOM      2  C4  UNL d   1       0.405   0.915   0.108  0.00  0.00     0.002 A 
ATOM      3  C5  UNL d   1       0.693   1.618  -1.062  0.00  0.00     0.002 A 
ATOM      4  C6  UNL d   1      -0.225   2.536  -1.569  0.00  0.00    -0.004 A 
ATOM      5  C7  UNL d   1      -1.433   2.746  -0.908  0.00  0.00     0.002 A 
ATOM      6  C8  UNL d   1      -1.721   2.046   0.265  0.00  0.00     0.002 A 
ENDROOT
BRANCH   1   7
ATOM      7  C2  UNL d   1      -1.104   0.393   2.074  0.00  0.00     0.056 C 
BRANCH   7   8
ATOM      8  C1  UNL d   1      -1.455   1.309   3.251  0.00  0.00     0.007 C 
ATOM      9  C   UNL d   1      -0.304   2.212   3.673  0.00  0.00     0.009 C 
ENDBRANCH   7   8
ENDBRANCH   1   7
TORSDOF 2
ENDMDL
