MODEL 1
REMARK minimizedAffinity 7.21405602
REMARK minimizedRMSD -1
REMARK  2 active torsions:
REMARK  status: ('A' for Active; 'I' for Inactive)
REMARK    1  A    between atoms: C1_2  and  C2_3 
REMARK    2  A    between atoms: C2_3  and  C3_4 
ROOT
ATOM      1  C3  UNL d   1      -1.081   1.603  -1.025  0.00  0.00    -0.075 A 
ATOM      2  C4  UNL d   1      -2.005   0.801  -1.712  0.00  0.00     0.002 A 
ATOM      3  C5  UNL d   1      -1.567  -0.170  -2.612  0.00  0.00     0.002 A 
ATOM      4  C6  UNL d   1      -0.205  -0.345  -2.846  0.00  0.00    -0.004 A 
ATOM      5  C7  UNL d   1       0.721   0.457  -2.182  0.00  0.00     0.002 A 
ATOM      6  C8  UNL d   1       0.286   1.427  -1.277  0.00  0.00     0.002 A 
ENDROOT
BRANCH   1   7
ATOM      7  C2  UNL d   1      -1.547   2.636  -0.027  0.00  0.00     0.056 C 
BRANCH   7   8
ATOM      8  C1  UNL d   1      -2.175   2.042   1.238  0.00  0.00     0.007 C 
ATOM      9  C   UNL d   1      -1.176   1.848   2.370  0.00  0.00     0.009 C 
ENDBRANCH   7   8
ENDBRANCH   1   7
TORSDOF 2
ENDMDL
