MODEL 1
REMARK minimizedAffinity 7.3729372
REMARK minimizedRMSD -1
REMARK  2 active torsions:
REMARK  status: ('A' for Active; 'I' for Inactive)
REMARK    1  A    between atoms: C1_2  and  C2_3 
REMARK    2  A    between atoms: C2_3  and  C3_4 
ROOT
ATOM      1  C3  UNL d   1      -0.531   1.926   2.296  0.00  0.00    -0.075 A 
ATOM      2  C4  UNL d   1      -0.622   2.945   1.337  0.00  0.00     0.002 A 
ATOM      3  C5  UNL d   1      -1.847   3.251   0.744  0.00  0.00     0.002 A 
ATOM      4  C6  UNL d   1      -2.992   2.538   1.094  0.00  0.00    -0.004 A 
ATOM      5  C7  UNL d   1      -2.909   1.513   2.034  0.00  0.00     0.002 A 
ATOM      6  C8  UNL d   1      -1.686   1.207   2.632  0.00  0.00     0.002 A 
ENDROOT
BRANCH   1   7
ATOM      7  C2  UNL d   1       0.787   1.609   2.963  0.00  0.00     0.056 C 
BRANCH   7   8
ATOM      8  C1  UNL d   1       1.105   0.112   3.035  0.00  0.00     0.007 C 
ATOM      9  C   UNL d   1       2.305  -0.288   2.187  0.00  0.00     0.009 C 
ENDBRANCH   7   8
ENDBRANCH   1   7
TORSDOF 2
ENDMDL
