MODEL 1
REMARK minimizedAffinity 1.6641773
REMARK minimizedRMSD -1
REMARK  2 active torsions:
REMARK  status: ('A' for Active; 'I' for Inactive)
REMARK    1  A    between atoms: C1_2  and  C2_3 
REMARK    2  A    between atoms: C2_3  and  C3_4 
ROOT
ATOM      1  C3  UNL d   1       3.567  -3.452   0.775  0.00  0.00    -0.075 A 
ATOM      2  C4  UNL d   1       3.537  -2.059   0.933  0.00  0.00     0.002 A 
ATOM      3  C5  UNL d   1       4.723  -1.332   1.037  0.00  0.00     0.002 A 
ATOM      4  C6  UNL d   1       5.952  -1.988   0.994  0.00  0.00    -0.004 A 
ATOM      5  C7  UNL d   1       5.993  -3.373   0.853  0.00  0.00     0.002 A 
ATOM      6  C8  UNL d   1       4.808  -4.103   0.745  0.00  0.00     0.002 A 
ENDROOT
BRANCH   1   7
ATOM      7  C2  UNL d   1       2.287  -4.241   0.633  0.00  0.00     0.056 C 
BRANCH   7   8
ATOM      8  C1  UNL d   1       1.868  -4.494  -0.819  0.00  0.00     0.007 C 
ATOM      9  C   UNL d   1       3.050  -4.650  -1.767  0.00  0.00     0.009 C 
ENDBRANCH   7   8
ENDBRANCH   1   7
TORSDOF 2
ENDMDL
