MODEL 1
REMARK minimizedAffinity 9.73220062
REMARK minimizedRMSD -1
REMARK  2 active torsions:
REMARK  status: ('A' for Active; 'I' for Inactive)
REMARK    1  A    between atoms: C1_2  and  C2_3 
REMARK    2  A    between atoms: C2_3  and  C3_4 
ROOT
ATOM      1  C3  UNL d   1       1.351  -3.718  -2.092  0.00  0.00    -0.075 A 
ATOM      2  C4  UNL d   1       2.752  -3.774  -2.046  0.00  0.00     0.002 A 
ATOM      3  C5  UNL d   1       3.431  -4.905  -2.501  0.00  0.00     0.002 A 
ATOM      4  C6  UNL d   1       2.720  -5.996  -2.996  0.00  0.00    -0.004 A 
ATOM      5  C7  UNL d   1       1.328  -5.958  -3.030  0.00  0.00     0.002 A 
ATOM      6  C8  UNL d   1       0.646  -4.826  -2.581  0.00  0.00     0.002 A 
ENDROOT
BRANCH   1   7
ATOM      7  C2  UNL d   1       0.612  -2.485  -1.629  0.00  0.00     0.056 C 
BRANCH   7   8
ATOM      8  C1  UNL d   1       0.415  -1.429  -2.722  0.00  0.00     0.007 C 
ATOM      9  C   UNL d   1      -1.042  -1.031  -2.917  0.00  0.00     0.009 C 
ENDBRANCH   7   8
ENDBRANCH   1   7
TORSDOF 2
ENDMDL
