MODEL 1
REMARK minimizedAffinity -4.30145645
REMARK minimizedRMSD -1
REMARK  1 active torsions:
REMARK  status: ('A' for Active; 'I' for Inactive)
REMARK    1  A    between atoms: C1_2  and  C2_3 
ROOT
ATOM      1  C2  UNL d   1      -3.928  -3.343  -5.039  0.00  0.00    -0.077 A 
ATOM      2  C3  UNL d   1      -3.750  -2.316  -5.977  0.00  0.00     0.002 A 
ATOM      3  C4  UNL d   1      -4.615  -1.220  -5.997  0.00  0.00     0.002 A 
ATOM      4  C5  UNL d   1      -5.662  -1.139  -5.081  0.00  0.00    -0.004 A 
ATOM      5  C6  UNL d   1      -5.848  -2.156  -4.145  0.00  0.00     0.002 A 
ATOM      6  C7  UNL d   1      -4.985  -3.252  -4.124  0.00  0.00     0.002 A 
ENDROOT
BRANCH   1   7
ATOM      7  C1  UNL d   1      -2.967  -4.501  -4.983  0.00  0.00     0.055 C 
ATOM      8  C   UNL d   1      -3.373  -5.605  -5.947  0.00  0.00     0.019 C 
ENDBRANCH   1   7
TORSDOF 1
ENDMDL
