MODEL 1
REMARK minimizedAffinity -2.43923354
REMARK minimizedRMSD -1
REMARK  1 active torsions:
REMARK  status: ('A' for Active; 'I' for Inactive)
REMARK    1  A    between atoms: C1_2  and  C2_3 
ROOT
ATOM      1  C2  UNL d   1      -4.043  -5.034  -5.090  0.00  0.00    -0.077 A 
ATOM      2  C3  UNL d   1      -5.026  -4.621  -6.000  0.00  0.00     0.002 A 
ATOM      3  C4  UNL d   1      -5.999  -3.696  -5.616  0.00  0.00     0.002 A 
ATOM      4  C5  UNL d   1      -5.996  -3.174  -4.324  0.00  0.00    -0.004 A 
ATOM      5  C6  UNL d   1      -5.023  -3.580  -3.412  0.00  0.00     0.002 A 
ATOM      6  C7  UNL d   1      -4.050  -4.505  -3.793  0.00  0.00     0.002 A 
ENDROOT
BRANCH   1   7
ATOM      7  C1  UNL d   1      -2.963  -5.994  -5.517  0.00  0.00     0.055 C 
ATOM      8  C   UNL d   1      -1.723  -5.254  -5.998  0.00  0.00     0.019 C 
ENDBRANCH   1   7
TORSDOF 1
ENDMDL
