MODEL 1
REMARK minimizedAffinity -3.10160446
REMARK minimizedRMSD -1
REMARK  1 active torsions:
REMARK  status: ('A' for Active; 'I' for Inactive)
REMARK    1  A    between atoms: C1_2  and  C2_3 
ROOT
ATOM      1  C2  UNL d   1      -4.867  -3.690  -5.822  0.00  0.00    -0.077 A 
ATOM      2  C3  UNL d   1      -5.136  -5.065  -5.884  0.00  0.00     0.002 A 
ATOM      3  C4  UNL d   1      -4.090  -5.985  -5.975  0.00  0.00     0.002 A 
ATOM      4  C5  UNL d   1      -2.769  -5.541  -5.999  0.00  0.00    -0.004 A 
ATOM      5  C6  UNL d   1      -2.492  -4.176  -5.939  0.00  0.00     0.002 A 
ATOM      6  C7  UNL d   1      -3.536  -3.255  -5.850  0.00  0.00     0.002 A 
ENDROOT
BRANCH   1   7
ATOM      7  C1  UNL d   1      -5.992  -2.698  -5.674  0.00  0.00     0.055 C 
ATOM      8  C   UNL d   1      -5.999  -2.071  -4.288  0.00  0.00     0.019 C 
ENDBRANCH   1   7
TORSDOF 1
ENDMDL
