MODEL 1
REMARK minimizedAffinity 1.36707616
REMARK minimizedRMSD -1
REMARK  1 active torsions:
REMARK  status: ('A' for Active; 'I' for Inactive)
REMARK    1  A    between atoms: C1_2  and  C2_3 
ROOT
ATOM      1  C2  UNL d   1      -3.530  -5.070  -4.815  0.00  0.00    -0.077 A 
ATOM      2  C3  UNL d   1      -4.259  -4.897  -3.630  0.00  0.00     0.002 A 
ATOM      3  C4  UNL d   1      -5.447  -4.164  -3.632  0.00  0.00     0.002 A 
ATOM      4  C5  UNL d   1      -5.919  -3.602  -4.816  0.00  0.00    -0.004 A 
ATOM      5  C6  UNL d   1      -5.200  -3.766  -5.999  0.00  0.00     0.002 A 
ATOM      6  C7  UNL d   1      -4.012  -4.498  -5.999  0.00  0.00     0.002 A 
ENDROOT
BRANCH   1   7
ATOM      7  C1  UNL d   1      -2.274  -5.902  -4.824  0.00  0.00     0.055 C 
ATOM      8  C   UNL d   1      -1.349  -5.494  -5.961  0.00  0.00     0.019 C 
ENDBRANCH   1   7
TORSDOF 1
ENDMDL
