MODEL 1
REMARK minimizedAffinity 0.516027451
REMARK minimizedRMSD -1
REMARK  1 active torsions:
REMARK  status: ('A' for Active; 'I' for Inactive)
REMARK    1  A    between atoms: C1_2  and  C2_3 
ROOT
ATOM      1  C2  UNL d   1      -5.299  -2.864  -4.372  0.00  0.00    -0.077 A 
ATOM      2  C3  UNL d   1      -6.000  -3.587  -5.347  0.00  0.00     0.002 A 
ATOM      3  C4  UNL d   1      -5.396  -4.664  -5.998  0.00  0.00     0.002 A 
ATOM      4  C5  UNL d   1      -4.090  -5.030  -5.678  0.00  0.00    -0.004 A 
ATOM      5  C6  UNL d   1      -3.383  -4.316  -4.712  0.00  0.00     0.002 A 
ATOM      6  C7  UNL d   1      -3.985  -3.238  -4.061  0.00  0.00     0.002 A 
ENDROOT
BRANCH   1   7
ATOM      7  C1  UNL d   1      -5.965  -1.732  -3.634  0.00  0.00     0.055 C 
ATOM      8  C   UNL d   1      -5.988  -0.462  -4.471  0.00  0.00     0.019 C 
ENDBRANCH   1   7
TORSDOF 1
ENDMDL
