MODEL 1
REMARK minimizedAffinity -2.31288242
REMARK minimizedRMSD -1
REMARK  1 active torsions:
REMARK  status: ('A' for Active; 'I' for Inactive)
REMARK    1  A    between atoms: C1_2  and  C2_3 
ROOT
ATOM      1  C2  UNL d   1      -2.809  -5.265  -5.824  0.00  0.00    -0.077 A 
ATOM      2  C3  UNL d   1      -2.893  -3.878  -5.637  0.00  0.00     0.002 A 
ATOM      3  C4  UNL d   1      -4.135  -3.240  -5.627  0.00  0.00     0.002 A 
ATOM      4  C5  UNL d   1      -5.302  -3.982  -5.800  0.00  0.00    -0.004 A 
ATOM      5  C6  UNL d   1      -5.229  -5.361  -5.989  0.00  0.00     0.002 A 
ATOM      6  C7  UNL d   1      -3.988  -6.000  -6.000  0.00  0.00     0.002 A 
ENDROOT
BRANCH   1   7
ATOM      7  C1  UNL d   1      -1.474  -5.961  -5.785  0.00  0.00     0.055 C 
ATOM      8  C   UNL d   1      -0.911  -6.000  -4.372  0.00  0.00     0.019 C 
ENDBRANCH   1   7
TORSDOF 1
ENDMDL
