MODEL 1
REMARK minimizedAffinity -3.07224989
REMARK minimizedRMSD -1
REMARK  1 active torsions:
REMARK  status: ('A' for Active; 'I' for Inactive)
REMARK    1  A    between atoms: C1_2  and  C2_3 
ROOT
ATOM      1  C2  UNL d   1      -4.881  -3.867  -4.961  0.00  0.00    -0.077 A 
ATOM      2  C3  UNL d   1      -3.594  -3.834  -4.408  0.00  0.00     0.002 A 
ATOM      3  C4  UNL d   1      -2.694  -4.874  -4.648  0.00  0.00     0.002 A 
ATOM      4  C5  UNL d   1      -3.071  -5.952  -5.446  0.00  0.00    -0.004 A 
ATOM      5  C6  UNL d   1      -4.350  -5.996  -6.000  0.00  0.00     0.002 A 
ATOM      6  C7  UNL d   1      -5.251  -4.958  -5.759  0.00  0.00     0.002 A 
ENDROOT
BRANCH   1   7
ATOM      7  C1  UNL d   1      -5.836  -2.723  -4.743  0.00  0.00     0.055 C 
ATOM      8  C   UNL d   1      -6.000  -2.413  -3.262  0.00  0.00     0.019 C 
ENDBRANCH   1   7
TORSDOF 1
ENDMDL
