MODEL 1
REMARK minimizedAffinity -3.48716235
REMARK minimizedRMSD -1
REMARK  1 active torsions:
REMARK  status: ('A' for Active; 'I' for Inactive)
REMARK    1  A    between atoms: C1_2  and  C2_3 
ROOT
ATOM      1  C2  UNL d   1      -3.518  -5.326  -5.600  0.00  0.00    -0.077 A 
ATOM      2  C3  UNL d   1      -4.720  -5.930  -5.994  0.00  0.00     0.002 A 
ATOM      3  C4  UNL d   1      -5.945  -5.338  -5.680  0.00  0.00     0.002 A 
ATOM      4  C5  UNL d   1      -5.980  -4.137  -4.975  0.00  0.00    -0.004 A 
ATOM      5  C6  UNL d   1      -4.790  -3.529  -4.577  0.00  0.00     0.002 A 
ATOM      6  C7  UNL d   1      -3.565  -4.120  -4.888  0.00  0.00     0.002 A 
ENDROOT
BRANCH   1   7
ATOM      7  C1  UNL d   1      -2.195  -5.937  -5.980  0.00  0.00     0.055 C 
ATOM      8  C   UNL d   1      -1.061  -5.371  -5.138  0.00  0.00     0.019 C 
ENDBRANCH   1   7
TORSDOF 1
ENDMDL
