MODEL 1
REMARK minimizedAffinity -1.88899803
REMARK minimizedRMSD -1
REMARK  1 active torsions:
REMARK  status: ('A' for Active; 'I' for Inactive)
REMARK    1  A    between atoms: C1_2  and  C2_3 
ROOT
ATOM      1  C2  UNL d   1      -3.256  -4.952  -4.761  0.00  0.00    -0.077 A 
ATOM      2  C3  UNL d   1      -3.741  -4.183  -3.694  0.00  0.00     0.002 A 
ATOM      3  C4  UNL d   1      -4.989  -3.562  -3.781  0.00  0.00     0.002 A 
ATOM      4  C5  UNL d   1      -5.763  -3.708  -4.930  0.00  0.00    -0.004 A 
ATOM      5  C6  UNL d   1      -5.288  -4.469  -5.997  0.00  0.00     0.002 A 
ATOM      6  C7  UNL d   1      -4.041  -5.089  -5.913  0.00  0.00     0.002 A 
ENDROOT
BRANCH   1   7
ATOM      7  C1  UNL d   1      -1.932  -5.662  -4.650  0.00  0.00     0.055 C 
ATOM      8  C   UNL d   1      -1.192  -5.665  -5.980  0.00  0.00     0.019 C 
ENDBRANCH   1   7
TORSDOF 1
ENDMDL
