MODEL 1
REMARK minimizedAffinity -3.52552629
REMARK minimizedRMSD -1
REMARK  1 active torsions:
REMARK  status: ('A' for Active; 'I' for Inactive)
REMARK    1  A    between atoms: C1_2  and  C2_3 
ROOT
ATOM      1  C2  UNL d   1      -4.914  -4.090  -4.554  0.00  0.00    -0.077 A 
ATOM      2  C3  UNL d   1      -5.108  -4.953  -5.641  0.00  0.00     0.002 A 
ATOM      3  C4  UNL d   1      -4.119  -5.871  -6.000  0.00  0.00     0.002 A 
ATOM      4  C5  UNL d   1      -2.931  -5.937  -5.275  0.00  0.00    -0.004 A 
ATOM      5  C6  UNL d   1      -2.727  -5.081  -4.193  0.00  0.00     0.002 A 
ATOM      6  C7  UNL d   1      -3.715  -4.162  -3.834  0.00  0.00     0.002 A 
ENDROOT
BRANCH   1   7
ATOM      7  C1  UNL d   1      -6.000  -3.133  -4.135  0.00  0.00     0.055 C 
ATOM      8  C   UNL d   1      -5.988  -1.874  -4.990  0.00  0.00     0.019 C 
ENDBRANCH   1   7
TORSDOF 1
ENDMDL
