MODEL 1
REMARK minimizedAffinity 0.322624952
REMARK minimizedRMSD -1
REMARK  1 active torsions:
REMARK  status: ('A' for Active; 'I' for Inactive)
REMARK    1  A    between atoms: C1_2  and  C2_3 
ROOT
ATOM      1  C2  UNL d   1       1.893   1.538  -3.481  0.00  0.00    -0.077 A 
ATOM      2  C3  UNL d   1       1.467   1.884  -4.771  0.00  0.00     0.002 A 
ATOM      3  C4  UNL d   1       0.312   2.647  -4.952  0.00  0.00     0.002 A 
ATOM      4  C5  UNL d   1      -0.424   3.074  -3.849  0.00  0.00    -0.004 A 
ATOM      5  C6  UNL d   1      -0.009   2.734  -2.562  0.00  0.00     0.002 A 
ATOM      6  C7  UNL d   1       1.144   1.970  -2.378  0.00  0.00     0.002 A 
ENDROOT
BRANCH   1   7
ATOM      7  C1  UNL d   1       3.165   0.757  -3.280  0.00  0.00     0.055 C 
ATOM      8  C   UNL d   1       4.150   1.517  -2.404  0.00  0.00     0.019 C 
ENDBRANCH   1   7
TORSDOF 1
ENDMDL
