MODEL 1
REMARK minimizedAffinity -1.83545959
REMARK minimizedRMSD -1
REMARK  1 active torsions:
REMARK  status: ('A' for Active; 'I' for Inactive)
REMARK    1  A    between atoms: C1_2  and  C2_3 
ROOT
ATOM      1  C2  UNL d   1      -3.032  -5.216  -4.961  0.00  0.00    -0.077 A 
ATOM      2  C3  UNL d   1      -1.800  -5.607  -5.504  0.00  0.00     0.002 A 
ATOM      3  C4  UNL d   1      -0.750  -5.994  -4.669  0.00  0.00     0.002 A 
ATOM      4  C5  UNL d   1      -0.923  -5.999  -3.286  0.00  0.00    -0.004 A 
ATOM      5  C6  UNL d   1      -2.144  -5.610  -2.736  0.00  0.00     0.002 A 
ATOM      6  C7  UNL d   1      -3.194  -5.221  -3.569  0.00  0.00     0.002 A 
ENDROOT
BRANCH   1   7
ATOM      7  C1  UNL d   1      -4.180  -4.845  -5.862  0.00  0.00     0.055 C 
ATOM      8  C   UNL d   1      -5.169  -5.993  -6.000  0.00  0.00     0.019 C 
ENDBRANCH   1   7
TORSDOF 1
ENDMDL
