MODEL 1
REMARK minimizedAffinity -2.80066681
REMARK minimizedRMSD -1
REMARK  1 active torsions:
REMARK  status: ('A' for Active; 'I' for Inactive)
REMARK    1  A    between atoms: C1_2  and  C2_3 
ROOT
ATOM      1  C2  UNL d   1      -4.961  -3.774  -5.258  0.00  0.00    -0.077 A 
ATOM      2  C3  UNL d   1      -5.283  -4.982  -5.893  0.00  0.00     0.002 A 
ATOM      3  C4  UNL d   1      -4.333  -5.999  -6.000  0.00  0.00     0.002 A 
ATOM      4  C5  UNL d   1      -3.056  -5.821  -5.471  0.00  0.00    -0.004 A 
ATOM      5  C6  UNL d   1      -2.725  -4.622  -4.839  0.00  0.00     0.002 A 
ATOM      6  C7  UNL d   1      -3.674  -3.604  -4.733  0.00  0.00     0.002 A 
ENDROOT
BRANCH   1   7
ATOM      7  C1  UNL d   1      -6.000  -2.695  -5.099  0.00  0.00     0.055 C 
ATOM      8  C   UNL d   1      -5.993  -2.125  -3.688  0.00  0.00     0.019 C 
ENDBRANCH   1   7
TORSDOF 1
ENDMDL
