MODEL 1
REMARK minimizedAffinity -2.43682957
REMARK minimizedRMSD -1
REMARK  1 active torsions:
REMARK  status: ('A' for Active; 'I' for Inactive)
REMARK    1  A    between atoms: C1_2  and  C2_3 
ROOT
ATOM      1  C2  UNL d   1      -3.529  -5.283  -5.596  0.00  0.00    -0.077 A 
ATOM      2  C3  UNL d   1      -3.612  -3.901  -5.372  0.00  0.00     0.002 A 
ATOM      3  C4  UNL d   1      -4.842  -3.246  -5.445  0.00  0.00     0.002 A 
ATOM      4  C5  UNL d   1      -6.000  -3.964  -5.737  0.00  0.00    -0.004 A 
ATOM      5  C6  UNL d   1      -5.928  -5.338  -5.963  0.00  0.00     0.002 A 
ATOM      6  C7  UNL d   1      -4.699  -5.995  -5.892  0.00  0.00     0.002 A 
ENDROOT
BRANCH   1   7
ATOM      7  C1  UNL d   1      -2.210  -6.000  -5.469  0.00  0.00     0.055 C 
ATOM      8  C   UNL d   1      -1.716  -6.000  -4.030  0.00  0.00     0.019 C 
ENDBRANCH   1   7
TORSDOF 1
ENDMDL
