MODEL 1
REMARK minimizedAffinity -2.98360562
REMARK minimizedRMSD -1
REMARK  1 active torsions:
REMARK  status: ('A' for Active; 'I' for Inactive)
REMARK    1  A    between atoms: C1_2  and  C2_3 
ROOT
ATOM      1  C2  UNL d   1      -3.203  -4.858  -5.167  0.00  0.00    -0.077 A 
ATOM      2  C3  UNL d   1      -3.917  -3.813  -4.562  0.00  0.00     0.002 A 
ATOM      3  C4  UNL d   1      -5.307  -3.749  -4.678  0.00  0.00     0.002 A 
ATOM      4  C5  UNL d   1      -5.995  -4.727  -5.393  0.00  0.00    -0.004 A 
ATOM      5  C6  UNL d   1      -5.293  -5.768  -5.999  0.00  0.00     0.002 A 
ATOM      6  C7  UNL d   1      -3.904  -5.834  -5.886  0.00  0.00     0.002 A 
ENDROOT
BRANCH   1   7
ATOM      7  C1  UNL d   1      -1.709  -4.956  -5.002  0.00  0.00     0.055 C 
ATOM      8  C   UNL d   1      -1.105  -5.935  -5.999  0.00  0.00     0.019 C 
ENDBRANCH   1   7
TORSDOF 1
ENDMDL
