MODEL 1
REMARK minimizedAffinity -3.50518966
REMARK minimizedRMSD -1
REMARK  1 active torsions:
REMARK  status: ('A' for Active; 'I' for Inactive)
REMARK    1  A    between atoms: C1_2  and  C2_3 
ROOT
ATOM      1  C2  UNL d   1      -4.298  -4.787  -5.298  0.00  0.00    -0.077 A 
ATOM      2  C3  UNL d   1      -3.435  -5.640  -6.000  0.00  0.00     0.002 A 
ATOM      3  C4  UNL d   1      -2.198  -5.995  -5.458  0.00  0.00     0.002 A 
ATOM      4  C5  UNL d   1      -1.815  -5.506  -4.211  0.00  0.00    -0.004 A 
ATOM      5  C6  UNL d   1      -2.666  -4.656  -3.506  0.00  0.00     0.002 A 
ATOM      6  C7  UNL d   1      -3.902  -4.298  -4.046  0.00  0.00     0.002 A 
ENDROOT
BRANCH   1   7
ATOM      7  C1  UNL d   1      -5.653  -4.441  -5.858  0.00  0.00     0.055 C 
ATOM      8  C   UNL d   1      -5.983  -2.972  -5.642  0.00  0.00     0.019 C 
ENDBRANCH   1   7
TORSDOF 1
ENDMDL
