MODEL 1
REMARK minimizedAffinity -5.16075897
REMARK minimizedRMSD -1
REMARK  1 active torsions:
REMARK  status: ('A' for Active; 'I' for Inactive)
REMARK    1  A    between atoms: C1_2  and  C2_3 
ROOT
ATOM      1  C2  UNL d   1      -0.036   0.591   0.248  0.00  0.00    -0.081 A 
ATOM      2  C3  UNL d   1       0.505  -0.699   0.181  0.00  0.00     0.006 A 
ATOM      3  C4  UNL d   1      -0.232  -1.800   0.623  0.00  0.00     0.002 A 
ATOM      4  C5  UNL d   1      -1.524  -1.632   1.131  0.00  0.00    -0.080 A 
ATOM      5  C6  UNL d   1      -2.337  -2.809   1.580  0.00  0.00     0.076 C 
ATOM      6  C7  UNL d   1      -2.059  -0.342   1.214  0.00  0.00     0.002 A 
ATOM      7  C8  UNL d   1      -1.322   0.760   0.773  0.00  0.00     0.006 A 
ENDROOT
BRANCH   1   8
ATOM      8  C1  UNL d   1       0.731   1.773  -0.287  0.00  0.00     0.054 C 
ATOM      9  C   UNL d   1       0.897   1.687  -1.797  0.00  0.00     0.018 C 
ENDBRANCH   1   8
TORSDOF 1
ENDMDL
