MODEL 1
REMARK minimizedAffinity -3.98240018
REMARK minimizedRMSD -1
REMARK  1 active torsions:
REMARK  status: ('A' for Active; 'I' for Inactive)
REMARK    1  A    between atoms: C1_2  and  C2_3 
ROOT
ATOM      1  C2  UNL d   1      -1.978  -1.064   1.319  0.00  0.00    -0.081 A 
ATOM      2  C3  UNL d   1      -1.255  -2.238   1.564  0.00  0.00     0.006 A 
ATOM      3  C4  UNL d   1       0.044  -2.385   1.072  0.00  0.00     0.002 A 
ATOM      4  C5  UNL d   1       0.644  -1.359   0.334  0.00  0.00    -0.080 A 
ATOM      5  C6  UNL d   1       2.049  -1.492  -0.174  0.00  0.00     0.076 C 
ATOM      6  C7  UNL d   1      -0.085  -0.193   0.075  0.00  0.00     0.002 A 
ATOM      7  C8  UNL d   1      -1.384  -0.046   0.566  0.00  0.00     0.006 A 
ENDROOT
BRANCH   1   8
ATOM      8  C1  UNL d   1      -3.355  -0.877   1.904  0.00  0.00     0.054 C 
ATOM      9  C   UNL d   1      -3.662   0.596   2.134  0.00  0.00     0.018 C 
ENDBRANCH   1   8
TORSDOF 1
ENDMDL
