MODEL 1
REMARK minimizedAffinity -4.98569298
REMARK minimizedRMSD -1
REMARK  1 active torsions:
REMARK  status: ('A' for Active; 'I' for Inactive)
REMARK    1  A    between atoms: C1_2  and  C2_3 
ROOT
ATOM      1  C2  UNL d   1       0.232   0.187  -0.031  0.00  0.00    -0.081 A 
ATOM      2  C3  UNL d   1       0.869  -1.026   0.257  0.00  0.00     0.006 A 
ATOM      3  C4  UNL d   1       0.142  -2.106   0.762  0.00  0.00     0.002 A 
ATOM      4  C5  UNL d   1      -1.236  -1.995   0.979  0.00  0.00    -0.080 A 
ATOM      5  C6  UNL d   1      -2.034  -3.156   1.492  0.00  0.00     0.076 C 
ATOM      6  C7  UNL d   1      -1.870  -0.777   0.708  0.00  0.00     0.002 A 
ATOM      7  C8  UNL d   1      -1.143   0.303   0.204  0.00  0.00     0.006 A 
ENDROOT
BRANCH   1   8
ATOM      8  C1  UNL d   1       1.002   1.333  -0.636  0.00  0.00     0.054 C 
ATOM      9  C   UNL d   1       0.204   2.016  -1.737  0.00  0.00     0.018 C 
ENDBRANCH   1   8
TORSDOF 1
ENDMDL
