MODEL 1
REMARK minimizedAffinity -3.29277325
REMARK minimizedRMSD -1
REMARK  1 active torsions:
REMARK  status: ('A' for Active; 'I' for Inactive)
REMARK    1  A    between atoms: C1_2  and  C2_3 
ROOT
ATOM      1  C2  UNL d   1       0.376   0.659  -1.440  0.00  0.00    -0.081 A 
ATOM      2  C3  UNL d   1       0.276   0.916  -0.068  0.00  0.00     0.006 A 
ATOM      3  C4  UNL d   1       0.120  -0.134   0.840  0.00  0.00     0.002 A 
ATOM      4  C5  UNL d   1       0.069  -1.458   0.392  0.00  0.00    -0.080 A 
ATOM      5  C6  UNL d   1      -0.068  -2.597   1.358  0.00  0.00     0.076 C 
ATOM      6  C7  UNL d   1       0.151  -1.714  -0.981  0.00  0.00     0.002 A 
ATOM      7  C8  UNL d   1       0.306  -0.664  -1.889  0.00  0.00     0.006 A 
ENDROOT
BRANCH   1   8
ATOM      8  C1  UNL d   1       0.609   1.785  -2.416  0.00  0.00     0.054 C 
ATOM      9  C   UNL d   1       1.092   1.260  -3.760  0.00  0.00     0.018 C 
ENDBRANCH   1   8
TORSDOF 1
ENDMDL
