MODEL 1
REMARK minimizedAffinity -5.43682337
REMARK minimizedRMSD -1
REMARK  1 active torsions:
REMARK  status: ('A' for Active; 'I' for Inactive)
REMARK    1  A    between atoms: C1_2  and  C2_3 
ROOT
ATOM      1  C2  UNL d   1       0.011   0.299   0.043  0.00  0.00    -0.081 A 
ATOM      2  C3  UNL d   1       0.332  -1.017  -0.309  0.00  0.00     0.006 A 
ATOM      3  C4  UNL d   1      -0.441  -2.084   0.156  0.00  0.00     0.002 A 
ATOM      4  C5  UNL d   1      -1.552  -1.851   0.973  0.00  0.00    -0.080 A 
ATOM      5  C6  UNL d   1      -2.408  -2.985   1.455  0.00  0.00     0.076 C 
ATOM      6  C7  UNL d   1      -1.863  -0.538   1.339  0.00  0.00     0.002 A 
ATOM      7  C8  UNL d   1      -1.090   0.529   0.875  0.00  0.00     0.006 A 
ENDROOT
BRANCH   1   8
ATOM      8  C1  UNL d   1       0.804   1.456  -0.509  0.00  0.00     0.054 C 
ATOM      9  C   UNL d   1       0.434   1.738  -1.959  0.00  0.00     0.018 C 
ENDBRANCH   1   8
TORSDOF 1
ENDMDL
