MODEL 1
REMARK minimizedAffinity -4.59720469
REMARK minimizedRMSD -1
REMARK  1 active torsions:
REMARK  status: ('A' for Active; 'I' for Inactive)
REMARK    1  A    between atoms: C1_2  and  C2_3 
ROOT
ATOM      1  C2  UNL d   1      -1.276  -0.777   1.289  0.00  0.00    -0.081 A 
ATOM      2  C3  UNL d   1      -1.614   0.576   1.169  0.00  0.00     0.006 A 
ATOM      3  C4  UNL d   1      -0.786   1.453   0.464  0.00  0.00     0.002 A 
ATOM      4  C5  UNL d   1       0.389   0.991  -0.138  0.00  0.00    -0.080 A 
ATOM      5  C6  UNL d   1       1.271   1.915  -0.924  0.00  0.00     0.076 C 
ATOM      6  C7  UNL d   1       0.736  -0.358  -0.004  0.00  0.00     0.002 A 
ATOM      7  C8  UNL d   1      -0.091  -1.235   0.702  0.00  0.00     0.006 A 
ENDROOT
BRANCH   1   8
ATOM      8  C1  UNL d   1      -2.199  -1.738   1.994  0.00  0.00     0.054 C 
ATOM      9  C   UNL d   1      -2.187  -3.106   1.326  0.00  0.00     0.018 C 
ENDBRANCH   1   8
TORSDOF 1
ENDMDL
