MODEL 1
REMARK minimizedAffinity -3.35437202
REMARK minimizedRMSD -1
REMARK  1 active torsions:
REMARK  status: ('A' for Active; 'I' for Inactive)
REMARK    1  A    between atoms: C1_2  and  C2_3 
ROOT
ATOM      1  C2  UNL d   1       0.531   0.432  -0.131  0.00  0.00    -0.081 A 
ATOM      2  C3  UNL d   1       1.095  -0.704   0.463  0.00  0.00     0.006 A 
ATOM      3  C4  UNL d   1       0.297  -1.801   0.792  0.00  0.00     0.002 A 
ATOM      4  C5  UNL d   1      -1.077  -1.785   0.526  0.00  0.00    -0.080 A 
ATOM      5  C6  UNL d   1      -1.940  -2.969   0.847  0.00  0.00     0.076 C 
ATOM      6  C7  UNL d   1      -1.643  -0.644  -0.051  0.00  0.00     0.002 A 
ATOM      7  C8  UNL d   1      -0.846   0.454  -0.380  0.00  0.00     0.006 A 
ENDROOT
BRANCH   1   8
ATOM      8  C1  UNL d   1       1.400   1.591  -0.547  0.00  0.00     0.054 C 
ATOM      9  C   UNL d   1       1.213   1.923  -2.021  0.00  0.00     0.018 C 
ENDBRANCH   1   8
TORSDOF 1
ENDMDL
