MODEL 1
REMARK minimizedAffinity -5.79896259
REMARK minimizedRMSD -1
REMARK  1 active torsions:
REMARK  status: ('A' for Active; 'I' for Inactive)
REMARK    1  A    between atoms: C1_2  and  C2_3 
ROOT
ATOM      1  C2  UNL d   1       0.333   0.503  -0.226  0.00  0.00    -0.081 A 
ATOM      2  C3  UNL d   1       0.652  -0.854  -0.093  0.00  0.00     0.006 A 
ATOM      3  C4  UNL d   1      -0.155  -1.699   0.674  0.00  0.00     0.002 A 
ATOM      4  C5  UNL d   1      -1.297  -1.203   1.312  0.00  0.00    -0.080 A 
ATOM      5  C6  UNL d   1      -2.188  -2.105   2.113  0.00  0.00     0.076 C 
ATOM      6  C7  UNL d   1      -1.605   0.157   1.193  0.00  0.00     0.002 A 
ATOM      7  C8  UNL d   1      -0.799   1.002   0.427  0.00  0.00     0.006 A 
ENDROOT
BRANCH   1   8
ATOM      8  C1  UNL d   1       1.165   1.402  -1.105  0.00  0.00     0.054 C 
ATOM      9  C   UNL d   1       0.428   1.757  -2.388  0.00  0.00     0.018 C 
ENDBRANCH   1   8
TORSDOF 1
ENDMDL
