MODEL 1
REMARK minimizedAffinity -5.08252525
REMARK minimizedRMSD -1
REMARK  1 active torsions:
REMARK  status: ('A' for Active; 'I' for Inactive)
REMARK    1  A    between atoms: C1_2  and  C2_3 
ROOT
ATOM      1  C2  UNL d   1       0.068   0.333  -0.044  0.00  0.00    -0.081 A 
ATOM      2  C3  UNL d   1       0.373  -1.034  -0.068  0.00  0.00     0.006 A 
ATOM      3  C4  UNL d   1      -0.480  -1.961   0.537  0.00  0.00     0.002 A 
ATOM      4  C5  UNL d   1      -1.654  -1.538   1.169  0.00  0.00    -0.080 A 
ATOM      5  C6  UNL d   1      -2.593  -2.526   1.795  0.00  0.00     0.076 C 
ATOM      6  C7  UNL d   1      -1.950  -0.171   1.209  0.00  0.00     0.002 A 
ATOM      7  C8  UNL d   1      -1.098   0.756   0.605  0.00  0.00     0.006 A 
ENDROOT
BRANCH   1   8
ATOM      8  C1  UNL d   1       0.952   1.328  -0.751  0.00  0.00     0.054 C 
ATOM      9  C   UNL d   1       0.383   1.704  -2.112  0.00  0.00     0.018 C 
ENDBRANCH   1   8
TORSDOF 1
ENDMDL
