MODEL 1
REMARK minimizedAffinity -5.11427641
REMARK minimizedRMSD -1
REMARK  1 active torsions:
REMARK  status: ('A' for Active; 'I' for Inactive)
REMARK    1  A    between atoms: C1_2  and  C2_3 
ROOT
ATOM      1  C2  UNL d   1      -0.016   0.232   0.387  0.00  0.00    -0.081 A 
ATOM      2  C3  UNL d   1       0.545  -1.049   0.319  0.00  0.00     0.006 A 
ATOM      3  C4  UNL d   1      -0.190  -2.166   0.723  0.00  0.00     0.002 A 
ATOM      4  C5  UNL d   1      -1.499  -2.021   1.195  0.00  0.00    -0.080 A 
ATOM      5  C6  UNL d   1      -2.310  -3.215   1.604  0.00  0.00     0.076 C 
ATOM      6  C7  UNL d   1      -2.053  -0.739   1.280  0.00  0.00     0.002 A 
ATOM      7  C8  UNL d   1      -1.318   0.378   0.877  0.00  0.00     0.006 A 
ENDROOT
BRANCH   1   8
ATOM      8  C1  UNL d   1       0.751   1.431  -0.109  0.00  0.00     0.054 C 
ATOM      9  C   UNL d   1       0.589   1.609  -1.612  0.00  0.00     0.018 C 
ENDBRANCH   1   8
TORSDOF 1
ENDMDL
