MODEL 1
REMARK minimizedAffinity -4.6816802
REMARK minimizedRMSD -1
REMARK  1 active torsions:
REMARK  status: ('A' for Active; 'I' for Inactive)
REMARK    1  A    between atoms: C1_2  and  C2_3 
ROOT
ATOM      1  C2  UNL d   1       0.069   0.311  -0.072  0.00  0.00    -0.081 A 
ATOM      2  C3  UNL d   1       0.380  -1.030   0.185  0.00  0.00     0.006 A 
ATOM      3  C4  UNL d   1      -0.501  -1.834   0.912  0.00  0.00     0.002 A 
ATOM      4  C5  UNL d   1      -1.710  -1.314   1.387  0.00  0.00    -0.080 A 
ATOM      5  C6  UNL d   1      -2.679  -2.174   2.142  0.00  0.00     0.076 C 
ATOM      6  C7  UNL d   1      -2.013   0.031   1.144  0.00  0.00     0.002 A 
ATOM      7  C8  UNL d   1      -1.132   0.835   0.418  0.00  0.00     0.006 A 
ENDROOT
BRANCH   1   8
ATOM      8  C1  UNL d   1       0.986   1.163  -0.911  0.00  0.00     0.054 C 
ATOM      9  C   UNL d   1       0.299   1.626  -2.188  0.00  0.00     0.018 C 
ENDBRANCH   1   8
TORSDOF 1
ENDMDL
