MODEL 1
REMARK minimizedAffinity -0.0258140974
REMARK minimizedRMSD -1
REMARK  1 active torsions:
REMARK  status: ('A' for Active; 'I' for Inactive)
REMARK    1  A    between atoms: C1_2  and  C2_3 
ROOT
ATOM      1  C2  UNL d   1      -0.507  -1.615   1.114  0.00  0.00    -0.081 A 
ATOM      2  C3  UNL d   1       0.829  -1.194   1.116  0.00  0.00     0.006 A 
ATOM      3  C4  UNL d   1       1.231  -0.110   0.333  0.00  0.00     0.002 A 
ATOM      4  C5  UNL d   1       0.304   0.577  -0.459  0.00  0.00    -0.080 A 
ATOM      5  C6  UNL d   1       0.717   1.761  -1.281  0.00  0.00     0.076 C 
ATOM      6  C7  UNL d   1      -1.027   0.146  -0.474  0.00  0.00     0.002 A 
ATOM      7  C8  UNL d   1      -1.430  -0.939   0.308  0.00  0.00     0.006 A 
ENDROOT
BRANCH   1   8
ATOM      8  C1  UNL d   1      -0.956  -2.743   2.007  0.00  0.00     0.054 C 
ATOM      9  C   UNL d   1      -0.200  -2.738   3.328  0.00  0.00     0.018 C 
ENDBRANCH   1   8
TORSDOF 1
ENDMDL
