MODEL 1
REMARK minimizedAffinity -3.27276206
REMARK minimizedRMSD -1
REMARK  1 active torsions:
REMARK  status: ('A' for Active; 'I' for Inactive)
REMARK    1  A    between atoms: C3_4  and  O_7 
ROOT
ATOM      1  C   UNL d   1      -0.011   0.552   0.168  0.00  0.00    -0.033 A 
ATOM      2  C1  UNL d   1       0.055  -0.738  -0.360  0.00  0.00     0.039 A 
ATOM      3  C2  UNL d   1       1.096  -1.593   0.007  0.00  0.00    -0.080 A 
ATOM      4  C3  UNL d   1       2.063  -1.145   0.903  0.00  0.00     0.150 A 
ATOM      5  C4  UNL d   1       2.001   0.138   1.437  0.00  0.00    -0.007 A 
ATOM      6  C5  UNL d   1       0.961   0.990   1.068  0.00  0.00     0.039 A 
ENDROOT
BRANCH   4   7
ATOM      7  O   UNL d   1       3.101  -1.941   1.288  0.00  0.00    -0.526 OA
ATOM      8  H5  UNL d   1       3.029  -2.789   0.818  0.00  0.00     0.418 HD
ENDBRANCH   4   7
TORSDOF 1
ENDMDL
