MODEL 1
REMARK minimizedAffinity -5.10378695
REMARK minimizedRMSD -1
REMARK  1 active torsions:
REMARK  status: ('A' for Active; 'I' for Inactive)
REMARK    1  A    between atoms: C3_4  and  O_7 
ROOT
ATOM      1  C   UNL d   1      -0.046  -0.342  -0.844  0.00  0.00    -0.033 A 
ATOM      2  C1  UNL d   1       0.610   0.524   0.033  0.00  0.00     0.039 A 
ATOM      3  C2  UNL d   1       1.622   0.043   0.866  0.00  0.00    -0.080 A 
ATOM      4  C3  UNL d   1       1.970  -1.304   0.810  0.00  0.00     0.150 A 
ATOM      5  C4  UNL d   1       1.323  -2.172  -0.064  0.00  0.00    -0.007 A 
ATOM      6  C5  UNL d   1       0.312  -1.689  -0.894  0.00  0.00     0.039 A 
ENDROOT
BRANCH   4   7
ATOM      7  O   UNL d   1       2.948  -1.821   1.606  0.00  0.00    -0.526 OA
ATOM      8  H5  UNL d   1       3.286  -1.112   2.178  0.00  0.00     0.418 HD
ENDBRANCH   4   7
TORSDOF 1
ENDMDL
