MODEL 1
REMARK minimizedAffinity -3.92347479
REMARK minimizedRMSD -1
REMARK  1 active torsions:
REMARK  status: ('A' for Active; 'I' for Inactive)
REMARK    1  A    between atoms: C3_4  and  O_7 
ROOT
ATOM      1  C   UNL d   1      -0.331  -1.177  -0.730  0.00  0.00    -0.033 A 
ATOM      2  C1  UNL d   1      -0.097  -0.552   0.496  0.00  0.00     0.039 A 
ATOM      3  C2  UNL d   1       1.113  -0.751   1.164  0.00  0.00    -0.080 A 
ATOM      4  C3  UNL d   1       2.080  -1.575   0.595  0.00  0.00     0.150 A 
ATOM      5  C4  UNL d   1       1.856  -2.198  -0.629  0.00  0.00    -0.007 A 
ATOM      6  C5  UNL d   1       0.646  -1.999  -1.293  0.00  0.00     0.039 A 
ENDROOT
BRANCH   4   7
ATOM      7  O   UNL d   1       3.274  -1.803   1.211  0.00  0.00    -0.526 OA
ATOM      8  H5  UNL d   1       3.277  -1.331   2.060  0.00  0.00     0.418 HD
ENDBRANCH   4   7
TORSDOF 1
ENDMDL
