MODEL 1
REMARK minimizedAffinity -4.65645123
REMARK minimizedRMSD -1
REMARK  1 active torsions:
REMARK  status: ('A' for Active; 'I' for Inactive)
REMARK    1  A    between atoms: C3_4  and  O_7 
ROOT
ATOM      1  C   UNL d   1      -0.905   0.386  -0.529  0.00  0.00    -0.033 A 
ATOM      2  C1  UNL d   1       0.065   0.825   0.374  0.00  0.00     0.039 A 
ATOM      3  C2  UNL d   1       1.243   0.095   0.544  0.00  0.00    -0.080 A 
ATOM      4  C3  UNL d   1       1.439  -1.069  -0.195  0.00  0.00     0.150 A 
ATOM      5  C4  UNL d   1       0.478  -1.509  -1.099  0.00  0.00    -0.007 A 
ATOM      6  C5  UNL d   1      -0.699  -0.780  -1.266  0.00  0.00     0.039 A 
ENDROOT
BRANCH   4   7
ATOM      7  O   UNL d   1       2.570  -1.817  -0.059  0.00  0.00    -0.526 OA
ATOM      8  H5  UNL d   1       3.131  -1.407   0.621  0.00  0.00     0.418 HD
ENDBRANCH   4   7
TORSDOF 1
ENDMDL
