MODEL 1
REMARK minimizedAffinity -4.46596956
REMARK minimizedRMSD -1
REMARK  1 active torsions:
REMARK  status: ('A' for Active; 'I' for Inactive)
REMARK    1  A    between atoms: C3_4  and  O_7 
ROOT
ATOM      1  C   UNL d   1       0.246   0.348  -0.540  0.00  0.00    -0.033 A 
ATOM      2  C1  UNL d   1       1.368   1.014  -0.044  0.00  0.00     0.039 A 
ATOM      3  C2  UNL d   1       2.335   0.314   0.680  0.00  0.00    -0.080 A 
ATOM      4  C3  UNL d   1       2.168  -1.050   0.901  0.00  0.00     0.150 A 
ATOM      5  C4  UNL d   1       1.054  -1.721   0.407  0.00  0.00    -0.007 A 
ATOM      6  C5  UNL d   1       0.090  -1.020  -0.315  0.00  0.00     0.039 A 
ENDROOT
BRANCH   4   7
ATOM      7  O   UNL d   1       3.082  -1.775   1.606  0.00  0.00    -0.526 OA
ATOM      8  H5  UNL d   1       3.783  -1.175   1.910  0.00  0.00     0.418 HD
ENDBRANCH   4   7
TORSDOF 1
ENDMDL
