MODEL 1
REMARK minimizedAffinity -3.14569426
REMARK minimizedRMSD -1
REMARK  1 active torsions:
REMARK  status: ('A' for Active; 'I' for Inactive)
REMARK    1  A    between atoms: C3_4  and  O_7 
ROOT
ATOM      1  C   UNL d   1      -0.623   0.240  -0.716  0.00  0.00    -0.033 A 
ATOM      2  C1  UNL d   1       0.580   0.899  -0.455  0.00  0.00     0.039 A 
ATOM      3  C2  UNL d   1       1.710   0.171  -0.079  0.00  0.00    -0.080 A 
ATOM      4  C3  UNL d   1       1.624  -1.215   0.032  0.00  0.00     0.150 A 
ATOM      5  C4  UNL d   1       0.430  -1.878  -0.229  0.00  0.00    -0.007 A 
ATOM      6  C5  UNL d   1      -0.698  -1.149  -0.604  0.00  0.00     0.039 A 
ENDROOT
BRANCH   4   7
ATOM      7  O   UNL d   1       2.699  -1.968   0.401  0.00  0.00    -0.526 OA
ATOM      8  H5  UNL d   1       3.446  -1.372   0.578  0.00  0.00     0.418 HD
ENDBRANCH   4   7
TORSDOF 1
ENDMDL
