MODEL 1
REMARK minimizedAffinity -4.58549976
REMARK minimizedRMSD -1
REMARK  1 active torsions:
REMARK  status: ('A' for Active; 'I' for Inactive)
REMARK    1  A    between atoms: C3_4  and  O_7 
ROOT
ATOM      1  C   UNL d   1       2.659  -1.493   0.003  0.00  0.00    -0.033 A 
ATOM      2  C1  UNL d   1       3.490  -0.372  -0.030  0.00  0.00     0.039 A 
ATOM      3  C2  UNL d   1       2.938   0.907  -0.126  0.00  0.00    -0.080 A 
ATOM      4  C3  UNL d   1       1.554   1.050  -0.188  0.00  0.00     0.150 A 
ATOM      5  C4  UNL d   1       0.720  -0.062  -0.152  0.00  0.00    -0.007 A 
ATOM      6  C5  UNL d   1       1.273  -1.338  -0.056  0.00  0.00     0.039 A 
ENDROOT
BRANCH   4   7
ATOM      7  O   UNL d   1       0.969   2.277  -0.288  0.00  0.00    -0.526 OA
ATOM      8  H5  UNL d   1       1.670   2.950  -0.331  0.00  0.00     0.418 HD
ENDBRANCH   4   7
TORSDOF 1
ENDMDL
