MODEL 1
REMARK minimizedAffinity -5.50041103
REMARK minimizedRMSD -1
REMARK  1 active torsions:
REMARK  status: ('A' for Active; 'I' for Inactive)
REMARK    1  A    between atoms: C3_4  and  O_7 
ROOT
ATOM      1  C   UNL d   1      -0.109   0.085   0.046  0.00  0.00    -0.033 A 
ATOM      2  C1  UNL d   1       0.887   0.842   0.666  0.00  0.00     0.039 A 
ATOM      3  C2  UNL d   1       2.084   0.237   1.058  0.00  0.00    -0.080 A 
ATOM      4  C3  UNL d   1       2.271  -1.122   0.823  0.00  0.00     0.150 A 
ATOM      5  C4  UNL d   1       1.284  -1.881   0.202  0.00  0.00    -0.007 A 
ATOM      6  C5  UNL d   1       0.090  -1.276  -0.187  0.00  0.00     0.039 A 
ENDROOT
BRANCH   4   7
ATOM      7  O   UNL d   1       3.420  -1.757   1.191  0.00  0.00    -0.526 OA
ATOM      8  H5  UNL d   1       3.999  -1.114   1.634  0.00  0.00     0.418 HD
ENDBRANCH   4   7
TORSDOF 1
ENDMDL
