MODEL 1
REMARK minimizedAffinity -4.88737535
REMARK minimizedRMSD -1
REMARK  1 active torsions:
REMARK  status: ('A' for Active; 'I' for Inactive)
REMARK    1  A    between atoms: C3_4  and  O_7 
ROOT
ATOM      1  C   UNL d   1      -0.297  -0.249  -0.912  0.00  0.00    -0.033 A 
ATOM      2  C1  UNL d   1       0.489  -1.297  -1.396  0.00  0.00     0.039 A 
ATOM      3  C2  UNL d   1       1.523  -1.815  -0.614  0.00  0.00    -0.080 A 
ATOM      4  C3  UNL d   1       1.760  -1.277   0.648  0.00  0.00     0.150 A 
ATOM      5  C4  UNL d   1       0.979  -0.236   1.138  0.00  0.00    -0.007 A 
ATOM      6  C5  UNL d   1      -0.053   0.281   0.355  0.00  0.00     0.039 A 
ENDROOT
BRANCH   4   7
ATOM      7  O   UNL d   1       2.761  -1.747   1.446  0.00  0.00    -0.526 OA
ATOM      8  H5  UNL d   1       3.235  -2.446   0.965  0.00  0.00     0.418 HD
ENDBRANCH   4   7
TORSDOF 1
ENDMDL
