MODEL 1
REMARK minimizedAffinity -5.38396597
REMARK minimizedRMSD -1
REMARK  1 active torsions:
REMARK  status: ('A' for Active; 'I' for Inactive)
REMARK    1  A    between atoms: C3_4  and  O_7 
ROOT
ATOM      1  C   UNL d   1       0.287   1.373   0.007  0.00  0.00    -0.033 A 
ATOM      2  C1  UNL d   1      -0.112   0.039  -0.090  0.00  0.00     0.039 A 
ATOM      3  C2  UNL d   1       0.798  -0.985   0.181  0.00  0.00    -0.080 A 
ATOM      4  C3  UNL d   1       2.101  -0.661   0.548  0.00  0.00     0.150 A 
ATOM      5  C4  UNL d   1       2.504   0.666   0.650  0.00  0.00    -0.007 A 
ATOM      6  C5  UNL d   1       1.594   1.687   0.379  0.00  0.00     0.039 A 
ENDROOT
BRANCH   4   7
ATOM      7  O   UNL d   1       3.026  -1.626   0.818  0.00  0.00    -0.526 OA
ATOM      8  H5  UNL d   1       2.614  -2.495   0.678  0.00  0.00     0.418 HD
ENDBRANCH   4   7
TORSDOF 1
ENDMDL
