MODEL 1
REMARK minimizedAffinity -5.22621632
REMARK minimizedRMSD -1
REMARK  1 active torsions:
REMARK  status: ('A' for Active; 'I' for Inactive)
REMARK    1  A    between atoms: C3_4  and  O_7 
ROOT
ATOM      1  C   UNL d   1      -0.350  -0.425  -1.132  0.00  0.00    -0.033 A 
ATOM      2  C1  UNL d   1       0.388   0.510  -0.403  0.00  0.00     0.039 A 
ATOM      3  C2  UNL d   1       1.542   0.114   0.277  0.00  0.00    -0.080 A 
ATOM      4  C3  UNL d   1       1.947  -1.216   0.219  0.00  0.00     0.150 A 
ATOM      5  C4  UNL d   1       1.219  -2.152  -0.509  0.00  0.00    -0.007 A 
ATOM      6  C5  UNL d   1       0.067  -1.755  -1.187  0.00  0.00     0.039 A 
ENDROOT
BRANCH   4   7
ATOM      7  O   UNL d   1       3.063  -1.651   0.870  0.00  0.00    -0.526 OA
ATOM      8  H5  UNL d   1       3.448  -0.901   1.355  0.00  0.00     0.418 HD
ENDBRANCH   4   7
TORSDOF 1
ENDMDL
