MODEL 1
REMARK minimizedAffinity 11.4496536
REMARK minimizedRMSD -1
REMARK  3 active torsions:
REMARK  status: ('A' for Active; 'I' for Inactive)
REMARK    1  A    between atoms: C3'_2  and  C2'_3 
REMARK    2  A    between atoms: C2'_3  and  C1'_4 
REMARK    3  A    between atoms: C1'_4  and  C1_5 
ROOT
ATOM      1  C1  N4B d   1       0.010   3.631   0.937  0.00  0.00    -0.075 A 
ATOM      2  C2  N4B d   1      -0.746   4.776   1.271  0.00  0.00     0.002 A 
ATOM      3  C3  N4B d   1      -0.563   5.946   0.575  0.00  0.00     0.002 A 
ATOM      4  C4  N4B d   1       0.379   6.000  -0.441  0.00  0.00    -0.004 A 
ATOM      5  C5  N4B d   1       1.087   4.882  -0.774  0.00  0.00     0.002 A 
ATOM      6  C6  N4B d   1       0.911   3.698  -0.087  0.00  0.00     0.002 A 
ENDROOT
BRANCH   1   7
ATOM      7  C1' N4B d   1      -0.094   2.354   1.725  0.00  0.00     0.057 C 
BRANCH   7   8
ATOM      8  C2' N4B d   1       0.684   2.506   3.029  0.00  0.00     0.009 C 
BRANCH   8   9
ATOM      9  C3' N4B d   1       2.113   2.009   2.899  0.00  0.00     0.004 C 
ATOM     10  C4' N4B d   1       3.099   2.882   3.617  0.00  0.00     0.003 C 
ENDBRANCH   8   9
ENDBRANCH   7   8
ENDBRANCH   1   7
TORSDOF 3
ENDMDL
