MODEL 1
REMARK minimizedAffinity 9.77138424
REMARK minimizedRMSD -1
REMARK  3 active torsions:
REMARK  status: ('A' for Active; 'I' for Inactive)
REMARK    1  A    between atoms: C3'_2  and  C2'_3 
REMARK    2  A    between atoms: C2'_3  and  C1'_4 
REMARK    3  A    between atoms: C1'_4  and  C1_5 
ROOT
ATOM      1  C1  N4B d   1      -0.540   5.659  -1.751  0.00  0.00    -0.075 A 
ATOM      2  C2  N4B d   1       0.224   5.819  -2.928  0.00  0.00     0.002 A 
ATOM      3  C3  N4B d   1      -0.404   5.997  -4.136  0.00  0.00     0.002 A 
ATOM      4  C4  N4B d   1      -1.789   6.000  -4.195  0.00  0.00    -0.004 A 
ATOM      5  C5  N4B d   1      -2.521   5.870  -3.050  0.00  0.00     0.002 A 
ATOM      6  C6  N4B d   1      -1.902   5.695  -1.829  0.00  0.00     0.002 A 
ENDROOT
BRANCH   1   7
ATOM      7  C1' N4B d   1       0.101   5.376  -0.420  0.00  0.00     0.057 C 
BRANCH   7   8
ATOM      8  C2' N4B d   1      -0.940   4.772   0.518  0.00  0.00     0.009 C 
BRANCH   8   9
ATOM      9  C3' N4B d   1      -0.561   3.369   0.959  0.00  0.00     0.004 C 
ATOM     10  C4' N4B d   1       0.718   2.890   0.338  0.00  0.00     0.003 C 
ENDBRANCH   8   9
ENDBRANCH   7   8
ENDBRANCH   1   7
TORSDOF 3
ENDMDL
