MODEL 1
REMARK minimizedAffinity -4.09869194
REMARK minimizedRMSD -1
REMARK  0 active torsions:
REMARK  status: ('A' for Active; 'I' for Inactive)
ROOT
ATOM      1  C1  DEN d   1      -0.601   3.289   1.740  0.00  0.00     0.130 A 
ATOM      2  C2  DEN d   1      -1.792   2.687   1.147  0.00  0.00    -0.031 A 
ATOM      3  C3  DEN d   1      -1.385   1.433   0.480  0.00  0.00     0.027 A 
ATOM      4  C4  DEN d   1       0.959   0.370   0.315  0.00  0.00     0.027 A 
ATOM      5  C5  DEN d   1       2.286   0.519   0.653  0.00  0.00    -0.003 A 
ATOM      6  C6  DEN d   1       2.745   1.610   1.341  0.00  0.00     0.001 A 
ATOM      7  C7  DEN d   1       1.863   2.573   1.754  0.00  0.00     0.017 A 
ATOM      8  C8  DEN d   1       0.525   2.433   1.411  0.00  0.00    -0.094 A 
ATOM      9  C9  DEN d   1       0.078   1.317   0.725  0.00  0.00    -0.072 A 
ENDROOT
TORSDOF 0
ENDMDL
