MODEL 1
REMARK minimizedAffinity -3.8985188
REMARK minimizedRMSD -1
REMARK  0 active torsions:
REMARK  status: ('A' for Active; 'I' for Inactive)
ROOT
ATOM      1  C1  DEN d   1      -1.834  -0.345   1.399  0.00  0.00     0.130 A 
ATOM      2  C2  DEN d   1      -1.115  -1.584   1.116  0.00  0.00    -0.031 A 
ATOM      3  C3  DEN d   1       0.121  -1.238   0.386  0.00  0.00     0.027 A 
ATOM      4  C4  DEN d   1       0.989   1.085  -0.324  0.00  0.00     0.027 A 
ATOM      5  C5  DEN d   1       0.717   2.435  -0.316  0.00  0.00    -0.003 A 
ATOM      6  C6  DEN d   1      -0.430   2.946   0.230  0.00  0.00     0.001 A 
ATOM      7  C7  DEN d   1      -1.329   2.105   0.831  0.00  0.00     0.017 A 
ATOM      8  C8  DEN d   1      -1.066   0.742   0.820  0.00  0.00    -0.094 A 
ATOM      9  C9  DEN d   1       0.106   0.246   0.274  0.00  0.00    -0.072 A 
ENDROOT
TORSDOF 0
ENDMDL
