MODEL 1
REMARK minimizedAffinity -3.67361927
REMARK minimizedRMSD -1
REMARK  0 active torsions:
REMARK  status: ('A' for Active; 'I' for Inactive)
ROOT
ATOM      1  C1  DEN d   1      -0.659   3.171   0.376  0.00  0.00     0.130 A 
ATOM      2  C2  DEN d   1       0.582   3.415  -0.354  0.00  0.00    -0.031 A 
ATOM      3  C3  DEN d   1       1.163   2.107  -0.717  0.00  0.00     0.027 A 
ATOM      4  C4  DEN d   1       0.264  -0.260  -0.226  0.00  0.00     0.027 A 
ATOM      5  C5  DEN d   1      -0.750  -0.974   0.375  0.00  0.00    -0.003 A 
ATOM      6  C6  DEN d   1      -1.778  -0.362   1.042  0.00  0.00     0.001 A 
ATOM      7  C7  DEN d   1      -1.839   1.006   1.086  0.00  0.00     0.017 A 
ATOM      8  C8  DEN d   1      -0.817   1.732   0.489  0.00  0.00    -0.094 A 
ATOM      9  C9  DEN d   1       0.207   1.095  -0.191  0.00  0.00    -0.072 A 
ENDROOT
TORSDOF 0
ENDMDL
