MODEL 1
REMARK minimizedAffinity -4.08552027
REMARK minimizedRMSD -1
REMARK  0 active torsions:
REMARK  status: ('A' for Active; 'I' for Inactive)
ROOT
ATOM      1  C1  DEN d   1      -1.861   0.770   0.389  0.00  0.00     0.130 A 
ATOM      2  C2  DEN d   1      -2.640   1.930   0.813  0.00  0.00    -0.031 A 
ATOM      3  C3  DEN d   1      -1.712   3.066   0.982  0.00  0.00     0.027 A 
ATOM      4  C4  DEN d   1       0.842   3.143   0.625  0.00  0.00     0.027 A 
ATOM      5  C5  DEN d   1       1.949   2.402   0.276  0.00  0.00    -0.003 A 
ATOM      6  C6  DEN d   1       1.870   1.068  -0.024  0.00  0.00     0.001 A 
ATOM      7  C7  DEN d   1       0.650   0.444  -0.025  0.00  0.00     0.017 A 
ATOM      8  C8  DEN d   1      -0.470   1.182   0.333  0.00  0.00    -0.094 A 
ATOM      9  C9  DEN d   1      -0.371   2.533   0.621  0.00  0.00    -0.072 A 
ENDROOT
TORSDOF 0
ENDMDL
