MODEL 1
REMARK minimizedAffinity -4.29599953
REMARK minimizedRMSD -1
REMARK  0 active torsions:
REMARK  status: ('A' for Active; 'I' for Inactive)
ROOT
ATOM      1  C1  DEN d   1       2.135   0.695   0.769  0.00  0.00     0.130 A 
ATOM      2  C2  DEN d   1       1.979  -0.715   0.423  0.00  0.00    -0.031 A 
ATOM      3  C3  DEN d   1       0.540  -0.981   0.228  0.00  0.00     0.027 A 
ATOM      4  C4  DEN d   1      -1.452   0.647   0.423  0.00  0.00     0.027 A 
ATOM      5  C5  DEN d   1      -1.817   1.944   0.706  0.00  0.00    -0.003 A 
ATOM      6  C6  DEN d   1      -0.903   2.900   1.060  0.00  0.00     0.001 A 
ATOM      7  C7  DEN d   1       0.430   2.584   1.097  0.00  0.00     0.017 A 
ATOM      8  C8  DEN d   1       0.806   1.276   0.820  0.00  0.00    -0.094 A 
ATOM      9  C9  DEN d   1      -0.133   0.327   0.452  0.00  0.00    -0.072 A 
ENDROOT
TORSDOF 0
ENDMDL
