MODEL 1
REMARK minimizedAffinity -6.08350706
REMARK minimizedRMSD -1
REMARK  0 active torsions:
REMARK  status: ('A' for Active; 'I' for Inactive)
ROOT
ATOM      1  C1  DEN d   1      -1.517  -0.231   1.703  0.00  0.00     0.130 A 
ATOM      2  C2  DEN d   1      -0.563  -1.334   1.636  0.00  0.00    -0.031 A 
ATOM      3  C3  DEN d   1       0.520  -0.946   0.710  0.00  0.00     0.027 A 
ATOM      4  C4  DEN d   1       0.812   1.248  -0.615  0.00  0.00     0.027 A 
ATOM      5  C5  DEN d   1       0.253   2.476  -0.891  0.00  0.00    -0.003 A 
ATOM      6  C6  DEN d   1      -0.943   2.871  -0.352  0.00  0.00     0.001 A 
ATOM      7  C7  DEN d   1      -1.597   2.048   0.527  0.00  0.00     0.017 A 
ATOM      8  C8  DEN d   1      -1.042   0.805   0.804  0.00  0.00    -0.094 A 
ATOM      9  C9  DEN d   1       0.174   0.429   0.258  0.00  0.00    -0.072 A 
ENDROOT
TORSDOF 0
ENDMDL
