MODEL 1
REMARK minimizedAffinity -0.648311436
REMARK minimizedRMSD -1
REMARK  0 active torsions:
REMARK  status: ('A' for Active; 'I' for Inactive)
ROOT
ATOM      1  C1  DEN d   1      -3.021  -4.797  -0.177  0.00  0.00     0.130 A 
ATOM      2  C2  DEN d   1      -2.903  -4.805  -1.633  0.00  0.00    -0.031 A 
ATOM      3  C3  DEN d   1      -1.937  -3.757  -2.018  0.00  0.00     0.027 A 
ATOM      4  C4  DEN d   1      -0.617  -2.133  -0.511  0.00  0.00     0.027 A 
ATOM      5  C5  DEN d   1      -0.394  -1.739   0.790  0.00  0.00    -0.003 A 
ATOM      6  C6  DEN d   1      -1.051  -2.309   1.848  0.00  0.00     0.001 A 
ATOM      7  C7  DEN d   1      -1.930  -3.336   1.628  0.00  0.00     0.017 A 
ATOM      8  C8  DEN d   1      -2.166  -3.734   0.319  0.00  0.00    -0.094 A 
ATOM      9  C9  DEN d   1      -1.483  -3.153  -0.737  0.00  0.00    -0.072 A 
ENDROOT
TORSDOF 0
ENDMDL
