MODEL 1
REMARK minimizedAffinity -3.15882659
REMARK minimizedRMSD -1
REMARK  0 active torsions:
REMARK  status: ('A' for Active; 'I' for Inactive)
ROOT
ATOM      1  C1  DEN d   1      -1.419  -0.133   0.285  0.00  0.00     0.130 A 
ATOM      2  C2  DEN d   1      -0.065   0.145   0.754  0.00  0.00    -0.031 A 
ATOM      3  C3  DEN d   1       0.854  -0.795   0.079  0.00  0.00     0.027 A 
ATOM      4  C4  DEN d   1       0.313  -2.638  -1.641  0.00  0.00     0.027 A 
ATOM      5  C5  DEN d   1      -0.699  -3.259  -2.341  0.00  0.00    -0.003 A 
ATOM      6  C6  DEN d   1      -2.014  -2.907  -2.190  0.00  0.00     0.001 A 
ATOM      7  C7  DEN d   1      -2.349  -1.876  -1.353  0.00  0.00     0.017 A 
ATOM      8  C8  DEN d   1      -1.335  -1.250  -0.638  0.00  0.00    -0.094 A 
ATOM      9  C9  DEN d   1      -0.011  -1.612  -0.814  0.00  0.00    -0.072 A 
ENDROOT
TORSDOF 0
ENDMDL
