MODEL 1
REMARK minimizedAffinity 10.9527483
REMARK minimizedRMSD -1
REMARK  0 active torsions:
REMARK  status: ('A' for Active; 'I' for Inactive)
ROOT
ATOM      1  C1  DEN d   1       2.807   2.274  -1.895  0.00  0.00     0.130 A 
ATOM      2  C2  DEN d   1       2.268   1.229  -2.761  0.00  0.00    -0.031 A 
ATOM      3  C3  DEN d   1       3.101   1.171  -3.979  0.00  0.00     0.027 A 
ATOM      4  C4  DEN d   1       5.166   2.587  -4.601  0.00  0.00     0.027 A 
ATOM      5  C5  DEN d   1       5.993   3.607  -4.187  0.00  0.00    -0.003 A 
ATOM      6  C6  DEN d   1       5.798   4.272  -3.006  0.00  0.00     0.001 A 
ATOM      7  C7  DEN d   1       4.777   3.894  -2.175  0.00  0.00     0.017 A 
ATOM      8  C8  DEN d   1       3.934   2.871  -2.588  0.00  0.00    -0.094 A 
ATOM      9  C9  DEN d   1       4.155   2.203  -3.781  0.00  0.00    -0.072 A 
ENDROOT
TORSDOF 0
ENDMDL
