MODEL 1
REMARK minimizedAffinity 2.32709837
REMARK minimizedRMSD -1
REMARK  0 active torsions:
REMARK  status: ('A' for Active; 'I' for Inactive)
ROOT
ATOM      1  C1  DEN d   1       1.229   1.977   2.174  0.00  0.00     0.130 A 
ATOM      2  C2  DEN d   1       2.269   2.278   1.194  0.00  0.00    -0.031 A 
ATOM      3  C3  DEN d   1       2.775   3.637   1.468  0.00  0.00     0.027 A 
ATOM      4  C4  DEN d   1       2.057   5.296   3.308  0.00  0.00     0.027 A 
ATOM      5  C5  DEN d   1       1.203   5.493   4.371  0.00  0.00    -0.003 A 
ATOM      6  C6  DEN d   1       0.282   4.553   4.751  0.00  0.00     0.001 A 
ATOM      7  C7  DEN d   1       0.224   3.354   4.092  0.00  0.00     0.017 A 
ATOM      8  C8  DEN d   1       1.077   3.151   3.015  0.00  0.00    -0.094 A 
ATOM      9  C9  DEN d   1       2.009   4.108   2.654  0.00  0.00    -0.072 A 
ENDROOT
TORSDOF 0
ENDMDL
