MODEL 1
REMARK minimizedAffinity -3.15707898
REMARK minimizedRMSD -1
REMARK  0 active torsions:
REMARK  status: ('A' for Active; 'I' for Inactive)
ROOT
ATOM      1  C1  DEN d   1       0.205   2.804   2.465  0.00  0.00     0.130 A 
ATOM      2  C2  DEN d   1       1.146   3.896   2.698  0.00  0.00    -0.031 A 
ATOM      3  C3  DEN d   1       1.634   4.366   1.386  0.00  0.00     0.027 A 
ATOM      4  C4  DEN d   1       1.023   3.517  -0.971  0.00  0.00     0.027 A 
ATOM      5  C5  DEN d   1       0.275   2.599  -1.675  0.00  0.00    -0.003 A 
ATOM      6  C6  DEN d   1      -0.515   1.670  -1.052  0.00  0.00     0.001 A 
ATOM      7  C7  DEN d   1      -0.612   1.668   0.315  0.00  0.00     0.017 A 
ATOM      8  C8  DEN d   1       0.145   2.586   1.031  0.00  0.00    -0.094 A 
ATOM      9  C9  DEN d   1       0.928   3.525   0.382  0.00  0.00    -0.072 A 
ENDROOT
TORSDOF 0
ENDMDL
