MODEL 1
REMARK minimizedAffinity 11.7396688
REMARK minimizedRMSD -1
REMARK  0 active torsions:
REMARK  status: ('A' for Active; 'I' for Inactive)
ROOT
ATOM      1  C1  DEN d   1       0.615   2.784  -6.000  0.00  0.00     0.130 A 
ATOM      2  C2  DEN d   1       1.617   2.983  -4.957  0.00  0.00    -0.031 A 
ATOM      3  C3  DEN d   1       0.915   3.372  -3.717  0.00  0.00     0.027 A 
ATOM      4  C4  DEN d   1      -1.613   3.680  -3.313  0.00  0.00     0.027 A 
ATOM      5  C5  DEN d   1      -2.858   3.634  -3.901  0.00  0.00    -0.003 A 
ATOM      6  C6  DEN d   1      -3.028   3.338  -5.228  0.00  0.00     0.001 A 
ATOM      7  C7  DEN d   1      -1.939   3.031  -6.000  0.00  0.00     0.017 A 
ATOM      8  C8  DEN d   1      -0.680   3.082  -5.416  0.00  0.00    -0.094 A 
ATOM      9  C9  DEN d   1      -0.530   3.372  -4.070  0.00  0.00    -0.072 A 
ENDROOT
TORSDOF 0
ENDMDL
