MODEL 1
REMARK minimizedAffinity 1.06343067
REMARK minimizedRMSD -1
REMARK  0 active torsions:
REMARK  status: ('A' for Active; 'I' for Inactive)
ROOT
ATOM      1  C1  DEN d   1      -2.132   5.345  -4.018  0.00  0.00     0.130 A 
ATOM      2  C2  DEN d   1      -1.653   4.057  -3.523  0.00  0.00    -0.031 A 
ATOM      3  C3  DEN d   1      -2.603   3.016  -3.964  0.00  0.00     0.027 A 
ATOM      4  C4  DEN d   1      -4.756   3.271  -5.361  0.00  0.00     0.027 A 
ATOM      5  C5  DEN d   1      -5.579   4.171  -6.000  0.00  0.00    -0.003 A 
ATOM      6  C6  DEN d   1      -5.332   5.519  -5.995  0.00  0.00     0.001 A 
ATOM      7  C7  DEN d   1      -4.209   6.000  -5.375  0.00  0.00     0.017 A 
ATOM      8  C8  DEN d   1      -3.378   5.099  -4.722  0.00  0.00    -0.094 A 
ATOM      9  C9  DEN d   1      -3.639   3.740  -4.749  0.00  0.00    -0.072 A 
ENDROOT
TORSDOF 0
ENDMDL
