MODEL 1
REMARK minimizedAffinity -3.43647671
REMARK minimizedRMSD -1
REMARK  0 active torsions:
REMARK  status: ('A' for Active; 'I' for Inactive)
ROOT
ATOM      1  C1  DEN d   1       0.682  -0.478   0.303  0.00  0.00     0.130 A 
ATOM      2  C2  DEN d   1       2.106  -0.153   0.287  0.00  0.00    -0.031 A 
ATOM      3  C3  DEN d   1       2.238   1.317   0.260  0.00  0.00     0.027 A 
ATOM      4  C4  DEN d   1       0.387   3.113   0.247  0.00  0.00     0.027 A 
ATOM      5  C5  DEN d   1      -0.974   3.322   0.243  0.00  0.00    -0.003 A 
ATOM      6  C6  DEN d   1      -1.872   2.287   0.225  0.00  0.00     0.001 A 
ATOM      7  C7  DEN d   1      -1.418   0.995   0.255  0.00  0.00     0.017 A 
ATOM      8  C8  DEN d   1      -0.047   0.777   0.252  0.00  0.00    -0.094 A 
ATOM      9  C9  DEN d   1       0.844   1.836   0.283  0.00  0.00    -0.072 A 
ENDROOT
TORSDOF 0
ENDMDL
