MODEL 1
REMARK minimizedAffinity -1.12368441
REMARK minimizedRMSD -1
REMARK  0 active torsions:
REMARK  status: ('A' for Active; 'I' for Inactive)
ROOT
ATOM      1  C   UNL d   1      -5.764  -1.270   2.210  0.00  0.00     0.077 C 
ATOM      2  C1  UNL d   1      -5.028  -0.086   1.658  0.00  0.00    -0.074 A 
ATOM      3  C2  UNL d   1      -5.682   1.130   1.441  0.00  0.00    -0.005 A 
ATOM      4  C3  UNL d   1      -4.982   2.226   0.936  0.00  0.00     0.006 A 
ATOM      5  C4  UNL d   1      -3.622   2.116   0.644  0.00  0.00    -0.005 A 
ATOM      6  C5  UNL d   1      -2.950   0.908   0.855  0.00  0.00    -0.074 A 
ATOM      7  C6  UNL d   1      -1.486   0.776   0.556  0.00  0.00     0.077 C 
ATOM      8  C7  UNL d   1      -3.659  -0.186   1.369  0.00  0.00    -0.001 A 
ENDROOT
TORSDOF 0
ENDMDL
