MODEL 1
REMARK minimizedAffinity 7.00573063
REMARK minimizedRMSD -1
REMARK  0 active torsions:
REMARK  status: ('A' for Active; 'I' for Inactive)
ROOT
ATOM      1  C   UNL d   1      -6.000   2.252   0.721  0.00  0.00     0.077 C 
ATOM      2  C1  UNL d   1      -4.698   1.521   0.578  0.00  0.00    -0.074 A 
ATOM      3  C2  UNL d   1      -4.495   0.285   1.202  0.00  0.00    -0.005 A 
ATOM      4  C3  UNL d   1      -3.283  -0.387   1.052  0.00  0.00     0.006 A 
ATOM      5  C4  UNL d   1      -2.262   0.168   0.279  0.00  0.00    -0.005 A 
ATOM      6  C5  UNL d   1      -2.447   1.402  -0.352  0.00  0.00    -0.074 A 
ATOM      7  C6  UNL d   1      -1.364   2.007  -1.195  0.00  0.00     0.077 C 
ATOM      8  C7  UNL d   1      -3.671   2.068  -0.203  0.00  0.00    -0.001 A 
ENDROOT
TORSDOF 0
ENDMDL
