MODEL 1
REMARK minimizedAffinity 4.03861809
REMARK minimizedRMSD -1
REMARK  0 active torsions:
REMARK  status: ('A' for Active; 'I' for Inactive)
ROOT
ATOM      1  C   UNL d   1      -0.633  -5.191  -3.628  0.00  0.00     0.077 C 
ATOM      2  C1  UNL d   1      -1.520  -4.585  -2.581  0.00  0.00    -0.074 A 
ATOM      3  C2  UNL d   1      -2.278  -3.442  -2.854  0.00  0.00    -0.005 A 
ATOM      4  C3  UNL d   1      -3.105  -2.895  -1.873  0.00  0.00     0.006 A 
ATOM      5  C4  UNL d   1      -3.183  -3.485  -0.611  0.00  0.00    -0.005 A 
ATOM      6  C5  UNL d   1      -2.433  -4.629  -0.320  0.00  0.00    -0.074 A 
ATOM      7  C6  UNL d   1      -2.513  -5.282   1.029  0.00  0.00     0.077 C 
ATOM      8  C7  UNL d   1      -1.609  -5.177  -1.313  0.00  0.00    -0.001 A 
ENDROOT
TORSDOF 0
ENDMDL
