MODEL 1
REMARK minimizedAffinity -0.30722779
REMARK minimizedRMSD -1
REMARK  0 active torsions:
REMARK  status: ('A' for Active; 'I' for Inactive)
ROOT
ATOM      1  C   UNL d   1      -5.380   1.841   0.531  0.00  0.00     0.077 C 
ATOM      2  C1  UNL d   1      -3.946   1.487   0.267  0.00  0.00    -0.074 A 
ATOM      3  C2  UNL d   1      -3.210   2.155  -0.717  0.00  0.00    -0.005 A 
ATOM      4  C3  UNL d   1      -1.875   1.822  -0.944  0.00  0.00     0.006 A 
ATOM      5  C4  UNL d   1      -1.264   0.818  -0.192  0.00  0.00    -0.005 A 
ATOM      6  C5  UNL d   1      -1.984   0.140   0.797  0.00  0.00    -0.074 A 
ATOM      7  C6  UNL d   1      -1.339  -0.934   1.622  0.00  0.00     0.077 C 
ATOM      8  C7  UNL d   1      -3.323   0.486   1.025  0.00  0.00    -0.001 A 
ENDROOT
TORSDOF 0
ENDMDL
