MODEL 1
REMARK minimizedAffinity 3.350986
REMARK minimizedRMSD -1
REMARK  0 active torsions:
REMARK  status: ('A' for Active; 'I' for Inactive)
ROOT
ATOM      1  C   UNL d   1      -5.997   1.623   0.898  0.00  0.00     0.077 C 
ATOM      2  C1  UNL d   1      -4.620   1.712   0.311  0.00  0.00    -0.074 A 
ATOM      3  C2  UNL d   1      -3.496   1.335   1.053  0.00  0.00    -0.005 A 
ATOM      4  C3  UNL d   1      -2.222   1.414   0.490  0.00  0.00     0.006 A 
ATOM      5  C4  UNL d   1      -2.059   1.871  -0.818  0.00  0.00    -0.005 A 
ATOM      6  C5  UNL d   1      -3.171   2.251  -1.576  0.00  0.00    -0.074 A 
ATOM      7  C6  UNL d   1      -3.015   2.734  -2.988  0.00  0.00     0.077 C 
ATOM      8  C7  UNL d   1      -4.449   2.162  -1.006  0.00  0.00    -0.001 A 
ENDROOT
TORSDOF 0
ENDMDL
