MODEL 1
REMARK minimizedAffinity 0.729222
REMARK minimizedRMSD -1
REMARK  0 active torsions:
REMARK  status: ('A' for Active; 'I' for Inactive)
ROOT
ATOM      1  C   UNL d   1      -1.506   1.623  -0.751  0.00  0.00     0.077 C 
ATOM      2  C1  UNL d   1      -2.555   1.148   0.211  0.00  0.00    -0.074 A 
ATOM      3  C2  UNL d   1      -2.358  -0.005   0.976  0.00  0.00    -0.005 A 
ATOM      4  C3  UNL d   1      -3.338  -0.429   1.874  0.00  0.00     0.006 A 
ATOM      5  C4  UNL d   1      -4.523   0.295   2.014  0.00  0.00    -0.005 A 
ATOM      6  C5  UNL d   1      -4.737   1.451   1.258  0.00  0.00    -0.074 A 
ATOM      7  C6  UNL d   1      -6.000   2.246   1.403  0.00  0.00     0.077 C 
ATOM      8  C7  UNL d   1      -3.744   1.875   0.363  0.00  0.00    -0.001 A 
ENDROOT
TORSDOF 0
ENDMDL
