MODEL 1
REMARK minimizedAffinity 2.75100756
REMARK minimizedRMSD -1
REMARK  0 active torsions:
REMARK  status: ('A' for Active; 'I' for Inactive)
ROOT
ATOM      1  C   UNL d   1       4.381   6.000   3.863  0.00  0.00     0.077 C 
ATOM      2  C1  UNL d   1       4.888   4.628   3.531  0.00  0.00    -0.074 A 
ATOM      3  C2  UNL d   1       5.040   3.657   4.526  0.00  0.00    -0.005 A 
ATOM      4  C3  UNL d   1       5.504   2.383   4.201  0.00  0.00     0.006 A 
ATOM      5  C4  UNL d   1       5.820   2.066   2.880  0.00  0.00    -0.005 A 
ATOM      6  C5  UNL d   1       5.674   3.023   1.871  0.00  0.00    -0.074 A 
ATOM      7  C6  UNL d   1       6.000   2.696   0.443  0.00  0.00     0.077 C 
ATOM      8  C7  UNL d   1       5.201   4.300   2.204  0.00  0.00    -0.001 A 
ENDROOT
TORSDOF 0
ENDMDL
