MODEL 1
REMARK minimizedAffinity 7.91289234
REMARK minimizedRMSD -1
REMARK  0 active torsions:
REMARK  status: ('A' for Active; 'I' for Inactive)
ROOT
ATOM      1  C   UNL d   1      -0.969   2.203   4.288  0.00  0.00     0.077 C 
ATOM      2  C1  UNL d   1      -1.535   1.410   3.148  0.00  0.00    -0.074 A 
ATOM      3  C2  UNL d   1      -1.804   0.045   3.285  0.00  0.00    -0.005 A 
ATOM      4  C3  UNL d   1      -2.339  -0.677   2.218  0.00  0.00     0.006 A 
ATOM      5  C4  UNL d   1      -2.610  -0.042   1.006  0.00  0.00    -0.005 A 
ATOM      6  C5  UNL d   1      -2.349   1.323   0.850  0.00  0.00    -0.074 A 
ATOM      7  C6  UNL d   1      -2.644   2.022  -0.443  0.00  0.00     0.077 C 
ATOM      8  C7  UNL d   1      -1.818   2.043   1.929  0.00  0.00    -0.001 A 
ENDROOT
TORSDOF 0
ENDMDL
