MODEL 1
REMARK minimizedAffinity 0.777870655
REMARK minimizedRMSD -1
REMARK  0 active torsions:
REMARK  status: ('A' for Active; 'I' for Inactive)
ROOT
ATOM      1  C   UNL d   1       2.697  -4.927  -2.185  0.00  0.00     0.077 C 
ATOM      2  C1  UNL d   1       1.305  -5.177  -2.683  0.00  0.00    -0.074 A 
ATOM      3  C2  UNL d   1       1.082  -5.736  -3.945  0.00  0.00    -0.005 A 
ATOM      4  C3  UNL d   1      -0.218  -5.972  -4.391  0.00  0.00     0.006 A 
ATOM      5  C4  UNL d   1      -1.308  -5.652  -3.580  0.00  0.00    -0.005 A 
ATOM      6  C5  UNL d   1      -1.105  -5.094  -2.314  0.00  0.00    -0.074 A 
ATOM      7  C6  UNL d   1      -2.264  -4.753  -1.426  0.00  0.00     0.077 C 
ATOM      8  C7  UNL d   1       0.205  -4.866  -1.870  0.00  0.00    -0.001 A 
ENDROOT
TORSDOF 0
ENDMDL
