MODEL 1
REMARK minimizedAffinity 17.4727535
REMARK minimizedRMSD -1
REMARK  0 active torsions:
REMARK  status: ('A' for Active; 'I' for Inactive)
ROOT
ATOM      1  C   UNL d   1       2.603   1.476  -1.115  0.00  0.00     0.077 C 
ATOM      2  C1  UNL d   1       3.776   1.980  -0.328  0.00  0.00    -0.074 A 
ATOM      3  C2  UNL d   1       4.921   2.460  -0.971  0.00  0.00    -0.005 A 
ATOM      4  C3  UNL d   1       6.000   2.935  -0.226  0.00  0.00     0.006 A 
ATOM      5  C4  UNL d   1       5.945   2.934   1.168  0.00  0.00    -0.005 A 
ATOM      6  C5  UNL d   1       4.809   2.458   1.830  0.00  0.00    -0.074 A 
ATOM      7  C6  UNL d   1       4.730   2.459   3.327  0.00  0.00     0.077 C 
ATOM      8  C7  UNL d   1       3.726   1.989   1.073  0.00  0.00    -0.001 A 
ENDROOT
TORSDOF 0
ENDMDL
