MODEL 1
REMARK minimizedAffinity 9.04946232
REMARK minimizedRMSD -1
REMARK  0 active torsions:
REMARK  status: ('A' for Active; 'I' for Inactive)
ROOT
ATOM      1  C   UNL d   1       5.437   3.463   1.507  0.00  0.00     0.077 C 
ATOM      2  C1  UNL d   1       4.652   2.428   0.757  0.00  0.00    -0.074 A 
ATOM      3  C2  UNL d   1       4.614   1.100   1.193  0.00  0.00    -0.005 A 
ATOM      4  C3  UNL d   1       3.871   0.150   0.491  0.00  0.00     0.006 A 
ATOM      5  C4  UNL d   1       3.161   0.519  -0.652  0.00  0.00    -0.005 A 
ATOM      6  C5  UNL d   1       3.186   1.843  -1.102  0.00  0.00    -0.074 A 
ATOM      7  C6  UNL d   1       2.421   2.258  -2.323  0.00  0.00     0.077 C 
ATOM      8  C7  UNL d   1       3.929   2.792  -0.387  0.00  0.00    -0.001 A 
ENDROOT
TORSDOF 0
ENDMDL
