MODEL 1
REMARK minimizedAffinity 2.25051475
REMARK minimizedRMSD -1
REMARK  0 active torsions:
REMARK  status: ('A' for Active; 'I' for Inactive)
ROOT
ATOM      1  C   UNL d   1       3.748   1.590   1.434  0.00  0.00     0.077 C 
ATOM      2  C1  UNL d   1       2.287   1.810   1.694  0.00  0.00    -0.074 A 
ATOM      3  C2  UNL d   1       1.856   2.531   2.813  0.00  0.00    -0.005 A 
ATOM      4  C3  UNL d   1       0.495   2.736   3.036  0.00  0.00     0.006 A 
ATOM      5  C4  UNL d   1      -0.448   2.223   2.144  0.00  0.00    -0.005 A 
ATOM      6  C5  UNL d   1      -0.036   1.500   1.020  0.00  0.00    -0.074 A 
ATOM      7  C6  UNL d   1      -1.036   0.951   0.046  0.00  0.00     0.077 C 
ATOM      8  C7  UNL d   1       1.334   1.305   0.799  0.00  0.00    -0.001 A 
ENDROOT
TORSDOF 0
ENDMDL
