MODEL 1
REMARK minimizedAffinity 3.94144464
REMARK minimizedRMSD -1
REMARK  0 active torsions:
REMARK  status: ('A' for Active; 'I' for Inactive)
ROOT
ATOM      1  C   UNL d   1      -0.242   3.516   3.005  0.00  0.00     0.077 C 
ATOM      2  C1  UNL d   1       0.525   2.630   2.069  0.00  0.00    -0.074 A 
ATOM      3  C2  UNL d   1      -0.136   1.720   1.237  0.00  0.00    -0.005 A 
ATOM      4  C3  UNL d   1       0.590   0.909   0.365  0.00  0.00     0.006 A 
ATOM      5  C4  UNL d   1       1.982   0.999   0.315  0.00  0.00    -0.005 A 
ATOM      6  C5  UNL d   1       2.660   1.904   1.139  0.00  0.00    -0.074 A 
ATOM      7  C6  UNL d   1       4.154   2.020   1.091  0.00  0.00     0.077 C 
ATOM      8  C7  UNL d   1       1.923   2.720   2.008  0.00  0.00    -0.001 A 
ENDROOT
TORSDOF 0
ENDMDL
