MODEL 1
REMARK minimizedAffinity 9.51179409
REMARK minimizedRMSD -1
REMARK  0 active torsions:
REMARK  status: ('A' for Active; 'I' for Inactive)
ROOT
ATOM      1  C   UNL d   1      -0.491   2.215   1.807  0.00  0.00     0.077 C 
ATOM      2  C1  UNL d   1       0.839   1.912   1.183  0.00  0.00    -0.074 A 
ATOM      3  C2  UNL d   1       2.026   2.073   1.906  0.00  0.00    -0.005 A 
ATOM      4  C3  UNL d   1       3.255   1.779   1.316  0.00  0.00     0.006 A 
ATOM      5  C4  UNL d   1       3.310   1.322  -0.002  0.00  0.00    -0.005 A 
ATOM      6  C5  UNL d   1       2.134   1.154  -0.740  0.00  0.00    -0.074 A 
ATOM      7  C6  UNL d   1       2.174   0.654  -2.153  0.00  0.00     0.077 C 
ATOM      8  C7  UNL d   1       0.902   1.445  -0.137  0.00  0.00    -0.001 A 
ENDROOT
TORSDOF 0
ENDMDL
