MODEL 1
REMARK minimizedAffinity -0.922491491
REMARK minimizedRMSD -1
REMARK  0 active torsions:
REMARK  status: ('A' for Active; 'I' for Inactive)
ROOT
ATOM      1  C   UNL d   1      -0.825   3.252   3.238  0.00  0.00     0.077 C 
ATOM      2  C1  UNL d   1      -0.255   2.430   2.120  0.00  0.00    -0.074 A 
ATOM      3  C2  UNL d   1      -1.088   1.839   1.166  0.00  0.00    -0.005 A 
ATOM      4  C3  UNL d   1      -0.543   1.085   0.127  0.00  0.00     0.006 A 
ATOM      5  C4  UNL d   1       0.839   0.915   0.031  0.00  0.00    -0.005 A 
ATOM      6  C5  UNL d   1       1.688   1.500   0.976  0.00  0.00    -0.074 A 
ATOM      7  C6  UNL d   1       3.176   1.336   0.882  0.00  0.00     0.077 C 
ATOM      8  C7  UNL d   1       1.133   2.262   2.013  0.00  0.00    -0.001 A 
ENDROOT
TORSDOF 0
ENDMDL
