MODEL 1
REMARK minimizedAffinity 3.9078002
REMARK minimizedRMSD -1
REMARK  0 active torsions:
REMARK  status: ('A' for Active; 'I' for Inactive)
ROOT
ATOM      1  C   UNL d   1       4.093   1.839   1.626  0.00  0.00     0.077 C 
ATOM      2  C1  UNL d   1       2.607   1.795   1.426  0.00  0.00    -0.074 A 
ATOM      3  C2  UNL d   1       2.040   0.989   0.433  0.00  0.00    -0.005 A 
ATOM      4  C3  UNL d   1       0.656   0.951   0.264  0.00  0.00     0.006 A 
ATOM      5  C4  UNL d   1      -0.174   1.716   1.085  0.00  0.00    -0.005 A 
ATOM      6  C5  UNL d   1       0.376   2.527   2.083  0.00  0.00    -0.074 A 
ATOM      7  C6  UNL d   1      -0.502   3.348   2.981  0.00  0.00     0.077 C 
ATOM      8  C7  UNL d   1       1.767   2.554   2.251  0.00  0.00    -0.001 A 
ENDROOT
TORSDOF 0
ENDMDL
