MODEL 1
REMARK minimizedAffinity 8.49727154
REMARK minimizedRMSD -1
REMARK  0 active torsions:
REMARK  status: ('A' for Active; 'I' for Inactive)
ROOT
ATOM      1  C   UNL d   1       4.436   1.861   1.383  0.00  0.00     0.077 C 
ATOM      2  C1  UNL d   1       2.986   1.546   1.167  0.00  0.00    -0.074 A 
ATOM      3  C2  UNL d   1       2.594   0.516   0.305  0.00  0.00    -0.005 A 
ATOM      4  C3  UNL d   1       1.242   0.228   0.122  0.00  0.00     0.006 A 
ATOM      5  C4  UNL d   1       0.269   0.966   0.797  0.00  0.00    -0.005 A 
ATOM      6  C5  UNL d   1       0.641   1.999   1.663  0.00  0.00    -0.074 A 
ATOM      7  C6  UNL d   1      -0.392   2.795   2.404  0.00  0.00     0.077 C 
ATOM      8  C7  UNL d   1       2.002   2.278   1.847  0.00  0.00    -0.001 A 
ENDROOT
TORSDOF 0
ENDMDL
