MODEL 1
REMARK minimizedAffinity 8.33944416
REMARK minimizedRMSD -1
REMARK  0 active torsions:
REMARK  status: ('A' for Active; 'I' for Inactive)
ROOT
ATOM      1  C   UNL d   1       3.076   0.405  -1.889  0.00  0.00     0.077 C 
ATOM      2  C1  UNL d   1       2.317   0.785  -0.652  0.00  0.00    -0.074 A 
ATOM      3  C2  UNL d   1       2.950   0.830   0.594  0.00  0.00    -0.005 A 
ATOM      4  C3  UNL d   1       2.234   1.194   1.734  0.00  0.00     0.006 A 
ATOM      5  C4  UNL d   1       0.880   1.516   1.640  0.00  0.00    -0.005 A 
ATOM      6  C5  UNL d   1       0.230   1.477   0.402  0.00  0.00    -0.074 A 
ATOM      7  C6  UNL d   1      -1.223   1.830   0.282  0.00  0.00     0.077 C 
ATOM      8  C7  UNL d   1       0.958   1.117  -0.740  0.00  0.00    -0.001 A 
ENDROOT
TORSDOF 0
ENDMDL
