MODEL 1
REMARK minimizedAffinity 3.05956578
REMARK minimizedRMSD -1
REMARK  1 active torsions:
REMARK  status: ('A' for Active; 'I' for Inactive)
REMARK    1  A    between atoms: C1_2  and  C2_3 
ROOT
ATOM      1  C2  UNL d   1      -0.832   3.583  -5.603  0.00  0.00    -0.073 A 
ATOM      2  C3  UNL d   1      -1.766   2.618  -5.998  0.00  0.00    -0.002 A 
ATOM      3  C4  UNL d   1      -3.107   2.744  -5.635  0.00  0.00     0.004 A 
ATOM      4  C5  UNL d   1      -3.530   3.838  -4.879  0.00  0.00    -0.004 A 
ATOM      5  C6  UNL d   1      -2.614   4.818  -4.485  0.00  0.00    -0.075 A 
ATOM      6  C7  UNL d   1      -3.053   6.000  -3.670  0.00  0.00     0.076 C 
ATOM      7  C8  UNL d   1      -1.269   4.683  -4.851  0.00  0.00     0.001 A 
ENDROOT
BRANCH   1   8
ATOM      8  C1  UNL d   1       0.616   3.455  -5.998  0.00  0.00     0.053 C 
ATOM      9  C   UNL d   1       1.083   2.008  -5.989  0.00  0.00     0.018 C 
ENDBRANCH   1   8
TORSDOF 1
ENDMDL
