MODEL 1
REMARK minimizedAffinity 7.67766571
REMARK minimizedRMSD -1
REMARK  1 active torsions:
REMARK  status: ('A' for Active; 'I' for Inactive)
REMARK    1  A    between atoms: C1_2  and  C2_3 
ROOT
ATOM      1  C2  UNL d   1       0.727   1.206   0.014  0.00  0.00    -0.073 A 
ATOM      2  C3  UNL d   1       0.461   2.533  -0.342  0.00  0.00    -0.002 A 
ATOM      3  C4  UNL d   1      -0.822   3.061  -0.187  0.00  0.00     0.004 A 
ATOM      4  C5  UNL d   1      -1.848   2.271   0.331  0.00  0.00    -0.004 A 
ATOM      5  C6  UNL d   1      -1.599   0.946   0.703  0.00  0.00    -0.075 A 
ATOM      6  C7  UNL d   1      -2.692   0.082   1.260  0.00  0.00     0.076 C 
ATOM      7  C8  UNL d   1      -0.309   0.423   0.542  0.00  0.00     0.001 A 
ENDROOT
BRANCH   1   8
ATOM      8  C1  UNL d   1       2.112   0.634  -0.146  0.00  0.00     0.053 C 
ATOM      9  C   UNL d   1       2.252  -0.169  -1.430  0.00  0.00     0.018 C 
ENDBRANCH   1   8
TORSDOF 1
ENDMDL
