MODEL 1
REMARK minimizedAffinity 11.1697922
REMARK minimizedRMSD -1
REMARK  1 active torsions:
REMARK  status: ('A' for Active; 'I' for Inactive)
REMARK    1  A    between atoms: C1_2  and  C2_3 
ROOT
ATOM      1  C2  UNL d   1      -2.037  -3.125  -0.790  0.00  0.00    -0.073 A 
ATOM      2  C3  UNL d   1      -3.213  -3.784  -0.412  0.00  0.00    -0.002 A 
ATOM      3  C4  UNL d   1      -3.361  -5.151  -0.648  0.00  0.00     0.004 A 
ATOM      4  C5  UNL d   1      -2.335  -5.874  -1.255  0.00  0.00    -0.004 A 
ATOM      5  C6  UNL d   1      -1.148  -5.236  -1.629  0.00  0.00    -0.075 A 
ATOM      6  C7  UNL d   1      -0.035  -5.999  -2.285  0.00  0.00     0.076 C 
ATOM      7  C8  UNL d   1      -1.007  -3.862  -1.391  0.00  0.00     0.001 A 
ENDROOT
BRANCH   1   8
ATOM      8  C1  UNL d   1      -1.870  -1.650  -0.532  0.00  0.00     0.053 C 
ATOM      9  C   UNL d   1      -1.129  -1.379   0.768  0.00  0.00     0.018 C 
ENDBRANCH   1   8
TORSDOF 1
ENDMDL
