MODEL 1
REMARK minimizedAffinity 11.66574
REMARK minimizedRMSD -1
REMARK  1 active torsions:
REMARK  status: ('A' for Active; 'I' for Inactive)
REMARK    1  A    between atoms: C1_2  and  C2_3 
ROOT
ATOM      1  C2  UNL d   1       0.852   1.037  -0.392  0.00  0.00    -0.073 A 
ATOM      2  C3  UNL d   1       0.805   2.266  -1.060  0.00  0.00    -0.002 A 
ATOM      3  C4  UNL d   1      -0.335   3.068  -0.982  0.00  0.00     0.004 A 
ATOM      4  C5  UNL d   1      -1.435   2.652  -0.231  0.00  0.00    -0.004 A 
ATOM      5  C6  UNL d   1      -1.402   1.433   0.452  0.00  0.00    -0.075 A 
ATOM      6  C7  UNL d   1      -2.578   0.971   1.262  0.00  0.00     0.076 C 
ATOM      7  C8  UNL d   1      -0.255   0.632   0.367  0.00  0.00     0.001 A 
ENDROOT
BRANCH   1   8
ATOM      8  C1  UNL d   1       2.083   0.171  -0.468  0.00  0.00     0.053 C 
ATOM      9  C   UNL d   1       2.525  -0.067  -1.903  0.00  0.00     0.018 C 
ENDBRANCH   1   8
TORSDOF 1
ENDMDL
