MODEL 1
REMARK minimizedAffinity 11.140378
REMARK minimizedRMSD -1
REMARK  1 active torsions:
REMARK  status: ('A' for Active; 'I' for Inactive)
REMARK    1  A    between atoms: C1_2  and  C2_3 
ROOT
ATOM      1  C2  UNL d   1      -1.344   3.626  -5.448  0.00  0.00    -0.073 A 
ATOM      2  C3  UNL d   1      -0.996   4.981  -5.496  0.00  0.00    -0.002 A 
ATOM      3  C4  UNL d   1      -1.974   5.953  -5.713  0.00  0.00     0.004 A 
ATOM      4  C5  UNL d   1      -3.308   5.582  -5.877  0.00  0.00    -0.004 A 
ATOM      5  C6  UNL d   1      -3.677   4.234  -5.821  0.00  0.00    -0.075 A 
ATOM      6  C7  UNL d   1      -5.108   3.818  -5.998  0.00  0.00     0.076 C 
ATOM      7  C8  UNL d   1      -2.689   3.264  -5.605  0.00  0.00     0.001 A 
ENDROOT
BRANCH   1   8
ATOM      8  C1  UNL d   1      -0.293   2.574  -5.208  0.00  0.00     0.053 C 
ATOM      9  C   UNL d   1       1.081   3.021  -5.683  0.00  0.00     0.018 C 
ENDBRANCH   1   8
TORSDOF 1
ENDMDL
