MODEL 1
REMARK minimizedAffinity 6.89585733
REMARK minimizedRMSD -1
REMARK  1 active torsions:
REMARK  status: ('A' for Active; 'I' for Inactive)
REMARK    1  A    between atoms: C1_2  and  C2_3 
ROOT
ATOM      1  C2  UNL d   1       1.004   0.889  -0.233  0.00  0.00    -0.073 A 
ATOM      2  C3  UNL d   1      -0.031   0.093   0.271  0.00  0.00    -0.002 A 
ATOM      3  C4  UNL d   1      -1.285   0.648   0.528  0.00  0.00     0.004 A 
ATOM      4  C5  UNL d   1      -1.519   2.000   0.279  0.00  0.00    -0.004 A 
ATOM      5  C6  UNL d   1      -0.501   2.809  -0.236  0.00  0.00    -0.075 A 
ATOM      6  C7  UNL d   1      -0.736   4.266  -0.508  0.00  0.00     0.076 C 
ATOM      7  C8  UNL d   1       0.756   2.245  -0.490  0.00  0.00     0.001 A 
ENDROOT
BRANCH   1   8
ATOM      8  C1  UNL d   1       2.358   0.293  -0.520  0.00  0.00     0.053 C 
ATOM      9  C   UNL d   1       2.522  -0.071  -1.987  0.00  0.00     0.018 C 
ENDBRANCH   1   8
TORSDOF 1
ENDMDL
