MODEL 1
REMARK minimizedAffinity 2.76785159
REMARK minimizedRMSD -1
REMARK  1 active torsions:
REMARK  status: ('A' for Active; 'I' for Inactive)
REMARK    1  A    between atoms: C1_2  and  C2_3 
ROOT
ATOM      1  C2  UNL d   1      -4.149   4.475  -5.961  0.00  0.00    -0.073 A 
ATOM      2  C3  UNL d   1      -3.621   5.772  -5.949  0.00  0.00    -0.002 A 
ATOM      3  C4  UNL d   1      -2.240   5.970  -5.938  0.00  0.00     0.004 A 
ATOM      4  C5  UNL d   1      -1.374   4.878  -5.946  0.00  0.00    -0.004 A 
ATOM      5  C6  UNL d   1      -1.881   3.575  -5.971  0.00  0.00    -0.075 A 
ATOM      6  C7  UNL d   1      -0.962   2.389  -5.978  0.00  0.00     0.076 C 
ATOM      7  C8  UNL d   1      -3.269   3.383  -5.979  0.00  0.00     0.001 A 
ENDROOT
BRANCH   1   8
ATOM      8  C1  UNL d   1      -5.640   4.256  -5.980  0.00  0.00     0.053 C 
ATOM      9  C   UNL d   1      -5.998   2.778  -5.994  0.00  0.00     0.018 C 
ENDBRANCH   1   8
TORSDOF 1
ENDMDL
