MODEL 1
REMARK minimizedAffinity -0.468886584
REMARK minimizedRMSD -1
REMARK  1 active torsions:
REMARK  status: ('A' for Active; 'I' for Inactive)
REMARK    1  A    between atoms: C1_2  and  C2_3 
ROOT
ATOM      1  C2  UNL d   1      -2.363   3.804  -4.841  0.00  0.00    -0.073 A 
ATOM      2  C3  UNL d   1      -2.279   5.157  -4.494  0.00  0.00    -0.002 A 
ATOM      3  C4  UNL d   1      -3.387   5.992  -4.641  0.00  0.00     0.004 A 
ATOM      4  C5  UNL d   1      -4.590   5.483  -5.129  0.00  0.00    -0.004 A 
ATOM      5  C6  UNL d   1      -4.698   4.131  -5.470  0.00  0.00    -0.075 A 
ATOM      6  C7  UNL d   1      -5.984   3.568  -5.999  0.00  0.00     0.076 C 
ATOM      7  C8  UNL d   1      -3.580   3.299  -5.322  0.00  0.00     0.001 A 
ENDROOT
BRANCH   1   8
ATOM      8  C1  UNL d   1      -1.171   2.896  -4.678  0.00  0.00     0.053 C 
ATOM      9  C   UNL d   1      -0.463   2.643  -6.000  0.00  0.00     0.018 C 
ENDBRANCH   1   8
TORSDOF 1
ENDMDL
