MODEL 1
REMARK minimizedAffinity 10.3679237
REMARK minimizedRMSD -1
REMARK  1 active torsions:
REMARK  status: ('A' for Active; 'I' for Inactive)
REMARK    1  A    between atoms: C1_2  and  C2_3 
ROOT
ATOM      1  C2  UNL d   1       1.400   2.873   2.363  0.00  0.00    -0.073 A 
ATOM      2  C3  UNL d   1       1.026   2.155   1.222  0.00  0.00    -0.002 A 
ATOM      3  C4  UNL d   1      -0.314   1.833   0.999  0.00  0.00     0.004 A 
ATOM      4  C5  UNL d   1      -1.292   2.232   1.910  0.00  0.00    -0.004 A 
ATOM      5  C6  UNL d   1      -0.939   2.961   3.050  0.00  0.00    -0.075 A 
ATOM      6  C7  UNL d   1      -1.980   3.395   4.040  0.00  0.00     0.076 C 
ATOM      7  C8  UNL d   1       0.408   3.277   3.268  0.00  0.00     0.001 A 
ENDROOT
BRANCH   1   8
ATOM      8  C1  UNL d   1       2.844   3.228   2.605  0.00  0.00     0.053 C 
ATOM      9  C   UNL d   1       3.789   2.361   1.788  0.00  0.00     0.018 C 
ENDBRANCH   1   8
TORSDOF 1
ENDMDL
