MODEL 1
REMARK minimizedAffinity 12.9192066
REMARK minimizedRMSD -1
REMARK  1 active torsions:
REMARK  status: ('A' for Active; 'I' for Inactive)
REMARK    1  A    between atoms: C1_2  and  C2_3 
ROOT
ATOM      1  C2  UNL d   1      -1.145   3.734  -5.294  0.00  0.00    -0.073 A 
ATOM      2  C3  UNL d   1       0.067   3.724  -5.994  0.00  0.00    -0.002 A 
ATOM      3  C4  UNL d   1       1.257   3.408  -5.337  0.00  0.00     0.004 A 
ATOM      4  C5  UNL d   1       1.247   3.094  -3.978  0.00  0.00    -0.004 A 
ATOM      5  C6  UNL d   1       0.044   3.087  -3.264  0.00  0.00    -0.075 A 
ATOM      6  C7  UNL d   1       0.017   2.753  -1.802  0.00  0.00     0.076 C 
ATOM      7  C8  UNL d   1      -1.147   3.408  -3.930  0.00  0.00     0.001 A 
ENDROOT
BRANCH   1   8
ATOM      8  C1  UNL d   1      -2.434   4.068  -6.000  0.00  0.00     0.053 C 
ATOM      9  C   UNL d   1      -3.415   2.906  -5.976  0.00  0.00     0.018 C 
ENDBRANCH   1   8
TORSDOF 1
ENDMDL
