MODEL 1
REMARK minimizedAffinity -0.337715507
REMARK minimizedRMSD -1
REMARK  1 active torsions:
REMARK  status: ('A' for Active; 'I' for Inactive)
REMARK    1  A    between atoms: C1_2  and  C2_3 
ROOT
ATOM      1  C2  UNL d   1      -1.382   3.774  -5.920  0.00  0.00    -0.073 A 
ATOM      2  C3  UNL d   1      -1.224   5.164  -5.947  0.00  0.00    -0.002 A 
ATOM      3  C4  UNL d   1      -2.341   6.000  -5.989  0.00  0.00     0.004 A 
ATOM      4  C5  UNL d   1      -3.625   5.455  -5.997  0.00  0.00    -0.004 A 
ATOM      5  C6  UNL d   1      -3.804   4.069  -5.958  0.00  0.00    -0.075 A 
ATOM      6  C7  UNL d   1      -5.179   3.467  -5.968  0.00  0.00     0.076 C 
ATOM      7  C8  UNL d   1      -2.677   3.236  -5.919  0.00  0.00     0.001 A 
ENDROOT
BRANCH   1   8
ATOM      8  C1  UNL d   1      -0.180   2.868  -5.868  0.00  0.00     0.053 C 
ATOM      9  C   UNL d   1       1.122   3.651  -5.798  0.00  0.00     0.018 C 
ENDBRANCH   1   8
TORSDOF 1
ENDMDL
