MODEL 1
REMARK minimizedAffinity 5.15654516
REMARK minimizedRMSD -1
REMARK  1 active torsions:
REMARK  status: ('A' for Active; 'I' for Inactive)
REMARK    1  A    between atoms: C1_2  and  C2_3 
ROOT
ATOM      1  C2  UNL d   1       1.070   0.813  -0.070  0.00  0.00    -0.073 A 
ATOM      2  C3  UNL d   1       0.913   2.189  -0.269  0.00  0.00    -0.002 A 
ATOM      3  C4  UNL d   1      -0.279   2.821   0.087  0.00  0.00     0.004 A 
ATOM      4  C5  UNL d   1      -1.321   2.087   0.653  0.00  0.00    -0.004 A 
ATOM      5  C6  UNL d   1      -1.179   0.713   0.871  0.00  0.00    -0.075 A 
ATOM      6  C7  UNL d   1      -2.292  -0.092   1.475  0.00  0.00     0.076 C 
ATOM      7  C8  UNL d   1       0.020   0.084   0.508  0.00  0.00     0.001 A 
ENDROOT
BRANCH   1   8
ATOM      8  C1  UNL d   1       2.358   0.127  -0.447  0.00  0.00     0.053 C 
ATOM      9  C   UNL d   1       2.690   0.309  -1.920  0.00  0.00     0.018 C 
ENDBRANCH   1   8
TORSDOF 1
ENDMDL
