MODEL 1
REMARK minimizedAffinity 0.671261668
REMARK minimizedRMSD -1
REMARK  1 active torsions:
REMARK  status: ('A' for Active; 'I' for Inactive)
REMARK    1  A    between atoms: C1_2  and  C2_3 
ROOT
ATOM      1  C2  UNL d   1      -1.063   4.027  -5.980  0.00  0.00    -0.073 A 
ATOM      2  C3  UNL d   1      -0.905   2.636  -6.000  0.00  0.00    -0.002 A 
ATOM      3  C4  UNL d   1       0.371   2.072  -6.000  0.00  0.00     0.004 A 
ATOM      4  C5  UNL d   1       1.501   2.891  -5.973  0.00  0.00    -0.004 A 
ATOM      5  C6  UNL d   1       1.363   4.282  -5.941  0.00  0.00    -0.075 A 
ATOM      6  C7  UNL d   1       2.567   5.176  -5.914  0.00  0.00     0.076 C 
ATOM      7  C8  UNL d   1       0.078   4.841  -5.944  0.00  0.00     0.001 A 
ENDROOT
BRANCH   1   8
ATOM      8  C1  UNL d   1      -2.440   4.640  -5.974  0.00  0.00     0.053 C 
ATOM      9  C   UNL d   1      -3.534   3.585  -5.989  0.00  0.00     0.018 C 
ENDBRANCH   1   8
TORSDOF 1
ENDMDL
