MODEL 1
REMARK minimizedAffinity 8.16875458
REMARK minimizedRMSD -1
REMARK  1 active torsions:
REMARK  status: ('A' for Active; 'I' for Inactive)
REMARK    1  A    between atoms: C1_2  and  C2_3 
ROOT
ATOM      1  C2  UNL d   1      -4.739  -1.068   2.738  0.00  0.00    -0.076 A 
ATOM      2  C3  UNL d   1      -4.549  -0.064   1.772  0.00  0.00     0.004 A 
ATOM      3  C4  UNL d   1      -3.417   0.749   1.796  0.00  0.00    -0.003 A 
ATOM      4  C5  UNL d   1      -2.456   0.571   2.784  0.00  0.00     0.000 A 
ATOM      5  C6  UNL d   1      -2.619  -0.432   3.740  0.00  0.00     0.000 A 
ATOM      6  C7  UNL d   1      -3.747  -1.271   3.721  0.00  0.00    -0.073 A 
ATOM      7  C8  UNL d   1      -3.875  -2.332   4.779  0.00  0.00     0.078 C 
ENDROOT
BRANCH   1   8
ATOM      8  C1  UNL d   1      -5.999  -1.900   2.678  0.00  0.00     0.053 C 
ATOM      9  C   UNL d   1      -5.783  -3.236   1.984  0.00  0.00     0.018 C 
ENDBRANCH   1   8
TORSDOF 1
ENDMDL
