MODEL 1
REMARK minimizedAffinity 11.8157701
REMARK minimizedRMSD -1
REMARK  1 active torsions:
REMARK  status: ('A' for Active; 'I' for Inactive)
REMARK    1  A    between atoms: C1_2  and  C2_3 
ROOT
ATOM      1  C2  UNL d   1      -3.151  -4.316  -4.356  0.00  0.00    -0.076 A 
ATOM      2  C3  UNL d   1      -3.919  -5.188  -5.146  0.00  0.00     0.004 A 
ATOM      3  C4  UNL d   1      -4.944  -4.707  -5.958  0.00  0.00    -0.003 A 
ATOM      4  C5  UNL d   1      -5.217  -3.344  -5.994  0.00  0.00     0.000 A 
ATOM      5  C6  UNL d   1      -4.454  -2.461  -5.231  0.00  0.00     0.000 A 
ATOM      6  C7  UNL d   1      -3.406  -2.929  -4.419  0.00  0.00    -0.073 A 
ATOM      7  C8  UNL d   1      -2.619  -1.933  -3.612  0.00  0.00     0.078 C 
ENDROOT
BRANCH   1   8
ATOM      8  C1  UNL d   1      -2.070  -4.899  -3.474  0.00  0.00     0.053 C 
ATOM      9  C   UNL d   1      -2.631  -5.549  -2.219  0.00  0.00     0.018 C 
ENDBRANCH   1   8
TORSDOF 1
ENDMDL
