MODEL 1
REMARK minimizedAffinity 12.5058422
REMARK minimizedRMSD -1
REMARK  1 active torsions:
REMARK  status: ('A' for Active; 'I' for Inactive)
REMARK    1  A    between atoms: C1_2  and  C2_3 
ROOT
ATOM      1  C2  UNL d   1      -0.491  -1.614  -2.950  0.00  0.00    -0.076 A 
ATOM      2  C3  UNL d   1      -0.254  -3.000  -2.941  0.00  0.00     0.004 A 
ATOM      3  C4  UNL d   1      -1.284  -3.906  -3.188  0.00  0.00    -0.003 A 
ATOM      4  C5  UNL d   1      -2.568  -3.441  -3.449  0.00  0.00     0.000 A 
ATOM      5  C6  UNL d   1      -2.818  -2.069  -3.480  0.00  0.00     0.000 A 
ATOM      6  C7  UNL d   1      -1.787  -1.142  -3.249  0.00  0.00    -0.073 A 
ATOM      7  C8  UNL d   1      -2.114   0.326  -3.287  0.00  0.00     0.078 C 
ENDROOT
BRANCH   1   8
ATOM      8  C1  UNL d   1       0.660  -0.681  -2.648  0.00  0.00     0.053 C 
ATOM      9  C   UNL d   1       1.338  -0.166  -3.908  0.00  0.00     0.018 C 
ENDBRANCH   1   8
TORSDOF 1
ENDMDL
