MODEL 1
REMARK minimizedAffinity 18.1326313
REMARK minimizedRMSD -1
REMARK  1 active torsions:
REMARK  status: ('A' for Active; 'I' for Inactive)
REMARK    1  A    between atoms: C1_2  and  C2_3 
ROOT
ATOM      1  C2  UNL d   1       2.827   0.243  -2.108  0.00  0.00    -0.076 A 
ATOM      2  C3  UNL d   1       3.820   1.220  -2.290  0.00  0.00     0.004 A 
ATOM      3  C4  UNL d   1       4.706   1.543  -1.263  0.00  0.00    -0.003 A 
ATOM      4  C5  UNL d   1       4.613   0.892  -0.038  0.00  0.00     0.000 A 
ATOM      5  C6  UNL d   1       3.645  -0.093   0.154  0.00  0.00     0.000 A 
ATOM      6  C7  UNL d   1       2.755  -0.442  -0.876  0.00  0.00    -0.073 A 
ATOM      7  C8  UNL d   1       1.726  -1.507  -0.612  0.00  0.00     0.078 C 
ENDROOT
BRANCH   1   8
ATOM      8  C1  UNL d   1       1.877  -0.046  -3.249  0.00  0.00     0.053 C 
ATOM      9  C   UNL d   1       2.572  -0.035  -4.602  0.00  0.00     0.018 C 
ENDBRANCH   1   8
TORSDOF 1
ENDMDL
