MODEL 1
REMARK minimizedAffinity 13.0490026
REMARK minimizedRMSD -1
REMARK  1 active torsions:
REMARK  status: ('A' for Active; 'I' for Inactive)
REMARK    1  A    between atoms: C1_2  and  C2_3 
ROOT
ATOM      1  C2  UNL d   1      -0.965   1.315   3.699  0.00  0.00    -0.076 A 
ATOM      2  C3  UNL d   1      -1.030   2.257   4.740  0.00  0.00     0.004 A 
ATOM      3  C4  UNL d   1       0.087   2.537   5.526  0.00  0.00    -0.003 A 
ATOM      4  C5  UNL d   1       1.288   1.879   5.283  0.00  0.00     0.000 A 
ATOM      5  C6  UNL d   1       1.375   0.954   4.243  0.00  0.00     0.000 A 
ATOM      6  C7  UNL d   1       0.263   0.673   3.431  0.00  0.00    -0.073 A 
ATOM      7  C8  UNL d   1       0.412  -0.339   2.328  0.00  0.00     0.078 C 
ENDROOT
BRANCH   1   8
ATOM      8  C1  UNL d   1      -2.216   1.033   2.898  0.00  0.00     0.053 C 
ATOM      9  C   UNL d   1      -3.468   1.012   3.761  0.00  0.00     0.018 C 
ENDBRANCH   1   8
TORSDOF 1
ENDMDL
