MODEL 1
REMARK minimizedAffinity 6.074893
REMARK minimizedRMSD -1
REMARK  1 active torsions:
REMARK  status: ('A' for Active; 'I' for Inactive)
REMARK    1  A    between atoms: C1_2  and  C2_3 
ROOT
ATOM      1  C2  UNL d   1       3.513  -4.757  -1.099  0.00  0.00    -0.076 A 
ATOM      2  C3  UNL d   1       3.722  -3.564  -0.386  0.00  0.00     0.004 A 
ATOM      3  C4  UNL d   1       3.078  -2.385  -0.757  0.00  0.00    -0.003 A 
ATOM      4  C5  UNL d   1       2.214  -2.380  -1.846  0.00  0.00     0.000 A 
ATOM      5  C6  UNL d   1       1.981  -3.558  -2.554  0.00  0.00     0.000 A 
ATOM      6  C7  UNL d   1       2.610  -4.759  -2.184  0.00  0.00    -0.073 A 
ATOM      7  C8  UNL d   1       2.327  -6.000  -2.986  0.00  0.00     0.078 C 
ENDROOT
BRANCH   1   8
ATOM      8  C1  UNL d   1       4.260  -5.999  -0.667  0.00  0.00     0.053 C 
ATOM      9  C   UNL d   1       5.707  -6.000  -1.134  0.00  0.00     0.018 C 
ENDBRANCH   1   8
TORSDOF 1
ENDMDL
