MODEL 1
REMARK minimizedAffinity 15.0060587
REMARK minimizedRMSD -1
REMARK  1 active torsions:
REMARK  status: ('A' for Active; 'I' for Inactive)
REMARK    1  A    between atoms: C1_2  and  C2_3 
ROOT
ATOM      1  C2  UNL d   1      -1.708   3.729  -4.300  0.00  0.00    -0.076 A 
ATOM      2  C3  UNL d   1      -2.565   2.985  -5.130  0.00  0.00     0.004 A 
ATOM      3  C4  UNL d   1      -3.478   3.620  -5.970  0.00  0.00    -0.003 A 
ATOM      4  C5  UNL d   1      -3.549   5.008  -5.994  0.00  0.00     0.000 A 
ATOM      5  C6  UNL d   1      -2.695   5.762  -5.190  0.00  0.00     0.000 A 
ATOM      6  C7  UNL d   1      -1.757   5.138  -4.350  0.00  0.00    -0.073 A 
ATOM      7  C8  UNL d   1      -0.864   6.000  -3.500  0.00  0.00     0.078 C 
ENDROOT
BRANCH   1   8
ATOM      8  C1  UNL d   1      -0.757   2.985  -3.390  0.00  0.00     0.053 C 
ATOM      9  C   UNL d   1       0.521   2.566  -4.100  0.00  0.00     0.018 C 
ENDBRANCH   1   8
TORSDOF 1
ENDMDL
