MODEL 1
REMARK minimizedAffinity 5.89430952
REMARK minimizedRMSD -1
REMARK  1 active torsions:
REMARK  status: ('A' for Active; 'I' for Inactive)
REMARK    1  A    between atoms: C1_2  and  C2_3 
ROOT
ATOM      1  C2  UNL d   1       1.582   0.811   0.103  0.00  0.00    -0.076 A 
ATOM      2  C3  UNL d   1       1.928   2.118  -0.280  0.00  0.00     0.004 A 
ATOM      3  C4  UNL d   1       2.467   2.377  -1.539  0.00  0.00    -0.003 A 
ATOM      4  C5  UNL d   1       2.670   1.333  -2.435  0.00  0.00     0.000 A 
ATOM      5  C6  UNL d   1       2.316   0.033  -2.078  0.00  0.00     0.000 A 
ATOM      6  C7  UNL d   1       1.755  -0.244  -0.819  0.00  0.00    -0.073 A 
ATOM      7  C8  UNL d   1       1.398  -1.666  -0.484  0.00  0.00     0.078 C 
ENDROOT
BRANCH   1   8
ATOM      8  C1  UNL d   1       1.026   0.586   1.491  0.00  0.00     0.053 C 
ATOM      9  C   UNL d   1       0.034   1.663   1.902  0.00  0.00     0.018 C 
ENDBRANCH   1   8
TORSDOF 1
ENDMDL
