MODEL 1
REMARK minimizedAffinity 18.7909393
REMARK minimizedRMSD -1
REMARK  1 active torsions:
REMARK  status: ('A' for Active; 'I' for Inactive)
REMARK    1  A    between atoms: C1_2  and  C2_3 
ROOT
ATOM      1  C2  UNL d   1       0.407  -1.894  -3.605  0.00  0.00    -0.076 A 
ATOM      2  C3  UNL d   1       0.487  -2.103  -4.993  0.00  0.00     0.004 A 
ATOM      3  C4  UNL d   1       1.421  -1.419  -5.769  0.00  0.00    -0.003 A 
ATOM      4  C5  UNL d   1       2.291  -0.515  -5.169  0.00  0.00     0.000 A 
ATOM      5  C6  UNL d   1       2.238  -0.309  -3.791  0.00  0.00     0.000 A 
ATOM      6  C7  UNL d   1       1.313  -1.003  -2.992  0.00  0.00    -0.073 A 
ATOM      7  C8  UNL d   1       1.296  -0.737  -1.512  0.00  0.00     0.078 C 
ENDROOT
BRANCH   1   8
ATOM      8  C1  UNL d   1      -0.644  -2.645  -2.819  0.00  0.00     0.053 C 
ATOM      9  C   UNL d   1      -2.059  -2.282  -3.243  0.00  0.00     0.018 C 
ENDBRANCH   1   8
TORSDOF 1
ENDMDL
