MODEL 1
REMARK minimizedAffinity 21.9494286
REMARK minimizedRMSD -1
REMARK  1 active torsions:
REMARK  status: ('A' for Active; 'I' for Inactive)
REMARK    1  A    between atoms: C1_2  and  C2_3 
ROOT
ATOM      1  C2  UNL d   1       1.722  -0.051  -2.633  0.00  0.00    -0.076 A 
ATOM      2  C3  UNL d   1       2.833   0.470  -1.947  0.00  0.00     0.004 A 
ATOM      3  C4  UNL d   1       3.062   0.154  -0.609  0.00  0.00    -0.003 A 
ATOM      4  C5  UNL d   1       2.185  -0.690   0.064  0.00  0.00     0.000 A 
ATOM      5  C6  UNL d   1       1.088  -1.230  -0.606  0.00  0.00     0.000 A 
ATOM      6  C7  UNL d   1       0.852  -0.934  -1.960  0.00  0.00    -0.073 A 
ATOM      7  C8  UNL d   1      -0.350  -1.540  -2.632  0.00  0.00     0.078 C 
ENDROOT
BRANCH   1   8
ATOM      8  C1  UNL d   1       1.510   0.348  -4.076  0.00  0.00     0.053 C 
ATOM      9  C   UNL d   1       2.222  -0.579  -5.049  0.00  0.00     0.018 C 
ENDBRANCH   1   8
TORSDOF 1
ENDMDL
