MODEL 1
REMARK minimizedAffinity 15.3185568
REMARK minimizedRMSD -1
REMARK  1 active torsions:
REMARK  status: ('A' for Active; 'I' for Inactive)
REMARK    1  A    between atoms: C1_2  and  C2_3 
ROOT
ATOM      1  C2  UNL d   1      -1.313   1.139   5.871  0.00  0.00    -0.076 A 
ATOM      2  C3  UNL d   1      -2.481   0.357   5.896  0.00  0.00     0.004 A 
ATOM      3  C4  UNL d   1      -3.740   0.950   5.960  0.00  0.00    -0.003 A 
ATOM      4  C5  UNL d   1      -3.853   2.335   5.999  0.00  0.00     0.000 A 
ATOM      5  C6  UNL d   1      -2.706   3.127   5.957  0.00  0.00     0.000 A 
ATOM      6  C7  UNL d   1      -1.429   2.546   5.876  0.00  0.00    -0.073 A 
ATOM      7  C8  UNL d   1      -0.226   3.448   5.839  0.00  0.00     0.078 C 
ENDROOT
BRANCH   1   8
ATOM      8  C1  UNL d   1       0.027   0.440   5.829  0.00  0.00     0.053 C 
ATOM      9  C   UNL d   1       0.891   0.906   4.667  0.00  0.00     0.018 C 
ENDBRANCH   1   8
TORSDOF 1
ENDMDL
