MODEL 1
REMARK minimizedAffinity 21.2539921
REMARK minimizedRMSD -1
REMARK  1 active torsions:
REMARK  status: ('A' for Active; 'I' for Inactive)
REMARK    1  A    between atoms: C1_2  and  C2_3 
ROOT
ATOM      1  C2  UNL d   1      -3.089   0.933   3.561  0.00  0.00    -0.076 A 
ATOM      2  C3  UNL d   1      -4.063  -0.054   3.325  0.00  0.00     0.004 A 
ATOM      3  C4  UNL d   1      -3.848  -1.063   2.388  0.00  0.00    -0.003 A 
ATOM      4  C5  UNL d   1      -2.656  -1.104   1.674  0.00  0.00     0.000 A 
ATOM      5  C6  UNL d   1      -1.672  -0.144   1.909  0.00  0.00     0.000 A 
ATOM      6  C7  UNL d   1      -1.866   0.871   2.861  0.00  0.00    -0.073 A 
ATOM      7  C8  UNL d   1      -0.773   1.884   3.069  0.00  0.00     0.078 C 
ENDROOT
BRANCH   1   8
ATOM      8  C1  UNL d   1      -3.389   2.019   4.569  0.00  0.00     0.053 C 
ATOM      9  C   UNL d   1      -4.854   2.430   4.564  0.00  0.00     0.018 C 
ENDBRANCH   1   8
TORSDOF 1
ENDMDL
