MODEL 1
REMARK minimizedAffinity 12.0503674
REMARK minimizedRMSD -1
REMARK  0 active torsions:
REMARK  status: ('A' for Active; 'I' for Inactive)
ROOT
ATOM      1  O1  BZF d   1      -1.326   3.394   0.173  0.00  0.00    -0.204 OA
ATOM      2  C2  BZF d   1      -0.161   3.968   0.643  0.00  0.00     0.174 A 
ATOM      3  C3  BZF d   1       0.871   3.105   0.546  0.00  0.00    -0.012 A 
ATOM      4  C3A BZF d   1       0.334   1.949  -0.105  0.00  0.00    -0.107 A 
ATOM      5  C4  BZF d   1       0.873   0.757  -0.497  0.00  0.00     0.055 A 
ATOM      6  C5  BZF d   1       0.062  -0.188  -1.041  0.00  0.00    -0.016 A 
ATOM      7  C6  BZF d   1      -1.292   0.024  -1.203  0.00  0.00     0.022 A 
ATOM      8  C7  BZF d   1      -1.871   1.192  -0.835  0.00  0.00     0.029 A 
ATOM      9  C7A BZF d   1      -1.048   2.162  -0.315  0.00  0.00     0.058 A 
ENDROOT
TORSDOF 0
ENDMDL
