MODEL 1
REMARK minimizedAffinity 2.30363846
REMARK minimizedRMSD -1
REMARK  0 active torsions:
REMARK  status: ('A' for Active; 'I' for Inactive)
ROOT
ATOM      1  O1  BZF d   1      -3.062   2.018  -4.072  0.00  0.00    -0.204 OA
ATOM      2  C2  BZF d   1      -3.068   1.110  -5.112  0.00  0.00     0.174 A 
ATOM      3  C3  BZF d   1      -4.040   1.404  -6.000  0.00  0.00    -0.012 A 
ATOM      4  C3A BZF d   1      -4.622   2.624  -5.529  0.00  0.00    -0.107 A 
ATOM      5  C4  BZF d   1      -5.625   3.426  -5.993  0.00  0.00     0.055 A 
ATOM      6  C5  BZF d   1      -5.999   4.507  -5.259  0.00  0.00    -0.016 A 
ATOM      7  C6  BZF d   1      -5.397   4.812  -4.056  0.00  0.00     0.022 A 
ATOM      8  C7  BZF d   1      -4.394   4.048  -3.558  0.00  0.00     0.029 A 
ATOM      9  C7A BZF d   1      -3.991   2.974  -4.313  0.00  0.00     0.058 A 
ENDROOT
TORSDOF 0
ENDMDL
