MODEL 1
REMARK minimizedAffinity 12.6167183
REMARK minimizedRMSD -1
REMARK  0 active torsions:
REMARK  status: ('A' for Active; 'I' for Inactive)
ROOT
ATOM      1  O1  BZF d   1       2.061  -0.014   4.204  0.00  0.00    -0.204 OA
ATOM      2  C2  BZF d   1       1.255  -0.723   5.073  0.00  0.00     0.174 A 
ATOM      3  C3  BZF d   1       0.034  -0.157   5.162  0.00  0.00    -0.012 A 
ATOM      4  C3A BZF d   1       0.050   0.923   4.223  0.00  0.00    -0.107 A 
ATOM      5  C4  BZF d   1      -0.877   1.849   3.841  0.00  0.00     0.055 A 
ATOM      6  C5  BZF d   1      -0.521   2.813   2.952  0.00  0.00    -0.016 A 
ATOM      7  C6  BZF d   1       0.754   2.884   2.430  0.00  0.00     0.022 A 
ATOM      8  C7  BZF d   1       1.707   1.984   2.775  0.00  0.00     0.029 A 
ATOM      9  C7A BZF d   1       1.340   0.989   3.648  0.00  0.00     0.058 A 
ENDROOT
TORSDOF 0
ENDMDL
