MODEL 1
REMARK minimizedAffinity 6.04454851
REMARK minimizedRMSD -1
REMARK  0 active torsions:
REMARK  status: ('A' for Active; 'I' for Inactive)
ROOT
ATOM      1  O1  BZF d   1      -3.941  -5.780  -1.847  0.00  0.00    -0.204 OA
ATOM      2  C2  BZF d   1      -5.303  -5.773  -1.614  0.00  0.00     0.174 A 
ATOM      3  C3  BZF d   1      -5.987  -5.785  -2.776  0.00  0.00    -0.012 A 
ATOM      4  C3A BZF d   1      -4.991  -5.894  -3.798  0.00  0.00    -0.107 A 
ATOM      5  C4  BZF d   1      -5.048  -5.968  -5.160  0.00  0.00     0.055 A 
ATOM      6  C5  BZF d   1      -3.889  -5.992  -5.869  0.00  0.00    -0.016 A 
ATOM      7  C6  BZF d   1      -2.657  -5.938  -5.250  0.00  0.00     0.022 A 
ATOM      8  C7  BZF d   1      -2.551  -5.869  -3.900  0.00  0.00     0.029 A 
ATOM      9  C7A BZF d   1      -3.720  -5.878  -3.179  0.00  0.00     0.058 A 
ENDROOT
TORSDOF 0
ENDMDL
