MODEL 1
REMARK minimizedAffinity 19.6193047
REMARK minimizedRMSD -1
REMARK  0 active torsions:
REMARK  status: ('A' for Active; 'I' for Inactive)
ROOT
ATOM      1  O1  BZF d   1      -3.383   0.520  -1.054  0.00  0.00    -0.204 OA
ATOM      2  C2  BZF d   1      -3.436   1.220   0.136  0.00  0.00     0.174 A 
ATOM      3  C3  BZF d   1      -2.195   1.450   0.611  0.00  0.00    -0.012 A 
ATOM      4  C3A BZF d   1      -1.308   0.939  -0.389  0.00  0.00    -0.107 A 
ATOM      5  C4  BZF d   1       0.052   0.889  -0.501  0.00  0.00     0.055 A 
ATOM      6  C5  BZF d   1       0.604   0.255  -1.569  0.00  0.00    -0.016 A 
ATOM      7  C6  BZF d   1      -0.173  -0.342  -2.540  0.00  0.00     0.022 A 
ATOM      8  C7  BZF d   1      -1.526  -0.314  -2.475  0.00  0.00     0.029 A 
ATOM      9  C7A BZF d   1      -2.087   0.354  -1.414  0.00  0.00     0.058 A 
ENDROOT
TORSDOF 0
ENDMDL
