MODEL 1
REMARK minimizedAffinity 10.1980181
REMARK minimizedRMSD -1
REMARK  0 active torsions:
REMARK  status: ('A' for Active; 'I' for Inactive)
ROOT
ATOM      1  O1  BZF d   1       1.878   3.943   1.787  0.00  0.00    -0.204 OA
ATOM      2  C2  BZF d   1       1.131   2.881   2.257  0.00  0.00     0.174 A 
ATOM      3  C3  BZF d   1      -0.046   2.798   1.605  0.00  0.00    -0.012 A 
ATOM      4  C3A BZF d   1       0.005   3.820   0.605  0.00  0.00    -0.107 A 
ATOM      5  C4  BZF d   1      -0.863   4.225  -0.369  0.00  0.00     0.055 A 
ATOM      6  C5  BZF d   1      -0.542   5.302  -1.133  0.00  0.00    -0.016 A 
ATOM      7  C6  BZF d   1       0.633   6.000  -0.947  0.00  0.00     0.022 A 
ATOM      8  C7  BZF d   1       1.527   5.633   0.003  0.00  0.00     0.029 A 
ATOM      9  C7A BZF d   1       1.221   4.525   0.755  0.00  0.00     0.058 A 
ENDROOT
TORSDOF 0
ENDMDL
