MODEL 1
REMARK minimizedAffinity 14.9852276
REMARK minimizedRMSD -1
REMARK  0 active torsions:
REMARK  status: ('A' for Active; 'I' for Inactive)
ROOT
ATOM      1  O1  BZF d   1       1.136   1.715   0.186  0.00  0.00    -0.204 OA
ATOM      2  C2  BZF d   1       0.489   2.801   0.743  0.00  0.00     0.174 A 
ATOM      3  C3  BZF d   1      -0.829   2.771   0.459  0.00  0.00    -0.012 A 
ATOM      4  C3A BZF d   1      -1.034   1.544  -0.247  0.00  0.00    -0.107 A 
ATOM      5  C4  BZF d   1      -2.136   0.941  -0.781  0.00  0.00     0.055 A 
ATOM      6  C5  BZF d   1      -1.985  -0.220  -1.471  0.00  0.00    -0.016 A 
ATOM      7  C6  BZF d   1      -0.747  -0.803  -1.650  0.00  0.00     0.022 A 
ATOM      8  C7  BZF d   1       0.375  -0.244  -1.135  0.00  0.00     0.029 A 
ATOM      9  C7A BZF d   1       0.221   0.912  -0.409  0.00  0.00     0.058 A 
ENDROOT
TORSDOF 0
ENDMDL
