MODEL 1
REMARK minimizedAffinity 10.3776274
REMARK minimizedRMSD -1
REMARK  0 active torsions:
REMARK  status: ('A' for Active; 'I' for Inactive)
ROOT
ATOM      1  O1  BZF d   1      -0.711   3.400   1.848  0.00  0.00    -0.204 OA
ATOM      2  C2  BZF d   1       0.392   2.658   2.221  0.00  0.00     0.174 A 
ATOM      3  C3  BZF d   1       1.475   3.016   1.502  0.00  0.00    -0.012 A 
ATOM      4  C3A BZF d   1       1.042   4.110   0.688  0.00  0.00    -0.107 A 
ATOM      5  C4  BZF d   1       1.668   4.903  -0.230  0.00  0.00     0.055 A 
ATOM      6  C5  BZF d   1       0.943   5.836  -0.902  0.00  0.00    -0.016 A 
ATOM      7  C6  BZF d   1      -0.410   5.998  -0.685  0.00  0.00     0.022 A 
ATOM      8  C7  BZF d   1      -1.074   5.238   0.219  0.00  0.00     0.029 A 
ATOM      9  C7A BZF d   1      -0.337   4.317   0.924  0.00  0.00     0.058 A 
ENDROOT
TORSDOF 0
ENDMDL
