MODEL 1
REMARK minimizedAffinity 13.1976738
REMARK minimizedRMSD -1
REMARK  0 active torsions:
REMARK  status: ('A' for Active; 'I' for Inactive)
ROOT
ATOM      1  O1  BZF d   1       1.579   2.355   0.603  0.00  0.00    -0.204 OA
ATOM      2  C2  BZF d   1       0.723   3.289   1.153  0.00  0.00     0.174 A 
ATOM      3  C3  BZF d   1      -0.563   2.939   0.948  0.00  0.00    -0.012 A 
ATOM      4  C3A BZF d   1      -0.507   1.661   0.306  0.00  0.00    -0.107 A 
ATOM      5  C4  BZF d   1      -1.461   0.791  -0.137  0.00  0.00     0.055 A 
ATOM      6  C5  BZF d   1      -1.074  -0.339  -0.787  0.00  0.00    -0.016 A 
ATOM      7  C6  BZF d   1       0.255  -0.625  -1.015  0.00  0.00     0.022 A 
ATOM      8  C7  BZF d   1       1.238   0.206  -0.590  0.00  0.00     0.029 A 
ATOM      9  C7A BZF d   1       0.852   1.331   0.096  0.00  0.00     0.058 A 
ENDROOT
TORSDOF 0
ENDMDL
