MODEL 1
REMARK minimizedAffinity 12.1788788
REMARK minimizedRMSD -1
REMARK  0 active torsions:
REMARK  status: ('A' for Active; 'I' for Inactive)
ROOT
ATOM      1  O1  BZF d   1      -4.225  -5.935  -2.001  0.00  0.00    -0.204 OA
ATOM      2  C2  BZF d   1      -5.598  -5.932  -2.152  0.00  0.00     0.174 A 
ATOM      3  C3  BZF d   1      -5.936  -5.897  -3.458  0.00  0.00    -0.012 A 
ATOM      4  C3A BZF d   1      -4.696  -5.970  -4.169  0.00  0.00    -0.107 A 
ATOM      5  C4  BZF d   1      -4.375  -5.992  -5.496  0.00  0.00     0.055 A 
ATOM      6  C5  BZF d   1      -3.066  -5.994  -5.859  0.00  0.00    -0.016 A 
ATOM      7  C6  BZF d   1      -2.053  -5.968  -4.922  0.00  0.00     0.022 A 
ATOM      8  C7  BZF d   1      -2.322  -5.951  -3.594  0.00  0.00     0.029 A 
ATOM      9  C7A BZF d   1      -3.644  -5.983  -3.224  0.00  0.00     0.058 A 
ENDROOT
TORSDOF 0
ENDMDL
