MODEL 1
REMARK minimizedAffinity 11.7040434
REMARK minimizedRMSD -1
REMARK  0 active torsions:
REMARK  status: ('A' for Active; 'I' for Inactive)
ROOT
ATOM      1  O1  BZF d   1       1.813   4.831  -0.154  0.00  0.00    -0.204 OA
ATOM      2  C2  BZF d   1       0.652   4.889  -0.900  0.00  0.00     0.174 A 
ATOM      3  C3  BZF d   1      -0.328   4.169  -0.317  0.00  0.00    -0.012 A 
ATOM      4  C3A BZF d   1       0.231   3.702   0.915  0.00  0.00    -0.107 A 
ATOM      5  C4  BZF d   1      -0.260   2.948   1.942  0.00  0.00     0.055 A 
ATOM      6  C5  BZF d   1       0.567   2.609   2.966  0.00  0.00    -0.016 A 
ATOM      7  C6  BZF d   1       1.889   3.002   2.993  0.00  0.00     0.022 A 
ATOM      8  C7  BZF d   1       2.419   3.756   2.000  0.00  0.00     0.029 A 
ATOM      9  C7A BZF d   1       1.578   4.128   0.980  0.00  0.00     0.058 A 
ENDROOT
TORSDOF 0
ENDMDL
