MODEL 1
REMARK minimizedAffinity 10.0033951
REMARK minimizedRMSD -1
REMARK  0 active torsions:
REMARK  status: ('A' for Active; 'I' for Inactive)
ROOT
ATOM      1  C   UNL d   1       3.287  -0.111  -0.588  0.00  0.00     0.124 A 
ATOM      2  C1  UNL d   1       2.665   1.115  -0.398  0.00  0.00     0.062 A 
ATOM      3  C2  UNL d   1       1.285   1.179  -0.221  0.00  0.00     0.162 A 
ATOM      4  C3  UNL d   1       0.519   0.014  -0.234  0.00  0.00    -0.034 A 
ATOM      5  C4  UNL d   1       1.152  -1.215  -0.427  0.00  0.00     0.162 A 
ATOM      6  C5  UNL d   1       2.531  -1.275  -0.602  0.00  0.00     0.062 A 
ATOM      7  F   UNL d   1       3.131  -2.460  -0.786  0.00  0.00    -0.097 F 
ATOM      8  F1  UNL d   1       0.446  -2.355  -0.444  0.00  0.00    -0.096 F 
ATOM      9  I   UNL d   1      -1.543   0.106   0.030  0.00  0.00    -0.060 I 
ATOM     10  F2  UNL d   1       0.710   2.377  -0.039  0.00  0.00    -0.096 F 
ATOM     11  F3  UNL d   1       3.393   2.240  -0.385  0.00  0.00    -0.097 F 
ATOM     12  F4  UNL d   1       4.614  -0.170  -0.759  0.00  0.00    -0.092 F 
ENDROOT
TORSDOF 0
ENDMDL
