MODEL 1
REMARK minimizedAffinity 14.9567051
REMARK minimizedRMSD -1
REMARK  0 active torsions:
REMARK  status: ('A' for Active; 'I' for Inactive)
ROOT
ATOM      1  C   UNL d   1      -1.904   0.537  -0.253  0.00  0.00     0.124 A 
ATOM      2  C1  UNL d   1      -2.030  -0.843  -0.165  0.00  0.00     0.062 A 
ATOM      3  C2  UNL d   1      -0.899  -1.643  -0.034  0.00  0.00     0.162 A 
ATOM      4  C3  UNL d   1       0.370  -1.065   0.011  0.00  0.00    -0.034 A 
ATOM      5  C4  UNL d   1       0.489   0.323  -0.079  0.00  0.00     0.162 A 
ATOM      6  C5  UNL d   1      -0.644   1.118  -0.209  0.00  0.00     0.062 A 
ATOM      7  F   UNL d   1      -0.520   2.451  -0.294  0.00  0.00    -0.097 F 
ATOM      8  F1  UNL d   1       1.694   0.911  -0.038  0.00  0.00    -0.096 F 
ATOM      9  I   UNL d   1       2.064  -2.258   0.207  0.00  0.00    -0.060 I 
ATOM     10  F2  UNL d   1      -1.051  -2.973   0.048  0.00  0.00    -0.096 F 
ATOM     11  F3  UNL d   1      -3.246  -1.407  -0.208  0.00  0.00    -0.097 F 
ATOM     12  F4  UNL d   1      -2.994   1.304  -0.380  0.00  0.00    -0.092 F 
ENDROOT
TORSDOF 0
ENDMDL
