MODEL 1
REMARK minimizedAffinity 10.5966492
REMARK minimizedRMSD -1
REMARK  0 active torsions:
REMARK  status: ('A' for Active; 'I' for Inactive)
ROOT
ATOM      1  C   UNL d   1       3.920  -0.694  -1.614  0.00  0.00     0.124 A 
ATOM      2  C1  UNL d   1       3.399  -1.964  -1.820  0.00  0.00     0.062 A 
ATOM      3  C2  UNL d   1       2.124  -2.281  -1.361  0.00  0.00     0.162 A 
ATOM      4  C3  UNL d   1       1.360  -1.325  -0.691  0.00  0.00    -0.034 A 
ATOM      5  C4  UNL d   1       1.891  -0.050  -0.487  0.00  0.00     0.162 A 
ATOM      6  C5  UNL d   1       3.166   0.261  -0.948  0.00  0.00     0.062 A 
ATOM      7  F   UNL d   1       3.668   1.489  -0.748  0.00  0.00    -0.097 F 
ATOM      8  F1  UNL d   1       1.184   0.892   0.154  0.00  0.00    -0.096 F 
ATOM      9  I   UNL d   1      -0.547  -1.795  -0.002  0.00  0.00    -0.060 I 
ATOM     10  F2  UNL d   1       1.646  -3.516  -1.574  0.00  0.00    -0.096 F 
ATOM     11  F3  UNL d   1       4.126  -2.889  -2.463  0.00  0.00    -0.097 F 
ATOM     12  F4  UNL d   1       5.148  -0.393  -2.057  0.00  0.00    -0.092 F 
ENDROOT
TORSDOF 0
ENDMDL
