MODEL 1
REMARK minimizedAffinity 11.2958069
REMARK minimizedRMSD -1
REMARK  0 active torsions:
REMARK  status: ('A' for Active; 'I' for Inactive)
ROOT
ATOM      1  C   UNL d   1       1.391  -1.783  -0.546  0.00  0.00     0.124 A 
ATOM      2  C1  UNL d   1       2.739  -1.802  -0.878  0.00  0.00     0.062 A 
ATOM      3  C2  UNL d   1       3.525  -0.671  -0.678  0.00  0.00     0.162 A 
ATOM      4  C3  UNL d   1       2.966   0.490  -0.143  0.00  0.00    -0.034 A 
ATOM      5  C4  UNL d   1       1.609   0.502   0.188  0.00  0.00     0.162 A 
ATOM      6  C5  UNL d   1       0.828  -0.632  -0.014  0.00  0.00     0.062 A 
ATOM      7  F   UNL d   1      -0.474  -0.611   0.308  0.00  0.00    -0.097 F 
ATOM      8  F1  UNL d   1       1.039   1.600   0.704  0.00  0.00    -0.096 F 
ATOM      9  I   UNL d   1       4.138   2.183   0.157  0.00  0.00    -0.060 I 
ATOM     10  F2  UNL d   1       4.824  -0.718  -1.008  0.00  0.00    -0.096 F 
ATOM     11  F3  UNL d   1       3.285  -2.913  -1.393  0.00  0.00    -0.097 F 
ATOM     12  F4  UNL d   1       0.637  -2.872  -0.739  0.00  0.00    -0.092 F 
ENDROOT
TORSDOF 0
ENDMDL
