MODEL 1
REMARK minimizedAffinity 17.7524452
REMARK minimizedRMSD -1
REMARK  0 active torsions:
REMARK  status: ('A' for Active; 'I' for Inactive)
ROOT
ATOM      1  C   UNL d   1       3.029  -2.247  -1.894  0.00  0.00     0.124 A 
ATOM      2  C1  UNL d   1       3.640  -1.007  -1.769  0.00  0.00     0.062 A 
ATOM      3  C2  UNL d   1       3.250  -0.133  -0.759  0.00  0.00     0.162 A 
ATOM      4  C3  UNL d   1       2.242  -0.495   0.135  0.00  0.00    -0.034 A 
ATOM      5  C4  UNL d   1       1.631  -1.743   0.002  0.00  0.00     0.162 A 
ATOM      6  C5  UNL d   1       2.025  -2.613  -1.009  0.00  0.00     0.062 A 
ATOM      7  F   UNL d   1       1.433  -3.811  -1.128  0.00  0.00    -0.097 F 
ATOM      8  F1  UNL d   1       0.659  -2.123   0.845  0.00  0.00    -0.096 F 
ATOM      9  I   UNL d   1       1.655   0.810   1.647  0.00  0.00    -0.060 I 
ATOM     10  F2  UNL d   1       3.858   1.059  -0.661  0.00  0.00    -0.096 F 
ATOM     11  F3  UNL d   1       4.610  -0.650  -2.623  0.00  0.00    -0.097 F 
ATOM     12  F4  UNL d   1       3.406  -3.086  -2.867  0.00  0.00    -0.092 F 
ENDROOT
TORSDOF 0
ENDMDL
