MODEL 1
REMARK minimizedAffinity 8.05392265
REMARK minimizedRMSD -1
REMARK  3 active torsions:
REMARK  status: ('A' for Active; 'I' for Inactive)
REMARK    1  A    between atoms: C3'_2  and  C2'_3 
REMARK    2  A    between atoms: C2'_3  and  C1'_4 
REMARK    3  A    between atoms: C1'_4  and  C1_5 
ROOT
ATOM      1  C1  N4B d   1       1.975  -0.649  -5.192  0.00  0.00    -0.075 A 
ATOM      2  C2  N4B d   1       3.094  -0.345  -6.000  0.00  0.00     0.002 A 
ATOM      3  C3  N4B d   1       4.364  -0.514  -5.505  0.00  0.00     0.002 A 
ATOM      4  C4  N4B d   1       4.539  -0.964  -4.205  0.00  0.00    -0.004 A 
ATOM      5  C5  N4B d   1       3.454  -1.279  -3.441  0.00  0.00     0.002 A 
ATOM      6  C6  N4B d   1       2.172  -1.119  -3.926  0.00  0.00     0.002 A 
ENDROOT
BRANCH   1   7
ATOM      7  C1' N4B d   1       0.567  -0.399  -5.659  0.00  0.00     0.057 C 
BRANCH   7   8
ATOM      8  C2' N4B d   1      -0.384  -1.309  -4.889  0.00  0.00     0.009 C 
BRANCH   8   9
ATOM      9  C3' N4B d   1      -1.828  -0.852  -5.008  0.00  0.00     0.004 C 
ATOM     10  C4' N4B d   1      -2.273  -0.023  -3.840  0.00  0.00     0.003 C 
ENDBRANCH   8   9
ENDBRANCH   7   8
ENDBRANCH   1   7
TORSDOF 3
ENDMDL
