MODEL 1
REMARK minimizedAffinity 3.84256339
REMARK minimizedRMSD -1
REMARK  3 active torsions:
REMARK  status: ('A' for Active; 'I' for Inactive)
REMARK    1  A    between atoms: C3'_2  and  C2'_3 
REMARK    2  A    between atoms: C2'_3  and  C1'_4 
REMARK    3  A    between atoms: C1'_4  and  C1_5 
ROOT
ATOM      1  C1  N4B d   1       0.444  -0.774   2.716  0.00  0.00    -0.075 A 
ATOM      2  C2  N4B d   1      -0.712  -0.068   2.313  0.00  0.00     0.002 A 
ATOM      3  C3  N4B d   1      -1.922  -0.714   2.247  0.00  0.00     0.002 A 
ATOM      4  C4  N4B d   1      -1.997  -2.063   2.558  0.00  0.00    -0.004 A 
ATOM      5  C5  N4B d   1      -0.882  -2.731   2.971  0.00  0.00     0.002 A 
ATOM      6  C6  N4B d   1       0.341  -2.094   3.046  0.00  0.00     0.002 A 
ENDROOT
BRANCH   1   7
ATOM      7  C1' N4B d   1       1.804  -0.132   2.721  0.00  0.00     0.057 C 
BRANCH   7   8
ATOM      8  C2' N4B d   1       1.667   1.336   2.329  0.00  0.00     0.009 C 
BRANCH   8   9
ATOM      9  C3' N4B d   1       2.595   1.708   1.185  0.00  0.00     0.004 C 
ATOM     10  C4' N4B d   1       2.321   3.077   0.637  0.00  0.00     0.003 C 
ENDBRANCH   8   9
ENDBRANCH   7   8
ENDBRANCH   1   7
TORSDOF 3
ENDMDL
