MODEL 1
REMARK minimizedAffinity 3.36483359
REMARK minimizedRMSD -1
REMARK  3 active torsions:
REMARK  status: ('A' for Active; 'I' for Inactive)
REMARK    1  A    between atoms: C3'_2  and  C2'_3 
REMARK    2  A    between atoms: C2'_3  and  C1'_4 
REMARK    3  A    between atoms: C1'_4  and  C1_5 
ROOT
ATOM      1  C1  N4B d   1       1.941  -1.507  -4.162  0.00  0.00    -0.075 A 
ATOM      2  C2  N4B d   1       0.785  -2.311  -4.064  0.00  0.00     0.002 A 
ATOM      3  C3  N4B d   1       0.557  -3.051  -2.929  0.00  0.00     0.002 A 
ATOM      4  C4  N4B d   1       1.477  -3.017  -1.892  0.00  0.00    -0.004 A 
ATOM      5  C5  N4B d   1       2.579  -2.218  -1.985  0.00  0.00     0.002 A 
ATOM      6  C6  N4B d   1       2.819  -1.466  -3.117  0.00  0.00     0.002 A 
ENDROOT
BRANCH   1   7
ATOM      7  C1' N4B d   1       2.276  -0.748  -5.417  0.00  0.00     0.057 C 
BRANCH   7   8
ATOM      8  C2' N4B d   1       1.000  -0.138  -5.989  0.00  0.00     0.009 C 
BRANCH   8   9
ATOM      9  C3' N4B d   1      -0.149  -1.131  -5.998  0.00  0.00     0.004 C 
ATOM     10  C4' N4B d   1      -1.460  -0.505  -5.626  0.00  0.00     0.003 C 
ENDBRANCH   8   9
ENDBRANCH   7   8
ENDBRANCH   1   7
TORSDOF 3
ENDMDL
