MODEL 1
REMARK minimizedAffinity -0.351100922
REMARK minimizedRMSD -1
REMARK  3 active torsions:
REMARK  status: ('A' for Active; 'I' for Inactive)
REMARK    1  A    between atoms: C3'_2  and  C2'_3 
REMARK    2  A    between atoms: C2'_3  and  C1'_4 
REMARK    3  A    between atoms: C1'_4  and  C1_5 
ROOT
ATOM      1  C1  N4B d   1       1.578  -0.897  -4.600  0.00  0.00    -0.075 A 
ATOM      2  C2  N4B d   1       0.878  -1.721  -3.691  0.00  0.00     0.002 A 
ATOM      3  C3  N4B d   1      -0.493  -1.781  -3.734  0.00  0.00     0.002 A 
ATOM      4  C4  N4B d   1      -1.185  -1.014  -4.660  0.00  0.00    -0.004 A 
ATOM      5  C5  N4B d   1      -0.500  -0.241  -5.551  0.00  0.00     0.002 A 
ATOM      6  C6  N4B d   1       0.878  -0.174  -5.523  0.00  0.00     0.002 A 
ENDROOT
BRANCH   1   7
ATOM      7  C1' N4B d   1       3.072  -0.734  -4.536  0.00  0.00     0.057 C 
BRANCH   7   8
ATOM      8  C2' N4B d   1       3.631  -0.677  -5.954  0.00  0.00     0.009 C 
BRANCH   8   9
ATOM      9  C3' N4B d   1       5.107  -1.030  -5.998  0.00  0.00     0.004 C 
ATOM     10  C4' N4B d   1       5.996   0.176  -5.924  0.00  0.00     0.003 C 
ENDBRANCH   8   9
ENDBRANCH   7   8
ENDBRANCH   1   7
TORSDOF 3
ENDMDL
