MODEL 1
REMARK minimizedAffinity 7.20586491
REMARK minimizedRMSD -1
REMARK  3 active torsions:
REMARK  status: ('A' for Active; 'I' for Inactive)
REMARK    1  A    between atoms: C3'_2  and  C2'_3 
REMARK    2  A    between atoms: C2'_3  and  C1'_4 
REMARK    3  A    between atoms: C1'_4  and  C1_5 
ROOT
ATOM      1  C1  N4B d   1       0.401  -1.885   3.504  0.00  0.00    -0.075 A 
ATOM      2  C2  N4B d   1       1.117  -1.705   4.708  0.00  0.00     0.002 A 
ATOM      3  C3  N4B d   1       2.458  -1.413   4.673  0.00  0.00     0.002 A 
ATOM      4  C4  N4B d   1       3.106  -1.314   3.451  0.00  0.00    -0.004 A 
ATOM      5  C5  N4B d   1       2.403  -1.464   2.292  0.00  0.00     0.002 A 
ATOM      6  C6  N4B d   1       1.054  -1.754   2.312  0.00  0.00     0.002 A 
ENDROOT
BRANCH   1   7
ATOM      7  C1' N4B d   1      -1.047  -2.291   3.494  0.00  0.00     0.057 C 
BRANCH   7   8
ATOM      8  C2' N4B d   1      -1.911  -1.058   3.242  0.00  0.00     0.009 C 
BRANCH   8   9
ATOM      9  C3' N4B d   1      -2.610  -1.120   1.895  0.00  0.00     0.004 C 
ATOM     10  C4' N4B d   1      -2.315  -2.384   1.145  0.00  0.00     0.003 C 
ENDBRANCH   8   9
ENDBRANCH   7   8
ENDBRANCH   1   7
TORSDOF 3
ENDMDL
