MODEL 1
REMARK minimizedAffinity 8.76720428
REMARK minimizedRMSD -1
REMARK  3 active torsions:
REMARK  status: ('A' for Active; 'I' for Inactive)
REMARK    1  A    between atoms: C3'_2  and  C2'_3 
REMARK    2  A    between atoms: C2'_3  and  C1'_4 
REMARK    3  A    between atoms: C1'_4  and  C1_5 
ROOT
ATOM      1  C1  N4B d   1       0.271  -1.279   2.914  0.00  0.00    -0.075 A 
ATOM      2  C2  N4B d   1      -0.551  -0.132   2.981  0.00  0.00     0.002 A 
ATOM      3  C3  N4B d   1      -1.891  -0.230   2.697  0.00  0.00     0.002 A 
ATOM      4  C4  N4B d   1      -2.426  -1.455   2.327  0.00  0.00    -0.004 A 
ATOM      5  C5  N4B d   1      -1.630  -2.563   2.289  0.00  0.00     0.002 A 
ATOM      6  C6  N4B d   1      -0.283  -2.480   2.576  0.00  0.00     0.002 A 
ENDROOT
BRANCH   1   7
ATOM      7  C1' N4B d   1       1.757  -1.205   3.133  0.00  0.00     0.057 C 
BRANCH   7   8
ATOM      8  C2' N4B d   1       2.055  -1.384   4.618  0.00  0.00     0.009 C 
BRANCH   8   9
ATOM      9  C3' N4B d   1       3.528  -1.648   4.875  0.00  0.00     0.004 C 
ATOM     10  C4' N4B d   1       4.129  -0.686   5.857  0.00  0.00     0.003 C 
ENDBRANCH   8   9
ENDBRANCH   7   8
ENDBRANCH   1   7
TORSDOF 3
ENDMDL
