MODEL 1
REMARK minimizedAffinity 3.73282599
REMARK minimizedRMSD -1
REMARK  3 active torsions:
REMARK  status: ('A' for Active; 'I' for Inactive)
REMARK    1  A    between atoms: C3'_2  and  C2'_3 
REMARK    2  A    between atoms: C2'_3  and  C1'_4 
REMARK    3  A    between atoms: C1'_4  and  C1_5 
ROOT
ATOM      1  C1  N4B d   1       1.506  -0.752  -5.201  0.00  0.00    -0.075 A 
ATOM      2  C2  N4B d   1       1.718  -1.307  -3.920  0.00  0.00     0.002 A 
ATOM      3  C3  N4B d   1       2.994  -1.581  -3.493  0.00  0.00     0.002 A 
ATOM      4  C4  N4B d   1       4.068  -1.325  -4.333  0.00  0.00    -0.004 A 
ATOM      5  C5  N4B d   1       3.856  -0.765  -5.559  0.00  0.00     0.002 A 
ATOM      6  C6  N4B d   1       2.579  -0.482  -5.999  0.00  0.00     0.002 A 
ENDROOT
BRANCH   1   7
ATOM      7  C1' N4B d   1       0.123  -0.516  -5.745  0.00  0.00     0.057 C 
BRANCH   7   8
ATOM      8  C2' N4B d   1      -0.875  -1.363  -4.961  0.00  0.00     0.009 C 
BRANCH   8   9
ATOM      9  C3' N4B d   1      -2.257  -0.733  -4.934  0.00  0.00     0.004 C 
ATOM     10  C4' N4B d   1      -2.237   0.692  -4.466  0.00  0.00     0.003 C 
ENDBRANCH   8   9
ENDBRANCH   7   8
ENDBRANCH   1   7
TORSDOF 3
ENDMDL
