MODEL 1
REMARK minimizedAffinity 12.8891401
REMARK minimizedRMSD -1
REMARK  0 active torsions:
REMARK  status: ('A' for Active; 'I' for Inactive)
ROOT
ATOM      1  C   UNL d   1       1.428   2.583   0.721  0.00  0.00     0.124 A 
ATOM      2  C1  UNL d   1       1.957   3.815   0.363  0.00  0.00     0.062 A 
ATOM      3  C2  UNL d   1       3.262   4.146   0.716  0.00  0.00     0.162 A 
ATOM      4  C3  UNL d   1       4.048   3.243   1.431  0.00  0.00    -0.034 A 
ATOM      5  C4  UNL d   1       3.509   2.006   1.789  0.00  0.00     0.162 A 
ATOM      6  C5  UNL d   1       2.204   1.680   1.433  0.00  0.00     0.062 A 
ATOM      7  F   UNL d   1       1.694   0.489   1.781  0.00  0.00    -0.097 F 
ATOM      8  F1  UNL d   1       4.237   1.114   2.476  0.00  0.00    -0.096 F 
ATOM      9  I   UNL d   1       6.000   3.734   1.961  0.00  0.00    -0.060 I 
ATOM     10  F2  UNL d   1       3.747   5.344   0.356  0.00  0.00    -0.096 F 
ATOM     11  F3  UNL d   1       1.208   4.690  -0.325  0.00  0.00    -0.097 F 
ATOM     12  F4  UNL d   1       0.171   2.268   0.381  0.00  0.00    -0.092 F 
ENDROOT
TORSDOF 0
ENDMDL
