MODEL 1
REMARK minimizedAffinity 16.922039
REMARK minimizedRMSD -1
REMARK  0 active torsions:
REMARK  status: ('A' for Active; 'I' for Inactive)
ROOT
ATOM      1  C   UNL d   1       1.125  -5.837  -3.623  0.00  0.00     0.124 A 
ATOM      2  C1  UNL d   1       1.822  -5.846  -4.824  0.00  0.00     0.062 A 
ATOM      3  C2  UNL d   1       3.213  -5.889  -4.825  0.00  0.00     0.162 A 
ATOM      4  C3  UNL d   1       3.918  -5.926  -3.622  0.00  0.00    -0.034 A 
ATOM      5  C4  UNL d   1       3.210  -5.915  -2.418  0.00  0.00     0.162 A 
ATOM      6  C5  UNL d   1       1.819  -5.872  -2.422  0.00  0.00     0.062 A 
ATOM      7  F   UNL d   1       1.148  -5.863  -1.261  0.00  0.00    -0.097 F 
ATOM      8  F1  UNL d   1       3.855  -5.949  -1.243  0.00  0.00    -0.096 F 
ATOM      9  I   UNL d   1       5.998  -5.991  -3.620  0.00  0.00    -0.060 I 
ATOM     10  F2  UNL d   1       3.860  -5.897  -6.000  0.00  0.00    -0.096 F 
ATOM     11  F3  UNL d   1       1.154  -5.811  -5.985  0.00  0.00    -0.097 F 
ATOM     12  F4  UNL d   1      -0.213  -5.794  -3.625  0.00  0.00    -0.092 F 
ENDROOT
TORSDOF 0
ENDMDL
