MODEL 1
REMARK minimizedAffinity 25.0638332
REMARK minimizedRMSD -1
REMARK  0 active torsions:
REMARK  status: ('A' for Active; 'I' for Inactive)
ROOT
ATOM      1  C   UNL d   1       4.395  -3.343  -2.391  0.00  0.00     0.124 A 
ATOM      2  C1  UNL d   1       4.780  -3.121  -3.706  0.00  0.00     0.062 A 
ATOM      3  C2  UNL d   1       4.197  -3.851  -4.738  0.00  0.00     0.162 A 
ATOM      4  C3  UNL d   1       3.221  -4.809  -4.460  0.00  0.00    -0.034 A 
ATOM      5  C4  UNL d   1       2.841  -5.026  -3.134  0.00  0.00     0.162 A 
ATOM      6  C5  UNL d   1       3.426  -4.295  -2.106  0.00  0.00     0.062 A 
ATOM      7  F   UNL d   1       3.054  -4.510  -0.836  0.00  0.00    -0.097 F 
ATOM      8  F1  UNL d   1       1.906  -5.940  -2.831  0.00  0.00    -0.096 F 
ATOM      9  I   UNL d   1       2.347  -5.901  -6.000  0.00  0.00    -0.060 I 
ATOM     10  F2  UNL d   1       4.587  -3.616  -6.000  0.00  0.00    -0.096 F 
ATOM     11  F3  UNL d   1       5.716  -2.203  -3.984  0.00  0.00    -0.097 F 
ATOM     12  F4  UNL d   1       4.958  -2.640  -1.400  0.00  0.00    -0.092 F 
ENDROOT
TORSDOF 0
ENDMDL
