MODEL 1
REMARK minimizedAffinity 24.1179848
REMARK minimizedRMSD -1
REMARK  0 active torsions:
REMARK  status: ('A' for Active; 'I' for Inactive)
ROOT
ATOM      1  C   UNL d   1       3.827   1.217   0.662  0.00  0.00     0.124 A 
ATOM      2  C1  UNL d   1       4.311   1.687  -0.551  0.00  0.00     0.062 A 
ATOM      3  C2  UNL d   1       4.302   3.051  -0.827  0.00  0.00     0.162 A 
ATOM      4  C3  UNL d   1       3.808   3.956   0.112  0.00  0.00    -0.034 A 
ATOM      5  C4  UNL d   1       3.322   3.476   1.330  0.00  0.00     0.162 A 
ATOM      6  C5  UNL d   1       3.333   2.112   1.601  0.00  0.00     0.062 A 
ATOM      7  F   UNL d   1       2.865   1.660   2.773  0.00  0.00    -0.097 F 
ATOM      8  F1  UNL d   1       2.840   4.319   2.255  0.00  0.00    -0.096 F 
ATOM      9  I   UNL d   1       3.794   5.997  -0.297  0.00  0.00    -0.060 I 
ATOM     10  F2  UNL d   1       4.777   3.477  -2.008  0.00  0.00    -0.096 F 
ATOM     11  F3  UNL d   1       4.788   0.825  -1.460  0.00  0.00    -0.097 F 
ATOM     12  F4  UNL d   1       3.836  -0.096   0.924  0.00  0.00    -0.092 F 
ENDROOT
TORSDOF 0
ENDMDL
