MODEL 1
REMARK minimizedAffinity 18.4785233
REMARK minimizedRMSD -1
REMARK  0 active torsions:
REMARK  status: ('A' for Active; 'I' for Inactive)
ROOT
ATOM      1  C   UNL d   1      -1.440  -2.737  -0.014  0.00  0.00     0.124 A 
ATOM      2  C1  UNL d   1      -2.027  -3.969  -0.264  0.00  0.00     0.062 A 
ATOM      3  C2  UNL d   1      -2.357  -4.815   0.791  0.00  0.00     0.162 A 
ATOM      4  C3  UNL d   1      -2.102  -4.430   2.107  0.00  0.00    -0.034 A 
ATOM      5  C4  UNL d   1      -1.510  -3.190   2.351  0.00  0.00     0.162 A 
ATOM      6  C5  UNL d   1      -1.182  -2.348   1.293  0.00  0.00     0.062 A 
ATOM      7  F   UNL d   1      -0.615  -1.158   1.537  0.00  0.00    -0.097 F 
ATOM      8  F1  UNL d   1      -1.251  -2.788   3.605  0.00  0.00    -0.096 F 
ATOM      9  I   UNL d   1      -2.594  -5.692   3.688  0.00  0.00    -0.060 I 
ATOM     10  F2  UNL d   1      -2.924  -6.000   0.520  0.00  0.00    -0.096 F 
ATOM     11  F3  UNL d   1      -2.277  -4.347  -1.526  0.00  0.00    -0.097 F 
ATOM     12  F4  UNL d   1      -1.123  -1.926  -1.031  0.00  0.00    -0.092 F 
ENDROOT
TORSDOF 0
ENDMDL
