MODEL 1
REMARK minimizedAffinity 20.782177
REMARK minimizedRMSD -1
REMARK  0 active torsions:
REMARK  status: ('A' for Active; 'I' for Inactive)
ROOT
ATOM      1  C   UNL d   1       1.289  -5.426  -1.890  0.00  0.00     0.124 A 
ATOM      2  C1  UNL d   1       2.646  -5.716  -1.850  0.00  0.00     0.062 A 
ATOM      3  C2  UNL d   1       3.397  -5.715  -3.022  0.00  0.00     0.162 A 
ATOM      4  C3  UNL d   1       2.793  -5.422  -4.245  0.00  0.00    -0.034 A 
ATOM      5  C4  UNL d   1       1.428  -5.132  -4.277  0.00  0.00     0.162 A 
ATOM      6  C5  UNL d   1       0.682  -5.134  -3.103  0.00  0.00     0.062 A 
ATOM      7  F   UNL d   1      -0.629  -4.853  -3.144  0.00  0.00    -0.097 F 
ATOM      8  F1  UNL d   1       0.816  -4.845  -5.436  0.00  0.00    -0.096 F 
ATOM      9  I   UNL d   1       3.913  -5.419  -5.999  0.00  0.00    -0.060 I 
ATOM     10  F2  UNL d   1       4.706  -6.000  -2.953  0.00  0.00    -0.096 F 
ATOM     11  F3  UNL d   1       3.235  -6.000  -0.679  0.00  0.00    -0.097 F 
ATOM     12  F4  UNL d   1       0.569  -5.429  -0.761  0.00  0.00    -0.092 F 
ENDROOT
TORSDOF 0
ENDMDL
