MODEL 1
REMARK minimizedAffinity 16.8830223
REMARK minimizedRMSD -1
REMARK  0 active torsions:
REMARK  status: ('A' for Active; 'I' for Inactive)
ROOT
ATOM      1  C   UNL d   1      -1.229   3.653   1.747  0.00  0.00     0.124 A 
ATOM      2  C1  UNL d   1      -0.254   3.510   2.724  0.00  0.00     0.062 A 
ATOM      3  C2  UNL d   1       0.989   2.973   2.399  0.00  0.00     0.162 A 
ATOM      4  C3  UNL d   1       1.263   2.575   1.090  0.00  0.00    -0.034 A 
ATOM      5  C4  UNL d   1       0.277   2.721   0.113  0.00  0.00     0.162 A 
ATOM      6  C5  UNL d   1      -0.963   3.259   0.443  0.00  0.00     0.062 A 
ATOM      7  F   UNL d   1      -1.905   3.396  -0.502  0.00  0.00    -0.097 F 
ATOM      8  F1  UNL d   1       0.507   2.349  -1.154  0.00  0.00    -0.096 F 
ATOM      9  I   UNL d   1       3.120   1.771   0.601  0.00  0.00    -0.060 I 
ATOM     10  F2  UNL d   1       1.912   2.846   3.363  0.00  0.00    -0.096 F 
ATOM     11  F3  UNL d   1      -0.509   3.889   3.984  0.00  0.00    -0.097 F 
ATOM     12  F4  UNL d   1      -2.424   4.169   2.062  0.00  0.00    -0.092 F 
ENDROOT
TORSDOF 0
ENDMDL
