MODEL 1
REMARK minimizedAffinity 5.93013144
REMARK minimizedRMSD -1
REMARK  0 active torsions:
REMARK  status: ('A' for Active; 'I' for Inactive)
ROOT
ATOM      1  C   UNL d   1       0.325   2.473   0.927  0.00  0.00     0.124 A 
ATOM      2  C1  UNL d   1       1.122   2.203  -0.177  0.00  0.00     0.062 A 
ATOM      3  C2  UNL d   1       2.508   2.193  -0.054  0.00  0.00     0.162 A 
ATOM      4  C3  UNL d   1       3.107   2.451   1.179  0.00  0.00    -0.034 A 
ATOM      5  C4  UNL d   1       2.299   2.723   2.285  0.00  0.00     0.162 A 
ATOM      6  C5  UNL d   1       0.914   2.732   2.156  0.00  0.00     0.062 A 
ATOM      7  F   UNL d   1       0.146   2.993   3.224  0.00  0.00    -0.097 F 
ATOM      8  F1  UNL d   1       2.842   2.976   3.485  0.00  0.00    -0.096 F 
ATOM      9  I   UNL d   1       5.180   2.436   1.367  0.00  0.00    -0.060 I 
ATOM     10  F2  UNL d   1       3.254   1.929  -1.137  0.00  0.00    -0.096 F 
ATOM     11  F3  UNL d   1       0.555   1.953  -1.366  0.00  0.00    -0.097 F 
ATOM     12  F4  UNL d   1      -1.009   2.484   0.805  0.00  0.00    -0.092 F 
ENDROOT
TORSDOF 0
ENDMDL
