MODEL 1
REMARK minimizedAffinity 14.7928438
REMARK minimizedRMSD -1
REMARK  0 active torsions:
REMARK  status: ('A' for Active; 'I' for Inactive)
ROOT
ATOM      1  C   UNL d   1       2.423   1.835   1.415  0.00  0.00     0.124 A 
ATOM      2  C1  UNL d   1       3.591   2.090   0.710  0.00  0.00     0.062 A 
ATOM      3  C2  UNL d   1       3.597   2.025  -0.680  0.00  0.00     0.162 A 
ATOM      4  C3  UNL d   1       2.431   1.705  -1.375  0.00  0.00    -0.034 A 
ATOM      5  C4  UNL d   1       1.260   1.449  -0.659  0.00  0.00     0.162 A 
ATOM      6  C5  UNL d   1       1.259   1.515   0.731  0.00  0.00     0.062 A 
ATOM      7  F   UNL d   1       0.130   1.269   1.410  0.00  0.00    -0.097 F 
ATOM      8  F1  UNL d   1       0.121   1.139  -1.296  0.00  0.00    -0.096 F 
ATOM      9  I   UNL d   1       2.436   1.607  -3.454  0.00  0.00    -0.060 I 
ATOM     10  F2  UNL d   1       4.740   2.276  -1.336  0.00  0.00    -0.096 F 
ATOM     11  F3  UNL d   1       4.717   2.398   1.370  0.00  0.00    -0.097 F 
ATOM     12  F4  UNL d   1       2.420   1.897   2.753  0.00  0.00    -0.092 F 
ENDROOT
TORSDOF 0
ENDMDL
