MODEL 1
REMARK minimizedAffinity 8.62206936
REMARK minimizedRMSD -1
REMARK  0 active torsions:
REMARK  status: ('A' for Active; 'I' for Inactive)
ROOT
ATOM      1  C   UNL d   1       2.368  -5.588  -2.364  0.00  0.00     0.124 A 
ATOM      2  C1  UNL d   1       1.936  -5.676  -3.681  0.00  0.00     0.062 A 
ATOM      3  C2  UNL d   1       2.862  -5.781  -4.715  0.00  0.00     0.162 A 
ATOM      4  C3  UNL d   1       4.229  -5.799  -4.438  0.00  0.00    -0.034 A 
ATOM      5  C4  UNL d   1       4.655  -5.709  -3.111  0.00  0.00     0.162 A 
ATOM      6  C5  UNL d   1       3.726  -5.604  -2.081  0.00  0.00     0.062 A 
ATOM      7  F   UNL d   1       4.145  -5.519  -0.810  0.00  0.00    -0.097 F 
ATOM      8  F1  UNL d   1       5.962  -5.724  -2.809  0.00  0.00    -0.096 F 
ATOM      9  I   UNL d   1       5.615  -5.956  -5.982  0.00  0.00    -0.060 I 
ATOM     10  F2  UNL d   1       2.416  -5.864  -5.977  0.00  0.00    -0.096 F 
ATOM     11  F3  UNL d   1       0.625  -5.659  -3.957  0.00  0.00    -0.097 F 
ATOM     12  F4  UNL d   1       1.476  -5.486  -1.371  0.00  0.00    -0.092 F 
ENDROOT
TORSDOF 0
ENDMDL
