MODEL 1
REMARK minimizedAffinity 23.9931831
REMARK minimizedRMSD -1
REMARK  0 active torsions:
REMARK  status: ('A' for Active; 'I' for Inactive)
ROOT
ATOM      1  C   UNL d   1       0.612   2.218   2.515  0.00  0.00     0.124 A 
ATOM      2  C1  UNL d   1       1.464   1.864   1.478  0.00  0.00     0.062 A 
ATOM      3  C2  UNL d   1       1.056   2.013   0.155  0.00  0.00     0.162 A 
ATOM      4  C3  UNL d   1      -0.210   2.519  -0.138  0.00  0.00    -0.034 A 
ATOM      5  C4  UNL d   1      -1.062   2.871   0.910  0.00  0.00     0.162 A 
ATOM      6  C5  UNL d   1      -0.650   2.721   2.230  0.00  0.00     0.062 A 
ATOM      7  F   UNL d   1      -1.475   3.063   3.231  0.00  0.00    -0.097 F 
ATOM      8  F1  UNL d   1      -2.286   3.361   0.664  0.00  0.00    -0.096 F 
ATOM      9  I   UNL d   1      -0.823   2.742  -2.114  0.00  0.00    -0.060 I 
ATOM     10  F2  UNL d   1       1.900   1.663  -0.827  0.00  0.00    -0.096 F 
ATOM     11  F3  UNL d   1       2.683   1.377   1.750  0.00  0.00    -0.097 F 
ATOM     12  F4  UNL d   1       1.006   2.073   3.787  0.00  0.00    -0.092 F 
ENDROOT
TORSDOF 0
ENDMDL
