MODEL 1
REMARK minimizedAffinity 21.2767811
REMARK minimizedRMSD -1
REMARK  0 active torsions:
REMARK  status: ('A' for Active; 'I' for Inactive)
ROOT
ATOM      1  C   UNL d   1      -1.315  -4.500  -2.768  0.00  0.00     0.124 A 
ATOM      2  C1  UNL d   1      -0.043  -4.793  -2.295  0.00  0.00     0.062 A 
ATOM      3  C2  UNL d   1       0.201  -4.840  -0.925  0.00  0.00     0.162 A 
ATOM      4  C3  UNL d   1      -0.830  -4.595  -0.018  0.00  0.00    -0.034 A 
ATOM      5  C4  UNL d   1      -2.106  -4.300  -0.501  0.00  0.00     0.162 A 
ATOM      6  C5  UNL d   1      -2.345  -4.254  -1.871  0.00  0.00     0.062 A 
ATOM      7  F   UNL d   1      -3.574  -3.970  -2.326  0.00  0.00    -0.097 F 
ATOM      8  F1  UNL d   1      -3.120  -4.058   0.343  0.00  0.00    -0.096 F 
ATOM      9  I   UNL d   1      -0.470  -4.664   2.031  0.00  0.00    -0.060 I 
ATOM     10  F2  UNL d   1       1.439  -5.126  -0.496  0.00  0.00    -0.096 F 
ATOM     11  F3  UNL d   1       0.954  -5.031  -3.159  0.00  0.00    -0.097 F 
ATOM     12  F4  UNL d   1      -1.546  -4.455  -4.086  0.00  0.00    -0.092 F 
ENDROOT
TORSDOF 0
ENDMDL
