MODEL 1
REMARK minimizedAffinity 24.5218353
REMARK minimizedRMSD -1
REMARK  0 active torsions:
REMARK  status: ('A' for Active; 'I' for Inactive)
ROOT
ATOM      1  C   UNL d   1      -0.810  -4.268  -1.484  0.00  0.00     0.124 A 
ATOM      2  C1  UNL d   1      -0.884  -4.574  -0.132  0.00  0.00     0.062 A 
ATOM      3  C2  UNL d   1      -2.119  -4.626   0.507  0.00  0.00     0.162 A 
ATOM      4  C3  UNL d   1      -3.291  -4.372  -0.205  0.00  0.00    -0.034 A 
ATOM      5  C4  UNL d   1      -3.209  -4.064  -1.564  0.00  0.00     0.162 A 
ATOM      6  C5  UNL d   1      -1.972  -4.013  -2.198  0.00  0.00     0.062 A 
ATOM      7  F   UNL d   1      -1.902  -3.716  -3.504  0.00  0.00    -0.097 F 
ATOM      8  F1  UNL d   1      -4.316  -3.814  -2.279  0.00  0.00    -0.096 F 
ATOM      9  I   UNL d   1      -5.140  -4.449   0.747  0.00  0.00    -0.060 I 
ATOM     10  F2  UNL d   1      -2.160  -4.925   1.814  0.00  0.00    -0.096 F 
ATOM     11  F3  UNL d   1       0.238  -4.820   0.560  0.00  0.00    -0.097 F 
ATOM     12  F4  UNL d   1       0.380  -4.217  -2.097  0.00  0.00    -0.092 F 
ENDROOT
TORSDOF 0
ENDMDL
