MODEL 1
REMARK minimizedAffinity 20.9402084
REMARK minimizedRMSD -1
REMARK  0 active torsions:
REMARK  status: ('A' for Active; 'I' for Inactive)
ROOT
ATOM      1  C   UNL d   1       2.087  -4.227   1.088  0.00  0.00     0.124 A 
ATOM      2  C1  UNL d   1       1.715  -4.159  -0.247  0.00  0.00     0.062 A 
ATOM      3  C2  UNL d   1       0.374  -4.027  -0.595  0.00  0.00     0.162 A 
ATOM      4  C3  UNL d   1      -0.606  -3.960   0.395  0.00  0.00    -0.034 A 
ATOM      5  C4  UNL d   1      -0.225  -4.029   1.737  0.00  0.00     0.162 A 
ATOM      6  C5  UNL d   1       1.117  -4.162   2.079  0.00  0.00     0.062 A 
ATOM      7  F   UNL d   1       1.474  -4.227   3.370  0.00  0.00    -0.097 F 
ATOM      8  F1  UNL d   1      -1.141  -3.968   2.714  0.00  0.00    -0.096 F 
ATOM      9  I   UNL d   1      -2.613  -3.762  -0.120  0.00  0.00    -0.060 I 
ATOM     10  F2  UNL d   1       0.043  -3.964  -1.893  0.00  0.00    -0.096 F 
ATOM     11  F3  UNL d   1       2.650  -4.223  -1.206  0.00  0.00    -0.097 F 
ATOM     12  F4  UNL d   1       3.378  -4.355   1.420  0.00  0.00    -0.092 F 
ENDROOT
TORSDOF 0
ENDMDL
