MODEL 1
REMARK minimizedAffinity 10.2809925
REMARK minimizedRMSD -1
REMARK  0 active torsions:
REMARK  status: ('A' for Active; 'I' for Inactive)
ROOT
ATOM      1  C   UNL d   1       3.034   1.574   0.212  0.00  0.00     0.124 A 
ATOM      2  C1  UNL d   1       2.426   2.820   0.140  0.00  0.00     0.062 A 
ATOM      3  C2  UNL d   1       1.059   2.947   0.367  0.00  0.00     0.162 A 
ATOM      4  C3  UNL d   1       0.289   1.824   0.669  0.00  0.00    -0.034 A 
ATOM      5  C4  UNL d   1       0.906   0.574   0.738  0.00  0.00     0.162 A 
ATOM      6  C5  UNL d   1       2.273   0.452   0.510  0.00  0.00     0.062 A 
ATOM      7  F   UNL d   1       2.858  -0.753   0.580  0.00  0.00    -0.097 F 
ATOM      8  F1  UNL d   1       0.195  -0.527   1.026  0.00  0.00    -0.096 F 
ATOM      9  I   UNL d   1      -1.756   2.009   1.009  0.00  0.00    -0.060 I 
ATOM     10  F2  UNL d   1       0.499   4.163   0.291  0.00  0.00    -0.096 F 
ATOM     11  F3  UNL d   1       3.159   3.905  -0.149  0.00  0.00    -0.097 F 
ATOM     12  F4  UNL d   1       4.349   1.455  -0.008  0.00  0.00    -0.092 F 
ENDROOT
TORSDOF 0
ENDMDL
