MODEL 1
REMARK minimizedAffinity 2.23485255
REMARK minimizedRMSD -1
REMARK  3 active torsions:
REMARK  status: ('A' for Active; 'I' for Inactive)
REMARK    1  A    between atoms: C3'_2  and  C2'_3 
REMARK    2  A    between atoms: C2'_3  and  C1'_4 
REMARK    3  A    between atoms: C1'_4  and  C1_5 
ROOT
ATOM      1  C1  N4B d   1       0.923  -0.391  -2.620  0.00  0.00    -0.075 A 
ATOM      2  C2  N4B d   1       0.820   0.396  -1.452  0.00  0.00     0.002 A 
ATOM      3  C3  N4B d   1       1.925   0.599  -0.662  0.00  0.00     0.002 A 
ATOM      4  C4  N4B d   1       3.133   0.011  -1.007  0.00  0.00    -0.004 A 
ATOM      5  C5  N4B d   1       3.229  -0.728  -2.150  0.00  0.00     0.002 A 
ATOM      6  C6  N4B d   1       2.128  -0.936  -2.956  0.00  0.00     0.002 A 
ENDROOT
BRANCH   1   7
ATOM      7  C1' N4B d   1      -0.277  -0.712  -3.469  0.00  0.00     0.057 C 
BRANCH   7   8
ATOM      8  C2' N4B d   1      -0.535   0.447  -4.429  0.00  0.00     0.009 C 
BRANCH   8   9
ATOM      9  C3' N4B d   1      -1.764   0.209  -5.289  0.00  0.00     0.004 C 
ATOM     10  C4' N4B d   1      -2.513   1.472  -5.593  0.00  0.00     0.003 C 
ENDBRANCH   8   9
ENDBRANCH   7   8
ENDBRANCH   1   7
TORSDOF 3
ENDMDL
