MODEL 1
REMARK minimizedAffinity 2.38811755
REMARK minimizedRMSD -1
REMARK  3 active torsions:
REMARK  status: ('A' for Active; 'I' for Inactive)
REMARK    1  A    between atoms: C3'_2  and  C2'_3 
REMARK    2  A    between atoms: C2'_3  and  C1'_4 
REMARK    3  A    between atoms: C1'_4  and  C1_5 
ROOT
ATOM      1  C1  N4B d   1      -0.015   0.241  -0.604  0.00  0.00    -0.075 A 
ATOM      2  C2  N4B d   1       1.085   0.462   0.253  0.00  0.00     0.002 A 
ATOM      3  C3  N4B d   1       2.360   0.202  -0.185  0.00  0.00     0.002 A 
ATOM      4  C4  N4B d   1       2.557  -0.294  -1.465  0.00  0.00    -0.004 A 
ATOM      5  C5  N4B d   1       1.491  -0.481  -2.296  0.00  0.00     0.002 A 
ATOM      6  C6  N4B d   1       0.204  -0.221  -1.869  0.00  0.00     0.002 A 
ENDROOT
BRANCH   1   7
ATOM      7  C1' N4B d   1      -1.434   0.428  -0.140  0.00  0.00     0.057 C 
BRANCH   7   8
ATOM      8  C2' N4B d   1      -1.569   1.799   0.516  0.00  0.00     0.009 C 
BRANCH   8   9
ATOM      9  C3' N4B d   1      -2.713   1.841   1.515  0.00  0.00     0.004 C 
ATOM     10  C4' N4B d   1      -2.383   2.633   2.744  0.00  0.00     0.003 C 
ENDBRANCH   8   9
ENDBRANCH   7   8
ENDBRANCH   1   7
TORSDOF 3
ENDMDL
