MODEL 1
REMARK minimizedAffinity -0.0197499711
REMARK minimizedRMSD -1
REMARK  3 active torsions:
REMARK  status: ('A' for Active; 'I' for Inactive)
REMARK    1  A    between atoms: C3'_2  and  C2'_3 
REMARK    2  A    between atoms: C2'_3  and  C1'_4 
REMARK    3  A    between atoms: C1'_4  and  C1_5 
ROOT
ATOM      1  C1  N4B d   1      -3.870  -2.029   1.527  0.00  0.00    -0.075 A 
ATOM      2  C2  N4B d   1      -4.363  -2.283   0.228  0.00  0.00     0.002 A 
ATOM      3  C3  N4B d   1      -3.689  -3.141  -0.605  0.00  0.00     0.002 A 
ATOM      4  C4  N4B d   1      -2.516  -3.740  -0.171  0.00  0.00    -0.004 A 
ATOM      5  C5  N4B d   1      -2.061  -3.509   1.094  0.00  0.00     0.002 A 
ATOM      6  C6  N4B d   1      -2.730  -2.652   1.945  0.00  0.00     0.002 A 
ENDROOT
BRANCH   1   7
ATOM      7  C1' N4B d   1      -4.525  -1.032   2.444  0.00  0.00     0.057 C 
BRANCH   7   8
ATOM      8  C2' N4B d   1      -4.617   0.316   1.734  0.00  0.00     0.009 C 
BRANCH   8   9
ATOM      9  C3' N4B d   1      -3.289   1.052   1.739  0.00  0.00     0.004 C 
ATOM     10  C4' N4B d   1      -3.226   2.131   2.778  0.00  0.00     0.003 C 
ENDBRANCH   8   9
ENDBRANCH   7   8
ENDBRANCH   1   7
TORSDOF 3
ENDMDL
