MODEL 1
REMARK minimizedAffinity 4.20901966
REMARK minimizedRMSD -1
REMARK  3 active torsions:
REMARK  status: ('A' for Active; 'I' for Inactive)
REMARK    1  A    between atoms: C3'_2  and  C2'_3 
REMARK    2  A    between atoms: C2'_3  and  C1'_4 
REMARK    3  A    between atoms: C1'_4  and  C1_5 
ROOT
ATOM      1  C1  N4B d   1      -3.843   2.199  -5.997  0.00  0.00    -0.075 A 
ATOM      2  C2  N4B d   1      -4.692   3.328  -5.997  0.00  0.00     0.002 A 
ATOM      3  C3  N4B d   1      -4.155   4.591  -5.968  0.00  0.00     0.002 A 
ATOM      4  C4  N4B d   1      -2.778   4.750  -5.918  0.00  0.00    -0.004 A 
ATOM      5  C5  N4B d   1      -1.964   3.656  -5.943  0.00  0.00     0.002 A 
ATOM      6  C6  N4B d   1      -2.490   2.380  -5.977  0.00  0.00     0.002 A 
ENDROOT
BRANCH   1   7
ATOM      7  C1' N4B d   1      -4.385   0.797  -5.942  0.00  0.00     0.057 C 
BRANCH   7   8
ATOM      8  C2' N4B d   1      -3.560  -0.021  -4.954  0.00  0.00     0.009 C 
BRANCH   8   9
ATOM      9  C3' N4B d   1      -4.241  -1.329  -4.591  0.00  0.00     0.004 C 
ATOM     10  C4' N4B d   1      -5.069  -1.227  -3.345  0.00  0.00     0.003 C 
ENDBRANCH   8   9
ENDBRANCH   7   8
ENDBRANCH   1   7
TORSDOF 3
ENDMDL
