MODEL 1
REMARK minimizedAffinity -1.38502681
REMARK minimizedRMSD -1
REMARK  3 active torsions:
REMARK  status: ('A' for Active; 'I' for Inactive)
REMARK    1  A    between atoms: C3'_2  and  C2'_3 
REMARK    2  A    between atoms: C2'_3  and  C1'_4 
REMARK    3  A    between atoms: C1'_4  and  C1_5 
ROOT
ATOM      1  C1  N4B d   1      -3.535   1.609  -5.808  0.00  0.00    -0.075 A 
ATOM      2  C2  N4B d   1      -2.723   0.479  -5.564  0.00  0.00     0.002 A 
ATOM      3  C3  N4B d   1      -3.301  -0.744  -5.328  0.00  0.00     0.002 A 
ATOM      4  C4  N4B d   1      -4.683  -0.858  -5.311  0.00  0.00    -0.004 A 
ATOM      5  C5  N4B d   1      -5.460   0.233  -5.573  0.00  0.00     0.002 A 
ATOM      6  C6  N4B d   1      -4.892   1.467  -5.816  0.00  0.00     0.002 A 
ENDROOT
BRANCH   1   7
ATOM      7  C1' N4B d   1      -2.951   2.983  -5.987  0.00  0.00     0.057 C 
BRANCH   7   8
ATOM      8  C2' N4B d   1      -3.739   3.977  -5.138  0.00  0.00     0.009 C 
BRANCH   8   9
ATOM      9  C3' N4B d   1      -4.512   4.966  -5.993  0.00  0.00     0.004 C 
ATOM     10  C4' N4B d   1      -5.988   4.706  -5.992  0.00  0.00     0.003 C 
ENDBRANCH   8   9
ENDBRANCH   7   8
ENDBRANCH   1   7
TORSDOF 3
ENDMDL
