MODEL 1
REMARK minimizedAffinity 2.04870439
REMARK minimizedRMSD -1
REMARK  3 active torsions:
REMARK  status: ('A' for Active; 'I' for Inactive)
REMARK    1  A    between atoms: C3'_2  and  C2'_3 
REMARK    2  A    between atoms: C2'_3  and  C1'_4 
REMARK    3  A    between atoms: C1'_4  and  C1_5 
ROOT
ATOM      1  C1  N4B d   1      -3.540   0.379  -5.930  0.00  0.00    -0.075 A 
ATOM      2  C2  N4B d   1      -2.135   0.518  -5.979  0.00  0.00     0.002 A 
ATOM      3  C3  N4B d   1      -1.569   1.769  -5.993  0.00  0.00     0.002 A 
ATOM      4  C4  N4B d   1      -2.385   2.891  -5.979  0.00  0.00    -0.004 A 
ATOM      5  C5  N4B d   1      -3.740   2.748  -5.907  0.00  0.00     0.002 A 
ATOM      6  C6  N4B d   1      -4.322   1.497  -5.887  0.00  0.00     0.002 A 
ENDROOT
BRANCH   1   7
ATOM      7  C1' N4B d   1      -4.207  -0.967  -5.999  0.00  0.00     0.057 C 
BRANCH   7   8
ATOM      8  C2' N4B d   1      -3.140  -2.058  -5.961  0.00  0.00     0.009 C 
BRANCH   8   9
ATOM      9  C3' N4B d   1      -3.008  -2.675  -4.579  0.00  0.00     0.004 C 
ATOM     10  C4' N4B d   1      -2.056  -3.833  -4.549  0.00  0.00     0.003 C 
ENDBRANCH   8   9
ENDBRANCH   7   8
ENDBRANCH   1   7
TORSDOF 3
ENDMDL
