MODEL 1
REMARK minimizedAffinity -2.26113963
REMARK minimizedRMSD -1
REMARK  3 active torsions:
REMARK  status: ('A' for Active; 'I' for Inactive)
REMARK    1  A    between atoms: C3'_2  and  C2'_3 
REMARK    2  A    between atoms: C2'_3  and  C1'_4 
REMARK    3  A    between atoms: C1'_4  and  C1_5 
ROOT
ATOM      1  C1  N4B d   1      -3.016   1.130  -5.974  0.00  0.00    -0.075 A 
ATOM      2  C2  N4B d   1      -4.370   1.531  -5.999  0.00  0.00     0.002 A 
ATOM      3  C3  N4B d   1      -4.690   2.866  -6.000  0.00  0.00     0.002 A 
ATOM      4  C4  N4B d   1      -3.679   3.814  -5.957  0.00  0.00    -0.004 A 
ATOM      5  C5  N4B d   1      -2.373   3.419  -5.959  0.00  0.00     0.002 A 
ATOM      6  C6  N4B d   1      -2.036   2.080  -5.962  0.00  0.00     0.002 A 
ENDROOT
BRANCH   1   7
ATOM      7  C1' N4B d   1      -2.618  -0.319  -5.885  0.00  0.00     0.057 C 
BRANCH   7   8
ATOM      8  C2' N4B d   1      -3.870  -1.187  -5.968  0.00  0.00     0.009 C 
BRANCH   8   9
ATOM      9  C3' N4B d   1      -3.749  -2.441  -5.118  0.00  0.00     0.004 C 
ATOM     10  C4' N4B d   1      -4.101  -3.689  -5.871  0.00  0.00     0.003 C 
ENDBRANCH   8   9
ENDBRANCH   7   8
ENDBRANCH   1   7
TORSDOF 3
ENDMDL
