MODEL 1
REMARK minimizedAffinity 1.86328101
REMARK minimizedRMSD -1
REMARK  3 active torsions:
REMARK  status: ('A' for Active; 'I' for Inactive)
REMARK    1  A    between atoms: C3'_2  and  C2'_3 
REMARK    2  A    between atoms: C2'_3  and  C1'_4 
REMARK    3  A    between atoms: C1'_4  and  C1_5 
ROOT
ATOM      1  C1  N4B d   1      -4.044   0.240  -5.801  0.00  0.00    -0.075 A 
ATOM      2  C2  N4B d   1      -4.923  -0.853  -5.963  0.00  0.00     0.002 A 
ATOM      3  C3  N4B d   1      -4.427  -2.134  -5.996  0.00  0.00     0.002 A 
ATOM      4  C4  N4B d   1      -3.061  -2.343  -5.888  0.00  0.00    -0.004 A 
ATOM      5  C5  N4B d   1      -2.221  -1.284  -5.707  0.00  0.00     0.002 A 
ATOM      6  C6  N4B d   1      -2.705   0.008  -5.668  0.00  0.00     0.002 A 
ENDROOT
BRANCH   1   7
ATOM      7  C1' N4B d   1      -4.529   1.663  -5.846  0.00  0.00     0.057 C 
BRANCH   7   8
ATOM      8  C2' N4B d   1      -3.403   2.591  -5.398  0.00  0.00     0.009 C 
BRANCH   8   9
ATOM      9  C3' N4B d   1      -3.540   3.980  -5.997  0.00  0.00     0.004 C 
ATOM     10  C4' N4B d   1      -2.264   4.765  -5.941  0.00  0.00     0.003 C 
ENDBRANCH   8   9
ENDBRANCH   7   8
ENDBRANCH   1   7
TORSDOF 3
ENDMDL
