MODEL 1
REMARK minimizedAffinity 11.1410542
REMARK minimizedRMSD -1
REMARK  3 active torsions:
REMARK  status: ('A' for Active; 'I' for Inactive)
REMARK    1  A    between atoms: C3'_2  and  C2'_3 
REMARK    2  A    between atoms: C2'_3  and  C1'_4 
REMARK    3  A    between atoms: C1'_4  and  C1_5 
ROOT
ATOM      1  C1  N4B d   1      -2.325  -0.483  -4.412  0.00  0.00    -0.075 A 
ATOM      2  C2  N4B d   1      -2.589   0.904  -4.408  0.00  0.00     0.002 A 
ATOM      3  C3  N4B d   1      -3.609   1.412  -5.175  0.00  0.00     0.002 A 
ATOM      4  C4  N4B d   1      -4.364   0.558  -5.964  0.00  0.00    -0.004 A 
ATOM      5  C5  N4B d   1      -4.120  -0.784  -5.943  0.00  0.00     0.002 A 
ATOM      6  C6  N4B d   1      -3.100  -1.309  -5.174  0.00  0.00     0.002 A 
ENDROOT
BRANCH   1   7
ATOM      7  C1' N4B d   1      -1.166  -1.074  -3.657  0.00  0.00     0.057 C 
BRANCH   7   8
ATOM      8  C2' N4B d   1      -1.551  -2.462  -3.154  0.00  0.00     0.009 C 
BRANCH   8   9
ATOM      9  C3' N4B d   1      -0.996  -2.738  -1.767  0.00  0.00     0.004 C 
ATOM     10  C4' N4B d   1      -2.036  -3.255  -0.818  0.00  0.00     0.003 C 
ENDBRANCH   8   9
ENDBRANCH   7   8
ENDBRANCH   1   7
TORSDOF 3
ENDMDL
