MODEL 1
REMARK minimizedAffinity -3.22081685
REMARK minimizedRMSD -1
REMARK  0 active torsions:
REMARK  status: ('A' for Active; 'I' for Inactive)
ROOT
ATOM      1  C   UNL d   1       3.062  -2.991   0.632  0.00  0.00     0.172 C 
ATOM      2  N   UNL d   1       2.040  -2.305   1.387  0.00  0.00    -0.070 N 
ATOM      3  C1  UNL d   1       1.568  -2.680   2.617  0.00  0.00    -0.004 A 
ATOM      4  C2  UNL d   1       0.605  -1.770   2.995  0.00  0.00    -0.047 A 
ATOM      5  C3  UNL d   1       0.495  -0.814   1.957  0.00  0.00    -0.047 A 
ATOM      6  C4  UNL d   1       1.394  -1.169   0.975  0.00  0.00    -0.004 A 
ENDROOT
TORSDOF 0
ENDMDL
