MODEL 1
REMARK minimizedAffinity 1.43146622
REMARK minimizedRMSD -1
REMARK  0 active torsions:
REMARK  status: ('A' for Active; 'I' for Inactive)
ROOT
ATOM      1  C   UNL d   1       1.157   0.979  -0.975  0.00  0.00     0.172 C 
ATOM      2  N   UNL d   1       2.466   1.434  -0.571  0.00  0.00    -0.070 N 
ATOM      3  C1  UNL d   1       3.472   0.642  -0.084  0.00  0.00    -0.004 A 
ATOM      4  C2  UNL d   1       4.554   1.452   0.183  0.00  0.00    -0.047 A 
ATOM      5  C3  UNL d   1       4.186   2.776  -0.154  0.00  0.00    -0.047 A 
ATOM      6  C4  UNL d   1       2.889   2.736  -0.618  0.00  0.00    -0.004 A 
ENDROOT
TORSDOF 0
ENDMDL
