MODEL 1
REMARK minimizedAffinity 2.31066203
REMARK minimizedRMSD -1
REMARK  0 active torsions:
REMARK  status: ('A' for Active; 'I' for Inactive)
ROOT
ATOM      1  C   UNL d   1      -1.164  -0.255   2.209  0.00  0.00     0.172 C 
ATOM      2  N   UNL d   1      -0.219  -1.325   1.991  0.00  0.00    -0.070 N 
ATOM      3  C1  UNL d   1       0.690  -1.392   0.969  0.00  0.00    -0.004 A 
ATOM      4  C2  UNL d   1       1.401  -2.563   1.113  0.00  0.00    -0.047 A 
ATOM      5  C3  UNL d   1       0.901  -3.224   2.260  0.00  0.00    -0.047 A 
ATOM      6  C4  UNL d   1      -0.101  -2.436   2.784  0.00  0.00    -0.004 A 
ENDROOT
TORSDOF 0
ENDMDL
