MODEL 1
REMARK minimizedAffinity -2.42024183
REMARK minimizedRMSD -1
REMARK  0 active torsions:
REMARK  status: ('A' for Active; 'I' for Inactive)
ROOT
ATOM      1  C   UNL d   1       1.972  -2.312   0.876  0.00  0.00     0.172 C 
ATOM      2  N   UNL d   1       3.144  -3.000   1.363  0.00  0.00    -0.070 N 
ATOM      3  C1  UNL d   1       4.230  -3.359   0.610  0.00  0.00    -0.004 A 
ATOM      4  C2  UNL d   1       5.130  -3.991   1.441  0.00  0.00    -0.047 A 
ATOM      5  C3  UNL d   1       4.564  -4.015   2.738  0.00  0.00    -0.047 A 
ATOM      6  C4  UNL d   1       3.335  -3.394   2.661  0.00  0.00    -0.004 A 
ENDROOT
TORSDOF 0
ENDMDL
