MODEL 1
REMARK minimizedAffinity 6.63275909
REMARK minimizedRMSD -1
REMARK  0 active torsions:
REMARK  status: ('A' for Active; 'I' for Inactive)
ROOT
ATOM      1  C   UNL d   1      -1.691   3.219  -2.984  0.00  0.00     0.172 C 
ATOM      2  N   UNL d   1      -0.863   3.470  -4.140  0.00  0.00    -0.070 N 
ATOM      3  C1  UNL d   1      -0.457   2.532  -5.050  0.00  0.00    -0.004 A 
ATOM      4  C2  UNL d   1       0.315   3.169  -5.998  0.00  0.00    -0.047 A 
ATOM      5  C3  UNL d   1       0.376   4.538  -5.644  0.00  0.00    -0.047 A 
ATOM      6  C4  UNL d   1      -0.362   4.696  -4.489  0.00  0.00    -0.004 A 
ENDROOT
TORSDOF 0
ENDMDL
