MODEL 1
REMARK minimizedAffinity 2.74579263
REMARK minimizedRMSD -1
REMARK  0 active torsions:
REMARK  status: ('A' for Active; 'I' for Inactive)
ROOT
ATOM      1  C   UNL d   1       1.269  -0.994   2.529  0.00  0.00     0.172 C 
ATOM      2  N   UNL d   1      -0.137  -0.691   2.657  0.00  0.00    -0.070 N 
ATOM      3  C1  UNL d   1      -1.168  -1.525   2.316  0.00  0.00    -0.004 A 
ATOM      4  C2  UNL d   1      -2.350  -0.870   2.589  0.00  0.00    -0.047 A 
ATOM      5  C3  UNL d   1      -2.017   0.403   3.110  0.00  0.00    -0.047 A 
ATOM      6  C4  UNL d   1      -0.641   0.487   3.141  0.00  0.00    -0.004 A 
ENDROOT
TORSDOF 0
ENDMDL
