MODEL 1
REMARK minimizedAffinity -0.865487516
REMARK minimizedRMSD -1
REMARK  0 active torsions:
REMARK  status: ('A' for Active; 'I' for Inactive)
ROOT
ATOM      1  C   UNL d   1       2.504   5.992   5.886  0.00  0.00     0.172 C 
ATOM      2  N   UNL d   1       3.044   5.993   4.547  0.00  0.00    -0.070 N 
ATOM      3  C1  UNL d   1       2.311   5.987   3.390  0.00  0.00    -0.004 A 
ATOM      4  C2  UNL d   1       3.193   5.991   2.331  0.00  0.00    -0.047 A 
ATOM      5  C3  UNL d   1       4.502   5.999   2.870  0.00  0.00    -0.047 A 
ATOM      6  C4  UNL d   1       4.380   6.000   4.244  0.00  0.00    -0.004 A 
ENDROOT
TORSDOF 0
ENDMDL
