MODEL 1
REMARK minimizedAffinity -5.52317238
REMARK minimizedRMSD -1
REMARK  1 active torsions:
REMARK  status: ('A' for Active; 'I' for Inactive)
REMARK    1  A    between atoms: C1_2  and  C2_3 
ROOT
ATOM      1  C2  UNL d   1      -1.045   2.271   0.319  0.00  0.00    -0.081 A 
ATOM      2  C3  UNL d   1      -1.147   2.460   1.703  0.00  0.00     0.006 A 
ATOM      3  C4  UNL d   1      -0.667   1.492   2.588  0.00  0.00     0.002 A 
ATOM      4  C5  UNL d   1      -0.071   0.322   2.105  0.00  0.00    -0.080 A 
ATOM      5  C6  UNL d   1       0.476  -0.712   3.044  0.00  0.00     0.076 C 
ATOM      6  C7  UNL d   1       0.016   0.124   0.722  0.00  0.00     0.002 A 
ATOM      7  C8  UNL d   1      -0.464   1.092  -0.163  0.00  0.00     0.006 A 
ENDROOT
BRANCH   1   8
ATOM      8  C1  UNL d   1      -1.502   3.342  -0.637  0.00  0.00     0.054 C 
ATOM      9  C   UNL d   1      -0.511   3.526  -1.777  0.00  0.00     0.018 C 
ENDBRANCH   1   8
TORSDOF 1
ENDMDL
