MODEL 1
REMARK minimizedAffinity -3.21003461
REMARK minimizedRMSD -1
REMARK  1 active torsions:
REMARK  status: ('A' for Active; 'I' for Inactive)
REMARK    1  A    between atoms: C1_2  and  C2_3 
ROOT
ATOM      1  C2  UNL d   1       0.541  -0.184  -0.222  0.00  0.00    -0.081 A 
ATOM      2  C3  UNL d   1       0.535   0.006   1.165  0.00  0.00     0.006 A 
ATOM      3  C4  UNL d   1      -0.093   1.122   1.724  0.00  0.00     0.002 A 
ATOM      4  C5  UNL d   1      -0.731   2.061   0.907  0.00  0.00    -0.080 A 
ATOM      5  C6  UNL d   1      -1.435   3.247   1.497  0.00  0.00     0.076 C 
ATOM      6  C7  UNL d   1      -0.709   1.881  -0.480  0.00  0.00     0.002 A 
ATOM      7  C8  UNL d   1      -0.081   0.766  -1.040  0.00  0.00     0.006 A 
ENDROOT
BRANCH   1   8
ATOM      8  C1  UNL d   1       1.161  -1.419  -0.824  0.00  0.00     0.054 C 
ATOM      9  C   UNL d   1       0.167  -2.570  -0.871  0.00  0.00     0.018 C 
ENDBRANCH   1   8
TORSDOF 1
ENDMDL
