MODEL 1
REMARK minimizedAffinity -4.36033821
REMARK minimizedRMSD -1
REMARK  1 active torsions:
REMARK  status: ('A' for Active; 'I' for Inactive)
REMARK    1  A    between atoms: C1_2  and  C2_3 
ROOT
ATOM      1  C2  UNL d   1       0.255  -0.994  -0.301  0.00  0.00    -0.081 A 
ATOM      2  C3  UNL d   1       0.166  -1.025   1.096  0.00  0.00     0.006 A 
ATOM      3  C4  UNL d   1       0.019   0.158   1.823  0.00  0.00     0.002 A 
ATOM      4  C5  UNL d   1      -0.049   1.391   1.165  0.00  0.00    -0.080 A 
ATOM      5  C6  UNL d   1      -0.238   2.667   1.932  0.00  0.00     0.076 C 
ATOM      6  C7  UNL d   1       0.057   1.424  -0.229  0.00  0.00     0.002 A 
ATOM      7  C8  UNL d   1       0.205   0.241  -0.957  0.00  0.00     0.006 A 
ENDROOT
BRANCH   1   8
ATOM      8  C1  UNL d   1       0.349  -2.274  -1.092  0.00  0.00     0.054 C 
ATOM      9  C   UNL d   1      -1.023  -2.899  -1.297  0.00  0.00     0.018 C 
ENDBRANCH   1   8
TORSDOF 1
ENDMDL
