MODEL 1
REMARK minimizedAffinity -3.90921831
REMARK minimizedRMSD -1
REMARK  1 active torsions:
REMARK  status: ('A' for Active; 'I' for Inactive)
REMARK    1  A    between atoms: C1_2  and  C2_3 
ROOT
ATOM      1  C2  UNL d   1      -0.555   1.810   1.009  0.00  0.00    -0.081 A 
ATOM      2  C3  UNL d   1      -1.544   2.771   1.252  0.00  0.00     0.006 A 
ATOM      3  C4  UNL d   1      -2.197   3.399   0.189  0.00  0.00     0.002 A 
ATOM      4  C5  UNL d   1      -1.878   3.071  -1.133  0.00  0.00    -0.080 A 
ATOM      5  C6  UNL d   1      -2.593   3.716  -2.284  0.00  0.00     0.076 C 
ATOM      6  C7  UNL d   1      -0.878   2.123  -1.376  0.00  0.00     0.002 A 
ATOM      7  C8  UNL d   1      -0.225   1.495  -0.314  0.00  0.00     0.006 A 
ENDROOT
BRANCH   1   8
ATOM      8  C1  UNL d   1       0.105   1.084   2.153  0.00  0.00     0.054 C 
ATOM      9  C   UNL d   1       0.661  -0.262   1.708  0.00  0.00     0.018 C 
ENDBRANCH   1   8
TORSDOF 1
ENDMDL
