MODEL 1
REMARK minimizedAffinity -3.05665493
REMARK minimizedRMSD -1
REMARK  1 active torsions:
REMARK  status: ('A' for Active; 'I' for Inactive)
REMARK    1  A    between atoms: C1_2  and  C2_3 
ROOT
ATOM      1  C2  UNL d   1       0.480  -1.656  -0.490  0.00  0.00    -0.081 A 
ATOM      2  C3  UNL d   1       0.669  -0.439  -1.156  0.00  0.00     0.006 A 
ATOM      3  C4  UNL d   1       0.700   0.762  -0.442  0.00  0.00     0.002 A 
ATOM      4  C5  UNL d   1       0.552   0.764   0.949  0.00  0.00    -0.080 A 
ATOM      5  C6  UNL d   1       0.615   2.043   1.731  0.00  0.00     0.076 C 
ATOM      6  C7  UNL d   1       0.346  -0.450   1.613  0.00  0.00     0.002 A 
ATOM      7  C8  UNL d   1       0.314  -1.651   0.899  0.00  0.00     0.006 A 
ENDROOT
BRANCH   1   8
ATOM      8  C1  UNL d   1       0.510  -2.958  -1.249  0.00  0.00     0.054 C 
ATOM      9  C   UNL d   1      -0.860  -3.297  -1.820  0.00  0.00     0.018 C 
ENDBRANCH   1   8
TORSDOF 1
ENDMDL
