MODEL 1
REMARK minimizedAffinity -5.24702787
REMARK minimizedRMSD -1
REMARK  1 active torsions:
REMARK  status: ('A' for Active; 'I' for Inactive)
REMARK    1  A    between atoms: C1_2  and  C2_3 
ROOT
ATOM      1  C2  UNL d   1       0.923  -1.398  -0.653  0.00  0.00    -0.081 A 
ATOM      2  C3  UNL d   1       1.482  -1.187   0.613  0.00  0.00     0.006 A 
ATOM      3  C4  UNL d   1       1.193  -0.022   1.329  0.00  0.00     0.002 A 
ATOM      4  C5  UNL d   1       0.336   0.945   0.795  0.00  0.00    -0.080 A 
ATOM      5  C6  UNL d   1      -0.006   2.185   1.566  0.00  0.00     0.076 C 
ATOM      6  C7  UNL d   1      -0.209   0.742  -0.477  0.00  0.00     0.002 A 
ATOM      7  C8  UNL d   1       0.079  -0.422  -1.194  0.00  0.00     0.006 A 
ENDROOT
BRANCH   1   8
ATOM      8  C1  UNL d   1       1.180  -2.682  -1.400  0.00  0.00     0.054 C 
ATOM      9  C   UNL d   1      -0.121  -3.335  -1.844  0.00  0.00     0.018 C 
ENDBRANCH   1   8
TORSDOF 1
ENDMDL
