MODEL 1
REMARK minimizedAffinity 2.49938107
REMARK minimizedRMSD -1
REMARK  1 active torsions:
REMARK  status: ('A' for Active; 'I' for Inactive)
REMARK    1  A    between atoms: C1_2  and  C2_3 
ROOT
ATOM      1  C2  UNL d   1      -1.834  -3.161  -2.704  0.00  0.00    -0.081 A 
ATOM      2  C3  UNL d   1      -1.708  -3.337  -4.088  0.00  0.00     0.006 A 
ATOM      3  C4  UNL d   1      -1.844  -2.251  -4.955  0.00  0.00     0.002 A 
ATOM      4  C5  UNL d   1      -2.101  -0.970  -4.454  0.00  0.00    -0.080 A 
ATOM      5  C6  UNL d   1      -2.219   0.210  -5.373  0.00  0.00     0.076 C 
ATOM      6  C7  UNL d   1      -2.244  -0.797  -3.073  0.00  0.00     0.002 A 
ATOM      7  C8  UNL d   1      -2.108  -1.883  -2.206  0.00  0.00     0.006 A 
ENDROOT
BRANCH   1   8
ATOM      8  C1  UNL d   1      -1.624  -4.319  -1.762  0.00  0.00     0.054 C 
ATOM      9  C   UNL d   1      -0.451  -4.064  -0.826  0.00  0.00     0.018 C 
ENDBRANCH   1   8
TORSDOF 1
ENDMDL
