MODEL 1
REMARK minimizedAffinity 22.3801765
REMARK minimizedRMSD -1
REMARK  0 active torsions:
REMARK  status: ('A' for Active; 'I' for Inactive)
ROOT
ATOM      1  C1  DEN d   1      -2.724  -2.974  -0.232  0.00  0.00     0.130 A 
ATOM      2  C2  DEN d   1      -1.437  -3.663  -0.184  0.00  0.00    -0.031 A 
ATOM      3  C3  DEN d   1      -0.525  -2.994  -1.134  0.00  0.00     0.027 A 
ATOM      4  C4  DEN d   1      -0.978  -0.967  -2.664  0.00  0.00     0.027 A 
ATOM      5  C5  DEN d   1      -1.926  -0.052  -3.063  0.00  0.00    -0.003 A 
ATOM      6  C6  DEN d   1      -3.206  -0.067  -2.575  0.00  0.00     0.001 A 
ATOM      7  C7  DEN d   1      -3.560  -0.989  -1.626  0.00  0.00     0.017 A 
ATOM      8  C8  DEN d   1      -2.612  -1.920  -1.225  0.00  0.00    -0.094 A 
ATOM      9  C9  DEN d   1      -1.319  -1.881  -1.720  0.00  0.00    -0.072 A 
ENDROOT
TORSDOF 0
ENDMDL
