MODEL 1
REMARK minimizedAffinity 13.0821562
REMARK minimizedRMSD -1
REMARK  0 active torsions:
REMARK  status: ('A' for Active; 'I' for Inactive)
ROOT
ATOM      1  C1  DEN d   1       0.353  -6.000   0.828  0.00  0.00     0.130 A 
ATOM      2  C2  DEN d   1       1.720  -5.665   0.438  0.00  0.00    -0.031 A 
ATOM      3  C3  DEN d   1       1.712  -4.299  -0.124  0.00  0.00     0.027 A 
ATOM      4  C4  DEN d   1      -0.272  -2.679  -0.424  0.00  0.00     0.027 A 
ATOM      5  C5  DEN d   1      -1.630  -2.523  -0.252  0.00  0.00    -0.003 A 
ATOM      6  C6  DEN d   1      -2.421  -3.519   0.257  0.00  0.00     0.001 A 
ATOM      7  C7  DEN d   1      -1.853  -4.700   0.654  0.00  0.00     0.017 A 
ATOM      8  C8  DEN d   1      -0.486  -4.868   0.476  0.00  0.00    -0.094 A 
ATOM      9  C9  DEN d   1       0.299  -3.845  -0.029  0.00  0.00    -0.072 A 
ENDROOT
TORSDOF 0
ENDMDL
