MODEL 1
REMARK minimizedAffinity 7.52948427
REMARK minimizedRMSD -1
REMARK  0 active torsions:
REMARK  status: ('A' for Active; 'I' for Inactive)
ROOT
ATOM      1  C1  DEN d   1      -3.099  -2.593   0.426  0.00  0.00     0.130 A 
ATOM      2  C2  DEN d   1      -1.686  -2.961   0.395  0.00  0.00    -0.031 A 
ATOM      3  C3  DEN d   1      -0.998  -2.050  -0.541  0.00  0.00     0.027 A 
ATOM      4  C4  DEN d   1      -1.976  -0.114  -1.936  0.00  0.00     0.027 A 
ATOM      5  C5  DEN d   1      -3.128   0.572  -2.252  0.00  0.00    -0.003 A 
ATOM      6  C6  DEN d   1      -4.347   0.232  -1.728  0.00  0.00     0.001 A 
ATOM      7  C7  DEN d   1      -4.435  -0.794  -0.824  0.00  0.00     0.017 A 
ATOM      8  C8  DEN d   1      -3.279  -1.495  -0.506  0.00  0.00    -0.094 A 
ATOM      9  C9  DEN d   1      -2.054  -1.128  -1.037  0.00  0.00    -0.072 A 
ENDROOT
TORSDOF 0
ENDMDL
