MODEL 1
REMARK minimizedAffinity 11.1313992
REMARK minimizedRMSD -1
REMARK  0 active torsions:
REMARK  status: ('A' for Active; 'I' for Inactive)
ROOT
ATOM      1  C1  DEN d   1      -0.802  -3.844   3.472  0.00  0.00     0.130 A 
ATOM      2  C2  DEN d   1      -1.384  -2.612   3.998  0.00  0.00    -0.031 A 
ATOM      3  C3  DEN d   1      -1.902  -1.829   2.858  0.00  0.00     0.027 A 
ATOM      4  C4  DEN d   1      -1.863  -2.403   0.344  0.00  0.00     0.027 A 
ATOM      5  C5  DEN d   1      -1.464  -3.334  -0.589  0.00  0.00    -0.003 A 
ATOM      6  C6  DEN d   1      -0.792  -4.475  -0.240  0.00  0.00     0.001 A 
ATOM      7  C7  DEN d   1      -0.538  -4.736   1.081  0.00  0.00     0.017 A 
ATOM      8  C8  DEN d   1      -0.931  -3.798   2.026  0.00  0.00    -0.094 A 
ATOM      9  C9  DEN d   1      -1.620  -2.657   1.655  0.00  0.00    -0.072 A 
ENDROOT
TORSDOF 0
ENDMDL
