MODEL 1
REMARK minimizedAffinity 11.5717993
REMARK minimizedRMSD -1
REMARK  0 active torsions:
REMARK  status: ('A' for Active; 'I' for Inactive)
ROOT
ATOM      1  C1  DEN d   1      -0.645  -2.655  -0.243  0.00  0.00     0.130 A 
ATOM      2  C2  DEN d   1      -1.980  -3.172   0.044  0.00  0.00    -0.031 A 
ATOM      3  C3  DEN d   1      -1.843  -4.580   0.469  0.00  0.00     0.027 A 
ATOM      4  C4  DEN d   1       0.296  -6.000   0.714  0.00  0.00     0.027 A 
ATOM      5  C5  DEN d   1       1.666  -5.999   0.573  0.00  0.00    -0.003 A 
ATOM      6  C6  DEN d   1       2.353  -4.903   0.121  0.00  0.00     0.001 A 
ATOM      7  C7  DEN d   1       1.676  -3.747  -0.163  0.00  0.00     0.017 A 
ATOM      8  C8  DEN d   1       0.293  -3.742  -0.030  0.00  0.00    -0.094 A 
ATOM      9  C9  DEN d   1      -0.381  -4.856   0.440  0.00  0.00    -0.072 A 
ENDROOT
TORSDOF 0
ENDMDL
