MODEL 1
REMARK minimizedAffinity 5.45249414
REMARK minimizedRMSD -1
REMARK  0 active torsions:
REMARK  status: ('A' for Active; 'I' for Inactive)
ROOT
ATOM      1  C1  DEN d   1      -2.702   1.541  -0.801  0.00  0.00     0.130 A 
ATOM      2  C2  DEN d   1      -4.118   1.572  -0.442  0.00  0.00    -0.031 A 
ATOM      3  C3  DEN d   1      -4.810   0.529  -1.226  0.00  0.00     0.027 A 
ATOM      4  C4  DEN d   1      -3.831  -1.126  -2.946  0.00  0.00     0.027 A 
ATOM      5  C5  DEN d   1      -2.682  -1.525  -3.591  0.00  0.00    -0.003 A 
ATOM      6  C6  DEN d   1      -1.475  -0.914  -3.378  0.00  0.00     0.001 A 
ATOM      7  C7  DEN d   1      -1.381   0.103  -2.464  0.00  0.00     0.017 A 
ATOM      8  C8  DEN d   1      -2.537   0.516  -1.815  0.00  0.00    -0.094 A 
ATOM      9  C9  DEN d   1      -3.745  -0.123  -2.035  0.00  0.00    -0.072 A 
ENDROOT
TORSDOF 0
ENDMDL
