MODEL 1
REMARK minimizedAffinity 12.7355766
REMARK minimizedRMSD -1
REMARK  0 active torsions:
REMARK  status: ('A' for Active; 'I' for Inactive)
ROOT
ATOM      1  C1  DEN d   1      -2.249  -4.120   1.088  0.00  0.00     0.130 A 
ATOM      2  C2  DEN d   1      -0.995  -3.626   0.524  0.00  0.00    -0.031 A 
ATOM      3  C3  DEN d   1      -1.320  -2.564  -0.449  0.00  0.00     0.027 A 
ATOM      4  C4  DEN d   1      -3.628  -1.638  -1.132  0.00  0.00     0.027 A 
ATOM      5  C5  DEN d   1      -4.986  -1.752  -0.933  0.00  0.00    -0.003 A 
ATOM      6  C6  DEN d   1      -5.525  -2.678  -0.079  0.00  0.00     0.001 A 
ATOM      7  C7  DEN d   1      -4.698  -3.497   0.642  0.00  0.00     0.017 A 
ATOM      8  C8  DEN d   1      -3.328  -3.394   0.442  0.00  0.00    -0.094 A 
ATOM      9  C9  DEN d   1      -2.802  -2.443  -0.417  0.00  0.00    -0.072 A 
ENDROOT
TORSDOF 0
ENDMDL
