MODEL 1
REMARK minimizedAffinity 8.03997231
REMARK minimizedRMSD -1
REMARK  0 active torsions:
REMARK  status: ('A' for Active; 'I' for Inactive)
ROOT
ATOM      1  C1  DEN d   1      -2.956   1.872  -1.470  0.00  0.00     0.130 A 
ATOM      2  C2  DEN d   1      -3.834   2.958  -1.896  0.00  0.00    -0.031 A 
ATOM      3  C3  DEN d   1      -3.051   4.209  -1.885  0.00  0.00     0.027 A 
ATOM      4  C4  DEN d   1      -0.575   4.569  -1.258  0.00  0.00     0.027 A 
ATOM      5  C5  DEN d   1       0.574   3.947  -0.822  0.00  0.00    -0.003 A 
ATOM      6  C6  DEN d   1       0.618   2.607  -0.541  0.00  0.00     0.001 A 
ATOM      7  C7  DEN d   1      -0.497   1.836  -0.736  0.00  0.00     0.017 A 
ATOM      8  C8  DEN d   1      -1.662   2.457  -1.169  0.00  0.00    -0.094 A 
ATOM      9  C9  DEN d   1      -1.683   3.811  -1.459  0.00  0.00    -0.072 A 
ENDROOT
TORSDOF 0
ENDMDL
