MODEL 1
REMARK minimizedAffinity -1.83520138
REMARK minimizedRMSD -1
REMARK  0 active torsions:
REMARK  status: ('A' for Active; 'I' for Inactive)
ROOT
ATOM      1  C1  DEN d   1      -0.990   2.034   1.346  0.00  0.00     0.130 A 
ATOM      2  C2  DEN d   1      -1.179   2.282  -0.081  0.00  0.00    -0.031 A 
ATOM      3  C3  DEN d   1      -0.248   1.408  -0.823  0.00  0.00     0.027 A 
ATOM      4  C4  DEN d   1       1.455  -0.298   0.094  0.00  0.00     0.027 A 
ATOM      5  C5  DEN d   1       1.986  -0.850   1.239  0.00  0.00    -0.003 A 
ATOM      6  C6  DEN d   1       1.589  -0.458   2.490  0.00  0.00     0.001 A 
ATOM      7  C7  DEN d   1       0.601   0.482   2.626  0.00  0.00     0.017 A 
ATOM      8  C8  DEN d   1       0.067   1.048   1.476  0.00  0.00    -0.094 A 
ATOM      9  C9  DEN d   1       0.473   0.630   0.220  0.00  0.00    -0.072 A 
ENDROOT
TORSDOF 0
ENDMDL
