MODEL 1
REMARK minimizedAffinity -4.73855591
REMARK minimizedRMSD -1
REMARK  3 active torsions:
REMARK  status: ('A' for Active; 'I' for Inactive)
REMARK    1  A    between atoms: C3'_2  and  C2'_3 
REMARK    2  A    between atoms: C2'_3  and  C1'_4 
REMARK    3  A    between atoms: C1'_4  and  C1_5 
ROOT
ATOM      1  C1  N4B d   1      -0.130   1.368   0.363  0.00  0.00    -0.075 A 
ATOM      2  C2  N4B d   1      -0.459   2.199   1.457  0.00  0.00     0.002 A 
ATOM      3  C3  N4B d   1      -1.015   3.435   1.237  0.00  0.00     0.002 A 
ATOM      4  C4  N4B d   1      -1.234   3.868  -0.063  0.00  0.00    -0.004 A 
ATOM      5  C5  N4B d   1      -0.937   3.048  -1.113  0.00  0.00     0.002 A 
ATOM      6  C6  N4B d   1      -0.382   1.802  -0.906  0.00  0.00     0.002 A 
ENDROOT
BRANCH   1   7
ATOM      7  C1' N4B d   1       0.559   0.044   0.551  0.00  0.00     0.057 C 
BRANCH   7   8
ATOM      8  C2' N4B d   1       0.742  -0.622  -0.809  0.00  0.00     0.009 C 
BRANCH   8   9
ATOM      9  C3' N4B d   1      -0.210  -1.790  -1.004  0.00  0.00     0.004 C 
ATOM     10  C4' N4B d   1       0.501  -3.105  -1.127  0.00  0.00     0.003 C 
ENDBRANCH   8   9
ENDBRANCH   7   8
ENDBRANCH   1   7
TORSDOF 3
ENDMDL
