MODEL 1
REMARK minimizedAffinity -5.53614187
REMARK minimizedRMSD -1
REMARK  3 active torsions:
REMARK  status: ('A' for Active; 'I' for Inactive)
REMARK    1  A    between atoms: C3'_2  and  C2'_3 
REMARK    2  A    between atoms: C2'_3  and  C1'_4 
REMARK    3  A    between atoms: C1'_4  and  C1_5 
ROOT
ATOM      1  C1  N4B d   1       0.245   0.228   0.663  0.00  0.00    -0.075 A 
ATOM      2  C2  N4B d   1       0.692   0.429   1.987  0.00  0.00     0.002 A 
ATOM      3  C3  N4B d   1       0.122   1.409   2.762  0.00  0.00     0.002 A 
ATOM      4  C4  N4B d   1      -0.879   2.208   2.231  0.00  0.00    -0.004 A 
ATOM      5  C5  N4B d   1      -1.322   1.991   0.959  0.00  0.00     0.002 A 
ATOM      6  C6  N4B d   1      -0.762   1.007   0.170  0.00  0.00     0.002 A 
ENDROOT
BRANCH   1   7
ATOM      7  C1' N4B d   1       0.896  -0.774  -0.252  0.00  0.00     0.057 C 
BRANCH   7   8
ATOM      8  C2' N4B d   1      -0.183  -1.501  -1.048  0.00  0.00     0.009 C 
BRANCH   8   9
ATOM      9  C3' N4B d   1      -0.250  -2.978  -0.699  0.00  0.00     0.004 C 
ATOM     10  C4' N4B d   1      -1.343  -3.698  -1.429  0.00  0.00     0.003 C 
ENDBRANCH   8   9
ENDBRANCH   7   8
ENDBRANCH   1   7
TORSDOF 3
ENDMDL
