MODEL 1
REMARK minimizedAffinity -1.84410775
REMARK minimizedRMSD -1
REMARK  3 active torsions:
REMARK  status: ('A' for Active; 'I' for Inactive)
REMARK    1  A    between atoms: C3'_2  and  C2'_3 
REMARK    2  A    between atoms: C2'_3  and  C1'_4 
REMARK    3  A    between atoms: C1'_4  and  C1_5 
ROOT
ATOM      1  C1  N4B d   1       0.115   0.401   0.788  0.00  0.00    -0.075 A 
ATOM      2  C2  N4B d   1      -0.043   1.410   1.763  0.00  0.00     0.002 A 
ATOM      3  C3  N4B d   1       0.726   1.392   2.901  0.00  0.00     0.002 A 
ATOM      4  C4  N4B d   1       1.643   0.369   3.093  0.00  0.00    -0.004 A 
ATOM      5  C5  N4B d   1       1.808  -0.588   2.134  0.00  0.00     0.002 A 
ATOM      6  C6  N4B d   1       1.044  -0.579   0.984  0.00  0.00     0.002 A 
ENDROOT
BRANCH   1   7
ATOM      7  C1' N4B d   1      -0.763   0.331  -0.432  0.00  0.00     0.057 C 
BRANCH   7   8
ATOM      8  C2' N4B d   1      -2.063   1.079  -0.156  0.00  0.00     0.009 C 
BRANCH   8   9
ATOM      9  C3' N4B d   1      -2.767   1.488  -1.439  0.00  0.00     0.004 C 
ATOM     10  C4' N4B d   1      -4.019   2.275  -1.189  0.00  0.00     0.003 C 
ENDBRANCH   8   9
ENDBRANCH   7   8
ENDBRANCH   1   7
TORSDOF 3
ENDMDL
