MODEL 1
REMARK minimizedAffinity 1.51663601
REMARK minimizedRMSD -1
REMARK  1 active torsions:
REMARK  status: ('A' for Active; 'I' for Inactive)
REMARK    1  A    between atoms: N_2  and  C1_3 
ROOT
ATOM      1  C1  UNL d   1      -1.371  -1.471  -0.531  0.00  0.00     0.143 A 
ATOM      2  C2  UNL d   1      -1.438  -0.511   0.484  0.00  0.00    -0.057 A 
ATOM      3  C3  UNL d   1      -2.066  -0.788   1.705  0.00  0.00     0.033 A 
ATOM      4  C4  UNL d   1      -2.665  -2.025   1.921  0.00  0.00    -0.042 A 
ATOM      5  C5  UNL d   1      -2.632  -2.986   0.916  0.00  0.00     0.033 A 
ATOM      6  C6  UNL d   1      -1.997  -2.705  -0.298  0.00  0.00    -0.057 A 
ENDROOT
BRANCH   1   7
ATOM      7  N   UNL d   1      -0.847  -1.222  -1.803  0.00  0.00    -0.732 N 
ATOM      8  C   UNL d   1       0.022  -0.089  -2.033  0.00  0.00     0.284 C 
ATOM      9  H3  UNL d   1      -0.554  -2.074  -2.275  0.00  0.00     0.395 HD
ENDBRANCH   1   7
TORSDOF 1
ENDMDL
