MODEL 1
REMARK minimizedAffinity 3.73489904
REMARK minimizedRMSD -1
REMARK  1 active torsions:
REMARK  status: ('A' for Active; 'I' for Inactive)
REMARK    1  A    between atoms: N_2  and  C1_3 
ROOT
ATOM      1  C1  UNL d   1       4.358  -3.811   5.368  0.00  0.00     0.143 A 
ATOM      2  C2  UNL d   1       5.171  -3.968   4.241  0.00  0.00    -0.057 A 
ATOM      3  C3  UNL d   1       5.995  -2.930   3.789  0.00  0.00     0.033 A 
ATOM      4  C4  UNL d   1       5.997  -1.702   4.442  0.00  0.00    -0.042 A 
ATOM      5  C5  UNL d   1       5.178  -1.514   5.549  0.00  0.00     0.033 A 
ATOM      6  C6  UNL d   1       4.363  -2.557   6.000  0.00  0.00    -0.057 A 
ENDROOT
BRANCH   1   7
ATOM      7  N   UNL d   1       3.444  -4.772   5.809  0.00  0.00    -0.732 N 
ATOM      8  C   UNL d   1       2.051  -4.431   5.999  0.00  0.00     0.284 C 
ATOM      9  H3  UNL d   1       3.595  -5.679   5.373  0.00  0.00     0.395 HD
ENDBRANCH   1   7
TORSDOF 1
ENDMDL
