MODEL 1
REMARK minimizedAffinity -4.89500284
REMARK minimizedRMSD -1
REMARK  1 active torsions:
REMARK  status: ('A' for Active; 'I' for Inactive)
REMARK    1  A    between atoms: N_2  and  C1_3 
ROOT
ATOM      1  C1  UNL d   1      -0.110  -0.214   0.605  0.00  0.00     0.143 A 
ATOM      2  C2  UNL d   1       0.976  -0.978   0.163  0.00  0.00    -0.057 A 
ATOM      3  C3  UNL d   1       0.861  -2.361  -0.025  0.00  0.00     0.033 A 
ATOM      4  C4  UNL d   1      -0.336  -3.010   0.255  0.00  0.00    -0.042 A 
ATOM      5  C5  UNL d   1      -1.421  -2.274   0.719  0.00  0.00     0.033 A 
ATOM      6  C6  UNL d   1      -1.303  -0.893   0.898  0.00  0.00    -0.057 A 
ENDROOT
BRANCH   1   7
ATOM      7  N   UNL d   1      -0.031   1.148   0.906  0.00  0.00    -0.732 N 
ATOM      8  C   UNL d   1       1.061   1.953   0.400  0.00  0.00     0.284 C 
ATOM      9  H3  UNL d   1      -0.938   1.608   0.868  0.00  0.00     0.395 HD
ENDBRANCH   1   7
TORSDOF 1
ENDMDL
