MODEL 1
REMARK minimizedAffinity -4.15794277
REMARK minimizedRMSD -1
REMARK  1 active torsions:
REMARK  status: ('A' for Active; 'I' for Inactive)
REMARK    1  A    between atoms: N_2  and  C1_3 
ROOT
ATOM      1  C1  UNL d   1      -0.522  -0.489   0.517  0.00  0.00     0.143 A 
ATOM      2  C2  UNL d   1      -1.624  -1.171   1.045  0.00  0.00    -0.057 A 
ATOM      3  C3  UNL d   1      -1.740  -2.561   0.934  0.00  0.00     0.033 A 
ATOM      4  C4  UNL d   1      -0.766  -3.295   0.264  0.00  0.00    -0.042 A 
ATOM      5  C5  UNL d   1       0.326  -2.636  -0.291  0.00  0.00     0.033 A 
ATOM      6  C6  UNL d   1       0.439  -1.248  -0.170  0.00  0.00    -0.057 A 
ENDROOT
BRANCH   1   7
ATOM      7  N   UNL d   1      -0.398   0.902   0.510  0.00  0.00    -0.732 N 
ATOM      8  C   UNL d   1       0.115   1.590  -0.655  0.00  0.00     0.284 C 
ATOM      9  H3  UNL d   1      -1.190   1.365   0.951  0.00  0.00     0.395 HD
ENDBRANCH   1   7
TORSDOF 1
ENDMDL
