MODEL 1
REMARK minimizedAffinity -5.35509014
REMARK minimizedRMSD -1
REMARK  1 active torsions:
REMARK  status: ('A' for Active; 'I' for Inactive)
REMARK    1  A    between atoms: N_2  and  C1_3 
ROOT
ATOM      1  C1  UNL d   1      -0.657  -0.785   0.647  0.00  0.00     0.143 A 
ATOM      2  C2  UNL d   1      -1.020  -1.564   1.752  0.00  0.00    -0.057 A 
ATOM      3  C3  UNL d   1      -0.694  -2.924   1.820  0.00  0.00     0.033 A 
ATOM      4  C4  UNL d   1      -0.022  -3.537   0.768  0.00  0.00    -0.042 A 
ATOM      5  C5  UNL d   1       0.326  -2.789  -0.351  0.00  0.00     0.033 A 
ATOM      6  C6  UNL d   1       0.004  -1.429  -0.410  0.00  0.00    -0.057 A 
ENDROOT
BRANCH   1   7
ATOM      7  N   UNL d   1      -1.038   0.548   0.477  0.00  0.00    -0.732 N 
ATOM      8  C   UNL d   1      -0.105   1.520  -0.052  0.00  0.00     0.284 C 
ATOM      9  H3  UNL d   1      -1.984   0.638   0.112  0.00  0.00     0.395 HD
ENDBRANCH   1   7
TORSDOF 1
ENDMDL
