MODEL 1
REMARK minimizedAffinity -4.04668427
REMARK minimizedRMSD -1
REMARK  1 active torsions:
REMARK  status: ('A' for Active; 'I' for Inactive)
REMARK    1  A    between atoms: N_2  and  C1_3 
ROOT
ATOM      1  C1  UNL d   1       0.032  -0.127   0.191  0.00  0.00     0.143 A 
ATOM      2  C2  UNL d   1      -1.120  -0.850   0.518  0.00  0.00    -0.057 A 
ATOM      3  C3  UNL d   1      -1.063  -2.220   0.800  0.00  0.00     0.033 A 
ATOM      4  C4  UNL d   1       0.149  -2.900   0.733  0.00  0.00    -0.042 A 
ATOM      5  C5  UNL d   1       1.303  -2.207   0.386  0.00  0.00     0.033 A 
ATOM      6  C6  UNL d   1       1.240  -0.837   0.111  0.00  0.00    -0.057 A 
ENDROOT
BRANCH   1   7
ATOM      7  N   UNL d   1       0.025   1.215  -0.196  0.00  0.00    -0.732 N 
ATOM      8  C   UNL d   1       1.124   2.089   0.152  0.00  0.00     0.284 C 
ATOM      9  H3  UNL d   1      -0.325   1.344  -1.143  0.00  0.00     0.395 HD
ENDBRANCH   1   7
TORSDOF 1
ENDMDL
