MODEL 1
REMARK minimizedAffinity -4.68557978
REMARK minimizedRMSD -1
REMARK  1 active torsions:
REMARK  status: ('A' for Active; 'I' for Inactive)
REMARK    1  A    between atoms: N_2  and  C1_3 
ROOT
ATOM      1  C1  UNL d   1      -0.206  -0.906  -0.145  0.00  0.00     0.143 A 
ATOM      2  C2  UNL d   1      -0.734  -1.205   1.115  0.00  0.00    -0.057 A 
ATOM      3  C3  UNL d   1      -1.336  -2.442   1.376  0.00  0.00     0.033 A 
ATOM      4  C4  UNL d   1      -1.447  -3.394   0.368  0.00  0.00    -0.042 A 
ATOM      5  C5  UNL d   1      -0.953  -3.109  -0.899  0.00  0.00     0.033 A 
ATOM      6  C6  UNL d   1      -0.346  -1.875  -1.152  0.00  0.00    -0.057 A 
ENDROOT
BRANCH   1   7
ATOM      7  N   UNL d   1       0.316   0.342  -0.494  0.00  0.00    -0.732 N 
ATOM      8  C   UNL d   1      -0.139   1.544   0.171  0.00  0.00     0.284 C 
ATOM      9  H3  UNL d   1       1.320   0.311  -0.656  0.00  0.00     0.395 HD
ENDBRANCH   1   7
TORSDOF 1
ENDMDL
