MODEL 1
REMARK minimizedAffinity -4.80162048
REMARK minimizedRMSD -1
REMARK  1 active torsions:
REMARK  status: ('A' for Active; 'I' for Inactive)
REMARK    1  A    between atoms: N_2  and  C1_3 
ROOT
ATOM      1  C1  UNL d   1       0.048  -0.896  -0.051  0.00  0.00     0.143 A 
ATOM      2  C2  UNL d   1       0.152  -1.600  -1.255  0.00  0.00    -0.057 A 
ATOM      3  C3  UNL d   1       0.043  -2.996  -1.292  0.00  0.00     0.033 A 
ATOM      4  C4  UNL d   1      -0.145  -3.716  -0.118  0.00  0.00    -0.042 A 
ATOM      5  C5  UNL d   1      -0.226  -3.039   1.094  0.00  0.00     0.033 A 
ATOM      6  C6  UNL d   1      -0.123  -1.645   1.124  0.00  0.00    -0.057 A 
ENDROOT
BRANCH   1   7
ATOM      7  N   UNL d   1       0.246   0.482   0.064  0.00  0.00    -0.732 N 
ATOM      8  C   UNL d   1      -0.502   1.406  -0.761  0.00  0.00     0.284 C 
ATOM      9  H3  UNL d   1       0.351   0.780   1.032  0.00  0.00     0.395 HD
ENDBRANCH   1   7
TORSDOF 1
ENDMDL
