MODEL 1
REMARK minimizedAffinity -4.02973986
REMARK minimizedRMSD -1
REMARK  1 active torsions:
REMARK  status: ('A' for Active; 'I' for Inactive)
REMARK    1  A    between atoms: N_2  and  C1_3 
ROOT
ATOM      1  C1  UNL d   1       0.202   3.353   0.837  0.00  0.00     0.143 A 
ATOM      2  C2  UNL d   1       1.568   3.602   0.660  0.00  0.00    -0.057 A 
ATOM      3  C3  UNL d   1       2.353   2.787  -0.165  0.00  0.00     0.033 A 
ATOM      4  C4  UNL d   1       1.790   1.689  -0.806  0.00  0.00    -0.042 A 
ATOM      5  C5  UNL d   1       0.440   1.408  -0.625  0.00  0.00     0.033 A 
ATOM      6  C6  UNL d   1      -0.340   2.229   0.195  0.00  0.00    -0.057 A 
ENDROOT
BRANCH   1   7
ATOM      7  N   UNL d   1      -0.610   4.068   1.722  0.00  0.00    -0.732 N 
ATOM      8  C   UNL d   1      -0.077   4.568   2.971  0.00  0.00     0.284 C 
ATOM      9  H3  UNL d   1      -1.227   4.719   1.242  0.00  0.00     0.395 HD
ENDBRANCH   1   7
TORSDOF 1
ENDMDL
