MODEL 1
REMARK minimizedAffinity -5.32706499
REMARK minimizedRMSD -1
REMARK  1 active torsions:
REMARK  status: ('A' for Active; 'I' for Inactive)
REMARK    1  A    between atoms: N_2  and  C1_3 
ROOT
ATOM      1  C1  UNL d   1       0.193  -2.279  -0.831  0.00  0.00     0.143 A 
ATOM      2  C2  UNL d   1       0.208  -0.892  -0.650  0.00  0.00    -0.057 A 
ATOM      3  C3  UNL d   1      -0.409  -0.298   0.457  0.00  0.00     0.033 A 
ATOM      4  C4  UNL d   1      -1.081  -1.081   1.390  0.00  0.00    -0.042 A 
ATOM      5  C5  UNL d   1      -1.131  -2.460   1.217  0.00  0.00     0.033 A 
ATOM      6  C6  UNL d   1      -0.506  -3.048   0.113  0.00  0.00    -0.057 A 
ENDROOT
BRANCH   1   7
ATOM      7  N   UNL d   1       0.703  -2.921  -1.962  0.00  0.00    -0.732 N 
ATOM      8  C   UNL d   1       1.063  -2.163  -3.141  0.00  0.00     0.284 C 
ATOM      9  H3  UNL d   1       1.362  -3.659  -1.725  0.00  0.00     0.395 HD
ENDBRANCH   1   7
TORSDOF 1
ENDMDL
