MODEL 1
REMARK minimizedAffinity -4.26021814
REMARK minimizedRMSD -1
REMARK  1 active torsions:
REMARK  status: ('A' for Active; 'I' for Inactive)
REMARK    1  A    between atoms: N_2  and  C1_3 
ROOT
ATOM      1  C1  UNL d   1       0.923   3.494   2.210  0.00  0.00     0.143 A 
ATOM      2  C2  UNL d   1       2.265   3.387   1.832  0.00  0.00    -0.057 A 
ATOM      3  C3  UNL d   1       2.626   2.978   0.542  0.00  0.00     0.033 A 
ATOM      4  C4  UNL d   1       1.647   2.640  -0.386  0.00  0.00    -0.042 A 
ATOM      5  C5  UNL d   1       0.307   2.715  -0.025  0.00  0.00     0.033 A 
ATOM      6  C6  UNL d   1      -0.047   3.130   1.263  0.00  0.00    -0.057 A 
ENDROOT
BRANCH   1   7
ATOM      7  N   UNL d   1       0.502   3.799   3.506  0.00  0.00    -0.732 N 
ATOM      8  C   UNL d   1      -0.463   4.853   3.739  0.00  0.00     0.284 C 
ATOM      9  H3  UNL d   1       0.354   2.967   4.073  0.00  0.00     0.395 HD
ENDBRANCH   1   7
TORSDOF 1
ENDMDL
