MODEL 1
REMARK minimizedAffinity -0.903691769
REMARK minimizedRMSD -1
REMARK  0 active torsions:
REMARK  status: ('A' for Active; 'I' for Inactive)
ROOT
ATOM      1  C   UNL d   1       1.565  -1.872   0.234  0.00  0.00     0.023 A 
ATOM      2  C1  UNL d   1       2.311  -1.398  -0.845  0.00  0.00     0.003 A 
ATOM      3  C2  UNL d   1       2.367  -0.028  -1.109  0.00  0.00     0.048 A 
ATOM      4  C3  UNL d   1       1.676   0.863  -0.289  0.00  0.00     0.023 A 
ATOM      5  C4  UNL d   1       0.929   0.393   0.793  0.00  0.00     0.048 A 
ATOM      6  C5  UNL d   1       0.875  -0.977   1.052  0.00  0.00     0.003 A 
ATOM      7  I   UNL d   1       1.758   2.902  -0.680  0.00  0.00    -0.146 I 
ENDROOT
TORSDOF 0
ENDMDL
