MODEL 1
REMARK minimizedAffinity 1.01102614
REMARK minimizedRMSD -1
REMARK  0 active torsions:
REMARK  status: ('A' for Active; 'I' for Inactive)
ROOT
ATOM      1  C   UNL d   1      -5.992   3.115  -3.772  0.00  0.00     0.023 A 
ATOM      2  C1  UNL d   1      -5.226   2.353  -2.891  0.00  0.00     0.003 A 
ATOM      3  C2  UNL d   1      -3.833   2.434  -2.925  0.00  0.00     0.048 A 
ATOM      4  C3  UNL d   1      -3.212   3.281  -3.842  0.00  0.00     0.023 A 
ATOM      5  C4  UNL d   1      -3.974   4.047  -4.725  0.00  0.00     0.048 A 
ATOM      6  C5  UNL d   1      -5.367   3.961  -4.689  0.00  0.00     0.003 A 
ATOM      7  I   UNL d   1      -1.138   3.404  -3.894  0.00  0.00    -0.146 I 
ENDROOT
TORSDOF 0
ENDMDL
