MODEL 1
REMARK minimizedAffinity 5.47244501
REMARK minimizedRMSD -1
REMARK  0 active torsions:
REMARK  status: ('A' for Active; 'I' for Inactive)
ROOT
ATOM      1  C   UNL d   1       4.795   1.246  -2.495  0.00  0.00     0.023 A 
ATOM      2  C1  UNL d   1       3.711   1.606  -1.694  0.00  0.00     0.003 A 
ATOM      3  C2  UNL d   1       2.951   0.620  -1.062  0.00  0.00     0.048 A 
ATOM      4  C3  UNL d   1       3.280  -0.724  -1.234  0.00  0.00     0.023 A 
ATOM      5  C4  UNL d   1       4.364  -1.089  -2.034  0.00  0.00     0.048 A 
ATOM      6  C5  UNL d   1       5.121  -0.100  -2.665  0.00  0.00     0.003 A 
ATOM      7  I   UNL d   1       2.150  -2.193  -0.294  0.00  0.00    -0.146 I 
ENDROOT
TORSDOF 0
ENDMDL
