MODEL 1
REMARK minimizedAffinity -3.41882086
REMARK minimizedRMSD -1
REMARK  0 active torsions:
REMARK  status: ('A' for Active; 'I' for Inactive)
ROOT
ATOM      1  C   UNL d   1      -0.636   3.840  -3.255  0.00  0.00     0.023 A 
ATOM      2  C1  UNL d   1      -1.374   4.782  -2.539  0.00  0.00     0.003 A 
ATOM      3  C2  UNL d   1      -2.727   4.557  -2.274  0.00  0.00     0.048 A 
ATOM      4  C3  UNL d   1      -3.334   3.386  -2.727  0.00  0.00     0.023 A 
ATOM      5  C4  UNL d   1      -2.599   2.440  -3.443  0.00  0.00     0.048 A 
ATOM      6  C5  UNL d   1      -1.248   2.670  -3.707  0.00  0.00     0.003 A 
ATOM      7  I   UNL d   1      -5.347   3.048  -2.333  0.00  0.00    -0.146 I 
ENDROOT
TORSDOF 0
ENDMDL
