MODEL 1
REMARK minimizedAffinity 5.98682261
REMARK minimizedRMSD -1
REMARK  0 active torsions:
REMARK  status: ('A' for Active; 'I' for Inactive)
ROOT
ATOM      1  C   UNL d   1       0.816   0.414   1.337  0.00  0.00     0.023 A 
ATOM      2  C1  UNL d   1       1.592   0.966   0.317  0.00  0.00     0.003 A 
ATOM      3  C2  UNL d   1       2.027   0.166  -0.742  0.00  0.00     0.048 A 
ATOM      4  C3  UNL d   1       1.681  -1.185  -0.775  0.00  0.00     0.023 A 
ATOM      5  C4  UNL d   1       0.904  -1.741   0.243  0.00  0.00     0.048 A 
ATOM      6  C5  UNL d   1       0.473  -0.937   1.300  0.00  0.00     0.003 A 
ATOM      7  I   UNL d   1       2.327  -2.377  -2.350  0.00  0.00    -0.146 I 
ENDROOT
TORSDOF 0
ENDMDL
