MODEL 1
REMARK minimizedAffinity 0.893574178
REMARK minimizedRMSD -1
REMARK  0 active torsions:
REMARK  status: ('A' for Active; 'I' for Inactive)
ROOT
ATOM      1  C   UNL d   1       3.592   0.072  -1.842  0.00  0.00     0.023 A 
ATOM      2  C1  UNL d   1       3.401  -1.239  -1.405  0.00  0.00     0.003 A 
ATOM      3  C2  UNL d   1       2.423  -1.522  -0.449  0.00  0.00     0.048 A 
ATOM      4  C3  UNL d   1       1.638  -0.490   0.064  0.00  0.00     0.023 A 
ATOM      5  C4  UNL d   1       1.825   0.823  -0.371  0.00  0.00     0.048 A 
ATOM      6  C5  UNL d   1       2.805   1.102  -1.326  0.00  0.00     0.003 A 
ATOM      7  I   UNL d   1       0.181  -0.909   1.485  0.00  0.00    -0.146 I 
ENDROOT
TORSDOF 0
ENDMDL
