MODEL 1
REMARK minimizedAffinity -0.0560023263
REMARK minimizedRMSD -1
REMARK  0 active torsions:
REMARK  status: ('A' for Active; 'I' for Inactive)
ROOT
ATOM      1  C   UNL d   1       2.674   0.187  -1.305  0.00  0.00     0.023 A 
ATOM      2  C1  UNL d   1       2.725  -1.160  -0.946  0.00  0.00     0.003 A 
ATOM      3  C2  UNL d   1       1.898  -1.645   0.069  0.00  0.00     0.048 A 
ATOM      4  C3  UNL d   1       1.021  -0.778   0.720  0.00  0.00     0.023 A 
ATOM      5  C4  UNL d   1       0.966   0.571   0.363  0.00  0.00     0.048 A 
ATOM      6  C5  UNL d   1       1.796   1.051  -0.652  0.00  0.00     0.003 A 
ATOM      7  I   UNL d   1      -0.212  -1.497   2.231  0.00  0.00    -0.146 I 
ENDROOT
TORSDOF 0
ENDMDL
