MODEL 1
REMARK minimizedAffinity -1.51983452
REMARK minimizedRMSD -1
REMARK  0 active torsions:
REMARK  status: ('A' for Active; 'I' for Inactive)
ROOT
ATOM      1  C   UNL d   1      -0.090  -1.011   1.424  0.00  0.00     0.023 A 
ATOM      2  C1  UNL d   1       0.757   0.093   1.334  0.00  0.00     0.003 A 
ATOM      3  C2  UNL d   1       1.851   0.065   0.466  0.00  0.00     0.048 A 
ATOM      4  C3  UNL d   1       2.091  -1.069  -0.309  0.00  0.00     0.023 A 
ATOM      5  C4  UNL d   1       1.245  -2.176  -0.222  0.00  0.00     0.048 A 
ATOM      6  C5  UNL d   1       0.153  -2.144   0.648  0.00  0.00     0.003 A 
ATOM      7  I   UNL d   1       3.719  -1.112  -1.601  0.00  0.00    -0.146 I 
ENDROOT
TORSDOF 0
ENDMDL
