MODEL 1
REMARK minimizedAffinity -1.47809088
REMARK minimizedRMSD -1
REMARK  0 active torsions:
REMARK  status: ('A' for Active; 'I' for Inactive)
ROOT
ATOM      1  C   UNL d   1       0.283   0.432   1.095  0.00  0.00     0.023 A 
ATOM      2  C1  UNL d   1       0.848   1.289   0.151  0.00  0.00     0.003 A 
ATOM      3  C2  UNL d   1       1.759   0.795  -0.786  0.00  0.00     0.048 A 
ATOM      4  C3  UNL d   1       2.099  -0.557  -0.773  0.00  0.00     0.023 A 
ATOM      5  C4  UNL d   1       1.535  -1.419   0.170  0.00  0.00     0.048 A 
ATOM      6  C5  UNL d   1       0.626  -0.920   1.104  0.00  0.00     0.003 A 
ATOM      7  I   UNL d   1       3.453  -1.295  -2.166  0.00  0.00    -0.146 I 
ENDROOT
TORSDOF 0
ENDMDL
