MODEL 1
REMARK minimizedAffinity 4.69309378
REMARK minimizedRMSD -1
REMARK  0 active torsions:
REMARK  status: ('A' for Active; 'I' for Inactive)
ROOT
ATOM      1  C   UNL d   1      -0.764   1.709  -4.132  0.00  0.00     0.023 A 
ATOM      2  C1  UNL d   1       0.385   2.331  -3.643  0.00  0.00     0.003 A 
ATOM      3  C2  UNL d   1       0.291   3.563  -2.992  0.00  0.00     0.048 A 
ATOM      4  C3  UNL d   1      -0.956   4.166  -2.832  0.00  0.00     0.023 A 
ATOM      5  C4  UNL d   1      -2.109   3.547  -3.318  0.00  0.00     0.048 A 
ATOM      6  C5  UNL d   1      -2.009   2.316  -3.970  0.00  0.00     0.003 A 
ATOM      7  I   UNL d   1      -1.100   5.999  -1.862  0.00  0.00    -0.146 I 
ENDROOT
TORSDOF 0
ENDMDL
