MODEL 1
REMARK minimizedAffinity -1.39233065
REMARK minimizedRMSD -1
REMARK  0 active torsions:
REMARK  status: ('A' for Active; 'I' for Inactive)
ROOT
ATOM      1  C   UNL d   1       3.165  -0.150  -1.469  0.00  0.00     0.023 A 
ATOM      2  C1  UNL d   1       2.628   0.989  -0.870  0.00  0.00     0.003 A 
ATOM      3  C2  UNL d   1       1.585   0.869   0.051  0.00  0.00     0.048 A 
ATOM      4  C3  UNL d   1       1.085  -0.393   0.369  0.00  0.00     0.023 A 
ATOM      5  C4  UNL d   1       1.620  -1.536  -0.227  0.00  0.00     0.048 A 
ATOM      6  C5  UNL d   1       2.662  -1.411  -1.148  0.00  0.00     0.003 A 
ATOM      7  I   UNL d   1      -0.467  -0.574   1.740  0.00  0.00    -0.146 I 
ENDROOT
TORSDOF 0
ENDMDL
