MODEL 1
REMARK minimizedAffinity 2.36040664
REMARK minimizedRMSD -1
REMARK  0 active torsions:
REMARK  status: ('A' for Active; 'I' for Inactive)
ROOT
ATOM      1  C   UNL d   1       3.844   0.064  -2.023  0.00  0.00     0.023 A 
ATOM      2  C1  UNL d   1       3.130   0.926  -1.190  0.00  0.00     0.003 A 
ATOM      3  C2  UNL d   1       2.160   0.418  -0.323  0.00  0.00     0.048 A 
ATOM      4  C3  UNL d   1       1.909  -0.953  -0.294  0.00  0.00     0.023 A 
ATOM      5  C4  UNL d   1       2.621  -1.820  -1.125  0.00  0.00     0.048 A 
ATOM      6  C5  UNL d   1       3.589  -1.307  -1.991  0.00  0.00     0.003 A 
ATOM      7  I   UNL d   1       0.466  -1.712   0.995  0.00  0.00    -0.146 I 
ENDROOT
TORSDOF 0
ENDMDL
