MODEL 1
REMARK minimizedAffinity -1.36547089
REMARK minimizedRMSD -1
REMARK  0 active torsions:
REMARK  status: ('A' for Active; 'I' for Inactive)
ROOT
ATOM      1  C   UNL d   1       2.183  -0.495   1.045  0.00  0.00     0.023 A 
ATOM      2  C1  UNL d   1       1.545  -0.212   2.253  0.00  0.00     0.003 A 
ATOM      3  C2  UNL d   1       0.234  -0.641   2.469  0.00  0.00     0.048 A 
ATOM      4  C3  UNL d   1      -0.433  -1.354   1.474  0.00  0.00     0.023 A 
ATOM      5  C4  UNL d   1       0.201  -1.640   0.264  0.00  0.00     0.048 A 
ATOM      6  C5  UNL d   1       1.512  -1.208   0.052  0.00  0.00     0.003 A 
ATOM      7  I   UNL d   1      -2.384  -1.995   1.794  0.00  0.00    -0.146 I 
ENDROOT
TORSDOF 0
ENDMDL
