MODEL 1
REMARK minimizedAffinity -1.21826756
REMARK minimizedRMSD -1
REMARK  0 active torsions:
REMARK  status: ('A' for Active; 'I' for Inactive)
ROOT
ATOM      1  C   UNL d   1       3.019  -0.518  -1.524  0.00  0.00     0.023 A 
ATOM      2  C1  UNL d   1       2.743  -1.721  -0.875  0.00  0.00     0.003 A 
ATOM      3  C2  UNL d   1       1.768  -1.770   0.123  0.00  0.00     0.048 A 
ATOM      4  C3  UNL d   1       1.071  -0.612   0.466  0.00  0.00     0.023 A 
ATOM      5  C4  UNL d   1       1.343   0.594  -0.182  0.00  0.00     0.048 A 
ATOM      6  C5  UNL d   1       2.319   0.638  -1.179  0.00  0.00     0.003 A 
ATOM      7  I   UNL d   1      -0.382  -0.682   1.951  0.00  0.00    -0.146 I 
ENDROOT
TORSDOF 0
ENDMDL
