MODEL 1
REMARK minimizedAffinity -0.55043602
REMARK minimizedRMSD -1
REMARK  0 active torsions:
REMARK  status: ('A' for Active; 'I' for Inactive)
ROOT
ATOM      1  C   UNL d   1       3.198   0.388  -1.515  0.00  0.00     0.023 A 
ATOM      2  C1  UNL d   1       2.466   1.320  -0.779  0.00  0.00     0.003 A 
ATOM      3  C2  UNL d   1       1.496   0.889   0.128  0.00  0.00     0.048 A 
ATOM      4  C3  UNL d   1       1.263  -0.476   0.295  0.00  0.00     0.023 A 
ATOM      5  C4  UNL d   1       1.994  -1.412  -0.439  0.00  0.00     0.048 A 
ATOM      6  C5  UNL d   1       2.963  -0.976  -1.345  0.00  0.00     0.003 A 
ATOM      7  I   UNL d   1      -0.181  -1.120   1.644  0.00  0.00    -0.146 I 
ENDROOT
TORSDOF 0
ENDMDL
