MODEL 1
REMARK minimizedAffinity 15.4858589
REMARK minimizedRMSD -1
REMARK  0 active torsions:
REMARK  status: ('A' for Active; 'I' for Inactive)
ROOT
ATOM      1  C4' PXY d   1       6.000  -3.754  -0.000  0.00  0.00     0.077 C 
ATOM      2  C1' PXY d   1       1.016  -1.465   1.827  0.00  0.00     0.077 C 
ATOM      3  C1  PXY d   1       2.322  -2.059   1.337  0.00  0.00    -0.082 A 
ATOM      4  C2  PXY d   1       2.762  -3.192   1.859  0.00  0.00     0.003 A 
ATOM      5  C3  PXY d   1       3.957  -3.727   1.450  0.00  0.00     0.003 A 
ATOM      6  C4  PXY d   1       4.682  -3.123   0.458  0.00  0.00    -0.082 A 
ATOM      7  C5  PXY d   1       4.234  -1.972  -0.087  0.00  0.00     0.003 A 
ATOM      8  C6  PXY d   1       3.040  -1.424   0.371  0.00  0.00     0.003 A 
ENDROOT
TORSDOF 0
ENDMDL
