MODEL 1
REMARK minimizedAffinity 5.80899096
REMARK minimizedRMSD -1
REMARK  0 active torsions:
REMARK  status: ('A' for Active; 'I' for Inactive)
ROOT
ATOM      1  C4' PXY d   1      -4.690   5.942  -4.316  0.00  0.00     0.077 C 
ATOM      2  C1' PXY d   1      -3.478   0.536  -2.668  0.00  0.00     0.077 C 
ATOM      3  C1  PXY d   1      -3.787   1.953  -3.110  0.00  0.00    -0.082 A 
ATOM      4  C2  PXY d   1      -4.318   2.805  -2.248  0.00  0.00     0.003 A 
ATOM      5  C3  PXY d   1      -4.633   4.081  -2.640  0.00  0.00     0.003 A 
ATOM      6  C4  PXY d   1      -4.353   4.504  -3.912  0.00  0.00    -0.082 A 
ATOM      7  C5  PXY d   1      -3.801   3.644  -4.793  0.00  0.00     0.003 A 
ATOM      8  C6  PXY d   1      -3.527   2.341  -4.388  0.00  0.00     0.003 A 
ENDROOT
TORSDOF 0
ENDMDL
