MODEL 1
REMARK minimizedAffinity 16.0607872
REMARK minimizedRMSD -1
REMARK  0 active torsions:
REMARK  status: ('A' for Active; 'I' for Inactive)
ROOT
ATOM      1  C4' PXY d   1      -6.000   5.996  -4.869  0.00  0.00     0.077 C 
ATOM      2  C1' PXY d   1      -3.312   1.177  -3.147  0.00  0.00     0.077 C 
ATOM      3  C1  PXY d   1      -4.006   2.445  -3.605  0.00  0.00    -0.082 A 
ATOM      4  C2  PXY d   1      -5.033   2.914  -2.915  0.00  0.00     0.003 A 
ATOM      5  C3  PXY d   1      -5.693   4.041  -3.333  0.00  0.00     0.003 A 
ATOM      6  C4  PXY d   1      -5.263   4.725  -4.438  0.00  0.00    -0.082 A 
ATOM      7  C5  PXY d   1      -4.209   4.259  -5.141  0.00  0.00     0.003 A 
ATOM      8  C6  PXY d   1      -3.579   3.091  -4.724  0.00  0.00     0.003 A 
ENDROOT
TORSDOF 0
ENDMDL
