MODEL 1
REMARK minimizedAffinity 11.5443039
REMARK minimizedRMSD -1
REMARK  0 active torsions:
REMARK  status: ('A' for Active; 'I' for Inactive)
ROOT
ATOM      1  C4' PXY d   1       1.786  -1.017   2.671  0.00  0.00     0.077 C 
ATOM      2  C1' PXY d   1       1.554  -4.406  -2.006  0.00  0.00     0.077 C 
ATOM      3  C1  PXY d   1       1.602  -3.520  -0.777  0.00  0.00    -0.082 A 
ATOM      4  C2  PXY d   1       2.499  -2.549  -0.705  0.00  0.00     0.003 A 
ATOM      5  C3  PXY d   1       2.578  -1.759   0.412  0.00  0.00     0.003 A 
ATOM      6  C4  PXY d   1       1.694  -1.930   1.445  0.00  0.00    -0.082 A 
ATOM      7  C5  PXY d   1       0.770  -2.911   1.374  0.00  0.00     0.003 A 
ATOM      8  C6  PXY d   1       0.733  -3.728   0.249  0.00  0.00     0.003 A 
ENDROOT
TORSDOF 0
ENDMDL
