MODEL 1
REMARK minimizedAffinity 11.2158232
REMARK minimizedRMSD -1
REMARK  0 active torsions:
REMARK  status: ('A' for Active; 'I' for Inactive)
ROOT
ATOM      1  C4' PXY d   1      -2.758  -4.800   0.229  0.00  0.00     0.077 C 
ATOM      2  C1' PXY d   1       2.635  -4.732  -1.850  0.00  0.00     0.077 C 
ATOM      3  C1  PXY d   1       1.226  -4.753  -1.293  0.00  0.00    -0.082 A 
ATOM      4  C2  PXY d   1       0.205  -4.977  -2.104  0.00  0.00     0.003 A 
ATOM      5  C3  PXY d   1      -1.079  -4.968  -1.623  0.00  0.00     0.003 A 
ATOM      6  C4  PXY d   1      -1.317  -4.779  -0.288  0.00  0.00    -0.082 A 
ATOM      7  C5  PXY d   1      -0.280  -4.561   0.548  0.00  0.00     0.003 A 
ATOM      8  C6  PXY d   1       1.013  -4.533   0.033  0.00  0.00     0.003 A 
ENDROOT
TORSDOF 0
ENDMDL
