MODEL 1
REMARK minimizedAffinity 10.4089794
REMARK minimizedRMSD -1
REMARK  0 active torsions:
REMARK  status: ('A' for Active; 'I' for Inactive)
ROOT
ATOM      1  C4' PXY d   1       2.265  -4.234   5.999  0.00  0.00     0.077 C 
ATOM      2  C1' PXY d   1       1.165  -0.921   1.392  0.00  0.00     0.077 C 
ATOM      3  C1  PXY d   1       1.452  -1.779   2.608  0.00  0.00    -0.082 A 
ATOM      4  C2  PXY d   1       2.143  -2.899   2.470  0.00  0.00     0.003 A 
ATOM      5  C3  PXY d   1       2.384  -3.704   3.553  0.00  0.00     0.003 A 
ATOM      6  C4  PXY d   1       1.959  -3.331   4.801  0.00  0.00    -0.082 A 
ATOM      7  C5  PXY d   1       1.263  -2.185   4.952  0.00  0.00     0.003 A 
ATOM      8  C6  PXY d   1       0.993  -1.403   3.832  0.00  0.00     0.003 A 
ENDROOT
TORSDOF 0
ENDMDL
