MODEL 1
REMARK minimizedAffinity 15.6092377
REMARK minimizedRMSD -1
REMARK  0 active torsions:
REMARK  status: ('A' for Active; 'I' for Inactive)
ROOT
ATOM      1  C4' PXY d   1       0.983  -1.840   5.224  0.00  0.00     0.077 C 
ATOM      2  C1' PXY d   1       2.719  -1.736  -0.289  0.00  0.00     0.077 C 
ATOM      3  C1  PXY d   1       2.265  -1.750   1.157  0.00  0.00    -0.082 A 
ATOM      4  C2  PXY d   1       2.440  -2.839   1.887  0.00  0.00     0.003 A 
ATOM      5  C3  PXY d   1       2.006  -2.880   3.187  0.00  0.00     0.003 A 
ATOM      6  C4  PXY d   1       1.435  -1.777   3.762  0.00  0.00    -0.082 A 
ATOM      7  C5  PXY d   1       1.261  -0.658   3.027  0.00  0.00     0.003 A 
ATOM      8  C6  PXY d   1       1.672  -0.651   1.697  0.00  0.00     0.003 A 
ENDROOT
TORSDOF 0
ENDMDL
