MODEL 1
REMARK minimizedAffinity 8.72288036
REMARK minimizedRMSD -1
REMARK  0 active torsions:
REMARK  status: ('A' for Active; 'I' for Inactive)
ROOT
ATOM      1  C4' PXY d   1       5.339  -4.584   0.308  0.00  0.00     0.077 C 
ATOM      2  C1' PXY d   1       0.849  -1.203   1.657  0.00  0.00     0.077 C 
ATOM      3  C1  PXY d   1       2.023  -2.098   1.313  0.00  0.00    -0.082 A 
ATOM      4  C2  PXY d   1       3.069  -1.591   0.681  0.00  0.00     0.003 A 
ATOM      5  C3  PXY d   1       4.125  -2.392   0.334  0.00  0.00     0.003 A 
ATOM      6  C4  PXY d   1       4.135  -3.716   0.684  0.00  0.00    -0.082 A 
ATOM      7  C5  PXY d   1       3.077  -4.239   1.339  0.00  0.00     0.003 A 
ATOM      8  C6  PXY d   1       1.996  -3.417   1.646  0.00  0.00     0.003 A 
ENDROOT
TORSDOF 0
ENDMDL
