MODEL 1
REMARK minimizedAffinity 6.87599277
REMARK minimizedRMSD -1
REMARK  0 active torsions:
REMARK  status: ('A' for Active; 'I' for Inactive)
ROOT
ATOM      1  N1  IND d   1       4.084   2.618  -0.435  0.00  0.00    -0.196 N 
ATOM      2  C2  IND d   1       5.422   2.753  -0.679  0.00  0.00     0.054 A 
ATOM      3  C3  IND d   1       5.999   1.539  -0.822  0.00  0.00    -0.031 A 
ATOM      4  C4  IND d   1       4.921  -0.798  -0.795  0.00  0.00     0.051 A 
ATOM      5  C5  IND d   1       3.731  -1.433  -0.571  0.00  0.00    -0.031 A 
ATOM      6  C6  IND d   1       2.575  -0.736  -0.288  0.00  0.00     0.015 A 
ATOM      7  C7  IND d   1       2.562   0.629  -0.228  0.00  0.00    -0.016 A 
ATOM      8  C8  IND d   1       3.769   1.277  -0.448  0.00  0.00    -0.047 A 
ATOM      9  C9  IND d   1       4.955   0.573  -0.694  0.00  0.00    -0.096 A 
ATOM     10  HN1 IND d   1       3.531   3.262  -0.297  0.00  0.00     0.298 HD
ENDROOT
TORSDOF 0
ENDMDL
