MODEL 1
REMARK minimizedAffinity 18.5306187
REMARK minimizedRMSD -1
REMARK  0 active torsions:
REMARK  status: ('A' for Active; 'I' for Inactive)
ROOT
ATOM      1  N1  IND d   1      -0.331  -0.298   3.184  0.00  0.00    -0.196 N 
ATOM      2  C2  IND d   1       0.694  -1.200   3.226  0.00  0.00     0.054 A 
ATOM      3  C3  IND d   1       1.368  -1.201   2.054  0.00  0.00    -0.031 A 
ATOM      4  C4  IND d   1       1.024   0.270  -0.031  0.00  0.00     0.051 A 
ATOM      5  C5  IND d   1       0.190   1.216  -0.556  0.00  0.00    -0.031 A 
ATOM      6  C6  IND d   1      -0.882   1.718   0.154  0.00  0.00     0.015 A 
ATOM      7  C7  IND d   1      -1.152   1.299   1.426  0.00  0.00    -0.016 A 
ATOM      8  C8  IND d   1      -0.311   0.333   1.960  0.00  0.00    -0.047 A 
ATOM      9  C9  IND d   1       0.752  -0.211   1.228  0.00  0.00    -0.096 A 
ATOM     10  HN1 IND d   1      -0.895  -0.149   3.817  0.00  0.00     0.298 HD
ENDROOT
TORSDOF 0
ENDMDL
