MODEL 1
REMARK minimizedAffinity 5.88841248
REMARK minimizedRMSD -1
REMARK  0 active torsions:
REMARK  status: ('A' for Active; 'I' for Inactive)
ROOT
ATOM      1  N1  IND d   1      -4.422   1.261  -1.433  0.00  0.00    -0.196 N 
ATOM      2  C2  IND d   1      -5.624   1.882  -1.629  0.00  0.00     0.054 A 
ATOM      3  C3  IND d   1      -5.786   2.191  -2.935  0.00  0.00    -0.031 A 
ATOM      4  C4  IND d   1      -4.253   1.678  -4.939  0.00  0.00     0.051 A 
ATOM      5  C5  IND d   1      -3.028   1.160  -5.254  0.00  0.00    -0.031 A 
ATOM      6  C6  IND d   1      -2.189   0.636  -4.291  0.00  0.00     0.015 A 
ATOM      7  C7  IND d   1      -2.551   0.600  -2.974  0.00  0.00    -0.016 A 
ATOM      8  C8  IND d   1      -3.791   1.132  -2.651  0.00  0.00    -0.047 A 
ATOM      9  C9  IND d   1      -4.629   1.704  -3.617  0.00  0.00    -0.096 A 
ATOM     10  HN1 IND d   1      -4.113   0.995  -0.676  0.00  0.00     0.298 HD
ENDROOT
TORSDOF 0
ENDMDL
