MODEL 1
REMARK minimizedAffinity 10.3512964
REMARK minimizedRMSD -1
REMARK  0 active torsions:
REMARK  status: ('A' for Active; 'I' for Inactive)
ROOT
ATOM      1  N1  IND d   1       4.005   2.022  -1.123  0.00  0.00    -0.196 N 
ATOM      2  C2  IND d   1       5.078   2.786  -0.757  0.00  0.00     0.054 A 
ATOM      3  C3  IND d   1       6.000   2.027  -0.122  0.00  0.00    -0.031 A 
ATOM      4  C4  IND d   1       6.000  -0.506   0.335  0.00  0.00     0.051 A 
ATOM      5  C5  IND d   1       5.218  -1.622   0.220  0.00  0.00    -0.031 A 
ATOM      6  C6  IND d   1       3.968  -1.579  -0.363  0.00  0.00     0.015 A 
ATOM      7  C7  IND d   1       3.456  -0.416  -0.865  0.00  0.00    -0.016 A 
ATOM      8  C8  IND d   1       4.243   0.720  -0.744  0.00  0.00    -0.047 A 
ATOM      9  C9  IND d   1       5.495   0.691  -0.115  0.00  0.00    -0.096 A 
ATOM     10  HN1 IND d   1       3.299   2.308  -1.524  0.00  0.00     0.298 HD
ENDROOT
TORSDOF 0
ENDMDL
