MODEL 1
REMARK minimizedAffinity 11.5580997
REMARK minimizedRMSD -1
REMARK  0 active torsions:
REMARK  status: ('A' for Active; 'I' for Inactive)
ROOT
ATOM      1  N1  IND d   1      -4.991   1.946  -4.893  0.00  0.00    -0.196 N 
ATOM      2  C2  IND d   1      -6.000   1.652  -4.019  0.00  0.00     0.054 A 
ATOM      3  C3  IND d   1      -5.594   0.717  -3.130  0.00  0.00    -0.031 A 
ATOM      4  C4  IND d   1      -3.287  -0.392  -2.862  0.00  0.00     0.051 A 
ATOM      5  C5  IND d   1      -2.055  -0.471  -3.448  0.00  0.00    -0.031 A 
ATOM      6  C6  IND d   1      -1.731   0.268  -4.568  0.00  0.00     0.015 A 
ATOM      7  C7  IND d   1      -2.628   1.126  -5.138  0.00  0.00    -0.016 A 
ATOM      8  C8  IND d   1      -3.882   1.204  -4.549  0.00  0.00    -0.047 A 
ATOM      9  C9  IND d   1      -4.230   0.425  -3.438  0.00  0.00    -0.096 A 
ATOM     10  HN1 IND d   1      -5.041   2.501  -5.548  0.00  0.00     0.298 HD
ENDROOT
TORSDOF 0
ENDMDL
