MODEL 1
REMARK minimizedAffinity 16.4335384
REMARK minimizedRMSD -1
REMARK  0 active torsions:
REMARK  status: ('A' for Active; 'I' for Inactive)
ROOT
ATOM      1  N1  IND d   1      -0.038  -5.536  -0.542  0.00  0.00    -0.196 N 
ATOM      2  C2  IND d   1      -1.208  -5.404  -1.237  0.00  0.00     0.054 A 
ATOM      3  C3  IND d   1      -1.290  -4.174  -1.791  0.00  0.00    -0.031 A 
ATOM      4  C4  IND d   1       0.425  -2.254  -1.772  0.00  0.00     0.051 A 
ATOM      5  C5  IND d   1       1.629  -1.890  -1.236  0.00  0.00    -0.031 A 
ATOM      6  C6  IND d   1       2.354  -2.741  -0.428  0.00  0.00     0.015 A 
ATOM      7  C7  IND d   1       1.907  -3.998  -0.133  0.00  0.00    -0.016 A 
ATOM      8  C8  IND d   1       0.681  -4.368  -0.669  0.00  0.00    -0.047 A 
ATOM      9  C9  IND d   1      -0.079  -3.493  -1.455  0.00  0.00    -0.096 A 
ATOM     10  HN1 IND d   1       0.207  -6.231  -0.100  0.00  0.00     0.298 HD
ENDROOT
TORSDOF 0
ENDMDL
