MODEL 1
REMARK minimizedAffinity 8.60175323
REMARK minimizedRMSD -1
REMARK  0 active torsions:
REMARK  status: ('A' for Active; 'I' for Inactive)
ROOT
ATOM      1  N1  IND d   1      -5.052   2.760  -4.582  0.00  0.00    -0.196 N 
ATOM      2  C2  IND d   1      -5.998   2.724  -3.596  0.00  0.00     0.054 A 
ATOM      3  C3  IND d   1      -5.699   1.765  -2.692  0.00  0.00    -0.031 A 
ATOM      4  C4  IND d   1      -3.655   0.204  -2.579  0.00  0.00     0.051 A 
ATOM      5  C5  IND d   1      -2.538  -0.160  -3.277  0.00  0.00    -0.031 A 
ATOM      6  C6  IND d   1      -2.194   0.444  -4.469  0.00  0.00     0.015 A 
ATOM      7  C7  IND d   1      -2.951   1.448  -5.003  0.00  0.00    -0.016 A 
ATOM      8  C8  IND d   1      -4.090   1.816  -4.301  0.00  0.00    -0.047 A 
ATOM      9  C9  IND d   1      -4.467   1.177  -3.113  0.00  0.00    -0.096 A 
ATOM     10  HN1 IND d   1      -5.058   3.283  -5.264  0.00  0.00     0.298 HD
ENDROOT
TORSDOF 0
ENDMDL
