MODEL 1
REMARK minimizedAffinity 1.85359395
REMARK minimizedRMSD -1
REMARK  0 active torsions:
REMARK  status: ('A' for Active; 'I' for Inactive)
ROOT
ATOM      1  N1  IND d   1       1.859  -2.858   4.011  0.00  0.00    -0.196 N 
ATOM      2  C2  IND d   1       0.730  -2.244   3.543  0.00  0.00     0.054 A 
ATOM      3  C3  IND d   1      -0.370  -2.938   3.912  0.00  0.00    -0.031 A 
ATOM      4  C4  IND d   1      -0.559  -5.051   5.370  0.00  0.00     0.051 A 
ATOM      5  C5  IND d   1       0.200  -5.998   5.999  0.00  0.00    -0.031 A 
ATOM      6  C6  IND d   1       1.579  -5.943   6.000  0.00  0.00     0.015 A 
ATOM      7  C7  IND d   1       2.253  -4.930   5.379  0.00  0.00    -0.016 A 
ATOM      8  C8  IND d   1       1.485  -3.971   4.733  0.00  0.00    -0.047 A 
ATOM      9  C9  IND d   1       0.086  -4.044   4.692  0.00  0.00    -0.096 A 
ATOM     10  HN1 IND d   1       2.666  -2.594   3.878  0.00  0.00     0.298 HD
ENDROOT
TORSDOF 0
ENDMDL
