MODEL 1
REMARK minimizedAffinity 10.0190077
REMARK minimizedRMSD -1
REMARK  0 active torsions:
REMARK  status: ('A' for Active; 'I' for Inactive)
ROOT
ATOM      1  C   UNL d   1       0.522  -3.303  -5.998  0.00  0.00     0.023 A 
ATOM      2  C1  UNL d   1       0.344  -4.370  -5.117  0.00  0.00     0.003 A 
ATOM      3  C2  UNL d   1      -0.734  -4.372  -4.230  0.00  0.00     0.048 A 
ATOM      4  C3  UNL d   1      -1.632  -3.305  -4.230  0.00  0.00     0.023 A 
ATOM      5  C4  UNL d   1      -1.458  -2.236  -5.111  0.00  0.00     0.048 A 
ATOM      6  C5  UNL d   1      -0.378  -2.238  -5.995  0.00  0.00     0.003 A 
ATOM      7  I   UNL d   1      -3.238  -3.306  -2.912  0.00  0.00    -0.146 I 
ENDROOT
TORSDOF 0
ENDMDL
