MODEL 1
REMARK minimizedAffinity 13.0483036
REMARK minimizedRMSD -1
REMARK  0 active torsions:
REMARK  status: ('A' for Active; 'I' for Inactive)
ROOT
ATOM      1  C   UNL d   1       1.799   1.152   1.161  0.00  0.00     0.023 A 
ATOM      2  C1  UNL d   1       1.723   2.256   0.312  0.00  0.00     0.003 A 
ATOM      3  C2  UNL d   1       2.381   2.238  -0.919  0.00  0.00     0.048 A 
ATOM      4  C3  UNL d   1       3.113   1.113  -1.296  0.00  0.00     0.023 A 
ATOM      5  C4  UNL d   1       3.191   0.005  -0.450  0.00  0.00     0.048 A 
ATOM      6  C5  UNL d   1       2.532   0.028   0.781  0.00  0.00     0.003 A 
ATOM      7  I   UNL d   1       4.094   1.084  -3.128  0.00  0.00    -0.146 I 
ENDROOT
TORSDOF 0
ENDMDL
