MODEL 1
REMARK minimizedAffinity 8.94257832
REMARK minimizedRMSD -1
REMARK  0 active torsions:
REMARK  status: ('A' for Active; 'I' for Inactive)
ROOT
ATOM      1  C   UNL d   1       2.139  -4.896  -5.997  0.00  0.00     0.023 A 
ATOM      2  C1  UNL d   1       0.940  -5.609  -5.993  0.00  0.00     0.003 A 
ATOM      3  C2  UNL d   1      -0.279  -4.928  -5.992  0.00  0.00     0.048 A 
ATOM      4  C3  UNL d   1      -0.293  -3.534  -5.995  0.00  0.00     0.023 A 
ATOM      5  C4  UNL d   1       0.904  -2.816  -6.000  0.00  0.00     0.048 A 
ATOM      6  C5  UNL d   1       2.121  -3.501  -6.000  0.00  0.00     0.003 A 
ATOM      7  I   UNL d   1      -2.106  -2.519  -5.994  0.00  0.00    -0.146 I 
ENDROOT
TORSDOF 0
ENDMDL
