MODEL 1
REMARK minimizedAffinity 16.861475
REMARK minimizedRMSD -1
REMARK  0 active torsions:
REMARK  status: ('A' for Active; 'I' for Inactive)
ROOT
ATOM      1  C   UNL d   1      -5.225   6.000   4.375  0.00  0.00     0.023 A 
ATOM      2  C1  UNL d   1      -4.500   5.170   5.231  0.00  0.00     0.003 A 
ATOM      3  C2  UNL d   1      -4.180   3.869   4.839  0.00  0.00     0.048 A 
ATOM      4  C3  UNL d   1      -4.589   3.403   3.590  0.00  0.00     0.023 A 
ATOM      5  C4  UNL d   1      -5.314   4.230   2.730  0.00  0.00     0.048 A 
ATOM      6  C5  UNL d   1      -5.631   5.530   3.126  0.00  0.00     0.003 A 
ATOM      7  I   UNL d   1      -4.115   1.466   3.004  0.00  0.00    -0.146 I 
ENDROOT
TORSDOF 0
ENDMDL
