MODEL 1
REMARK minimizedAffinity 15.7099161
REMARK minimizedRMSD -1
REMARK  0 active torsions:
REMARK  status: ('A' for Active; 'I' for Inactive)
ROOT
ATOM      1  C   UNL d   1       3.217  -0.093   1.857  0.00  0.00     0.023 A 
ATOM      2  C1  UNL d   1       3.152   0.752   0.749  0.00  0.00     0.003 A 
ATOM      3  C2  UNL d   1       2.202   1.774   0.704  0.00  0.00     0.048 A 
ATOM      4  C3  UNL d   1       1.321   1.947   1.770  0.00  0.00     0.023 A 
ATOM      5  C4  UNL d   1       1.382   1.105   2.881  0.00  0.00     0.048 A 
ATOM      6  C5  UNL d   1       2.333   0.083   2.922  0.00  0.00     0.003 A 
ATOM      7  I   UNL d   1      -0.093   3.469   1.705  0.00  0.00    -0.146 I 
ENDROOT
TORSDOF 0
ENDMDL
