MODEL 1
REMARK minimizedAffinity 13.1880836
REMARK minimizedRMSD -1
REMARK  0 active torsions:
REMARK  status: ('A' for Active; 'I' for Inactive)
ROOT
ATOM      1  C   UNL d   1       1.987   6.000  -5.655  0.00  0.00     0.023 A 
ATOM      2  C1  UNL d   1       3.366   5.994  -5.446  0.00  0.00     0.003 A 
ATOM      3  C2  UNL d   1       3.979   4.890  -4.851  0.00  0.00     0.048 A 
ATOM      4  C3  UNL d   1       3.207   3.794  -4.467  0.00  0.00     0.023 A 
ATOM      5  C4  UNL d   1       1.827   3.795  -4.675  0.00  0.00     0.048 A 
ATOM      6  C5  UNL d   1       1.218   4.902  -5.270  0.00  0.00     0.003 A 
ATOM      7  I   UNL d   1       4.117   2.149  -3.581  0.00  0.00    -0.146 I 
ENDROOT
TORSDOF 0
ENDMDL
