MODEL 1
REMARK minimizedAffinity 3.10540247
REMARK minimizedRMSD -1
REMARK  0 active torsions:
REMARK  status: ('A' for Active; 'I' for Inactive)
ROOT
ATOM      1  C   UNL d   1       2.243   5.999  -5.582  0.00  0.00     0.023 A 
ATOM      2  C1  UNL d   1       1.409   4.949  -5.197  0.00  0.00     0.003 A 
ATOM      3  C2  UNL d   1       1.920   3.888  -4.446  0.00  0.00     0.048 A 
ATOM      4  C3  UNL d   1       3.266   3.884  -4.083  0.00  0.00     0.023 A 
ATOM      5  C4  UNL d   1       4.105   4.933  -4.464  0.00  0.00     0.048 A 
ATOM      6  C5  UNL d   1       3.589   5.990  -5.216  0.00  0.00     0.003 A 
ATOM      7  I   UNL d   1       4.029   2.307  -2.965  0.00  0.00    -0.146 I 
ENDROOT
TORSDOF 0
ENDMDL
