MODEL 1
REMARK minimizedAffinity 9.71674252
REMARK minimizedRMSD -1
REMARK  0 active torsions:
REMARK  status: ('A' for Active; 'I' for Inactive)
ROOT
ATOM      1  C   UNL d   1       5.359   6.000   4.623  0.00  0.00     0.023 A 
ATOM      2  C1  UNL d   1       5.638   5.327   5.813  0.00  0.00     0.003 A 
ATOM      3  C2  UNL d   1       5.814   3.942   5.809  0.00  0.00     0.048 A 
ATOM      4  C3  UNL d   1       5.709   3.235   4.611  0.00  0.00     0.023 A 
ATOM      5  C4  UNL d   1       5.431   3.904   3.418  0.00  0.00     0.048 A 
ATOM      6  C5  UNL d   1       5.255   5.289   3.427  0.00  0.00     0.003 A 
ATOM      7  I   UNL d   1       5.970   1.173   4.602  0.00  0.00    -0.146 I 
ENDROOT
TORSDOF 0
ENDMDL
