MODEL 1
REMARK minimizedAffinity 14.3941402
REMARK minimizedRMSD -1
REMARK  0 active torsions:
REMARK  status: ('A' for Active; 'I' for Inactive)
ROOT
ATOM      1  C   UNL d   1       0.702   4.411  -4.938  0.00  0.00     0.023 A 
ATOM      2  C1  UNL d   1       1.008   5.443  -5.825  0.00  0.00     0.003 A 
ATOM      3  C2  UNL d   1       2.325   5.889  -5.953  0.00  0.00     0.048 A 
ATOM      4  C3  UNL d   1       3.332   5.297  -5.191  0.00  0.00     0.023 A 
ATOM      5  C4  UNL d   1       3.031   4.263  -4.303  0.00  0.00     0.048 A 
ATOM      6  C5  UNL d   1       1.712   3.821  -4.178  0.00  0.00     0.003 A 
ATOM      7  I   UNL d   1       5.293   5.958  -5.380  0.00  0.00    -0.146 I 
ENDROOT
TORSDOF 0
ENDMDL
