MODEL 1
REMARK minimizedAffinity 12.9220409
REMARK minimizedRMSD -1
REMARK  0 active torsions:
REMARK  status: ('A' for Active; 'I' for Inactive)
ROOT
ATOM      1  C   UNL d   1      -5.742  -5.721  -2.544  0.00  0.00     0.023 A 
ATOM      2  C1  UNL d   1      -6.000  -4.449  -3.055  0.00  0.00     0.003 A 
ATOM      3  C2  UNL d   1      -5.025  -3.452  -2.974  0.00  0.00     0.048 A 
ATOM      4  C3  UNL d   1      -3.795  -3.734  -2.383  0.00  0.00     0.023 A 
ATOM      5  C4  UNL d   1      -3.532  -5.006  -1.871  0.00  0.00     0.048 A 
ATOM      6  C5  UNL d   1      -4.509  -5.999  -1.953  0.00  0.00     0.003 A 
ATOM      7  I   UNL d   1      -2.343  -2.252  -2.262  0.00  0.00    -0.146 I 
ENDROOT
TORSDOF 0
ENDMDL
