MODEL 1
REMARK minimizedAffinity 11.8498993
REMARK minimizedRMSD -1
REMARK  0 active torsions:
REMARK  status: ('A' for Active; 'I' for Inactive)
ROOT
ATOM      1  C   UNL d   1       2.207  -4.104  -3.367  0.00  0.00     0.023 A 
ATOM      2  C1  UNL d   1       1.012  -4.716  -2.988  0.00  0.00     0.003 A 
ATOM      3  C2  UNL d   1      -0.147  -4.515  -3.741  0.00  0.00     0.048 A 
ATOM      4  C3  UNL d   1      -0.104  -3.700  -4.872  0.00  0.00     0.023 A 
ATOM      5  C4  UNL d   1       1.090  -3.086  -5.255  0.00  0.00     0.048 A 
ATOM      6  C5  UNL d   1       2.246  -3.290  -4.499  0.00  0.00     0.003 A 
ATOM      7  I   UNL d   1      -1.827  -3.398  -5.994  0.00  0.00    -0.146 I 
ENDROOT
TORSDOF 0
ENDMDL
