MODEL 1
REMARK minimizedAffinity 8.50985336
REMARK minimizedRMSD -1
REMARK  0 active torsions:
REMARK  status: ('A' for Active; 'I' for Inactive)
ROOT
ATOM      1  C   UNL d   1      -1.032   1.873   1.438  0.00  0.00     0.023 A 
ATOM      2  C1  UNL d   1      -1.948   2.764   1.996  0.00  0.00     0.003 A 
ATOM      3  C2  UNL d   1      -3.050   2.283   2.704  0.00  0.00     0.048 A 
ATOM      4  C3  UNL d   1      -3.231   0.908   2.851  0.00  0.00     0.023 A 
ATOM      5  C4  UNL d   1      -2.316   0.012   2.295  0.00  0.00     0.048 A 
ATOM      6  C5  UNL d   1      -1.216   0.498   1.587  0.00  0.00     0.003 A 
ATOM      7  I   UNL d   1      -4.871   0.188   3.905  0.00  0.00    -0.146 I 
ENDROOT
TORSDOF 0
ENDMDL
