MODEL 1
REMARK minimizedAffinity 1.14238
REMARK minimizedRMSD -1
REMARK  0 active torsions:
REMARK  status: ('A' for Active; 'I' for Inactive)
ROOT
ATOM      1  C   UNL d   1       0.621   0.615   1.777  0.00  0.00     0.023 A 
ATOM      2  C1  UNL d   1      -0.278  -0.452   1.805  0.00  0.00     0.003 A 
ATOM      3  C2  UNL d   1      -1.578  -0.259   2.276  0.00  0.00     0.048 A 
ATOM      4  C3  UNL d   1      -1.974   1.004   2.715  0.00  0.00     0.023 A 
ATOM      5  C4  UNL d   1      -1.078   2.075   2.688  0.00  0.00     0.048 A 
ATOM      6  C5  UNL d   1       0.221   1.876   2.218  0.00  0.00     0.003 A 
ATOM      7  I   UNL d   1      -3.909   1.294   3.416  0.00  0.00    -0.146 I 
ENDROOT
TORSDOF 0
ENDMDL
