MODEL 1
REMARK minimizedAffinity 6.84883547
REMARK minimizedRMSD -1
REMARK  0 active torsions:
REMARK  status: ('A' for Active; 'I' for Inactive)
ROOT
ATOM      1  C   UNL d   1      -4.641   1.136   4.611  0.00  0.00     0.023 A 
ATOM      2  C1  UNL d   1      -5.635   1.377   5.559  0.00  0.00     0.003 A 
ATOM      3  C2  UNL d   1      -5.985   2.689   5.887  0.00  0.00     0.048 A 
ATOM      4  C3  UNL d   1      -5.337   3.754   5.263  0.00  0.00     0.023 A 
ATOM      5  C4  UNL d   1      -4.342   3.517   4.313  0.00  0.00     0.048 A 
ATOM      6  C5  UNL d   1      -3.995   2.204   3.988  0.00  0.00     0.003 A 
ATOM      7  I   UNL d   1      -5.856   5.707   5.749  0.00  0.00    -0.146 I 
ENDROOT
TORSDOF 0
ENDMDL
