MODEL 1
REMARK minimizedAffinity 9.83745766
REMARK minimizedRMSD -1
REMARK  0 active torsions:
REMARK  status: ('A' for Active; 'I' for Inactive)
ROOT
ATOM      1  C   UNL d   1       1.569   0.566   1.652  0.00  0.00     0.023 A 
ATOM      2  C1  UNL d   1       1.031   1.798   1.280  0.00  0.00     0.003 A 
ATOM      3  C2  UNL d   1      -0.267   2.140   1.666  0.00  0.00     0.048 A 
ATOM      4  C3  UNL d   1      -1.021   1.246   2.425  0.00  0.00     0.023 A 
ATOM      5  C4  UNL d   1      -0.487   0.013   2.800  0.00  0.00     0.048 A 
ATOM      6  C5  UNL d   1       0.810  -0.326   2.412  0.00  0.00     0.003 A 
ATOM      7  I   UNL d   1      -2.953   1.754   3.000  0.00  0.00    -0.146 I 
ENDROOT
TORSDOF 0
ENDMDL
