MODEL 1
REMARK minimizedAffinity 1.81067729
REMARK minimizedRMSD -1
REMARK  0 active torsions:
REMARK  status: ('A' for Active; 'I' for Inactive)
ROOT
ATOM      1  C   UNL d   1      -2.247   0.662   2.315  0.00  0.00     0.023 A 
ATOM      2  C1  UNL d   1      -1.968   1.925   2.838  0.00  0.00     0.003 A 
ATOM      3  C2  UNL d   1      -2.735   2.433   3.888  0.00  0.00     0.048 A 
ATOM      4  C3  UNL d   1      -3.780   1.672   4.412  0.00  0.00     0.023 A 
ATOM      5  C4  UNL d   1      -4.062   0.408   3.893  0.00  0.00     0.048 A 
ATOM      6  C5  UNL d   1      -3.293  -0.096   2.842  0.00  0.00     0.003 A 
ATOM      7  I   UNL d   1      -4.924   2.426   5.975  0.00  0.00    -0.146 I 
ENDROOT
TORSDOF 0
ENDMDL
