MODEL 1
REMARK minimizedAffinity 2.99085307
REMARK minimizedRMSD -1
REMARK  0 active torsions:
REMARK  status: ('A' for Active; 'I' for Inactive)
ROOT
ATOM      1  C   UNL d   1       1.752   1.293   2.097  0.00  0.00     0.023 A 
ATOM      2  C1  UNL d   1       1.255   0.015   2.352  0.00  0.00     0.003 A 
ATOM      3  C2  UNL d   1      -0.113  -0.176   2.555  0.00  0.00     0.048 A 
ATOM      4  C3  UNL d   1      -0.979   0.915   2.500  0.00  0.00     0.023 A 
ATOM      5  C4  UNL d   1      -0.486   2.196   2.244  0.00  0.00     0.048 A 
ATOM      6  C5  UNL d   1       0.883   2.382   2.043  0.00  0.00     0.003 A 
ATOM      7  I   UNL d   1      -3.016   0.633   2.801  0.00  0.00    -0.146 I 
ENDROOT
TORSDOF 0
ENDMDL
