MODEL 1
REMARK minimizedAffinity 0.612741232
REMARK minimizedRMSD -1
REMARK  0 active torsions:
REMARK  status: ('A' for Active; 'I' for Inactive)
ROOT
ATOM      1  C   UNL d   1       1.042  -1.761   5.169  0.00  0.00     0.078 C 
ATOM      2  C1  UNL d   1      -0.414  -1.400   5.175  0.00  0.00    -0.077 A 
ATOM      3  C2  UNL d   1      -1.322  -2.082   5.994  0.00  0.00    -0.001 A 
ATOM      4  C3  UNL d   1      -2.676  -1.741   5.982  0.00  0.00     0.003 A 
ATOM      5  C4  UNL d   1      -3.133  -0.720   5.152  0.00  0.00    -0.005 A 
ATOM      6  C5  UNL d   1      -2.237  -0.038   4.332  0.00  0.00     0.003 A 
ATOM      7  C6  UNL d   1      -0.883  -0.377   4.342  0.00  0.00    -0.001 A 
ENDROOT
TORSDOF 0
ENDMDL
