MODEL 1
REMARK minimizedAffinity -1.52203631
REMARK minimizedRMSD -1
REMARK  0 active torsions:
REMARK  status: ('A' for Active; 'I' for Inactive)
ROOT
ATOM      1  C   UNL d   1      -0.318  -0.969   0.909  0.00  0.00     0.078 C 
ATOM      2  C1  UNL d   1       0.142   0.369   0.412  0.00  0.00    -0.077 A 
ATOM      3  C2  UNL d   1       1.066   0.471  -0.635  0.00  0.00    -0.001 A 
ATOM      4  C3  UNL d   1       1.492   1.723  -1.081  0.00  0.00     0.003 A 
ATOM      5  C4  UNL d   1       1.001   2.883  -0.485  0.00  0.00    -0.005 A 
ATOM      6  C5  UNL d   1       0.083   2.791   0.560  0.00  0.00     0.003 A 
ATOM      7  C6  UNL d   1      -0.345   1.540   1.007  0.00  0.00    -0.001 A 
ENDROOT
TORSDOF 0
ENDMDL
