MODEL 1
REMARK minimizedAffinity -4.61172533
REMARK minimizedRMSD -1
REMARK  0 active torsions:
REMARK  status: ('A' for Active; 'I' for Inactive)
ROOT
ATOM      1  C   UNL d   1       0.072   0.480  -1.123  0.00  0.00     0.078 C 
ATOM      2  C1  UNL d   1       0.015  -0.887  -0.508  0.00  0.00    -0.077 A 
ATOM      3  C2  UNL d   1      -1.036  -1.253   0.341  0.00  0.00    -0.001 A 
ATOM      4  C3  UNL d   1      -1.070  -2.526   0.914  0.00  0.00     0.003 A 
ATOM      5  C4  UNL d   1      -0.056  -3.442   0.644  0.00  0.00    -0.005 A 
ATOM      6  C5  UNL d   1       0.996  -3.086  -0.198  0.00  0.00     0.003 A 
ATOM      7  C6  UNL d   1       1.032  -1.814  -0.772  0.00  0.00    -0.001 A 
ENDROOT
TORSDOF 0
ENDMDL
