MODEL 1
REMARK minimizedAffinity -0.699161768
REMARK minimizedRMSD -1
REMARK  0 active torsions:
REMARK  status: ('A' for Active; 'I' for Inactive)
ROOT
ATOM      1  C   UNL d   1      -3.874  -3.759   0.874  0.00  0.00     0.078 C 
ATOM      2  C1  UNL d   1      -2.706  -2.819   0.921  0.00  0.00    -0.077 A 
ATOM      3  C2  UNL d   1      -2.875  -1.477   1.284  0.00  0.00    -0.001 A 
ATOM      4  C3  UNL d   1      -1.781  -0.611   1.314  0.00  0.00     0.003 A 
ATOM      5  C4  UNL d   1      -0.510  -1.077   0.980  0.00  0.00    -0.005 A 
ATOM      6  C5  UNL d   1      -0.333  -2.410   0.615  0.00  0.00     0.003 A 
ATOM      7  C6  UNL d   1      -1.426  -3.277   0.585  0.00  0.00    -0.001 A 
ENDROOT
TORSDOF 0
ENDMDL
