MODEL 1
REMARK minimizedAffinity -5.72639894
REMARK minimizedRMSD -1
REMARK  0 active torsions:
REMARK  status: ('A' for Active; 'I' for Inactive)
ROOT
ATOM      1  C   UNL d   1      -0.523  -1.688   0.749  0.00  0.00     0.078 C 
ATOM      2  C1  UNL d   1       0.018  -0.329   1.079  0.00  0.00    -0.077 A 
ATOM      3  C2  UNL d   1       0.291   0.602   0.069  0.00  0.00    -0.001 A 
ATOM      4  C3  UNL d   1       0.803   1.860   0.390  0.00  0.00     0.003 A 
ATOM      5  C4  UNL d   1       1.048   2.198   1.719  0.00  0.00    -0.005 A 
ATOM      6  C5  UNL d   1       0.782   1.277   2.730  0.00  0.00     0.003 A 
ATOM      7  C6  UNL d   1       0.269   0.019   2.412  0.00  0.00    -0.001 A 
ENDROOT
TORSDOF 0
ENDMDL
