MODEL 1
REMARK minimizedAffinity -3.24471188
REMARK minimizedRMSD -1
REMARK  0 active torsions:
REMARK  status: ('A' for Active; 'I' for Inactive)
ROOT
ATOM      1  C   UNL d   1      -0.759  -2.868  -1.840  0.00  0.00     0.078 C 
ATOM      2  C1  UNL d   1      -0.788  -2.041  -0.589  0.00  0.00    -0.077 A 
ATOM      3  C2  UNL d   1      -0.429  -0.688  -0.612  0.00  0.00    -0.001 A 
ATOM      4  C3  UNL d   1      -0.452   0.068   0.562  0.00  0.00     0.003 A 
ATOM      5  C4  UNL d   1      -0.831  -0.521   1.766  0.00  0.00    -0.005 A 
ATOM      6  C5  UNL d   1      -1.187  -1.868   1.799  0.00  0.00     0.003 A 
ATOM      7  C6  UNL d   1      -1.165  -2.625   0.626  0.00  0.00    -0.001 A 
ENDROOT
TORSDOF 0
ENDMDL
