MODEL 1
REMARK minimizedAffinity -2.85223436
REMARK minimizedRMSD -1
REMARK  0 active torsions:
REMARK  status: ('A' for Active; 'I' for Inactive)
ROOT
ATOM      1  C   UNL d   1      -1.030  -3.177  -1.915  0.00  0.00     0.078 C 
ATOM      2  C1  UNL d   1      -0.822  -2.334  -0.693  0.00  0.00    -0.077 A 
ATOM      3  C2  UNL d   1      -1.236  -2.778   0.569  0.00  0.00    -0.001 A 
ATOM      4  C3  UNL d   1      -1.044  -1.978   1.696  0.00  0.00     0.003 A 
ATOM      5  C4  UNL d   1      -0.439  -0.729   1.573  0.00  0.00    -0.005 A 
ATOM      6  C5  UNL d   1      -0.025  -0.278   0.322  0.00  0.00     0.003 A 
ATOM      7  C6  UNL d   1      -0.216  -1.076  -0.807  0.00  0.00    -0.001 A 
ENDROOT
TORSDOF 0
ENDMDL
