MODEL 1
REMARK minimizedAffinity -2.26242518
REMARK minimizedRMSD -1
REMARK  0 active torsions:
REMARK  status: ('A' for Active; 'I' for Inactive)
ROOT
ATOM      1  C   UNL d   1      -0.792   0.053   0.677  0.00  0.00     0.078 C 
ATOM      2  C1  UNL d   1       0.083   1.258   0.503  0.00  0.00    -0.077 A 
ATOM      3  C2  UNL d   1       1.160   1.245  -0.391  0.00  0.00    -0.001 A 
ATOM      4  C3  UNL d   1       1.972   2.371  -0.535  0.00  0.00     0.003 A 
ATOM      5  C4  UNL d   1       1.716   3.519   0.213  0.00  0.00    -0.005 A 
ATOM      6  C5  UNL d   1       0.648   3.540   1.107  0.00  0.00     0.003 A 
ATOM      7  C6  UNL d   1      -0.165   2.415   1.253  0.00  0.00    -0.001 A 
ENDROOT
TORSDOF 0
ENDMDL
