MODEL 1
REMARK minimizedAffinity -3.98037553
REMARK minimizedRMSD -1
REMARK  0 active torsions:
REMARK  status: ('A' for Active; 'I' for Inactive)
ROOT
ATOM      1  C   UNL d   1      -1.048  -2.741   0.956  0.00  0.00     0.078 C 
ATOM      2  C1  UNL d   1      -0.531  -1.380   0.600  0.00  0.00    -0.077 A 
ATOM      3  C2  UNL d   1      -0.410  -0.378   1.571  0.00  0.00    -0.001 A 
ATOM      4  C3  UNL d   1       0.064   0.888   1.223  0.00  0.00     0.003 A 
ATOM      5  C4  UNL d   1       0.419   1.165  -0.095  0.00  0.00    -0.005 A 
ATOM      6  C5  UNL d   1       0.301   0.175  -1.068  0.00  0.00     0.003 A 
ATOM      7  C6  UNL d   1      -0.173  -1.092  -0.723  0.00  0.00    -0.001 A 
ENDROOT
TORSDOF 0
ENDMDL
