MODEL 1
REMARK minimizedAffinity -2.08759022
REMARK minimizedRMSD -1
REMARK  0 active torsions:
REMARK  status: ('A' for Active; 'I' for Inactive)
ROOT
ATOM      1  C   UNL d   1       0.758   1.221  -0.074  0.00  0.00     0.078 C 
ATOM      2  C1  UNL d   1      -0.021  -0.022   0.238  0.00  0.00    -0.077 A 
ATOM      3  C2  UNL d   1      -0.465  -0.286   1.540  0.00  0.00    -0.001 A 
ATOM      4  C3  UNL d   1      -1.182  -1.452   1.818  0.00  0.00     0.003 A 
ATOM      5  C4  UNL d   1      -1.459  -2.362   0.800  0.00  0.00    -0.005 A 
ATOM      6  C5  UNL d   1      -1.019  -2.108  -0.498  0.00  0.00     0.003 A 
ATOM      7  C6  UNL d   1      -0.302  -0.944  -0.778  0.00  0.00    -0.001 A 
ENDROOT
TORSDOF 0
ENDMDL
