MODEL 1
REMARK minimizedAffinity -2.91865754
REMARK minimizedRMSD -1
REMARK  0 active torsions:
REMARK  status: ('A' for Active; 'I' for Inactive)
ROOT
ATOM      1  C   UNL d   1       1.980   2.913  -0.118  0.00  0.00     0.078 C 
ATOM      2  C1  UNL d   1       0.886   1.915   0.120  0.00  0.00    -0.077 A 
ATOM      3  C2  UNL d   1      -0.395   2.110  -0.410  0.00  0.00    -0.001 A 
ATOM      4  C3  UNL d   1      -1.407   1.178  -0.172  0.00  0.00     0.003 A 
ATOM      5  C4  UNL d   1      -1.148   0.045   0.597  0.00  0.00    -0.005 A 
ATOM      6  C5  UNL d   1       0.124  -0.156   1.130  0.00  0.00     0.003 A 
ATOM      7  C6  UNL d   1       1.136   0.775   0.894  0.00  0.00    -0.001 A 
ENDROOT
TORSDOF 0
ENDMDL
