MODEL 1
REMARK minimizedAffinity -4.17392111
REMARK minimizedRMSD -1
REMARK  0 active torsions:
REMARK  status: ('A' for Active; 'I' for Inactive)
ROOT
ATOM      1  C   UNL d   1      -0.870  -3.394  -1.449  0.00  0.00     0.078 C 
ATOM      2  C1  UNL d   1      -0.896  -2.384  -0.341  0.00  0.00    -0.077 A 
ATOM      3  C2  UNL d   1      -0.151  -1.202  -0.425  0.00  0.00    -0.001 A 
ATOM      4  C3  UNL d   1      -0.178  -0.275   0.618  0.00  0.00     0.003 A 
ATOM      5  C4  UNL d   1      -0.948  -0.521   1.753  0.00  0.00    -0.005 A 
ATOM      6  C5  UNL d   1      -1.691  -1.695   1.847  0.00  0.00     0.003 A 
ATOM      7  C6  UNL d   1      -1.666  -2.624   0.805  0.00  0.00    -0.001 A 
ENDROOT
TORSDOF 0
ENDMDL
