MODEL 1
REMARK minimizedAffinity -1.24503696
REMARK minimizedRMSD -1
REMARK  0 active torsions:
REMARK  status: ('A' for Active; 'I' for Inactive)
ROOT
ATOM      1  C   UNL d   1      -3.769   5.880   1.979  0.00  0.00     0.078 C 
ATOM      2  C1  UNL d   1      -4.294   5.595   3.355  0.00  0.00    -0.077 A 
ATOM      3  C2  UNL d   1      -5.517   4.938   3.538  0.00  0.00    -0.001 A 
ATOM      4  C3  UNL d   1      -5.998   4.687   4.824  0.00  0.00     0.003 A 
ATOM      5  C4  UNL d   1      -5.263   5.092   5.937  0.00  0.00    -0.005 A 
ATOM      6  C5  UNL d   1      -4.047   5.748   5.764  0.00  0.00     0.003 A 
ATOM      7  C6  UNL d   1      -3.564   5.999   4.479  0.00  0.00    -0.001 A 
ENDROOT
TORSDOF 0
ENDMDL
