MODEL 1
REMARK minimizedAffinity -1.40539479
REMARK minimizedRMSD -1
REMARK  0 active torsions:
REMARK  status: ('A' for Active; 'I' for Inactive)
ROOT
ATOM      1  C   UNL d   1       1.042  -1.501   4.502  0.00  0.00     0.078 C 
ATOM      2  C1  UNL d   1       0.596  -2.852   4.978  0.00  0.00    -0.077 A 
ATOM      3  C2  UNL d   1      -0.744  -3.245   4.877  0.00  0.00    -0.001 A 
ATOM      4  C3  UNL d   1      -1.147  -4.502   5.332  0.00  0.00     0.003 A 
ATOM      5  C4  UNL d   1      -0.217  -5.374   5.893  0.00  0.00    -0.005 A 
ATOM      6  C5  UNL d   1       1.119  -4.991   5.999  0.00  0.00     0.003 A 
ATOM      7  C6  UNL d   1       1.523  -3.735   5.544  0.00  0.00    -0.001 A 
ENDROOT
TORSDOF 0
ENDMDL
