MODEL 1
REMARK minimizedAffinity 3.45108891
REMARK minimizedRMSD -1
REMARK  0 active torsions:
REMARK  status: ('A' for Active; 'I' for Inactive)
ROOT
ATOM      1  C   UNL d   1      -0.904  -4.872  -0.822  0.00  0.00     0.078 C 
ATOM      2  C1  UNL d   1       0.185  -3.842  -0.861  0.00  0.00    -0.077 A 
ATOM      3  C2  UNL d   1       1.127  -3.750   0.171  0.00  0.00    -0.001 A 
ATOM      4  C3  UNL d   1       2.130  -2.780   0.126  0.00  0.00     0.003 A 
ATOM      5  C4  UNL d   1       2.200  -1.895  -0.947  0.00  0.00    -0.005 A 
ATOM      6  C5  UNL d   1       1.266  -1.977  -1.978  0.00  0.00     0.003 A 
ATOM      7  C6  UNL d   1       0.262  -2.947  -1.935  0.00  0.00    -0.001 A 
ENDROOT
TORSDOF 0
ENDMDL
