MODEL 1
REMARK minimizedAffinity -2.15199709
REMARK minimizedRMSD -1
REMARK  0 active torsions:
REMARK  status: ('A' for Active; 'I' for Inactive)
ROOT
ATOM      1  C   UNL d   1      -4.732   5.963   0.595  0.00  0.00     0.078 C 
ATOM      2  C1  UNL d   1      -4.766   5.919   2.094  0.00  0.00    -0.077 A 
ATOM      3  C2  UNL d   1      -5.979   5.812   2.785  0.00  0.00    -0.001 A 
ATOM      4  C3  UNL d   1      -5.996   5.782   4.180  0.00  0.00     0.003 A 
ATOM      5  C4  UNL d   1      -4.803   5.860   4.897  0.00  0.00    -0.005 A 
ATOM      6  C5  UNL d   1      -3.592   5.969   4.217  0.00  0.00     0.003 A 
ATOM      7  C6  UNL d   1      -3.572   5.999   2.822  0.00  0.00    -0.001 A 
ENDROOT
TORSDOF 0
ENDMDL
