MODEL 1
REMARK minimizedAffinity -1.88002205
REMARK minimizedRMSD -1
REMARK  0 active torsions:
REMARK  status: ('A' for Active; 'I' for Inactive)
ROOT
ATOM      1  C   UNL d   1      -4.526   5.382   1.326  0.00  0.00     0.078 C 
ATOM      2  C1  UNL d   1      -4.708   5.376   2.815  0.00  0.00    -0.077 A 
ATOM      3  C2  UNL d   1      -5.828   4.774   3.401  0.00  0.00    -0.001 A 
ATOM      4  C3  UNL d   1      -5.990   4.784   4.788  0.00  0.00     0.003 A 
ATOM      5  C4  UNL d   1      -5.037   5.396   5.599  0.00  0.00    -0.005 A 
ATOM      6  C5  UNL d   1      -3.921   6.000   5.024  0.00  0.00     0.003 A 
ATOM      7  C6  UNL d   1      -3.757   5.991   3.638  0.00  0.00    -0.001 A 
ENDROOT
TORSDOF 0
ENDMDL
