MODEL 1
REMARK minimizedAffinity 2.38199925
REMARK minimizedRMSD -1
REMARK  0 active torsions:
REMARK  status: ('A' for Active; 'I' for Inactive)
ROOT
ATOM      1  C   UNL d   1       3.006   1.238  -0.044  0.00  0.00     0.078 C 
ATOM      2  C1  UNL d   1       2.975  -0.160  -0.584  0.00  0.00    -0.077 A 
ATOM      3  C2  UNL d   1       3.396  -0.439  -1.890  0.00  0.00    -0.001 A 
ATOM      4  C3  UNL d   1       3.352  -1.744  -2.383  0.00  0.00     0.003 A 
ATOM      5  C4  UNL d   1       2.887  -2.781  -1.577  0.00  0.00    -0.005 A 
ATOM      6  C5  UNL d   1       2.464  -2.513  -0.276  0.00  0.00     0.003 A 
ATOM      7  C6  UNL d   1       2.507  -1.209   0.218  0.00  0.00    -0.001 A 
ENDROOT
TORSDOF 0
ENDMDL
