MODEL 1
REMARK minimizedAffinity 0.742928565
REMARK minimizedRMSD -1
REMARK  0 active torsions:
REMARK  status: ('A' for Active; 'I' for Inactive)
ROOT
ATOM      1  C   UNL d   1       0.517  -2.539   3.792  0.00  0.00     0.078 C 
ATOM      2  C1  UNL d   1      -0.231  -3.750   4.263  0.00  0.00    -0.077 A 
ATOM      3  C2  UNL d   1      -1.177  -4.377   3.442  0.00  0.00    -0.001 A 
ATOM      4  C3  UNL d   1      -1.873  -5.498   3.897  0.00  0.00     0.003 A 
ATOM      5  C4  UNL d   1      -1.633  -6.000   5.175  0.00  0.00    -0.005 A 
ATOM      6  C5  UNL d   1      -0.696  -5.380   6.000  0.00  0.00     0.003 A 
ATOM      7  C6  UNL d   1       0.001  -4.260   5.546  0.00  0.00    -0.001 A 
ENDROOT
TORSDOF 0
ENDMDL
