MODEL 1
REMARK minimizedAffinity -2.86913657
REMARK minimizedRMSD -1
REMARK  0 active torsions:
REMARK  status: ('A' for Active; 'I' for Inactive)
ROOT
ATOM      1  C   UNL d   1      -3.613   6.000   1.942  0.00  0.00     0.078 C 
ATOM      2  C1  UNL d   1      -4.117   5.998   3.355  0.00  0.00    -0.077 A 
ATOM      3  C2  UNL d   1      -3.228   6.000   4.437  0.00  0.00    -0.001 A 
ATOM      4  C3  UNL d   1      -3.711   5.988   5.746  0.00  0.00     0.003 A 
ATOM      5  C4  UNL d   1      -5.083   5.973   5.986  0.00  0.00    -0.005 A 
ATOM      6  C5  UNL d   1      -5.975   5.969   4.916  0.00  0.00     0.003 A 
ATOM      7  C6  UNL d   1      -5.494   5.980   3.605  0.00  0.00    -0.001 A 
ENDROOT
TORSDOF 0
ENDMDL
