MODEL 1
REMARK minimizedAffinity -3.94515252
REMARK minimizedRMSD -1
REMARK  1 active torsions:
REMARK  status: ('A' for Active; 'I' for Inactive)
REMARK    1  A    between atoms: C3_4  and  O_7 
ROOT
ATOM      1  C   UNL d   1      -0.121   0.203  -0.005  0.00  0.00    -0.033 A 
ATOM      2  C1  UNL d   1      -0.735  -0.804   0.743  0.00  0.00     0.039 A 
ATOM      3  C2  UNL d   1      -0.010  -1.934   1.124  0.00  0.00    -0.080 A 
ATOM      4  C3  UNL d   1       1.327  -2.045   0.752  0.00  0.00     0.150 A 
ATOM      5  C4  UNL d   1       1.946  -1.045   0.010  0.00  0.00    -0.007 A 
ATOM      6  C5  UNL d   1       1.220   0.083  -0.370  0.00  0.00     0.039 A 
ENDROOT
BRANCH   4   7
ATOM      7  O   UNL d   1       2.075  -3.132   1.097  0.00  0.00    -0.526 OA
ATOM      8  H5  UNL d   1       1.508  -3.754   1.583  0.00  0.00     0.418 HD
ENDBRANCH   4   7
TORSDOF 1
ENDMDL
