MODEL 1
REMARK minimizedAffinity -4.10479641
REMARK minimizedRMSD -1
REMARK  1 active torsions:
REMARK  status: ('A' for Active; 'I' for Inactive)
REMARK    1  A    between atoms: C3_4  and  O_7 
ROOT
ATOM      1  C   UNL d   1       1.665  -1.940   0.515  0.00  0.00    -0.033 A 
ATOM      2  C1  UNL d   1       1.843  -0.935  -0.438  0.00  0.00     0.039 A 
ATOM      3  C2  UNL d   1       1.078   0.231  -0.376  0.00  0.00    -0.080 A 
ATOM      4  C3  UNL d   1       0.139   0.379   0.641  0.00  0.00     0.150 A 
ATOM      5  C4  UNL d   1      -0.041  -0.616   1.596  0.00  0.00    -0.007 A 
ATOM      6  C5  UNL d   1       0.724  -1.780   1.532  0.00  0.00     0.039 A 
ENDROOT
BRANCH   4   7
ATOM      7  O   UNL d   1      -0.635   1.498   0.739  0.00  0.00    -0.526 OA
ATOM      8  H5  UNL d   1      -0.421   2.086  -0.004  0.00  0.00     0.418 HD
ENDBRANCH   4   7
TORSDOF 1
ENDMDL
