MODEL 1
REMARK minimizedAffinity -5.3329668
REMARK minimizedRMSD -1
REMARK  1 active torsions:
REMARK  status: ('A' for Active; 'I' for Inactive)
REMARK    1  A    between atoms: C3_4  and  O_7 
ROOT
ATOM      1  C   UNL d   1       1.207  -2.787   1.370  0.00  0.00    -0.033 A 
ATOM      2  C1  UNL d   1       1.895  -2.059   0.397  0.00  0.00     0.039 A 
ATOM      3  C2  UNL d   1       1.431  -0.801   0.007  0.00  0.00    -0.080 A 
ATOM      4  C3  UNL d   1       0.281  -0.283   0.596  0.00  0.00     0.150 A 
ATOM      5  C4  UNL d   1      -0.406  -1.001   1.569  0.00  0.00    -0.007 A 
ATOM      6  C5  UNL d   1       0.058  -2.257   1.958  0.00  0.00     0.039 A 
ENDROOT
BRANCH   4   7
ATOM      7  O   UNL d   1      -0.212   0.938   0.244  0.00  0.00    -0.526 OA
ATOM      8  H5  UNL d   1       0.349   1.305  -0.459  0.00  0.00     0.418 HD
ENDBRANCH   4   7
TORSDOF 1
ENDMDL
