MODEL 1
REMARK minimizedAffinity -5.43703127
REMARK minimizedRMSD -1
REMARK  1 active torsions:
REMARK  status: ('A' for Active; 'I' for Inactive)
REMARK    1  A    between atoms: C3_4  and  O_7 
ROOT
ATOM      1  C   UNL d   1      -1.115  -0.553   1.867  0.00  0.00    -0.033 A 
ATOM      2  C1  UNL d   1      -0.372  -0.523   0.685  0.00  0.00     0.039 A 
ATOM      3  C2  UNL d   1       0.643  -1.459   0.473  0.00  0.00    -0.080 A 
ATOM      4  C3  UNL d   1       0.903  -2.418   1.449  0.00  0.00     0.150 A 
ATOM      5  C4  UNL d   1       0.164  -2.455   2.626  0.00  0.00    -0.007 A 
ATOM      6  C5  UNL d   1      -0.849  -1.520   2.837  0.00  0.00     0.039 A 
ENDROOT
BRANCH   4   7
ATOM      7  O   UNL d   1       1.886  -3.348   1.289  0.00  0.00    -0.526 OA
ATOM      8  H5  UNL d   1       2.332  -3.182   0.441  0.00  0.00     0.418 HD
ENDBRANCH   4   7
TORSDOF 1
ENDMDL
