MODEL 1
REMARK minimizedAffinity -4.38639307
REMARK minimizedRMSD -1
REMARK  1 active torsions:
REMARK  status: ('A' for Active; 'I' for Inactive)
REMARK    1  A    between atoms: C3_4  and  O_7 
ROOT
ATOM      1  C   UNL d   1      -2.041   1.792  -2.065  0.00  0.00    -0.033 A 
ATOM      2  C1  UNL d   1      -2.299   1.141  -3.272  0.00  0.00     0.039 A 
ATOM      3  C2  UNL d   1      -1.689   1.581  -4.449  0.00  0.00    -0.080 A 
ATOM      4  C3  UNL d   1      -0.825   2.672  -4.404  0.00  0.00     0.150 A 
ATOM      5  C4  UNL d   1      -0.561   3.323  -3.204  0.00  0.00    -0.007 A 
ATOM      6  C5  UNL d   1      -1.171   2.882  -2.030  0.00  0.00     0.039 A 
ENDROOT
BRANCH   4   7
ATOM      7  O   UNL d   1      -0.211   3.141  -5.527  0.00  0.00    -0.526 OA
ATOM      8  H5  UNL d   1      -0.510   2.612  -6.286  0.00  0.00     0.418 HD
ENDBRANCH   4   7
TORSDOF 1
ENDMDL
