MODEL 1
REMARK minimizedAffinity -4.24892759
REMARK minimizedRMSD -1
REMARK  1 active torsions:
REMARK  status: ('A' for Active; 'I' for Inactive)
REMARK    1  A    between atoms: C3_4  and  O_7 
ROOT
ATOM      1  C   UNL d   1      -0.840  -0.588   1.195  0.00  0.00    -0.033 A 
ATOM      2  C1  UNL d   1      -0.798  -1.537   2.218  0.00  0.00     0.039 A 
ATOM      3  C2  UNL d   1       0.235  -2.476   2.260  0.00  0.00    -0.080 A 
ATOM      4  C3  UNL d   1       1.219  -2.453   1.276  0.00  0.00     0.150 A 
ATOM      5  C4  UNL d   1       1.185  -1.508   0.256  0.00  0.00    -0.007 A 
ATOM      6  C5  UNL d   1       0.153  -0.572   0.215  0.00  0.00     0.039 A 
ENDROOT
BRANCH   4   7
ATOM      7  O   UNL d   1       2.244  -3.352   1.272  0.00  0.00    -0.526 OA
ATOM      8  H5  UNL d   1       2.121  -3.962   2.019  0.00  0.00     0.418 HD
ENDBRANCH   4   7
TORSDOF 1
ENDMDL
