MODEL 1
REMARK minimizedAffinity -2.63663602
REMARK minimizedRMSD -1
REMARK  1 active torsions:
REMARK  status: ('A' for Active; 'I' for Inactive)
REMARK    1  A    between atoms: C3_4  and  O_7 
ROOT
ATOM      1  C   UNL d   1      -2.380   1.590  -1.661  0.00  0.00    -0.033 A 
ATOM      2  C1  UNL d   1      -3.037   2.016  -2.817  0.00  0.00     0.039 A 
ATOM      3  C2  UNL d   1      -2.341   2.729  -3.796  0.00  0.00    -0.080 A 
ATOM      4  C3  UNL d   1      -0.990   3.006  -3.607  0.00  0.00     0.150 A 
ATOM      5  C4  UNL d   1      -0.328   2.581  -2.460  0.00  0.00    -0.007 A 
ATOM      6  C5  UNL d   1      -1.025   1.871  -1.483  0.00  0.00     0.039 A 
ENDROOT
BRANCH   4   7
ATOM      7  O   UNL d   1      -0.269   3.703  -4.532  0.00  0.00    -0.526 OA
ATOM      8  H5  UNL d   1      -0.864   3.956  -5.257  0.00  0.00     0.418 HD
ENDBRANCH   4   7
TORSDOF 1
ENDMDL
