MODEL 1
REMARK minimizedAffinity -4.73365831
REMARK minimizedRMSD -1
REMARK  1 active torsions:
REMARK  status: ('A' for Active; 'I' for Inactive)
REMARK    1  A    between atoms: C3_4  and  O_7 
ROOT
ATOM      1  C   UNL d   1      -2.314   1.861  -2.130  0.00  0.00    -0.033 A 
ATOM      2  C1  UNL d   1      -2.706   1.806  -3.469  0.00  0.00     0.039 A 
ATOM      3  C2  UNL d   1      -1.877   2.330  -4.463  0.00  0.00    -0.080 A 
ATOM      4  C3  UNL d   1      -0.661   2.905  -4.105  0.00  0.00     0.150 A 
ATOM      5  C4  UNL d   1      -0.262   2.960  -2.774  0.00  0.00    -0.007 A 
ATOM      6  C5  UNL d   1      -1.092   2.437  -1.782  0.00  0.00     0.039 A 
ENDROOT
BRANCH   4   7
ATOM      7  O   UNL d   1       0.180   3.434  -5.039  0.00  0.00    -0.526 OA
ATOM      8  H5  UNL d   1      -0.239   3.351  -5.912  0.00  0.00     0.418 HD
ENDBRANCH   4   7
TORSDOF 1
ENDMDL
