MODEL 1
REMARK minimizedAffinity -3.44510436
REMARK minimizedRMSD -1
REMARK  1 active torsions:
REMARK  status: ('A' for Active; 'I' for Inactive)
REMARK    1  A    between atoms: C3_4  and  O_7 
ROOT
ATOM      1  C   UNL d   1      -1.725   2.013  -2.090  0.00  0.00    -0.033 A 
ATOM      2  C1  UNL d   1      -2.138   1.571  -3.348  0.00  0.00     0.039 A 
ATOM      3  C2  UNL d   1      -1.624   2.165  -4.503  0.00  0.00    -0.080 A 
ATOM      4  C3  UNL d   1      -0.698   3.198  -4.385  0.00  0.00     0.150 A 
ATOM      5  C4  UNL d   1      -0.279   3.641  -3.134  0.00  0.00    -0.007 A 
ATOM      6  C5  UNL d   1      -0.795   3.047  -1.983  0.00  0.00     0.039 A 
ENDROOT
BRANCH   4   7
ATOM      7  O   UNL d   1      -0.172   3.813  -5.482  0.00  0.00    -0.526 OA
ATOM      8  H5  UNL d   1      -0.575   3.422  -6.276  0.00  0.00     0.418 HD
ENDBRANCH   4   7
TORSDOF 1
ENDMDL
