MODEL 1
REMARK minimizedAffinity -4.9201417
REMARK minimizedRMSD -1
REMARK  1 active torsions:
REMARK  status: ('A' for Active; 'I' for Inactive)
REMARK    1  A    between atoms: C3_4  and  O_7 
ROOT
ATOM      1  C   UNL d   1       0.034   4.242  -3.025  0.00  0.00    -0.033 A 
ATOM      2  C1  UNL d   1       0.156   4.168  -4.414  0.00  0.00     0.039 A 
ATOM      3  C2  UNL d   1      -0.473   3.140  -5.119  0.00  0.00    -0.080 A 
ATOM      4  C3  UNL d   1      -1.221   2.194  -4.424  0.00  0.00     0.150 A 
ATOM      5  C4  UNL d   1      -1.350   2.263  -3.040  0.00  0.00    -0.007 A 
ATOM      6  C5  UNL d   1      -0.721   3.290  -2.339  0.00  0.00     0.039 A 
ENDROOT
BRANCH   4   7
ATOM      7  O   UNL d   1      -1.849   1.169  -5.067  0.00  0.00    -0.526 OA
ATOM      8  H5  UNL d   1      -1.648   1.232  -6.016  0.00  0.00     0.418 HD
ENDBRANCH   4   7
TORSDOF 1
ENDMDL
