MODEL 1
REMARK minimizedAffinity -4.5912075
REMARK minimizedRMSD -1
REMARK  1 active torsions:
REMARK  status: ('A' for Active; 'I' for Inactive)
REMARK    1  A    between atoms: C3_4  and  O_7 
ROOT
ATOM      1  C   UNL d   1      -1.859   1.286  -1.742  0.00  0.00    -0.033 A 
ATOM      2  C1  UNL d   1      -2.365   1.159  -3.037  0.00  0.00     0.039 A 
ATOM      3  C2  UNL d   1      -1.744   1.819  -4.099  0.00  0.00    -0.080 A 
ATOM      4  C3  UNL d   1      -0.618   2.601  -3.853  0.00  0.00     0.150 A 
ATOM      5  C4  UNL d   1      -0.106   2.728  -2.566  0.00  0.00    -0.007 A 
ATOM      6  C5  UNL d   1      -0.728   2.069  -1.506  0.00  0.00     0.039 A 
ENDROOT
BRANCH   4   7
ATOM      7  O   UNL d   1       0.020   3.268  -4.856  0.00  0.00    -0.526 OA
ATOM      8  H5  UNL d   1      -0.462   3.110  -5.685  0.00  0.00     0.418 HD
ENDBRANCH   4   7
TORSDOF 1
ENDMDL
