MODEL 1
REMARK minimizedAffinity -4.05835962
REMARK minimizedRMSD -1
REMARK  1 active torsions:
REMARK  status: ('A' for Active; 'I' for Inactive)
REMARK    1  A    between atoms: C3_4  and  O_7 
ROOT
ATOM      1  C   UNL d   1      -0.666   2.432  -3.453  0.00  0.00    -0.033 A 
ATOM      2  C1  UNL d   1      -0.733   2.776  -4.804  0.00  0.00     0.039 A 
ATOM      3  C2  UNL d   1      -0.107   3.936  -5.263  0.00  0.00    -0.080 A 
ATOM      4  C3  UNL d   1       0.584   4.742  -4.362  0.00  0.00     0.150 A 
ATOM      5  C4  UNL d   1       0.658   4.403  -3.015  0.00  0.00    -0.007 A 
ATOM      6  C5  UNL d   1       0.031   3.245  -2.558  0.00  0.00     0.039 A 
ENDROOT
BRANCH   4   7
ATOM      7  O   UNL d   1       1.207   5.887  -4.762  0.00  0.00    -0.526 OA
ATOM      8  H5  UNL d   1       1.047   6.008  -5.713  0.00  0.00     0.418 HD
ENDBRANCH   4   7
TORSDOF 1
ENDMDL
