MODEL 1
REMARK minimizedAffinity -4.68320704
REMARK minimizedRMSD -1
REMARK  1 active torsions:
REMARK  status: ('A' for Active; 'I' for Inactive)
REMARK    1  A    between atoms: C3_4  and  O_7 
ROOT
ATOM      1  C   UNL d   1      -2.031   1.679  -2.061  0.00  0.00    -0.033 A 
ATOM      2  C1  UNL d   1      -2.539   1.715  -3.360  0.00  0.00     0.039 A 
ATOM      3  C2  UNL d   1      -1.756   2.210  -4.405  0.00  0.00    -0.080 A 
ATOM      4  C3  UNL d   1      -0.468   2.665  -4.137  0.00  0.00     0.150 A 
ATOM      5  C4  UNL d   1       0.046   2.629  -2.845  0.00  0.00    -0.007 A 
ATOM      6  C5  UNL d   1      -0.738   2.135  -1.803  0.00  0.00     0.039 A 
ENDROOT
BRANCH   4   7
ATOM      7  O   UNL d   1       0.332   3.162  -5.122  0.00  0.00    -0.526 OA
ATOM      8  H5  UNL d   1      -0.166   3.152  -5.957  0.00  0.00     0.418 HD
ENDBRANCH   4   7
TORSDOF 1
ENDMDL
