MODEL 1
REMARK minimizedAffinity -3.60834861
REMARK minimizedRMSD -1
REMARK  1 active torsions:
REMARK  status: ('A' for Active; 'I' for Inactive)
REMARK    1  A    between atoms: C3_4  and  O_7 
ROOT
ATOM      1  C   UNL d   1      -2.172   1.591  -1.958  0.00  0.00    -0.033 A 
ATOM      2  C1  UNL d   1      -0.949   2.143  -1.572  0.00  0.00     0.039 A 
ATOM      3  C2  UNL d   1      -0.085   2.672  -2.534  0.00  0.00    -0.080 A 
ATOM      4  C3  UNL d   1      -0.456   2.643  -3.875  0.00  0.00     0.150 A 
ATOM      5  C4  UNL d   1      -1.675   2.099  -4.266  0.00  0.00    -0.007 A 
ATOM      6  C5  UNL d   1      -2.536   1.571  -3.305  0.00  0.00     0.039 A 
ENDROOT
BRANCH   4   7
ATOM      7  O   UNL d   1       0.356   3.143  -4.850  0.00  0.00    -0.526 OA
ATOM      8  H5  UNL d   1       1.176   3.460  -4.435  0.00  0.00     0.418 HD
ENDBRANCH   4   7
TORSDOF 1
ENDMDL
