MODEL 1
REMARK minimizedAffinity -5.27912521
REMARK minimizedRMSD -1
REMARK  1 active torsions:
REMARK  status: ('A' for Active; 'I' for Inactive)
REMARK    1  A    between atoms: C3_4  and  O_7 
ROOT
ATOM      1  C   UNL d   1       0.031   4.194  -4.365  0.00  0.00    -0.033 A 
ATOM      2  C1  UNL d   1      -0.670   3.136  -4.946  0.00  0.00     0.039 A 
ATOM      3  C2  UNL d   1      -1.352   2.222  -4.140  0.00  0.00    -0.080 A 
ATOM      4  C3  UNL d   1      -1.325   2.377  -2.757  0.00  0.00     0.150 A 
ATOM      5  C4  UNL d   1      -0.631   3.431  -2.171  0.00  0.00    -0.007 A 
ATOM      6  C5  UNL d   1       0.050   4.342  -2.978  0.00  0.00     0.039 A 
ENDROOT
BRANCH   4   7
ATOM      7  O   UNL d   1      -1.971   1.508  -1.929  0.00  0.00    -0.526 OA
ATOM      8  H5  UNL d   1      -2.383   0.815  -2.472  0.00  0.00     0.418 HD
ENDBRANCH   4   7
TORSDOF 1
ENDMDL
