MODEL 1
REMARK minimizedAffinity -2.94307995
REMARK minimizedRMSD -1
REMARK  1 active torsions:
REMARK  status: ('A' for Active; 'I' for Inactive)
REMARK    1  A    between atoms: C3_4  and  O_7 
ROOT
ATOM      1  C   UNL d   1      -2.694   0.748  -1.884  0.00  0.00    -0.033 A 
ATOM      2  C1  UNL d   1      -2.946   1.087  -3.215  0.00  0.00     0.039 A 
ATOM      3  C2  UNL d   1      -2.004   1.820  -3.940  0.00  0.00    -0.080 A 
ATOM      4  C3  UNL d   1      -0.817   2.206  -3.324  0.00  0.00     0.150 A 
ATOM      5  C4  UNL d   1      -0.558   1.868  -2.000  0.00  0.00    -0.007 A 
ATOM      6  C5  UNL d   1      -1.500   1.137  -1.277  0.00  0.00     0.039 A 
ENDROOT
BRANCH   4   7
ATOM      7  O   UNL d   1       0.130   2.926  -3.990  0.00  0.00    -0.526 OA
ATOM      8  H5  UNL d   1      -0.197   3.111  -4.886  0.00  0.00     0.418 HD
ENDBRANCH   4   7
TORSDOF 1
ENDMDL
