MODEL 1
REMARK minimizedAffinity 1.52695048
REMARK minimizedRMSD -1
REMARK  3 active torsions:
REMARK  status: ('A' for Active; 'I' for Inactive)
REMARK    1  A    between atoms: C3'_2  and  C2'_3 
REMARK    2  A    between atoms: C2'_3  and  C1'_4 
REMARK    3  A    between atoms: C1'_4  and  C1_5 
ROOT
ATOM      1  C1  N4B d   1      -4.137  -4.075  -4.473  0.00  0.00    -0.075 A 
ATOM      2  C2  N4B d   1      -3.335  -4.537  -3.407  0.00  0.00     0.002 A 
ATOM      3  C3  N4B d   1      -2.224  -5.301  -3.665  0.00  0.00     0.002 A 
ATOM      4  C4  N4B d   1      -1.907  -5.631  -4.974  0.00  0.00    -0.004 A 
ATOM      5  C5  N4B d   1      -2.672  -5.159  -6.000  0.00  0.00     0.002 A 
ATOM      6  C6  N4B d   1      -3.790  -4.387  -5.756  0.00  0.00     0.002 A 
ENDROOT
BRANCH   1   7
ATOM      7  C1' N4B d   1      -5.410  -3.309  -4.235  0.00  0.00     0.057 C 
BRANCH   7   8
ATOM      8  C2' N4B d   1      -5.869  -2.681  -5.548  0.00  0.00     0.009 C 
BRANCH   8   9
ATOM      9  C3' N4B d   1      -5.995  -1.171  -5.441  0.00  0.00     0.004 C 
ATOM     10  C4' N4B d   1      -6.000  -0.687  -4.022  0.00  0.00     0.003 C 
ENDBRANCH   8   9
ENDBRANCH   7   8
ENDBRANCH   1   7
TORSDOF 3
ENDMDL
