MODEL 1
REMARK minimizedAffinity -2.80650878
REMARK minimizedRMSD -1
REMARK  3 active torsions:
REMARK  status: ('A' for Active; 'I' for Inactive)
REMARK    1  A    between atoms: C3'_2  and  C2'_3 
REMARK    2  A    between atoms: C2'_3  and  C1'_4 
REMARK    3  A    between atoms: C1'_4  and  C1_5 
ROOT
ATOM      1  C1  N4B d   1      -3.931  -4.907  -5.089  0.00  0.00    -0.075 A 
ATOM      2  C2  N4B d   1      -3.895  -3.869  -4.131  0.00  0.00     0.002 A 
ATOM      3  C3  N4B d   1      -4.869  -2.902  -4.130  0.00  0.00     0.002 A 
ATOM      4  C4  N4B d   1      -5.875  -2.940  -5.083  0.00  0.00    -0.004 A 
ATOM      5  C5  N4B d   1      -5.918  -3.959  -5.989  0.00  0.00     0.002 A 
ATOM      6  C6  N4B d   1      -4.947  -4.941  -6.000  0.00  0.00     0.002 A 
ENDROOT
BRANCH   1   7
ATOM      7  C1' N4B d   1      -2.841  -5.939  -5.184  0.00  0.00     0.057 C 
BRANCH   7   8
ATOM      8  C2' N4B d   1      -1.684  -5.370  -6.000  0.00  0.00     0.009 C 
BRANCH   8   9
ATOM      9  C3' N4B d   1      -0.355  -5.999  -5.616  0.00  0.00     0.004 C 
ATOM     10  C4' N4B d   1      -0.119  -6.000  -4.135  0.00  0.00     0.003 C 
ENDBRANCH   8   9
ENDBRANCH   7   8
ENDBRANCH   1   7
TORSDOF 3
ENDMDL
