MODEL 1
REMARK minimizedAffinity -0.202970073
REMARK minimizedRMSD -1
REMARK  3 active torsions:
REMARK  status: ('A' for Active; 'I' for Inactive)
REMARK    1  A    between atoms: C3'_2  and  C2'_3 
REMARK    2  A    between atoms: C2'_3  and  C1'_4 
REMARK    3  A    between atoms: C1'_4  and  C1_5 
ROOT
ATOM      1  C1  N4B d   1      -4.246  -4.524  -4.814  0.00  0.00    -0.075 A 
ATOM      2  C2  N4B d   1      -3.996  -5.621  -5.668  0.00  0.00     0.002 A 
ATOM      3  C3  N4B d   1      -2.705  -6.000  -5.940  0.00  0.00     0.002 A 
ATOM      4  C4  N4B d   1      -1.651  -5.288  -5.386  0.00  0.00    -0.004 A 
ATOM      5  C5  N4B d   1      -1.900  -4.246  -4.542  0.00  0.00     0.002 A 
ATOM      6  C6  N4B d   1      -3.194  -3.857  -4.257  0.00  0.00     0.002 A 
ENDROOT
BRANCH   1   7
ATOM      7  C1' N4B d   1      -5.639  -4.019  -4.556  0.00  0.00     0.057 C 
BRANCH   7   8
ATOM      8  C2' N4B d   1      -5.802  -2.646  -5.201  0.00  0.00     0.009 C 
BRANCH   8   9
ATOM      9  C3' N4B d   1      -5.974  -1.548  -4.165  0.00  0.00     0.004 C 
ATOM     10  C4' N4B d   1      -5.996  -0.176  -4.770  0.00  0.00     0.003 C 
ENDBRANCH   8   9
ENDBRANCH   7   8
ENDBRANCH   1   7
TORSDOF 3
ENDMDL
