MODEL 1
REMARK minimizedAffinity -1.60490799
REMARK minimizedRMSD -1
REMARK  3 active torsions:
REMARK  status: ('A' for Active; 'I' for Inactive)
REMARK    1  A    between atoms: C3'_2  and  C2'_3 
REMARK    2  A    between atoms: C2'_3  and  C1'_4 
REMARK    3  A    between atoms: C1'_4  and  C1_5 
ROOT
ATOM      1  C1  N4B d   1      -3.135  -3.996  -5.153  0.00  0.00    -0.075 A 
ATOM      2  C2  N4B d   1      -2.510  -3.936  -3.888  0.00  0.00     0.002 A 
ATOM      3  C3  N4B d   1      -1.618  -4.912  -3.517  0.00  0.00     0.002 A 
ATOM      4  C4  N4B d   1      -1.351  -5.963  -4.382  0.00  0.00    -0.004 A 
ATOM      5  C5  N4B d   1      -1.940  -6.000  -5.612  0.00  0.00     0.002 A 
ATOM      6  C6  N4B d   1      -2.836  -5.023  -6.000  0.00  0.00     0.002 A 
ENDROOT
BRANCH   1   7
ATOM      7  C1' N4B d   1      -4.182  -2.998  -5.569  0.00  0.00     0.057 C 
BRANCH   7   8
ATOM      8  C2' N4B d   1      -3.795  -1.618  -5.046  0.00  0.00     0.009 C 
BRANCH   8   9
ATOM      9  C3' N4B d   1      -4.962  -0.918  -4.372  0.00  0.00     0.004 C 
ATOM     10  C4' N4B d   1      -6.000  -1.876  -3.865  0.00  0.00     0.003 C 
ENDBRANCH   8   9
ENDBRANCH   7   8
ENDBRANCH   1   7
TORSDOF 3
ENDMDL
