MODEL 1
REMARK minimizedAffinity -3.3908546
REMARK minimizedRMSD -1
REMARK  3 active torsions:
REMARK  status: ('A' for Active; 'I' for Inactive)
REMARK    1  A    between atoms: C3'_2  and  C2'_3 
REMARK    2  A    between atoms: C2'_3  and  C1'_4 
REMARK    3  A    between atoms: C1'_4  and  C1_5 
ROOT
ATOM      1  C1  N4B d   1      -4.519  -4.200  -4.365  0.00  0.00    -0.075 A 
ATOM      2  C2  N4B d   1      -3.751  -3.028  -4.190  0.00  0.00     0.002 A 
ATOM      3  C3  N4B d   1      -4.115  -1.867  -4.827  0.00  0.00     0.002 A 
ATOM      4  C4  N4B d   1      -5.229  -1.858  -5.654  0.00  0.00    -0.004 A 
ATOM      5  C5  N4B d   1      -5.980  -2.988  -5.797  0.00  0.00     0.002 A 
ATOM      6  C6  N4B d   1      -5.628  -4.161  -5.160  0.00  0.00     0.002 A 
ENDROOT
BRANCH   1   7
ATOM      7  C1' N4B d   1      -4.112  -5.515  -3.759  0.00  0.00     0.057 C 
BRANCH   7   8
ATOM      8  C2' N4B d   1      -2.643  -5.779  -4.076  0.00  0.00     0.009 C 
BRANCH   8   9
ATOM      9  C3' N4B d   1      -2.396  -5.893  -5.570  0.00  0.00     0.004 C 
ATOM     10  C4' N4B d   1      -1.117  -5.238  -6.000  0.00  0.00     0.003 C 
ENDBRANCH   8   9
ENDBRANCH   7   8
ENDBRANCH   1   7
TORSDOF 3
ENDMDL
