MODEL 1
REMARK minimizedAffinity -3.893327
REMARK minimizedRMSD -1
REMARK  3 active torsions:
REMARK  status: ('A' for Active; 'I' for Inactive)
REMARK    1  A    between atoms: C3'_2  and  C2'_3 
REMARK    2  A    between atoms: C2'_3  and  C1'_4 
REMARK    3  A    between atoms: C1'_4  and  C1_5 
ROOT
ATOM      1  C1  N4B d   1      -3.901  -5.076  -4.709  0.00  0.00    -0.075 A 
ATOM      2  C2  N4B d   1      -3.157  -5.400  -3.553  0.00  0.00     0.002 A 
ATOM      3  C3  N4B d   1      -1.810  -5.647  -3.652  0.00  0.00     0.002 A 
ATOM      4  C4  N4B d   1      -1.192  -5.596  -4.892  0.00  0.00    -0.004 A 
ATOM      5  C5  N4B d   1      -1.913  -5.258  -6.000  0.00  0.00     0.002 A 
ATOM      6  C6  N4B d   1      -3.267  -5.003  -5.915  0.00  0.00     0.002 A 
ENDROOT
BRANCH   1   7
ATOM      7  C1' N4B d   1      -5.392  -4.882  -4.664  0.00  0.00     0.057 C 
BRANCH   7   8
ATOM      8  C2' N4B d   1      -5.774  -3.722  -5.579  0.00  0.00     0.009 C 
BRANCH   8   9
ATOM      9  C3' N4B d   1      -5.997  -2.436  -4.802  0.00  0.00     0.004 C 
ATOM     10  C4' N4B d   1      -5.873  -1.211  -5.658  0.00  0.00     0.003 C 
ENDBRANCH   8   9
ENDBRANCH   7   8
ENDBRANCH   1   7
TORSDOF 3
ENDMDL
