MODEL 1
REMARK minimizedAffinity 0.81813401
REMARK minimizedRMSD -1
REMARK  3 active torsions:
REMARK  status: ('A' for Active; 'I' for Inactive)
REMARK    1  A    between atoms: C3'_2  and  C2'_3 
REMARK    2  A    between atoms: C2'_3  and  C1'_4 
REMARK    3  A    between atoms: C1'_4  and  C1_5 
ROOT
ATOM      1  C1  N4B d   1      -2.954  -4.316  -4.789  0.00  0.00    -0.075 A 
ATOM      2  C2  N4B d   1      -3.115  -5.595  -5.366  0.00  0.00     0.002 A 
ATOM      3  C3  N4B d   1      -4.301  -5.930  -5.973  0.00  0.00     0.002 A 
ATOM      4  C4  N4B d   1      -5.340  -5.012  -6.000  0.00  0.00    -0.004 A 
ATOM      5  C5  N4B d   1      -5.167  -3.770  -5.463  0.00  0.00     0.002 A 
ATOM      6  C6  N4B d   1      -3.980  -3.419  -4.853  0.00  0.00     0.002 A 
ENDROOT
BRANCH   1   7
ATOM      7  C1' N4B d   1      -1.707  -3.935  -4.039  0.00  0.00     0.057 C 
BRANCH   7   8
ATOM      8  C2' N4B d   1      -2.094  -3.400  -2.664  0.00  0.00     0.009 C 
BRANCH   8   9
ATOM      9  C3' N4B d   1      -2.609  -4.498  -1.750  0.00  0.00     0.004 C 
ATOM     10  C4' N4B d   1      -2.274  -5.873  -2.248  0.00  0.00     0.003 C 
ENDBRANCH   8   9
ENDBRANCH   7   8
ENDBRANCH   1   7
TORSDOF 3
ENDMDL
