MODEL 1
REMARK minimizedAffinity -2.45837569
REMARK minimizedRMSD -1
REMARK  3 active torsions:
REMARK  status: ('A' for Active; 'I' for Inactive)
REMARK    1  A    between atoms: C3'_2  and  C2'_3 
REMARK    2  A    between atoms: C2'_3  and  C1'_4 
REMARK    3  A    between atoms: C1'_4  and  C1_5 
ROOT
ATOM      1  C1  N4B d   1      -3.993  -5.098  -5.282  0.00  0.00    -0.075 A 
ATOM      2  C2  N4B d   1      -3.483  -5.889  -4.229  0.00  0.00     0.002 A 
ATOM      3  C3  N4B d   1      -2.140  -5.868  -3.943  0.00  0.00     0.002 A 
ATOM      4  C4  N4B d   1      -1.288  -5.081  -4.705  0.00  0.00    -0.004 A 
ATOM      5  C5  N4B d   1      -1.793  -4.301  -5.704  0.00  0.00     0.002 A 
ATOM      6  C6  N4B d   1      -3.141  -4.309  -6.000  0.00  0.00     0.002 A 
ENDROOT
BRANCH   1   7
ATOM      7  C1' N4B d   1      -5.440  -5.153  -5.688  0.00  0.00     0.057 C 
BRANCH   7   8
ATOM      8  C2' N4B d   1      -5.999  -3.735  -5.746  0.00  0.00     0.009 C 
BRANCH   8   9
ATOM      9  C3' N4B d   1      -5.866  -3.016  -4.414  0.00  0.00     0.004 C 
ATOM     10  C4' N4B d   1      -5.967  -1.526  -4.546  0.00  0.00     0.003 C 
ENDBRANCH   8   9
ENDBRANCH   7   8
ENDBRANCH   1   7
TORSDOF 3
ENDMDL
