MODEL 1
REMARK minimizedAffinity -0.949947894
REMARK minimizedRMSD -1
REMARK  3 active torsions:
REMARK  status: ('A' for Active; 'I' for Inactive)
REMARK    1  A    between atoms: C3'_2  and  C2'_3 
REMARK    2  A    between atoms: C2'_3  and  C1'_4 
REMARK    3  A    between atoms: C1'_4  and  C1_5 
ROOT
ATOM      1  C1  N4B d   1      -3.993  -4.085  -4.021  0.00  0.00    -0.075 A 
ATOM      2  C2  N4B d   1      -5.040  -3.138  -4.063  0.00  0.00     0.002 A 
ATOM      3  C3  N4B d   1      -5.999  -3.219  -5.043  0.00  0.00     0.002 A 
ATOM      4  C4  N4B d   1      -5.921  -4.221  -5.999  0.00  0.00    -0.004 A 
ATOM      5  C5  N4B d   1      -4.921  -5.146  -5.936  0.00  0.00     0.002 A 
ATOM      6  C6  N4B d   1      -3.952  -5.080  -4.954  0.00  0.00     0.002 A 
ENDROOT
BRANCH   1   7
ATOM      7  C1' N4B d   1      -2.874  -3.987  -3.020  0.00  0.00     0.057 C 
BRANCH   7   8
ATOM      8  C2' N4B d   1      -3.394  -3.318  -1.751  0.00  0.00     0.009 C 
BRANCH   8   9
ATOM      9  C3' N4B d   1      -2.318  -2.502  -1.057  0.00  0.00     0.004 C 
ATOM     10  C4' N4B d   1      -2.456  -2.509   0.436  0.00  0.00     0.003 C 
ENDBRANCH   8   9
ENDBRANCH   7   8
ENDBRANCH   1   7
TORSDOF 3
ENDMDL
