MODEL 1
REMARK minimizedAffinity 1.97745919
REMARK minimizedRMSD -1
REMARK  3 active torsions:
REMARK  status: ('A' for Active; 'I' for Inactive)
REMARK    1  A    between atoms: C3'_2  and  C2'_3 
REMARK    2  A    between atoms: C2'_3  and  C1'_4 
REMARK    3  A    between atoms: C1'_4  and  C1_5 
ROOT
ATOM      1  C1  N4B d   1      -2.955  -4.248  -3.297  0.00  0.00    -0.075 A 
ATOM      2  C2  N4B d   1      -4.050  -3.541  -3.842  0.00  0.00     0.002 A 
ATOM      3  C3  N4B d   1      -4.330  -3.637  -5.183  0.00  0.00     0.002 A 
ATOM      4  C4  N4B d   1      -3.522  -4.414  -5.998  0.00  0.00    -0.004 A 
ATOM      5  C5  N4B d   1      -2.481  -5.114  -5.460  0.00  0.00     0.002 A 
ATOM      6  C6  N4B d   1      -2.190  -5.030  -4.113  0.00  0.00     0.002 A 
ENDROOT
BRANCH   1   7
ATOM      7  C1' N4B d   1      -2.558  -4.106  -1.853  0.00  0.00     0.057 C 
BRANCH   7   8
ATOM      8  C2' N4B d   1      -2.553  -2.627  -1.477  0.00  0.00     0.009 C 
BRANCH   8   9
ATOM      9  C3' N4B d   1      -2.511  -2.423   0.027  0.00  0.00     0.004 C 
ATOM     10  C4' N4B d   1      -1.425  -1.483   0.456  0.00  0.00     0.003 C 
ENDBRANCH   8   9
ENDBRANCH   7   8
ENDBRANCH   1   7
TORSDOF 3
ENDMDL
