MODEL 1
REMARK minimizedAffinity -2.65897751
REMARK minimizedRMSD -1
REMARK  1 active torsions:
REMARK  status: ('A' for Active; 'I' for Inactive)
REMARK    1  A    between atoms: C1_2  and  C2_3 
ROOT
ATOM      1  C2  UNL d   1       0.262  -2.087  -0.591  0.00  0.00    -0.076 A 
ATOM      2  C3  UNL d   1      -0.831  -2.597   0.132  0.00  0.00     0.004 A 
ATOM      3  C4  UNL d   1      -1.448  -1.840   1.126  0.00  0.00    -0.003 A 
ATOM      4  C5  UNL d   1      -0.983  -0.561   1.414  0.00  0.00     0.000 A 
ATOM      5  C6  UNL d   1       0.088  -0.034   0.694  0.00  0.00     0.000 A 
ATOM      6  C7  UNL d   1       0.712  -0.777  -0.323  0.00  0.00    -0.073 A 
ATOM      7  C8  UNL d   1       1.867  -0.160  -1.063  0.00  0.00     0.078 C 
ENDROOT
BRANCH   1   8
ATOM      8  C1  UNL d   1       0.909  -2.964  -1.640  0.00  0.00     0.053 C 
ATOM      9  C   UNL d   1       0.348  -2.718  -3.032  0.00  0.00     0.018 C 
ENDBRANCH   1   8
TORSDOF 1
ENDMDL
