MODEL 1
REMARK minimizedAffinity -2.92385316
REMARK minimizedRMSD -1
REMARK  1 active torsions:
REMARK  status: ('A' for Active; 'I' for Inactive)
REMARK    1  A    between atoms: C1_2  and  C2_3 
ROOT
ATOM      1  C2  UNL d   1       0.249  -0.494   0.352  0.00  0.00    -0.076 A 
ATOM      2  C3  UNL d   1       0.241   0.789  -0.222  0.00  0.00     0.004 A 
ATOM      3  C4  UNL d   1      -0.424   1.847   0.396  0.00  0.00    -0.003 A 
ATOM      4  C5  UNL d   1      -1.090   1.640   1.598  0.00  0.00     0.000 A 
ATOM      5  C6  UNL d   1      -1.078   0.377   2.191  0.00  0.00     0.000 A 
ATOM      6  C7  UNL d   1      -0.399  -0.696   1.589  0.00  0.00    -0.073 A 
ATOM      7  C8  UNL d   1      -0.423  -2.037   2.269  0.00  0.00     0.078 C 
ENDROOT
BRANCH   1   8
ATOM      8  C1  UNL d   1       0.964  -1.609  -0.378  0.00  0.00     0.053 C 
ATOM      9  C   UNL d   1       0.331  -1.923  -1.725  0.00  0.00     0.018 C 
ENDBRANCH   1   8
TORSDOF 1
ENDMDL
