MODEL 1
REMARK minimizedAffinity -4.0848093
REMARK minimizedRMSD -1
REMARK  1 active torsions:
REMARK  status: ('A' for Active; 'I' for Inactive)
REMARK    1  A    between atoms: C1_2  and  C2_3 
ROOT
ATOM      1  C2  UNL d   1       0.350  -0.050   0.005  0.00  0.00    -0.076 A 
ATOM      2  C3  UNL d   1       0.030   1.119  -0.706  0.00  0.00     0.004 A 
ATOM      3  C4  UNL d   1      -0.637   2.176  -0.087  0.00  0.00    -0.003 A 
ATOM      4  C5  UNL d   1      -0.993   2.080   1.253  0.00  0.00     0.000 A 
ATOM      5  C6  UNL d   1      -0.668   0.934   1.979  0.00  0.00     0.000 A 
ATOM      6  C7  UNL d   1       0.018  -0.133   1.374  0.00  0.00    -0.073 A 
ATOM      7  C8  UNL d   1       0.338  -1.347   2.203  0.00  0.00     0.078 C 
ENDROOT
BRANCH   1   8
ATOM      8  C1  UNL d   1       1.049  -1.174  -0.726  0.00  0.00     0.053 C 
ATOM      9  C   UNL d   1       0.127  -1.904  -1.690  0.00  0.00     0.018 C 
ENDBRANCH   1   8
TORSDOF 1
ENDMDL
