MODEL 1
REMARK minimizedAffinity -0.649462759
REMARK minimizedRMSD -1
REMARK  1 active torsions:
REMARK  status: ('A' for Active; 'I' for Inactive)
REMARK    1  A    between atoms: C1_2  and  C2_3 
ROOT
ATOM      1  C2  UNL d   1       0.392   0.787  -0.060  0.00  0.00    -0.076 A 
ATOM      2  C3  UNL d   1       0.970   1.525  -1.108  0.00  0.00     0.004 A 
ATOM      3  C4  UNL d   1       0.842   2.912  -1.164  0.00  0.00    -0.003 A 
ATOM      4  C5  UNL d   1       0.135   3.583  -0.173  0.00  0.00     0.000 A 
ATOM      5  C6  UNL d   1      -0.430   2.869   0.883  0.00  0.00     0.000 A 
ATOM      6  C7  UNL d   1      -0.296   1.472   0.964  0.00  0.00    -0.073 A 
ATOM      7  C8  UNL d   1      -0.931   0.751   2.121  0.00  0.00     0.078 C 
ENDROOT
BRANCH   1   8
ATOM      8  C1  UNL d   1       0.541  -0.718  -0.067  0.00  0.00     0.053 C 
ATOM      9  C   UNL d   1      -0.666  -1.420  -0.671  0.00  0.00     0.018 C 
ENDBRANCH   1   8
TORSDOF 1
ENDMDL
