MODEL 1
REMARK minimizedAffinity -3.65970612
REMARK minimizedRMSD -1
REMARK  1 active torsions:
REMARK  status: ('A' for Active; 'I' for Inactive)
REMARK    1  A    between atoms: C1_2  and  C2_3 
ROOT
ATOM      1  C2  UNL d   1       0.487   0.423   0.218  0.00  0.00    -0.076 A 
ATOM      2  C3  UNL d   1      -0.051  -0.385   1.234  0.00  0.00     0.004 A 
ATOM      3  C4  UNL d   1      -0.954   0.134   2.161  0.00  0.00    -0.003 A 
ATOM      4  C5  UNL d   1      -1.334   1.469   2.085  0.00  0.00     0.000 A 
ATOM      5  C6  UNL d   1      -0.824   2.281   1.073  0.00  0.00     0.000 A 
ATOM      6  C7  UNL d   1       0.075   1.769   0.121  0.00  0.00    -0.073 A 
ATOM      7  C8  UNL d   1       0.599   2.691  -0.946  0.00  0.00     0.078 C 
ENDROOT
BRANCH   1   8
ATOM      8  C1  UNL d   1       1.483  -0.189  -0.742  0.00  0.00     0.053 C 
ATOM      9  C   UNL d   1       1.209  -1.661  -1.006  0.00  0.00     0.018 C 
ENDBRANCH   1   8
TORSDOF 1
ENDMDL
