MODEL 1
REMARK minimizedAffinity -0.803161621
REMARK minimizedRMSD -1
REMARK  1 active torsions:
REMARK  status: ('A' for Active; 'I' for Inactive)
REMARK    1  A    between atoms: C1_2  and  C2_3 
ROOT
ATOM      1  C2  UNL d   1       0.179   0.795  -0.138  0.00  0.00    -0.076 A 
ATOM      2  C3  UNL d   1      -0.441  -0.225   0.604  0.00  0.00     0.004 A 
ATOM      3  C4  UNL d   1      -1.443   0.067   1.528  0.00  0.00    -0.003 A 
ATOM      4  C5  UNL d   1      -1.842   1.384   1.724  0.00  0.00     0.000 A 
ATOM      5  C6  UNL d   1      -1.250   2.408   0.984  0.00  0.00     0.000 A 
ATOM      6  C7  UNL d   1      -0.250   2.128   0.037  0.00  0.00    -0.073 A 
ATOM      7  C8  UNL d   1       0.358   3.271  -0.729  0.00  0.00     0.078 C 
ENDROOT
BRANCH   1   8
ATOM      8  C1  UNL d   1       1.278   0.421  -1.106  0.00  0.00     0.053 C 
ATOM      9  C   UNL d   1       1.565  -1.073  -1.114  0.00  0.00     0.018 C 
ENDBRANCH   1   8
TORSDOF 1
ENDMDL
