MODEL 1
REMARK minimizedAffinity -5.10853052
REMARK minimizedRMSD -1
REMARK  1 active torsions:
REMARK  status: ('A' for Active; 'I' for Inactive)
REMARK    1  A    between atoms: C1_2  and  C2_3 
ROOT
ATOM      1  C2  UNL d   1       0.296   0.756  -0.012  0.00  0.00    -0.076 A 
ATOM      2  C3  UNL d   1       0.179   1.972  -0.707  0.00  0.00     0.004 A 
ATOM      3  C4  UNL d   1      -0.605   3.011  -0.208  0.00  0.00    -0.003 A 
ATOM      4  C5  UNL d   1      -1.284   2.851   0.995  0.00  0.00     0.000 A 
ATOM      5  C6  UNL d   1      -1.165   1.657   1.706  0.00  0.00     0.000 A 
ATOM      6  C7  UNL d   1      -0.366   0.606   1.225  0.00  0.00    -0.073 A 
ATOM      7  C8  UNL d   1      -0.279  -0.661   2.031  0.00  0.00     0.078 C 
ENDROOT
BRANCH   1   8
ATOM      8  C1  UNL d   1       1.139  -0.345  -0.616  0.00  0.00     0.053 C 
ATOM      9  C   UNL d   1       0.297  -1.440  -1.252  0.00  0.00     0.018 C 
ENDBRANCH   1   8
TORSDOF 1
ENDMDL
