MODEL 1
REMARK minimizedAffinity 6.57668638
REMARK minimizedRMSD -1
REMARK  0 active torsions:
REMARK  status: ('A' for Active; 'I' for Inactive)
ROOT
ATOM      1  C   UNL d   1      -2.536  -6.000  -4.855  0.00  0.00     0.172 C 
ATOM      2  N   UNL d   1      -1.482  -5.184  -4.300  0.00  0.00    -0.070 N 
ATOM      3  C1  UNL d   1      -1.647  -3.963  -3.704  0.00  0.00    -0.004 A 
ATOM      4  C2  UNL d   1      -0.406  -3.514  -3.309  0.00  0.00    -0.047 A 
ATOM      5  C3  UNL d   1       0.539  -4.498  -3.682  0.00  0.00    -0.047 A 
ATOM      6  C4  UNL d   1      -0.154  -5.522  -4.294  0.00  0.00    -0.004 A 
ENDROOT
TORSDOF 0
ENDMDL
