MODEL 1
REMARK minimizedAffinity 5.8891077
REMARK minimizedRMSD -1
REMARK  0 active torsions:
REMARK  status: ('A' for Active; 'I' for Inactive)
ROOT
ATOM      1  C   UNL d   1       2.405   1.628   0.311  0.00  0.00     0.172 C 
ATOM      2  N   UNL d   1       3.609   2.056   0.985  0.00  0.00    -0.070 N 
ATOM      3  C1  UNL d   1       4.126   3.324   0.967  0.00  0.00    -0.004 A 
ATOM      4  C2  UNL d   1       5.275   3.321   1.728  0.00  0.00    -0.047 A 
ATOM      5  C3  UNL d   1       5.455   2.006   2.219  0.00  0.00    -0.047 A 
ATOM      6  C4  UNL d   1       4.409   1.244   1.743  0.00  0.00    -0.004 A 
ENDROOT
TORSDOF 0
ENDMDL
