MODEL 1
REMARK minimizedAffinity 8.11275387
REMARK minimizedRMSD -1
REMARK  0 active torsions:
REMARK  status: ('A' for Active; 'I' for Inactive)
ROOT
ATOM      1  C   UNL d   1       4.537  -2.560  -0.751  0.00  0.00     0.172 C 
ATOM      2  N   UNL d   1       4.820  -3.871  -0.215  0.00  0.00    -0.070 N 
ATOM      3  C1  UNL d   1       3.962  -4.938  -0.221  0.00  0.00    -0.004 A 
ATOM      4  C2  UNL d   1       4.604  -6.000   0.379  0.00  0.00    -0.047 A 
ATOM      5  C3  UNL d   1       5.892  -5.555   0.760  0.00  0.00    -0.047 A 
ATOM      6  C4  UNL d   1       5.999  -4.234   0.380  0.00  0.00    -0.004 A 
ENDROOT
TORSDOF 0
ENDMDL
