MODEL 1
REMARK minimizedAffinity 3.64908767
REMARK minimizedRMSD -1
REMARK  0 active torsions:
REMARK  status: ('A' for Active; 'I' for Inactive)
ROOT
ATOM      1  C   UNL d   1      -4.410   0.738   0.386  0.00  0.00     0.172 C 
ATOM      2  N   UNL d   1      -3.233   0.378   1.143  0.00  0.00    -0.070 N 
ATOM      3  C1  UNL d   1      -2.589   1.180   2.047  0.00  0.00    -0.004 A 
ATOM      4  C2  UNL d   1      -1.519   0.474   2.550  0.00  0.00    -0.047 A 
ATOM      5  C3  UNL d   1      -1.518  -0.797   1.926  0.00  0.00    -0.047 A 
ATOM      6  C4  UNL d   1      -2.590  -0.829   1.060  0.00  0.00    -0.004 A 
ENDROOT
TORSDOF 0
ENDMDL
