MODEL 1
REMARK minimizedAffinity 2.64399672
REMARK minimizedRMSD -1
REMARK  0 active torsions:
REMARK  status: ('A' for Active; 'I' for Inactive)
ROOT
ATOM      1  C   UNL d   1      -2.577   0.929   3.761  0.00  0.00     0.172 C 
ATOM      2  N   UNL d   1      -2.033  -0.088   2.892  0.00  0.00    -0.070 N 
ATOM      3  C1  UNL d   1      -0.825  -0.712   3.052  0.00  0.00    -0.004 A 
ATOM      4  C2  UNL d   1      -0.675  -1.613   2.021  0.00  0.00    -0.047 A 
ATOM      5  C3  UNL d   1      -1.834  -1.528   1.212  0.00  0.00    -0.047 A 
ATOM      6  C4  UNL d   1      -2.658  -0.576   1.775  0.00  0.00    -0.004 A 
ENDROOT
TORSDOF 0
ENDMDL
