MODEL 1
REMARK minimizedAffinity 10.6772366
REMARK minimizedRMSD -1
REMARK  0 active torsions:
REMARK  status: ('A' for Active; 'I' for Inactive)
ROOT
ATOM      1  C   UNL d   1       2.324   2.716  -2.866  0.00  0.00     0.172 C 
ATOM      2  N   UNL d   1       3.490   3.159  -3.594  0.00  0.00    -0.070 N 
ATOM      3  C1  UNL d   1       3.700   2.999  -4.938  0.00  0.00    -0.004 A 
ATOM      4  C2  UNL d   1       4.924   3.556  -5.242  0.00  0.00    -0.047 A 
ATOM      5  C3  UNL d   1       5.467   4.067  -4.040  0.00  0.00    -0.047 A 
ATOM      6  C4  UNL d   1       4.559   3.808  -3.035  0.00  0.00    -0.004 A 
ENDROOT
TORSDOF 0
ENDMDL
