MODEL 1
REMARK minimizedAffinity 8.53724957
REMARK minimizedRMSD -1
REMARK  0 active torsions:
REMARK  status: ('A' for Active; 'I' for Inactive)
ROOT
ATOM      1  C   UNL d   1      -4.745   0.722   1.241  0.00  0.00     0.172 C 
ATOM      2  N   UNL d   1      -3.545   0.454   1.997  0.00  0.00    -0.070 N 
ATOM      3  C1  UNL d   1      -2.572  -0.448   1.658  0.00  0.00    -0.004 A 
ATOM      4  C2  UNL d   1      -1.598  -0.405   2.632  0.00  0.00    -0.047 A 
ATOM      5  C3  UNL d   1      -2.000   0.555   3.591  0.00  0.00    -0.047 A 
ATOM      6  C4  UNL d   1      -3.209   1.071   3.173  0.00  0.00    -0.004 A 
ENDROOT
TORSDOF 0
ENDMDL
