MODEL 1
REMARK minimizedAffinity 3.08110785
REMARK minimizedRMSD -1
REMARK  0 active torsions:
REMARK  status: ('A' for Active; 'I' for Inactive)
ROOT
ATOM      1  C   UNL d   1      -4.104  -4.282   2.451  0.00  0.00     0.172 C 
ATOM      2  N   UNL d   1      -4.358  -4.699   3.810  0.00  0.00    -0.070 N 
ATOM      3  C1  UNL d   1      -4.490  -3.866   4.889  0.00  0.00    -0.004 A 
ATOM      4  C2  UNL d   1      -4.725  -4.648   5.999  0.00  0.00    -0.047 A 
ATOM      5  C3  UNL d   1      -4.734  -5.997   5.573  0.00  0.00    -0.047 A 
ATOM      6  C4  UNL d   1      -4.504  -6.000   4.213  0.00  0.00    -0.004 A 
ENDROOT
TORSDOF 0
ENDMDL
