MODEL 1
REMARK minimizedAffinity 7.12953138
REMARK minimizedRMSD -1
REMARK  0 active torsions:
REMARK  status: ('A' for Active; 'I' for Inactive)
ROOT
ATOM      1  C   UNL d   1       2.692   1.918   0.720  0.00  0.00     0.172 C 
ATOM      2  N   UNL d   1       3.953   2.609   0.857  0.00  0.00    -0.070 N 
ATOM      3  C1  UNL d   1       4.330   3.380   1.925  0.00  0.00    -0.004 A 
ATOM      4  C2  UNL d   1       5.597   3.859   1.673  0.00  0.00    -0.047 A 
ATOM      5  C3  UNL d   1       5.996   3.360   0.410  0.00  0.00    -0.047 A 
ATOM      6  C4  UNL d   1       4.959   2.589  -0.073  0.00  0.00    -0.004 A 
ENDROOT
TORSDOF 0
ENDMDL
