MODEL 1
REMARK minimizedAffinity 5.04625845
REMARK minimizedRMSD -1
REMARK  0 active torsions:
REMARK  status: ('A' for Active; 'I' for Inactive)
ROOT
ATOM      1  C   UNL d   1      -3.017  -5.999  -5.998  0.00  0.00     0.172 C 
ATOM      2  N   UNL d   1      -2.204  -5.548  -4.892  0.00  0.00    -0.070 N 
ATOM      3  C1  UNL d   1      -2.600  -5.488  -3.583  0.00  0.00    -0.004 A 
ATOM      4  C2  UNL d   1      -1.541  -5.008  -2.843  0.00  0.00    -0.047 A 
ATOM      5  C3  UNL d   1      -0.472  -4.771  -3.740  0.00  0.00    -0.047 A 
ATOM      6  C4  UNL d   1      -0.909  -5.114  -5.001  0.00  0.00    -0.004 A 
ENDROOT
TORSDOF 0
ENDMDL
