MODEL 1
REMARK minimizedAffinity 3.72250772
REMARK minimizedRMSD -1
REMARK  0 active torsions:
REMARK  status: ('A' for Active; 'I' for Inactive)
ROOT
ATOM      1  C   UNL d   1      -2.678   1.249   3.911  0.00  0.00     0.172 C 
ATOM      2  N   UNL d   1      -2.283   0.204   2.997  0.00  0.00    -0.070 N 
ATOM      3  C1  UNL d   1      -3.047  -0.294   1.976  0.00  0.00    -0.004 A 
ATOM      4  C2  UNL d   1      -2.316  -1.274   1.340  0.00  0.00    -0.047 A 
ATOM      5  C3  UNL d   1      -1.069  -1.368   2.002  0.00  0.00    -0.047 A 
ATOM      6  C4  UNL d   1      -1.076  -0.442   3.024  0.00  0.00    -0.004 A 
ENDROOT
TORSDOF 0
ENDMDL
