MODEL 1
REMARK minimizedAffinity 8.28606701
REMARK minimizedRMSD -1
REMARK  0 active torsions:
REMARK  status: ('A' for Active; 'I' for Inactive)
ROOT
ATOM      1  C   UNL d   1      -3.446  -4.182   2.863  0.00  0.00     0.172 C 
ATOM      2  N   UNL d   1      -4.168  -4.662   4.018  0.00  0.00    -0.070 N 
ATOM      3  C1  UNL d   1      -4.640  -5.936   4.191  0.00  0.00    -0.004 A 
ATOM      4  C2  UNL d   1      -5.267  -5.990   5.417  0.00  0.00    -0.047 A 
ATOM      5  C3  UNL d   1      -5.169  -4.705   6.000  0.00  0.00    -0.047 A 
ATOM      6  C4  UNL d   1      -4.484  -3.902   5.113  0.00  0.00    -0.004 A 
ENDROOT
TORSDOF 0
ENDMDL
