MODEL 1
REMARK minimizedAffinity 10.172802
REMARK minimizedRMSD -1
REMARK  0 active torsions:
REMARK  status: ('A' for Active; 'I' for Inactive)
ROOT
ATOM      1  C   UNL d   1      -2.135   5.412  -4.485  0.00  0.00     0.172 C 
ATOM      2  N   UNL d   1      -2.779   5.470  -3.193  0.00  0.00    -0.070 N 
ATOM      3  C1  UNL d   1      -4.131   5.487  -2.975  0.00  0.00    -0.004 A 
ATOM      4  C2  UNL d   1      -4.338   5.544  -1.614  0.00  0.00    -0.047 A 
ATOM      5  C3  UNL d   1      -3.067   5.563  -0.993  0.00  0.00    -0.047 A 
ATOM      6  C4  UNL d   1      -2.120   5.517  -1.993  0.00  0.00    -0.004 A 
ENDROOT
TORSDOF 0
ENDMDL
