MODEL 1
REMARK minimizedAffinity 6.26628876
REMARK minimizedRMSD -1
REMARK  0 active torsions:
REMARK  status: ('A' for Active; 'I' for Inactive)
ROOT
ATOM      1  C   UNL d   1      -2.042   0.696   4.191  0.00  0.00     0.172 C 
ATOM      2  N   UNL d   1      -1.379  -0.153   3.230  0.00  0.00    -0.070 N 
ATOM      3  C1  UNL d   1      -1.763  -0.338   1.929  0.00  0.00    -0.004 A 
ATOM      4  C2  UNL d   1      -0.875  -1.218   1.347  0.00  0.00    -0.047 A 
ATOM      5  C3  UNL d   1       0.075  -1.574   2.334  0.00  0.00    -0.047 A 
ATOM      6  C4  UNL d   1      -0.261  -0.901   3.490  0.00  0.00    -0.004 A 
ENDROOT
TORSDOF 0
ENDMDL
