MODEL 1
REMARK minimizedAffinity 8.02835274
REMARK minimizedRMSD -1
REMARK  0 active torsions:
REMARK  status: ('A' for Active; 'I' for Inactive)
ROOT
ATOM      1  C   UNL d   1      -2.251   0.931   4.084  0.00  0.00     0.172 C 
ATOM      2  N   UNL d   1      -1.890   0.141   2.931  0.00  0.00    -0.070 N 
ATOM      3  C1  UNL d   1      -0.663  -0.424   2.702  0.00  0.00    -0.004 A 
ATOM      4  C2  UNL d   1      -0.724  -1.093   1.499  0.00  0.00    -0.047 A 
ATOM      5  C3  UNL d   1      -2.032  -0.924   0.986  0.00  0.00    -0.047 A 
ATOM      6  C4  UNL d   1      -2.732  -0.155   1.892  0.00  0.00    -0.004 A 
ENDROOT
TORSDOF 0
ENDMDL
