MODEL 1
REMARK minimizedAffinity 6.84691572
REMARK minimizedRMSD -1
REMARK  0 active torsions:
REMARK  status: ('A' for Active; 'I' for Inactive)
ROOT
ATOM      1  C   UNL d   1       5.999   4.141  -3.353  0.00  0.00     0.172 C 
ATOM      2  N   UNL d   1       5.995   4.513  -1.957  0.00  0.00    -0.070 N 
ATOM      3  C1  UNL d   1       6.000   3.643  -0.900  0.00  0.00    -0.004 A 
ATOM      4  C2  UNL d   1       5.994   4.388   0.260  0.00  0.00    -0.047 A 
ATOM      5  C3  UNL d   1       5.985   5.753  -0.114  0.00  0.00    -0.047 A 
ATOM      6  C4  UNL d   1       5.985   5.801  -1.492  0.00  0.00    -0.004 A 
ENDROOT
TORSDOF 0
ENDMDL
