MODEL 1
REMARK minimizedAffinity 4.88597918
REMARK minimizedRMSD -1
REMARK  0 active torsions:
REMARK  status: ('A' for Active; 'I' for Inactive)
ROOT
ATOM      1  C   UNL d   1      -1.034  -5.097  -4.568  0.00  0.00     0.172 C 
ATOM      2  N   UNL d   1      -2.427  -5.247  -4.918  0.00  0.00    -0.070 N 
ATOM      3  C1  UNL d   1      -3.346  -5.997  -4.233  0.00  0.00    -0.004 A 
ATOM      4  C2  UNL d   1      -4.555  -5.881  -4.884  0.00  0.00    -0.047 A 
ATOM      5  C3  UNL d   1      -4.356  -5.033  -5.999  0.00  0.00    -0.047 A 
ATOM      6  C4  UNL d   1      -3.030  -4.655  -5.996  0.00  0.00    -0.004 A 
ENDROOT
TORSDOF 0
ENDMDL
