MODEL 1
REMARK minimizedAffinity 8.36954021
REMARK minimizedRMSD -1
REMARK  0 active torsions:
REMARK  status: ('A' for Active; 'I' for Inactive)
ROOT
ATOM      1  C   UNL d   1       0.116   1.089   0.886  0.00  0.00     0.172 C 
ATOM      2  N   UNL d   1      -0.949   0.296   1.453  0.00  0.00    -0.070 N 
ATOM      3  C1  UNL d   1      -2.248   0.277   1.020  0.00  0.00    -0.004 A 
ATOM      4  C2  UNL d   1      -2.946  -0.603   1.819  0.00  0.00    -0.047 A 
ATOM      5  C3  UNL d   1      -2.035  -1.131   2.765  0.00  0.00    -0.047 A 
ATOM      6  C4  UNL d   1      -0.806  -0.557   2.516  0.00  0.00    -0.004 A 
ENDROOT
TORSDOF 0
ENDMDL
