MODEL 1
REMARK minimizedAffinity 14.6064234
REMARK minimizedRMSD -1
REMARK  1 active torsions:
REMARK  status: ('A' for Active; 'I' for Inactive)
REMARK    1  A    between atoms: C3_4  and  O_7 
ROOT
ATOM      1  C   UNL d   1      -0.024   2.267   5.759  0.00  0.00    -0.033 A 
ATOM      2  C1  UNL d   1      -0.501   2.343   4.449  0.00  0.00     0.039 A 
ATOM      3  C2  UNL d   1       0.378   2.191   3.375  0.00  0.00    -0.080 A 
ATOM      4  C3  UNL d   1       1.729   1.963   3.624  0.00  0.00     0.150 A 
ATOM      5  C4  UNL d   1       2.210   1.883   4.926  0.00  0.00    -0.007 A 
ATOM      6  C5  UNL d   1       1.331   2.036   5.998  0.00  0.00     0.039 A 
ENDROOT
BRANCH   4   7
ATOM      7  O   UNL d   1       2.625   1.813   2.608  0.00  0.00    -0.526 OA
ATOM      8  H5  UNL d   1       2.155   1.921   1.764  0.00  0.00     0.418 HD
ENDBRANCH   4   7
TORSDOF 1
ENDMDL
