MODEL 1
REMARK minimizedAffinity 5.98656178
REMARK minimizedRMSD -1
REMARK  1 active torsions:
REMARK  status: ('A' for Active; 'I' for Inactive)
REMARK    1  A    between atoms: C3_4  and  O_7 
ROOT
ATOM      1  C   UNL d   1       5.996  -1.551  -5.985  0.00  0.00    -0.033 A 
ATOM      2  C1  UNL d   1       5.118  -0.465  -6.000  0.00  0.00     0.039 A 
ATOM      3  C2  UNL d   1       3.739  -0.680  -5.996  0.00  0.00    -0.080 A 
ATOM      4  C3  UNL d   1       3.250  -1.983  -5.977  0.00  0.00     0.150 A 
ATOM      5  C4  UNL d   1       4.118  -3.070  -5.957  0.00  0.00    -0.007 A 
ATOM      6  C5  UNL d   1       5.496  -2.854  -5.962  0.00  0.00     0.039 A 
ENDROOT
BRANCH   4   7
ATOM      7  O   UNL d   1       1.912  -2.243  -5.977  0.00  0.00    -0.526 OA
ATOM      8  H5  UNL d   1       1.434  -1.398  -6.021  0.00  0.00     0.418 HD
ENDBRANCH   4   7
TORSDOF 1
ENDMDL
