MODEL 1
REMARK minimizedAffinity 7.91845274
REMARK minimizedRMSD -1
REMARK  1 active torsions:
REMARK  status: ('A' for Active; 'I' for Inactive)
REMARK    1  A    between atoms: C3_4  and  O_7 
ROOT
ATOM      1  C   UNL d   1      -2.240   2.734  -3.937  0.00  0.00    -0.033 A 
ATOM      2  C1  UNL d   1      -2.628   3.875  -3.233  0.00  0.00     0.039 A 
ATOM      3  C2  UNL d   1      -3.186   4.960  -3.912  0.00  0.00    -0.080 A 
ATOM      4  C3  UNL d   1      -3.351   4.890  -5.293  0.00  0.00     0.150 A 
ATOM      5  C4  UNL d   1      -2.970   3.754  -6.000  0.00  0.00    -0.007 A 
ATOM      6  C5  UNL d   1      -2.412   2.673  -5.320  0.00  0.00     0.039 A 
ENDROOT
BRANCH   4   7
ATOM      7  O   UNL d   1      -3.887   5.925  -6.000  0.00  0.00    -0.526 OA
ATOM      8  H5  UNL d   1      -4.077   6.653  -5.384  0.00  0.00     0.418 HD
ENDBRANCH   4   7
TORSDOF 1
ENDMDL
