MODEL 1
REMARK minimizedAffinity 5.44126463
REMARK minimizedRMSD -1
REMARK  1 active torsions:
REMARK  status: ('A' for Active; 'I' for Inactive)
REMARK    1  A    between atoms: C3_4  and  O_7 
ROOT
ATOM      1  C   UNL d   1      -2.184  -4.772  -4.567  0.00  0.00    -0.033 A 
ATOM      2  C1  UNL d   1      -3.107  -5.231  -5.508  0.00  0.00     0.039 A 
ATOM      3  C2  UNL d   1      -4.093  -4.373  -5.998  0.00  0.00    -0.080 A 
ATOM      4  C3  UNL d   1      -4.145  -3.059  -5.540  0.00  0.00     0.150 A 
ATOM      5  C4  UNL d   1      -3.227  -2.594  -4.605  0.00  0.00    -0.007 A 
ATOM      6  C5  UNL d   1      -2.243  -3.453  -4.116  0.00  0.00     0.039 A 
ENDROOT
BRANCH   4   7
ATOM      7  O   UNL d   1      -5.093  -2.186  -5.985  0.00  0.00    -0.526 OA
ATOM      8  H5  UNL d   1      -5.676  -2.655  -6.606  0.00  0.00     0.418 HD
ENDBRANCH   4   7
TORSDOF 1
ENDMDL
