MODEL 1
REMARK minimizedAffinity -0.150441498
REMARK minimizedRMSD -1
REMARK  1 active torsions:
REMARK  status: ('A' for Active; 'I' for Inactive)
REMARK    1  A    between atoms: C3_4  and  O_7 
ROOT
ATOM      1  C   UNL d   1      -1.520  -5.086  -4.086  0.00  0.00    -0.033 A 
ATOM      2  C1  UNL d   1      -2.275  -4.116  -3.424  0.00  0.00     0.039 A 
ATOM      3  C2  UNL d   1      -3.389  -3.550  -4.048  0.00  0.00    -0.080 A 
ATOM      4  C3  UNL d   1      -3.737  -3.963  -5.331  0.00  0.00     0.150 A 
ATOM      5  C4  UNL d   1      -2.991  -4.931  -5.995  0.00  0.00    -0.007 A 
ATOM      6  C5  UNL d   1      -1.878  -5.494  -5.371  0.00  0.00     0.039 A 
ENDROOT
BRANCH   4   7
ATOM      7  O   UNL d   1      -4.813  -3.436  -5.982  0.00  0.00    -0.526 OA
ATOM      8  H5  UNL d   1      -5.215  -2.759  -5.413  0.00  0.00     0.418 HD
ENDBRANCH   4   7
TORSDOF 1
ENDMDL
