MODEL 1
REMARK minimizedAffinity -3.68813586
REMARK minimizedRMSD -1
REMARK  1 active torsions:
REMARK  status: ('A' for Active; 'I' for Inactive)
REMARK    1  A    between atoms: C3_4  and  O_7 
ROOT
ATOM      1  C   UNL d   1      -1.688  -4.888  -5.418  0.00  0.00    -0.033 A 
ATOM      2  C1  UNL d   1      -1.547  -3.629  -4.832  0.00  0.00     0.039 A 
ATOM      3  C2  UNL d   1      -2.618  -2.733  -4.832  0.00  0.00    -0.080 A 
ATOM      4  C3  UNL d   1      -3.823  -3.109  -5.418  0.00  0.00     0.150 A 
ATOM      5  C4  UNL d   1      -3.972  -4.364  -6.000  0.00  0.00    -0.007 A 
ATOM      6  C5  UNL d   1      -2.901  -5.257  -6.000  0.00  0.00     0.039 A 
ENDROOT
BRANCH   4   7
ATOM      7  O   UNL d   1      -4.895  -2.267  -5.447  0.00  0.00    -0.526 OA
ATOM      8  H5  UNL d   1      -4.637  -1.426  -5.034  0.00  0.00     0.418 HD
ENDBRANCH   4   7
TORSDOF 1
ENDMDL
