MODEL 1
REMARK minimizedAffinity 2.74597621
REMARK minimizedRMSD -1
REMARK  1 active torsions:
REMARK  status: ('A' for Active; 'I' for Inactive)
REMARK    1  A    between atoms: C3_4  and  O_7 
ROOT
ATOM      1  C   UNL d   1      -1.667  -5.617  -4.841  0.00  0.00    -0.033 A 
ATOM      2  C1  UNL d   1      -1.700  -4.593  -3.893  0.00  0.00     0.039 A 
ATOM      3  C2  UNL d   1      -2.650  -3.574  -3.995  0.00  0.00    -0.080 A 
ATOM      4  C3  UNL d   1      -3.560  -3.592  -5.048  0.00  0.00     0.150 A 
ATOM      5  C4  UNL d   1      -3.535  -4.611  -5.995  0.00  0.00    -0.007 A 
ATOM      6  C5  UNL d   1      -2.586  -5.627  -5.892  0.00  0.00     0.039 A 
ENDROOT
BRANCH   4   7
ATOM      7  O   UNL d   1      -4.502  -2.617  -5.192  0.00  0.00    -0.526 OA
ATOM      8  H5  UNL d   1      -4.381  -1.965  -4.482  0.00  0.00     0.418 HD
ENDBRANCH   4   7
TORSDOF 1
ENDMDL
