MODEL 1
REMARK minimizedAffinity 1.15275657
REMARK minimizedRMSD -1
REMARK  1 active torsions:
REMARK  status: ('A' for Active; 'I' for Inactive)
REMARK    1  A    between atoms: C3_4  and  O_7 
ROOT
ATOM      1  C   UNL d   1      -1.867  -5.706  -4.880  0.00  0.00    -0.033 A 
ATOM      2  C1  UNL d   1      -1.870  -4.875  -3.758  0.00  0.00     0.039 A 
ATOM      3  C2  UNL d   1      -2.632  -3.705  -3.755  0.00  0.00    -0.080 A 
ATOM      4  C3  UNL d   1      -3.387  -3.379  -4.879  0.00  0.00     0.150 A 
ATOM      5  C4  UNL d   1      -3.391  -4.204  -5.999  0.00  0.00    -0.007 A 
ATOM      6  C5  UNL d   1      -2.629  -5.371  -6.000  0.00  0.00     0.039 A 
ENDROOT
BRANCH   4   7
ATOM      7  O   UNL d   1      -4.142  -2.245  -4.925  0.00  0.00    -0.526 OA
ATOM      8  H5  UNL d   1      -4.019  -1.759  -4.092  0.00  0.00     0.418 HD
ENDBRANCH   4   7
TORSDOF 1
ENDMDL
