MODEL 1
REMARK minimizedAffinity -1.28298271
REMARK minimizedRMSD -1
REMARK  1 active torsions:
REMARK  status: ('A' for Active; 'I' for Inactive)
REMARK    1  A    between atoms: C3_4  and  O_7 
ROOT
ATOM      1  C   UNL d   1      -1.920  -5.249  -4.535  0.00  0.00    -0.033 A 
ATOM      2  C1  UNL d   1      -2.032  -4.057  -3.817  0.00  0.00     0.039 A 
ATOM      3  C2  UNL d   1      -2.980  -3.102  -4.190  0.00  0.00    -0.080 A 
ATOM      4  C3  UNL d   1      -3.810  -3.353  -5.279  0.00  0.00     0.150 A 
ATOM      5  C4  UNL d   1      -3.707  -4.540  -5.996  0.00  0.00    -0.007 A 
ATOM      6  C5  UNL d   1      -2.759  -5.492  -5.623  0.00  0.00     0.039 A 
ENDROOT
BRANCH   4   7
ATOM      7  O   UNL d   1      -4.748  -2.449  -5.683  0.00  0.00    -0.526 OA
ATOM      8  H5  UNL d   1      -4.685  -1.665  -5.113  0.00  0.00     0.418 HD
ENDBRANCH   4   7
TORSDOF 1
ENDMDL
