MODEL 1
REMARK minimizedAffinity -0.0461443067
REMARK minimizedRMSD -1
REMARK  1 active torsions:
REMARK  status: ('A' for Active; 'I' for Inactive)
REMARK    1  A    between atoms: C3_4  and  O_7 
ROOT
ATOM      1  C   UNL d   1      -1.468  -4.496  -3.998  0.00  0.00    -0.033 A 
ATOM      2  C1  UNL d   1      -2.663  -4.266  -3.313  0.00  0.00     0.039 A 
ATOM      3  C2  UNL d   1      -3.885  -4.411  -3.972  0.00  0.00    -0.080 A 
ATOM      4  C3  UNL d   1      -3.899  -4.785  -5.313  0.00  0.00     0.150 A 
ATOM      5  C4  UNL d   1      -2.712  -5.019  -6.000  0.00  0.00    -0.007 A 
ATOM      6  C5  UNL d   1      -1.492  -4.874  -5.340  0.00  0.00     0.039 A 
ENDROOT
BRANCH   4   7
ATOM      7  O   UNL d   1      -5.067  -4.935  -6.000  0.00  0.00    -0.526 OA
ATOM      8  H5  UNL d   1      -5.803  -4.712  -5.406  0.00  0.00     0.418 HD
ENDBRANCH   4   7
TORSDOF 1
ENDMDL
