MODEL 1
REMARK minimizedAffinity 3.27969933
REMARK minimizedRMSD -1
REMARK  1 active torsions:
REMARK  status: ('A' for Active; 'I' for Inactive)
REMARK    1  A    between atoms: C3_4  and  O_7 
ROOT
ATOM      1  C   UNL d   1      -1.132   1.459  -3.966  0.00  0.00    -0.033 A 
ATOM      2  C1  UNL d   1      -0.889   1.723  -5.315  0.00  0.00     0.039 A 
ATOM      3  C2  UNL d   1      -1.653   2.678  -5.990  0.00  0.00    -0.080 A 
ATOM      4  C3  UNL d   1      -2.653   3.361  -5.304  0.00  0.00     0.150 A 
ATOM      5  C4  UNL d   1      -2.898   3.106  -3.959  0.00  0.00    -0.007 A 
ATOM      6  C5  UNL d   1      -2.135   2.152  -3.287  0.00  0.00     0.039 A 
ENDROOT
BRANCH   4   7
ATOM      7  O   UNL d   1      -3.428   4.298  -5.921  0.00  0.00    -0.526 OA
ATOM      8  H5  UNL d   1      -3.165   4.348  -6.855  0.00  0.00     0.418 HD
ENDBRANCH   4   7
TORSDOF 1
ENDMDL
