MODEL 1
REMARK minimizedAffinity 0.710037649
REMARK minimizedRMSD -1
REMARK  1 active torsions:
REMARK  status: ('A' for Active; 'I' for Inactive)
REMARK    1  A    between atoms: C3_4  and  O_7 
ROOT
ATOM      1  C   UNL d   1      -2.415  -5.651  -4.713  0.00  0.00    -0.033 A 
ATOM      2  C1  UNL d   1      -3.475  -5.901  -5.586  0.00  0.00     0.039 A 
ATOM      3  C2  UNL d   1      -4.304  -4.856  -5.999  0.00  0.00    -0.080 A 
ATOM      4  C3  UNL d   1      -4.062  -3.567  -5.532  0.00  0.00     0.150 A 
ATOM      5  C4  UNL d   1      -3.005  -3.310  -4.664  0.00  0.00    -0.007 A 
ATOM      6  C5  UNL d   1      -2.179  -4.355  -4.253  0.00  0.00     0.039 A 
ENDROOT
BRANCH   4   7
ATOM      7  O   UNL d   1      -4.846  -2.515  -5.902  0.00  0.00    -0.526 OA
ATOM      8  H5  UNL d   1      -5.553  -2.848  -6.480  0.00  0.00     0.418 HD
ENDBRANCH   4   7
TORSDOF 1
ENDMDL
