MODEL 1
REMARK minimizedAffinity -3.93586802
REMARK minimizedRMSD -1
REMARK  1 active torsions:
REMARK  status: ('A' for Active; 'I' for Inactive)
REMARK    1  A    between atoms: C3_4  and  O_7 
ROOT
ATOM      1  C   UNL d   1      -1.656  -5.938  -5.144  0.00  0.00    -0.033 A 
ATOM      2  C1  UNL d   1      -1.207  -4.972  -4.241  0.00  0.00     0.039 A 
ATOM      3  C2  UNL d   1      -1.821  -3.718  -4.196  0.00  0.00    -0.080 A 
ATOM      4  C3  UNL d   1      -2.881  -3.445  -5.057  0.00  0.00     0.150 A 
ATOM      5  C4  UNL d   1      -3.335  -4.404  -5.956  0.00  0.00    -0.007 A 
ATOM      6  C5  UNL d   1      -2.720  -5.655  -6.000  0.00  0.00     0.039 A 
ENDROOT
BRANCH   4   7
ATOM      7  O   UNL d   1      -3.508  -2.234  -5.052  0.00  0.00    -0.526 OA
ATOM      8  H5  UNL d   1      -3.069  -1.662  -4.401  0.00  0.00     0.418 HD
ENDBRANCH   4   7
TORSDOF 1
ENDMDL
