MODEL 1
REMARK minimizedAffinity -3.93113017
REMARK minimizedRMSD -1
REMARK  0 active torsions:
REMARK  status: ('A' for Active; 'I' for Inactive)
ROOT
ATOM      1  C2' OXE d   1      -1.806   1.812   1.175  0.00  0.00     0.078 C 
ATOM      2  C1' OXE d   1      -0.504   2.537  -1.204  0.00  0.00     0.078 C 
ATOM      3  C1  OXE d   1      -0.076   1.257  -0.529  0.00  0.00    -0.078 A 
ATOM      4  C2  OXE d   1      -0.686   0.935   0.659  0.00  0.00    -0.078 A 
ATOM      5  C3  OXE d   1      -0.368  -0.262   1.295  0.00  0.00     0.003 A 
ATOM      6  C4  OXE d   1       0.676  -1.063   0.816  0.00  0.00    -0.002 A 
ATOM      7  C5  OXE d   1       1.338  -0.732  -0.372  0.00  0.00    -0.002 A 
ATOM      8  C6  OXE d   1       0.945   0.400  -1.077  0.00  0.00     0.003 A 
ENDROOT
TORSDOF 0
ENDMDL
