MODEL 1
REMARK minimizedAffinity 0.597171664
REMARK minimizedRMSD -1
REMARK  0 active torsions:
REMARK  status: ('A' for Active; 'I' for Inactive)
ROOT
ATOM      1  C2' OXE d   1       1.015  -0.981  -0.771  0.00  0.00     0.078 C 
ATOM      2  C1' OXE d   1       0.473   1.718  -1.316  0.00  0.00     0.078 C 
ATOM      3  C1  OXE d   1      -0.100   1.127  -0.052  0.00  0.00    -0.078 A 
ATOM      4  C2  OXE d   1       0.131  -0.207   0.183  0.00  0.00    -0.078 A 
ATOM      5  C3  OXE d   1      -0.328  -0.789   1.361  0.00  0.00     0.003 A 
ATOM      6  C4  OXE d   1      -1.154  -0.068   2.233  0.00  0.00    -0.002 A 
ATOM      7  C5  OXE d   1      -1.435   1.281   1.992  0.00  0.00    -0.002 A 
ATOM      8  C6  OXE d   1      -0.882   1.904   0.878  0.00  0.00     0.003 A 
ENDROOT
TORSDOF 0
ENDMDL
