MODEL 1
REMARK minimizedAffinity -4.97796869
REMARK minimizedRMSD -1
REMARK  0 active torsions:
REMARK  status: ('A' for Active; 'I' for Inactive)
ROOT
ATOM      1  C2' OXE d   1       0.923  -0.366  -0.627  0.00  0.00     0.078 C 
ATOM      2  C1' OXE d   1       0.012   2.205  -1.293  0.00  0.00     0.078 C 
ATOM      3  C1  OXE d   1      -0.498   1.587  -0.016  0.00  0.00    -0.078 A 
ATOM      4  C2  OXE d   1      -0.084   0.311   0.279  0.00  0.00    -0.078 A 
ATOM      5  C3  OXE d   1      -0.482  -0.285   1.472  0.00  0.00     0.003 A 
ATOM      6  C4  OXE d   1      -1.421   0.343   2.300  0.00  0.00    -0.002 A 
ATOM      7  C5  OXE d   1      -1.886   1.627   1.998  0.00  0.00    -0.002 A 
ATOM      8  C6  OXE d   1      -1.403   2.279   0.869  0.00  0.00     0.003 A 
ENDROOT
TORSDOF 0
ENDMDL
