MODEL 1
REMARK minimizedAffinity -2.97290111
REMARK minimizedRMSD -1
REMARK  0 active torsions:
REMARK  status: ('A' for Active; 'I' for Inactive)
ROOT
ATOM      1  C2' OXE d   1       1.072  -0.139   0.120  0.00  0.00     0.078 C 
ATOM      2  C1' OXE d   1       1.216   1.861  -1.844  0.00  0.00     0.078 C 
ATOM      3  C1  OXE d   1      -0.150   1.462  -1.346  0.00  0.00    -0.078 A 
ATOM      4  C2  OXE d   1      -0.214   0.449  -0.418  0.00  0.00    -0.078 A 
ATOM      5  C3  OXE d   1      -1.445   0.080   0.115  0.00  0.00     0.003 A 
ATOM      6  C4  OXE d   1      -2.631   0.622  -0.395  0.00  0.00    -0.002 A 
ATOM      7  C5  OXE d   1      -2.590   1.626  -1.368  0.00  0.00    -0.002 A 
ATOM      8  C6  OXE d   1      -1.359   2.086  -1.822  0.00  0.00     0.003 A 
ENDROOT
TORSDOF 0
ENDMDL
