MODEL 1
REMARK minimizedAffinity -3.10170984
REMARK minimizedRMSD -1
REMARK  0 active torsions:
REMARK  status: ('A' for Active; 'I' for Inactive)
ROOT
ATOM      1  C2' OXE d   1       0.718  -0.280  -0.665  0.00  0.00     0.078 C 
ATOM      2  C1' OXE d   1       0.100   2.404  -1.211  0.00  0.00     0.078 C 
ATOM      3  C1  OXE d   1      -0.511   1.777   0.017  0.00  0.00    -0.078 A 
ATOM      4  C2  OXE d   1      -0.241   0.450   0.251  0.00  0.00    -0.078 A 
ATOM      5  C3  OXE d   1      -0.735  -0.162   1.399  0.00  0.00     0.003 A 
ATOM      6  C4  OXE d   1      -1.629   0.517   2.236  0.00  0.00    -0.002 A 
ATOM      7  C5  OXE d   1      -1.949   1.857   1.994  0.00  0.00    -0.002 A 
ATOM      8  C6  OXE d   1      -1.366   2.513   0.915  0.00  0.00     0.003 A 
ENDROOT
TORSDOF 0
ENDMDL
