MODEL 1
REMARK minimizedAffinity -1.43260992
REMARK minimizedRMSD -1
REMARK  0 active torsions:
REMARK  status: ('A' for Active; 'I' for Inactive)
ROOT
ATOM      1  C2' OXE d   1      -0.390  -0.789   2.281  0.00  0.00     0.078 C 
ATOM      2  C1' OXE d   1      -1.210   1.868   1.897  0.00  0.00     0.078 C 
ATOM      3  C1  OXE d   1      -0.401   1.217   0.804  0.00  0.00    -0.078 A 
ATOM      4  C2  OXE d   1       0.036  -0.068   1.020  0.00  0.00    -0.078 A 
ATOM      5  C3  OXE d   1       0.739  -0.735   0.021  0.00  0.00     0.003 A 
ATOM      6  C4  OXE d   1       1.137  -0.057  -1.138  0.00  0.00    -0.002 A 
ATOM      7  C5  OXE d   1       0.737   1.264  -1.361  0.00  0.00    -0.002 A 
ATOM      8  C6  OXE d   1      -0.067   1.900  -0.421  0.00  0.00     0.003 A 
ENDROOT
TORSDOF 0
ENDMDL
