MODEL 1
REMARK minimizedAffinity -0.919137537
REMARK minimizedRMSD -1
REMARK  0 active torsions:
REMARK  status: ('A' for Active; 'I' for Inactive)
ROOT
ATOM      1  C2' OXE d   1       0.126  -1.202   1.275  0.00  0.00     0.078 C 
ATOM      2  C1' OXE d   1       1.519  -0.913  -1.145  0.00  0.00     0.078 C 
ATOM      3  C1  OXE d   1       0.549   0.175  -0.758  0.00  0.00    -0.078 A 
ATOM      4  C2  OXE d   1      -0.163   0.003   0.405  0.00  0.00    -0.078 A 
ATOM      5  C3  OXE d   1      -1.030   1.002   0.836  0.00  0.00     0.003 A 
ATOM      6  C4  OXE d   1      -1.298   2.109   0.021  0.00  0.00    -0.002 A 
ATOM      7  C5  OXE d   1      -0.614   2.284  -1.186  0.00  0.00    -0.002 A 
ATOM      8  C6  OXE d   1       0.343   1.350  -1.568  0.00  0.00     0.003 A 
ENDROOT
TORSDOF 0
ENDMDL
