MODEL 1
REMARK minimizedAffinity -2.41485596
REMARK minimizedRMSD -1
REMARK  0 active torsions:
REMARK  status: ('A' for Active; 'I' for Inactive)
ROOT
ATOM      1  C2' OXE d   1       0.386  -1.324  -1.112  0.00  0.00     0.078 C 
ATOM      2  C1' OXE d   1       0.953   1.425  -1.178  0.00  0.00     0.078 C 
ATOM      3  C1  OXE d   1       0.218   0.887   0.024  0.00  0.00    -0.078 A 
ATOM      4  C2  OXE d   1      -0.096  -0.451   0.026  0.00  0.00    -0.078 A 
ATOM      5  C3  OXE d   1      -0.725  -1.009   1.136  0.00  0.00     0.003 A 
ATOM      6  C4  OXE d   1      -1.176  -0.193   2.180  0.00  0.00    -0.002 A 
ATOM      7  C5  OXE d   1      -0.902   1.178   2.179  0.00  0.00    -0.002 A 
ATOM      8  C6  OXE d   1      -0.170   1.726   1.131  0.00  0.00     0.003 A 
ENDROOT
TORSDOF 0
ENDMDL
