MODEL 1
REMARK minimizedAffinity -4.83763552
REMARK minimizedRMSD -1
REMARK  0 active torsions:
REMARK  status: ('A' for Active; 'I' for Inactive)
ROOT
ATOM      1  C2' OXE d   1      -0.473  -1.109   2.103  0.00  0.00     0.078 C 
ATOM      2  C1' OXE d   1       0.733  -0.942  -0.427  0.00  0.00     0.078 C 
ATOM      3  C1  OXE d   1      -0.074   0.241   0.048  0.00  0.00    -0.078 A 
ATOM      4  C2  OXE d   1      -0.699   0.132   1.266  0.00  0.00    -0.078 A 
ATOM      5  C3  OXE d   1      -1.411   1.214   1.775  0.00  0.00     0.003 A 
ATOM      6  C4  OXE d   1      -1.624   2.354   0.991  0.00  0.00    -0.002 A 
ATOM      7  C5  OXE d   1      -1.029   2.470  -0.270  0.00  0.00    -0.002 A 
ATOM      8  C6  OXE d   1      -0.218   1.442  -0.737  0.00  0.00     0.003 A 
ENDROOT
TORSDOF 0
ENDMDL
