MODEL 1
REMARK minimizedAffinity -5.14441967
REMARK minimizedRMSD -1
REMARK  0 active torsions:
REMARK  status: ('A' for Active; 'I' for Inactive)
ROOT
ATOM      1  C2' OXE d   1       0.576  -0.432  -0.514  0.00  0.00     0.078 C 
ATOM      2  C1' OXE d   1       0.060   2.189  -1.376  0.00  0.00     0.078 C 
ATOM      3  C1  OXE d   1      -0.591   1.728  -0.096  0.00  0.00    -0.078 A 
ATOM      4  C2  OXE d   1      -0.370   0.429   0.294  0.00  0.00    -0.078 A 
ATOM      5  C3  OXE d   1      -0.903  -0.030   1.495  0.00  0.00     0.003 A 
ATOM      6  C4  OXE d   1      -1.785   0.770   2.231  0.00  0.00    -0.002 A 
ATOM      7  C5  OXE d   1      -2.055   2.083   1.831  0.00  0.00    -0.002 A 
ATOM      8  C6  OXE d   1      -1.434   2.590   0.695  0.00  0.00     0.003 A 
ENDROOT
TORSDOF 0
ENDMDL
