MODEL 1
REMARK minimizedAffinity -3.5129981
REMARK minimizedRMSD -1
REMARK  0 active torsions:
REMARK  status: ('A' for Active; 'I' for Inactive)
ROOT
ATOM      1  C2' OXE d   1      -1.994   2.003   1.608  0.00  0.00     0.078 C 
ATOM      2  C1' OXE d   1      -1.099  -0.609   2.115  0.00  0.00     0.078 C 
ATOM      3  C1  OXE d   1      -0.630   0.061   0.848  0.00  0.00    -0.078 A 
ATOM      4  C2  OXE d   1      -1.110   1.322   0.585  0.00  0.00    -0.078 A 
ATOM      5  C3  OXE d   1      -0.667   2.007  -0.542  0.00  0.00     0.003 A 
ATOM      6  C4  OXE d   1       0.142   1.367  -1.489  0.00  0.00    -0.002 A 
ATOM      7  C5  OXE d   1       0.610   0.068  -1.260  0.00  0.00    -0.002 A 
ATOM      8  C6  OXE d   1       0.269  -0.581  -0.079  0.00  0.00     0.003 A 
ENDROOT
TORSDOF 0
ENDMDL
