MODEL 1
REMARK minimizedAffinity -2.30383754
REMARK minimizedRMSD -1
REMARK  0 active torsions:
REMARK  status: ('A' for Active; 'I' for Inactive)
ROOT
ATOM      1  C2' OXE d   1      -0.732  -0.322   1.853  0.00  0.00     0.078 C 
ATOM      2  C1' OXE d   1      -1.958   1.989   0.835  0.00  0.00     0.078 C 
ATOM      3  C1  OXE d   1      -0.790   1.418   0.071  0.00  0.00    -0.078 A 
ATOM      4  C2  OXE d   1      -0.167   0.314   0.601  0.00  0.00    -0.078 A 
ATOM      5  C3  OXE d   1       0.881  -0.286  -0.093  0.00  0.00     0.003 A 
ATOM      6  C4  OXE d   1       1.404   0.315  -1.244  0.00  0.00    -0.002 A 
ATOM      7  C5  OXE d   1       0.809   1.462  -1.780  0.00  0.00    -0.002 A 
ATOM      8  C6  OXE d   1      -0.313   2.001  -1.159  0.00  0.00     0.003 A 
ENDROOT
TORSDOF 0
ENDMDL
