MODEL 1
REMARK minimizedAffinity -2.23515201
REMARK minimizedRMSD -1
REMARK  0 active torsions:
REMARK  status: ('A' for Active; 'I' for Inactive)
ROOT
ATOM      1  C2' OXE d   1       0.744  -0.837   2.490  0.00  0.00     0.078 C 
ATOM      2  C1' OXE d   1       0.973  -0.956  -0.305  0.00  0.00     0.078 C 
ATOM      3  C1  OXE d   1      -0.072  -0.038   0.276  0.00  0.00    -0.078 A 
ATOM      4  C2  OXE d   1      -0.209  -0.021   1.643  0.00  0.00    -0.078 A 
ATOM      5  C3  OXE d   1      -1.120   0.850   2.234  0.00  0.00     0.003 A 
ATOM      6  C4  OXE d   1      -2.004   1.594   1.443  0.00  0.00    -0.002 A 
ATOM      7  C5  OXE d   1      -1.909   1.561   0.048  0.00  0.00    -0.002 A 
ATOM      8  C6  OXE d   1      -0.922   0.785  -0.549  0.00  0.00     0.003 A 
ENDROOT
TORSDOF 0
ENDMDL
