MODEL 1
REMARK minimizedAffinity -3.2905612
REMARK minimizedRMSD -1
REMARK  0 active torsions:
REMARK  status: ('A' for Active; 'I' for Inactive)
ROOT
ATOM      1  C2' OXE d   1      -1.451   2.884  -1.735  0.00  0.00     0.078 C 
ATOM      2  C1' OXE d   1      -2.886   1.630   0.326  0.00  0.00     0.078 C 
ATOM      3  C1  OXE d   1      -1.484   1.146   0.050  0.00  0.00    -0.078 A 
ATOM      4  C2  OXE d   1      -0.807   1.735  -0.991  0.00  0.00    -0.078 A 
ATOM      5  C3  OXE d   1       0.509   1.364  -1.254  0.00  0.00     0.003 A 
ATOM      6  C4  OXE d   1       1.094   0.293  -0.568  0.00  0.00    -0.002 A 
ATOM      7  C5  OXE d   1       0.407  -0.346   0.469  0.00  0.00    -0.002 A 
ATOM      8  C6  OXE d   1      -0.864   0.095   0.818  0.00  0.00     0.003 A 
ENDROOT
TORSDOF 0
ENDMDL
