MODEL 1
REMARK minimizedAffinity -3.50733113
REMARK minimizedRMSD -1
REMARK  0 active torsions:
REMARK  status: ('A' for Active; 'I' for Inactive)
ROOT
ATOM      1  C2' OXE d   1       0.481  -0.810   2.432  0.00  0.00     0.078 C 
ATOM      2  C1' OXE d   1       0.881  -0.682  -0.343  0.00  0.00     0.078 C 
ATOM      3  C1  OXE d   1      -0.140   0.248   0.264  0.00  0.00    -0.078 A 
ATOM      4  C2  OXE d   1      -0.362   0.146   1.616  0.00  0.00    -0.078 A 
ATOM      5  C3  OXE d   1      -1.253   1.018   2.236  0.00  0.00     0.003 A 
ATOM      6  C4  OXE d   1      -2.036   1.892   1.473  0.00  0.00    -0.002 A 
ATOM      7  C5  OXE d   1      -1.854   1.984   0.089  0.00  0.00    -0.002 A 
ATOM      8  C6  OXE d   1      -0.882   1.201  -0.524  0.00  0.00     0.003 A 
ENDROOT
TORSDOF 0
ENDMDL
