MODEL 1
REMARK minimizedAffinity -4.33273077
REMARK minimizedRMSD -1
REMARK  0 active torsions:
REMARK  status: ('A' for Active; 'I' for Inactive)
ROOT
ATOM      1  C2' OXE d   1      -1.948   1.895   1.827  0.00  0.00     0.078 C 
ATOM      2  C1' OXE d   1      -1.367  -0.825   2.212  0.00  0.00     0.078 C 
ATOM      3  C1  OXE d   1      -0.707  -0.122   1.052  0.00  0.00    -0.078 A 
ATOM      4  C2  OXE d   1      -1.034   1.197   0.843  0.00  0.00    -0.078 A 
ATOM      5  C3  OXE d   1      -0.412   1.907  -0.180  0.00  0.00     0.003 A 
ATOM      6  C4  OXE d   1       0.424   1.252  -1.091  0.00  0.00    -0.002 A 
ATOM      7  C5  OXE d   1       0.739  -0.101  -0.920  0.00  0.00    -0.002 A 
ATOM      8  C6  OXE d   1       0.216  -0.790   0.168  0.00  0.00     0.003 A 
ENDROOT
TORSDOF 0
ENDMDL
