MODEL 1
REMARK minimizedAffinity -4.5204463
REMARK minimizedRMSD -1
REMARK  0 active torsions:
REMARK  status: ('A' for Active; 'I' for Inactive)
ROOT
ATOM      1  C2' OXE d   1      -0.237   2.593  -1.364  0.00  0.00     0.078 C 
ATOM      2  C1' OXE d   1      -1.697   2.474   1.031  0.00  0.00     0.078 C 
ATOM      3  C1  OXE d   1      -0.815   1.300   0.685  0.00  0.00    -0.078 A 
ATOM      4  C2  OXE d   1      -0.141   1.346  -0.512  0.00  0.00    -0.078 A 
ATOM      5  C3  OXE d   1       0.729   0.314  -0.853  0.00  0.00     0.003 A 
ATOM      6  C4  OXE d   1       0.805  -0.839  -0.064  0.00  0.00    -0.002 A 
ATOM      7  C5  OXE d   1       0.096  -0.924   1.139  0.00  0.00    -0.002 A 
ATOM      8  C6  OXE d   1      -0.684   0.152   1.548  0.00  0.00     0.003 A 
ENDROOT
TORSDOF 0
ENDMDL
