MODEL 1
REMARK minimizedAffinity 4.13993216
REMARK minimizedRMSD -1
REMARK  1 active torsions:
REMARK  status: ('A' for Active; 'I' for Inactive)
REMARK    1  A    between atoms: C3_4  and  O_7 
ROOT
ATOM      1  C   UNL d   1      -1.985   5.131  -4.625  0.00  0.00    -0.033 A 
ATOM      2  C1  UNL d   1      -3.083   5.828  -4.117  0.00  0.00     0.039 A 
ATOM      3  C2  UNL d   1      -4.372   5.516  -4.552  0.00  0.00    -0.080 A 
ATOM      4  C3  UNL d   1      -4.550   4.504  -5.492  0.00  0.00     0.150 A 
ATOM      5  C4  UNL d   1      -3.461   3.803  -5.999  0.00  0.00    -0.007 A 
ATOM      6  C5  UNL d   1      -2.174   4.117  -5.564  0.00  0.00     0.039 A 
ENDROOT
BRANCH   4   7
ATOM      7  O   UNL d   1      -5.789   4.167  -5.950  0.00  0.00    -0.526 OA
ATOM      8  H5  UNL d   1      -6.442   4.755  -5.533  0.00  0.00     0.418 HD
ENDBRANCH   4   7
TORSDOF 1
ENDMDL
