MODEL 1
REMARK minimizedAffinity 5.23272276
REMARK minimizedRMSD -1
REMARK  1 active torsions:
REMARK  status: ('A' for Active; 'I' for Inactive)
REMARK    1  A    between atoms: C3_4  and  O_7 
ROOT
ATOM      1  C   UNL d   1      -2.325   2.256  -5.440  0.00  0.00    -0.033 A 
ATOM      2  C1  UNL d   1      -3.625   2.204  -5.949  0.00  0.00     0.039 A 
ATOM      3  C2  UNL d   1      -4.441   3.336  -5.900  0.00  0.00    -0.080 A 
ATOM      4  C3  UNL d   1      -3.946   4.512  -5.342  0.00  0.00     0.150 A 
ATOM      5  C4  UNL d   1      -2.652   4.571  -4.836  0.00  0.00    -0.007 A 
ATOM      6  C5  UNL d   1      -1.839   3.440  -4.885  0.00  0.00     0.039 A 
ENDROOT
BRANCH   4   7
ATOM      7  O   UNL d   1      -4.707   5.641  -5.268  0.00  0.00    -0.526 OA
ATOM      8  H5  UNL d   1      -5.587   5.443  -5.629  0.00  0.00     0.418 HD
ENDBRANCH   4   7
TORSDOF 1
ENDMDL
