MODEL 1
REMARK minimizedAffinity 7.0021944
REMARK minimizedRMSD -1
REMARK  1 active torsions:
REMARK  status: ('A' for Active; 'I' for Inactive)
REMARK    1  A    between atoms: C3_4  and  O_7 
ROOT
ATOM      1  C   UNL d   1       0.700   1.226   0.568  0.00  0.00    -0.033 A 
ATOM      2  C1  UNL d   1       1.543   2.142   1.200  0.00  0.00     0.039 A 
ATOM      3  C2  UNL d   1       1.635   3.452   0.723  0.00  0.00    -0.080 A 
ATOM      4  C3  UNL d   1       0.881   3.831  -0.383  0.00  0.00     0.150 A 
ATOM      5  C4  UNL d   1       0.036   2.924  -1.015  0.00  0.00    -0.007 A 
ATOM      6  C5  UNL d   1      -0.054   1.617  -0.538  0.00  0.00     0.039 A 
ENDROOT
BRANCH   4   7
ATOM      7  O   UNL d   1       0.941   5.096  -0.888  0.00  0.00    -0.526 OA
ATOM      8  H5  UNL d   1       1.587   5.604  -0.368  0.00  0.00     0.418 HD
ENDBRANCH   4   7
TORSDOF 1
ENDMDL
