MODEL 1
REMARK minimizedAffinity -2.54189229
REMARK minimizedRMSD -1
REMARK  1 active torsions:
REMARK  status: ('A' for Active; 'I' for Inactive)
REMARK    1  A    between atoms: C3_4  and  O_7 
ROOT
ATOM      1  C   UNL d   1      -4.098   2.295   0.541  0.00  0.00    -0.033 A 
ATOM      2  C1  UNL d   1      -5.476   2.457   0.692  0.00  0.00     0.039 A 
ATOM      3  C2  UNL d   1      -6.000   3.699   1.057  0.00  0.00    -0.080 A 
ATOM      4  C3  UNL d   1      -5.135   4.770   1.266  0.00  0.00     0.150 A 
ATOM      5  C4  UNL d   1      -3.761   4.617   1.114  0.00  0.00    -0.007 A 
ATOM      6  C5  UNL d   1      -3.240   3.376   0.750  0.00  0.00     0.039 A 
ENDROOT
BRANCH   4   7
ATOM      7  O   UNL d   1      -5.598   6.000   1.628  0.00  0.00    -0.526 OA
ATOM      8  H5  UNL d   1      -6.564   5.949   1.724  0.00  0.00     0.418 HD
ENDBRANCH   4   7
TORSDOF 1
ENDMDL
