MODEL 1
REMARK minimizedAffinity 9.49298
REMARK minimizedRMSD -1
REMARK  1 active torsions:
REMARK  status: ('A' for Active; 'I' for Inactive)
REMARK    1  A    between atoms: C3_4  and  O_7 
ROOT
ATOM      1  C   UNL d   1      -3.451   2.349   0.276  0.00  0.00    -0.033 A 
ATOM      2  C1  UNL d   1      -2.997   2.440  -1.041  0.00  0.00     0.039 A 
ATOM      3  C2  UNL d   1      -1.776   3.059  -1.319  0.00  0.00    -0.080 A 
ATOM      4  C3  UNL d   1      -1.020   3.580  -0.273  0.00  0.00     0.150 A 
ATOM      5  C4  UNL d   1      -1.465   3.489   1.042  0.00  0.00    -0.007 A 
ATOM      6  C5  UNL d   1      -2.685   2.872   1.318  0.00  0.00     0.039 A 
ENDROOT
BRANCH   4   7
ATOM      7  O   UNL d   1       0.175   4.196  -0.495  0.00  0.00    -0.526 OA
ATOM      8  H5  UNL d   1       0.340   4.211  -1.453  0.00  0.00     0.418 HD
ENDBRANCH   4   7
TORSDOF 1
ENDMDL
