MODEL 1
REMARK minimizedAffinity 5.06962585
REMARK minimizedRMSD -1
REMARK  1 active torsions:
REMARK  status: ('A' for Active; 'I' for Inactive)
REMARK    1  A    between atoms: C3_4  and  O_7 
ROOT
ATOM      1  C   UNL d   1      -2.345   1.549  -4.650  0.00  0.00    -0.033 A 
ATOM      2  C1  UNL d   1      -3.647   1.778  -4.203  0.00  0.00     0.039 A 
ATOM      3  C2  UNL d   1      -4.177   3.070  -4.222  0.00  0.00    -0.080 A 
ATOM      4  C3  UNL d   1      -3.395   4.122  -4.692  0.00  0.00     0.150 A 
ATOM      5  C4  UNL d   1      -2.098   3.900  -5.143  0.00  0.00    -0.007 A 
ATOM      6  C5  UNL d   1      -1.571   2.610  -5.122  0.00  0.00     0.039 A 
ENDROOT
BRANCH   4   7
ATOM      7  O   UNL d   1      -3.867   5.401  -4.725  0.00  0.00    -0.526 OA
ATOM      8  H5  UNL d   1      -4.766   5.407  -4.357  0.00  0.00     0.418 HD
ENDBRANCH   4   7
TORSDOF 1
ENDMDL
