MODEL 1
REMARK minimizedAffinity -0.675354242
REMARK minimizedRMSD -1
REMARK  1 active torsions:
REMARK  status: ('A' for Active; 'I' for Inactive)
REMARK    1  A    between atoms: C3_4  and  O_7 
ROOT
ATOM      1  C   UNL d   1      -5.845   4.941  -5.990  0.00  0.00    -0.033 A 
ATOM      2  C1  UNL d   1      -5.978   3.791  -5.210  0.00  0.00     0.039 A 
ATOM      3  C2  UNL d   1      -4.904   3.340  -4.440  0.00  0.00    -0.080 A 
ATOM      4  C3  UNL d   1      -3.705   4.047  -4.459  0.00  0.00     0.150 A 
ATOM      5  C4  UNL d   1      -3.567   5.196  -5.231  0.00  0.00    -0.007 A 
ATOM      6  C5  UNL d   1      -4.641   5.644  -6.000  0.00  0.00     0.039 A 
ENDROOT
BRANCH   4   7
ATOM      7  O   UNL d   1      -2.627   3.643  -3.728  0.00  0.00    -0.526 OA
ATOM      8  H5  UNL d   1      -2.859   2.820  -3.267  0.00  0.00     0.418 HD
ENDBRANCH   4   7
TORSDOF 1
ENDMDL
