MODEL 1
REMARK minimizedAffinity -4.23573589
REMARK minimizedRMSD -1
REMARK  1 active torsions:
REMARK  status: ('A' for Active; 'I' for Inactive)
REMARK    1  A    between atoms: C3_4  and  O_7 
ROOT
ATOM      1  C   UNL d   1      -4.968   1.875  -5.855  0.00  0.00    -0.033 A 
ATOM      2  C1  UNL d   1      -5.998   2.399  -5.072  0.00  0.00     0.039 A 
ATOM      3  C2  UNL d   1      -5.833   3.627  -4.428  0.00  0.00    -0.080 A 
ATOM      4  C3  UNL d   1      -4.635   4.320  -4.577  0.00  0.00     0.150 A 
ATOM      5  C4  UNL d   1      -3.606   3.806  -5.359  0.00  0.00    -0.007 A 
ATOM      6  C5  UNL d   1      -3.772   2.579  -6.000  0.00  0.00     0.039 A 
ENDROOT
BRANCH   4   7
ATOM      7  O   UNL d   1      -4.425   5.520  -3.964  0.00  0.00    -0.526 OA
ATOM      8  H5  UNL d   1      -5.211   5.736  -3.435  0.00  0.00     0.418 HD
ENDBRANCH   4   7
TORSDOF 1
ENDMDL
