MODEL 1
REMARK minimizedAffinity 1.17655408
REMARK minimizedRMSD -1
REMARK  1 active torsions:
REMARK  status: ('A' for Active; 'I' for Inactive)
REMARK    1  A    between atoms: C3_4  and  O_7 
ROOT
ATOM      1  C   UNL d   1      -2.229   1.352  -4.881  0.00  0.00    -0.033 A 
ATOM      2  C1  UNL d   1      -2.980   1.711  -3.760  0.00  0.00     0.039 A 
ATOM      3  C2  UNL d   1      -3.699   2.907  -3.753  0.00  0.00    -0.080 A 
ATOM      4  C3  UNL d   1      -3.661   3.734  -4.873  0.00  0.00     0.150 A 
ATOM      5  C4  UNL d   1      -2.918   3.381  -5.995  0.00  0.00    -0.007 A 
ATOM      6  C5  UNL d   1      -2.200   2.186  -5.999  0.00  0.00     0.039 A 
ENDROOT
BRANCH   4   7
ATOM      7  O   UNL d   1      -4.343   4.914  -4.911  0.00  0.00    -0.526 OA
ATOM      8  H5  UNL d   1      -4.787   5.040  -4.056  0.00  0.00     0.418 HD
ENDBRANCH   4   7
TORSDOF 1
ENDMDL
