MODEL 1
REMARK minimizedAffinity 13.4617281
REMARK minimizedRMSD -1
REMARK  1 active torsions:
REMARK  status: ('A' for Active; 'I' for Inactive)
REMARK    1  A    between atoms: C1_2  and  C2_3 
ROOT
ATOM      1  C2  UNL d   1       0.477   2.295   1.292  0.00  0.00    -0.081 A 
ATOM      2  C3  UNL d   1       0.469   3.525   0.622  0.00  0.00     0.006 A 
ATOM      3  C4  UNL d   1       1.201   4.606   1.118  0.00  0.00     0.002 A 
ATOM      4  C5  UNL d   1       1.959   4.474   2.287  0.00  0.00    -0.080 A 
ATOM      5  C6  UNL d   1       2.773   5.618   2.813  0.00  0.00     0.076 C 
ATOM      6  C7  UNL d   1       1.954   3.251   2.965  0.00  0.00     0.002 A 
ATOM      7  C8  UNL d   1       1.221   2.169   2.470  0.00  0.00     0.006 A 
ENDROOT
BRANCH   1   8
ATOM      8  C1  UNL d   1      -0.259   1.108   0.724  0.00  0.00     0.054 C 
ATOM      9  C   UNL d   1       0.704   0.002   0.317  0.00  0.00     0.018 C 
ENDBRANCH   1   8
TORSDOF 1
ENDMDL
