MODEL 1
REMARK minimizedAffinity 13.1102295
REMARK minimizedRMSD -1
REMARK  1 active torsions:
REMARK  status: ('A' for Active; 'I' for Inactive)
REMARK    1  A    between atoms: C1_2  and  C2_3 
ROOT
ATOM      1  C2  UNL d   1       0.185   2.096   0.886  0.00  0.00    -0.081 A 
ATOM      2  C3  UNL d   1       0.271   3.376   0.324  0.00  0.00     0.006 A 
ATOM      3  C4  UNL d   1       0.982   4.388   0.973  0.00  0.00     0.002 A 
ATOM      4  C5  UNL d   1       1.625   4.136   2.189  0.00  0.00    -0.080 A 
ATOM      5  C6  UNL d   1       2.418   5.206   2.881  0.00  0.00     0.076 C 
ATOM      6  C7  UNL d   1       1.525   2.863   2.760  0.00  0.00     0.002 A 
ATOM      7  C8  UNL d   1       0.813   1.850   2.112  0.00  0.00     0.006 A 
ENDROOT
BRANCH   1   8
ATOM      8  C1  UNL d   1      -0.527   0.985   0.158  0.00  0.00     0.054 C 
ATOM      9  C   UNL d   1       0.421  -0.162  -0.164  0.00  0.00     0.018 C 
ENDBRANCH   1   8
TORSDOF 1
ENDMDL
