MODEL 1
REMARK minimizedAffinity 10.805315
REMARK minimizedRMSD -1
REMARK  1 active torsions:
REMARK  status: ('A' for Active; 'I' for Inactive)
REMARK    1  A    between atoms: C1_2  and  C2_3 
ROOT
ATOM      1  C2  UNL d   1       0.498   1.609   1.761  0.00  0.00    -0.081 A 
ATOM      2  C3  UNL d   1       0.614   3.004   1.738  0.00  0.00     0.006 A 
ATOM      3  C4  UNL d   1       1.429   3.663   2.662  0.00  0.00     0.002 A 
ATOM      4  C5  UNL d   1       2.146   2.937   3.619  0.00  0.00    -0.080 A 
ATOM      5  C6  UNL d   1       3.048   3.629   4.598  0.00  0.00     0.076 C 
ATOM      6  C7  UNL d   1       2.017   1.545   3.653  0.00  0.00     0.002 A 
ATOM      7  C8  UNL d   1       1.202   0.886   2.730  0.00  0.00     0.006 A 
ENDROOT
BRANCH   1   8
ATOM      8  C1  UNL d   1      -0.329   0.892   0.725  0.00  0.00     0.054 C 
ATOM      9  C   UNL d   1       0.402  -0.329   0.182  0.00  0.00     0.018 C 
ENDBRANCH   1   8
TORSDOF 1
ENDMDL
