MODEL 1
REMARK minimizedAffinity 18.644083
REMARK minimizedRMSD -1
REMARK  1 active torsions:
REMARK  status: ('A' for Active; 'I' for Inactive)
REMARK    1  A    between atoms: C1_2  and  C2_3 
ROOT
ATOM      1  C2  UNL d   1      -4.945   2.830  -2.234  0.00  0.00    -0.081 A 
ATOM      2  C3  UNL d   1      -4.609   4.184  -2.115  0.00  0.00     0.006 A 
ATOM      3  C4  UNL d   1      -4.937   5.087  -3.129  0.00  0.00     0.002 A 
ATOM      4  C5  UNL d   1      -5.613   4.653  -4.275  0.00  0.00    -0.080 A 
ATOM      5  C6  UNL d   1      -5.998   5.618  -5.357  0.00  0.00     0.076 C 
ATOM      6  C7  UNL d   1      -5.934   3.297  -4.401  0.00  0.00     0.002 A 
ATOM      7  C8  UNL d   1      -5.605   2.394  -3.388  0.00  0.00     0.006 A 
ENDROOT
BRANCH   1   8
ATOM      8  C1  UNL d   1      -4.650   1.866  -1.114  0.00  0.00     0.054 C 
ATOM      9  C   UNL d   1      -5.683   0.749  -1.058  0.00  0.00     0.018 C 
ENDBRANCH   1   8
TORSDOF 1
ENDMDL
