MODEL 1
REMARK minimizedAffinity -1.82025087
REMARK minimizedRMSD -1
REMARK  1 active torsions:
REMARK  status: ('A' for Active; 'I' for Inactive)
REMARK    1  A    between atoms: C1_2  and  C2_3 
ROOT
ATOM      1  C2  UNL d   1       0.472   0.879   1.240  0.00  0.00    -0.081 A 
ATOM      2  C3  UNL d   1       1.105   1.866   2.004  0.00  0.00     0.006 A 
ATOM      3  C4  UNL d   1       0.510   3.119   2.176  0.00  0.00     0.002 A 
ATOM      4  C5  UNL d   1      -0.730   3.401   1.594  0.00  0.00    -0.080 A 
ATOM      5  C6  UNL d   1      -1.393   4.731   1.796  0.00  0.00     0.076 C 
ATOM      6  C7  UNL d   1      -1.355   2.421   0.816  0.00  0.00     0.002 A 
ATOM      7  C8  UNL d   1      -0.760   1.169   0.643  0.00  0.00     0.006 A 
ENDROOT
BRANCH   1   8
ATOM      8  C1  UNL d   1       1.079  -0.494   1.106  0.00  0.00     0.054 C 
ATOM      9  C   UNL d   1       0.662  -1.160  -0.197  0.00  0.00     0.018 C 
ENDBRANCH   1   8
TORSDOF 1
ENDMDL
