MODEL 1
REMARK minimizedAffinity -3.11121559
REMARK minimizedRMSD -1
REMARK  1 active torsions:
REMARK  status: ('A' for Active; 'I' for Inactive)
REMARK    1  A    between atoms: C1_2  and  C2_3 
ROOT
ATOM      1  C2  UNL d   1      -0.486   1.342   0.793  0.00  0.00    -0.081 A 
ATOM      2  C3  UNL d   1      -0.851   1.256  -0.556  0.00  0.00     0.006 A 
ATOM      3  C4  UNL d   1      -0.489   0.143  -1.319  0.00  0.00     0.002 A 
ATOM      4  C5  UNL d   1       0.237  -0.905  -0.743  0.00  0.00    -0.080 A 
ATOM      5  C6  UNL d   1       0.606  -2.119  -1.543  0.00  0.00     0.076 C 
ATOM      6  C7  UNL d   1       0.617  -0.812   0.600  0.00  0.00     0.002 A 
ATOM      7  C8  UNL d   1       0.256   0.301   1.362  0.00  0.00     0.006 A 
ENDROOT
BRANCH   1   8
ATOM      8  C1  UNL d   1      -0.930   2.511   1.634  0.00  0.00     0.054 C 
ATOM      9  C   UNL d   1      -1.209   3.737   0.776  0.00  0.00     0.018 C 
ENDBRANCH   1   8
TORSDOF 1
ENDMDL
