MODEL 1
REMARK minimizedAffinity 4.36195707
REMARK minimizedRMSD -1
REMARK  1 active torsions:
REMARK  status: ('A' for Active; 'I' for Inactive)
REMARK    1  A    between atoms: C1_2  and  C2_3 
ROOT
ATOM      1  C2  UNL d   1       1.121  -0.595  -0.212  0.00  0.00    -0.081 A 
ATOM      2  C3  UNL d   1       0.923   0.131  -1.393  0.00  0.00     0.006 A 
ATOM      3  C4  UNL d   1      -0.329   0.679  -1.686  0.00  0.00     0.002 A 
ATOM      4  C5  UNL d   1      -1.399   0.517  -0.800  0.00  0.00    -0.080 A 
ATOM      5  C6  UNL d   1      -2.740   1.125  -1.088  0.00  0.00     0.076 C 
ATOM      6  C7  UNL d   1      -1.206  -0.223   0.371  0.00  0.00     0.002 A 
ATOM      7  C8  UNL d   1       0.045  -0.772   0.664  0.00  0.00     0.006 A 
ENDROOT
BRANCH   1   8
ATOM      8  C1  UNL d   1       2.486  -1.131   0.137  0.00  0.00     0.054 C 
ATOM      9  C   UNL d   1       2.734  -1.077   1.638  0.00  0.00     0.018 C 
ENDBRANCH   1   8
TORSDOF 1
ENDMDL
