MODEL 1
REMARK minimizedAffinity -0.553580344
REMARK minimizedRMSD -1
REMARK  1 active torsions:
REMARK  status: ('A' for Active; 'I' for Inactive)
REMARK    1  A    between atoms: C1_2  and  C2_3 
ROOT
ATOM      1  C2  UNL d   1       0.506   1.792   0.564  0.00  0.00    -0.081 A 
ATOM      2  C3  UNL d   1       0.323   2.248  -0.747  0.00  0.00     0.006 A 
ATOM      3  C4  UNL d   1       0.414   3.611  -1.042  0.00  0.00     0.002 A 
ATOM      4  C5  UNL d   1       0.697   4.538  -0.033  0.00  0.00    -0.080 A 
ATOM      5  C6  UNL d   1       0.827   6.000  -0.342  0.00  0.00     0.076 C 
ATOM      6  C7  UNL d   1       0.862   4.084   1.280  0.00  0.00     0.002 A 
ATOM      7  C8  UNL d   1       0.771   2.722   1.575  0.00  0.00     0.006 A 
ENDROOT
BRANCH   1   8
ATOM      8  C1  UNL d   1       0.472   0.317   0.874  0.00  0.00     0.054 C 
ATOM      9  C   UNL d   1       0.989  -0.506  -0.297  0.00  0.00     0.018 C 
ENDBRANCH   1   8
TORSDOF 1
ENDMDL
