MODEL 1
REMARK minimizedAffinity -2.36006975
REMARK minimizedRMSD -1
REMARK  0 active torsions:
REMARK  status: ('A' for Active; 'I' for Inactive)
ROOT
ATOM      1  C2' OXE d   1      -2.993   3.017  -5.894  0.00  0.00     0.078 C 
ATOM      2  C1' OXE d   1      -2.462   5.773  -5.866  0.00  0.00     0.078 C 
ATOM      3  C1  OXE d   1      -1.286   4.830  -5.925  0.00  0.00    -0.078 A 
ATOM      4  C2  OXE d   1      -1.554   3.483  -5.891  0.00  0.00    -0.078 A 
ATOM      5  C3  OXE d   1      -0.509   2.570  -5.999  0.00  0.00     0.003 A 
ATOM      6  C4  OXE d   1       0.821   3.009  -5.985  0.00  0.00    -0.002 A 
ATOM      7  C5  OXE d   1       1.117   4.376  -5.980  0.00  0.00    -0.002 A 
ATOM      8  C6  OXE d   1       0.076   5.299  -5.993  0.00  0.00     0.003 A 
ENDROOT
TORSDOF 0
ENDMDL
