MODEL 1
REMARK minimizedAffinity -2.4785912
REMARK minimizedRMSD -1
REMARK  0 active torsions:
REMARK  status: ('A' for Active; 'I' for Inactive)
ROOT
ATOM      1  C2' OXE d   1       1.237   2.381  -5.942  0.00  0.00     0.078 C 
ATOM      2  C1' OXE d   1       1.447   5.179  -6.000  0.00  0.00     0.078 C 
ATOM      3  C1  OXE d   1       0.064   4.578  -5.976  0.00  0.00    -0.078 A 
ATOM      4  C2  OXE d   1      -0.030   3.207  -5.995  0.00  0.00    -0.078 A 
ATOM      5  C3  OXE d   1      -1.280   2.600  -5.919  0.00  0.00     0.003 A 
ATOM      6  C4  OXE d   1      -2.447   3.371  -5.978  0.00  0.00    -0.002 A 
ATOM      7  C5  OXE d   1      -2.374   4.768  -5.999  0.00  0.00    -0.002 A 
ATOM      8  C6  OXE d   1      -1.130   5.387  -5.955  0.00  0.00     0.003 A 
ENDROOT
TORSDOF 0
ENDMDL
