MODEL 1
REMARK minimizedAffinity -1.7466383
REMARK minimizedRMSD -1
REMARK  0 active torsions:
REMARK  status: ('A' for Active; 'I' for Inactive)
ROOT
ATOM      1  C2' OXE d   1       0.958   5.643  -5.976  0.00  0.00     0.078 C 
ATOM      2  C1' OXE d   1       0.608   2.858  -5.983  0.00  0.00     0.078 C 
ATOM      3  C1  OXE d   1      -0.628   3.722  -5.973  0.00  0.00    -0.078 A 
ATOM      4  C2  OXE d   1      -0.447   5.084  -5.922  0.00  0.00    -0.078 A 
ATOM      5  C3  OXE d   1      -1.553   5.928  -5.966  0.00  0.00     0.003 A 
ATOM      6  C4  OXE d   1      -2.849   5.402  -5.907  0.00  0.00    -0.002 A 
ATOM      7  C5  OXE d   1      -3.055   4.019  -5.917  0.00  0.00    -0.002 A 
ATOM      8  C6  OXE d   1      -1.959   3.167  -5.993  0.00  0.00     0.003 A 
ENDROOT
TORSDOF 0
ENDMDL
