MODEL 1
REMARK minimizedAffinity 0.839852452
REMARK minimizedRMSD -1
REMARK  0 active torsions:
REMARK  status: ('A' for Active; 'I' for Inactive)
ROOT
ATOM      1  C2' OXE d   1      -3.077   3.199  -5.987  0.00  0.00     0.078 C 
ATOM      2  C1' OXE d   1      -2.678   5.978  -5.968  0.00  0.00     0.078 C 
ATOM      3  C1  OXE d   1      -1.457   5.093  -5.976  0.00  0.00    -0.078 A 
ATOM      4  C2  OXE d   1      -1.662   3.734  -5.938  0.00  0.00    -0.078 A 
ATOM      5  C3  OXE d   1      -0.571   2.871  -5.998  0.00  0.00     0.003 A 
ATOM      6  C4  OXE d   1       0.735   3.374  -5.942  0.00  0.00    -0.002 A 
ATOM      7  C5  OXE d   1       0.965   4.754  -5.941  0.00  0.00    -0.002 A 
ATOM      8  C6  OXE d   1      -0.118   5.625  -6.000  0.00  0.00     0.003 A 
ENDROOT
TORSDOF 0
ENDMDL
