MODEL 1
REMARK minimizedAffinity -0.42792365
REMARK minimizedRMSD -1
REMARK  0 active torsions:
REMARK  status: ('A' for Active; 'I' for Inactive)
ROOT
ATOM      1  C2' OXE d   1       1.454   2.517  -5.992  0.00  0.00     0.078 C 
ATOM      2  C1' OXE d   1       2.322   5.187  -6.000  0.00  0.00     0.078 C 
ATOM      3  C1  OXE d   1       0.836   4.930  -5.956  0.00  0.00    -0.078 A 
ATOM      4  C2  OXE d   1       0.419   3.622  -6.000  0.00  0.00    -0.078 A 
ATOM      5  C3  OXE d   1      -0.938   3.327  -5.907  0.00  0.00     0.003 A 
ATOM      6  C4  OXE d   1      -1.889   4.354  -5.925  0.00  0.00    -0.002 A 
ATOM      7  C5  OXE d   1      -1.487   5.694  -5.921  0.00  0.00    -0.002 A 
ATOM      8  C6  OXE d   1      -0.131   5.999  -5.893  0.00  0.00     0.003 A 
ENDROOT
TORSDOF 0
ENDMDL
