MODEL 1
REMARK minimizedAffinity -2.89360142
REMARK minimizedRMSD -1
REMARK  0 active torsions:
REMARK  status: ('A' for Active; 'I' for Inactive)
ROOT
ATOM      1  C2' OXE d   1      -2.696   3.002  -5.990  0.00  0.00     0.078 C 
ATOM      2  C1' OXE d   1      -2.215   5.768  -5.969  0.00  0.00     0.078 C 
ATOM      3  C1  OXE d   1      -1.021   4.846  -5.976  0.00  0.00    -0.078 A 
ATOM      4  C2  OXE d   1      -1.266   3.494  -5.939  0.00  0.00    -0.078 A 
ATOM      5  C3  OXE d   1      -0.202   2.599  -5.999  0.00  0.00     0.003 A 
ATOM      6  C4  OXE d   1       1.118   3.062  -5.942  0.00  0.00    -0.002 A 
ATOM      7  C5  OXE d   1       1.390   4.434  -5.939  0.00  0.00    -0.002 A 
ATOM      8  C6  OXE d   1       0.334   5.338  -5.999  0.00  0.00     0.003 A 
ENDROOT
TORSDOF 0
ENDMDL
