MODEL 1
REMARK minimizedAffinity -1.64979672
REMARK minimizedRMSD -1
REMARK  0 active torsions:
REMARK  status: ('A' for Active; 'I' for Inactive)
ROOT
ATOM      1  C2' OXE d   1      -1.405   6.000  -5.846  0.00  0.00     0.078 C 
ATOM      2  C1' OXE d   1       1.290   5.215  -5.823  0.00  0.00     0.078 C 
ATOM      3  C1  OXE d   1       0.243   4.133  -5.902  0.00  0.00    -0.078 A 
ATOM      4  C2  OXE d   1      -1.074   4.523  -5.866  0.00  0.00    -0.078 A 
ATOM      5  C3  OXE d   1      -2.080   3.569  -5.991  0.00  0.00     0.003 A 
ATOM      6  C4  OXE d   1      -1.766   2.204  -5.999  0.00  0.00    -0.002 A 
ATOM      7  C5  OXE d   1      -0.431   1.783  -5.997  0.00  0.00    -0.002 A 
ATOM      8  C6  OXE d   1       0.583   2.734  -5.992  0.00  0.00     0.003 A 
ENDROOT
TORSDOF 0
ENDMDL
