MODEL 1
REMARK minimizedAffinity -2.6787281
REMARK minimizedRMSD -1
REMARK  0 active torsions:
REMARK  status: ('A' for Active; 'I' for Inactive)
ROOT
ATOM      1  C2' OXE d   1      -3.583   3.239  -5.987  0.00  0.00     0.078 C 
ATOM      2  C1' OXE d   1      -2.859   5.951  -5.966  0.00  0.00     0.078 C 
ATOM      3  C1  OXE d   1      -1.751   4.927  -5.975  0.00  0.00    -0.078 A 
ATOM      4  C2  OXE d   1      -2.115   3.602  -5.938  0.00  0.00    -0.078 A 
ATOM      5  C3  OXE d   1      -1.134   2.616  -6.000  0.00  0.00     0.003 A 
ATOM      6  C4  OXE d   1       0.222   2.961  -5.945  0.00  0.00    -0.002 A 
ATOM      7  C5  OXE d   1       0.614   4.304  -5.942  0.00  0.00    -0.002 A 
ATOM      8  C6  OXE d   1      -0.358   5.297  -6.000  0.00  0.00     0.003 A 
ENDROOT
TORSDOF 0
ENDMDL
