MODEL 1
REMARK minimizedAffinity 0.108724147
REMARK minimizedRMSD -1
REMARK  0 active torsions:
REMARK  status: ('A' for Active; 'I' for Inactive)
ROOT
ATOM      1  C2' OXE d   1      -3.241   3.174  -5.995  0.00  0.00     0.078 C 
ATOM      2  C1' OXE d   1      -3.245   5.981  -5.975  0.00  0.00     0.078 C 
ATOM      3  C1  OXE d   1      -1.910   5.280  -5.979  0.00  0.00    -0.078 A 
ATOM      4  C2  OXE d   1      -1.917   3.907  -5.942  0.00  0.00    -0.078 A 
ATOM      5  C3  OXE d   1      -0.714   3.209  -6.000  0.00  0.00     0.003 A 
ATOM      6  C4  OXE d   1       0.506   3.894  -5.940  0.00  0.00    -0.002 A 
ATOM      7  C5  OXE d   1       0.535   5.292  -5.938  0.00  0.00    -0.002 A 
ATOM      8  C6  OXE d   1      -0.660   5.999  -6.000  0.00  0.00     0.003 A 
ENDROOT
TORSDOF 0
ENDMDL
