MODEL 1
REMARK minimizedAffinity -0.795397699
REMARK minimizedRMSD -1
REMARK  0 active torsions:
REMARK  status: ('A' for Active; 'I' for Inactive)
ROOT
ATOM      1  C2' OXE d   1      -2.368   2.921  -5.993  0.00  0.00     0.078 C 
ATOM      2  C1' OXE d   1      -2.240   5.725  -5.989  0.00  0.00     0.078 C 
ATOM      3  C1  OXE d   1      -0.940   4.962  -5.982  0.00  0.00    -0.078 A 
ATOM      4  C2  OXE d   1      -1.012   3.590  -5.937  0.00  0.00    -0.078 A 
ATOM      5  C3  OXE d   1       0.157   2.836  -5.984  0.00  0.00     0.003 A 
ATOM      6  C4  OXE d   1       1.408   3.463  -5.922  0.00  0.00    -0.002 A 
ATOM      7  C5  OXE d   1       1.503   4.858  -5.927  0.00  0.00    -0.002 A 
ATOM      8  C6  OXE d   1       0.343   5.621  -6.000  0.00  0.00     0.003 A 
ENDROOT
TORSDOF 0
ENDMDL
