MODEL 1
REMARK minimizedAffinity -1.34270382
REMARK minimizedRMSD -1
REMARK  0 active torsions:
REMARK  status: ('A' for Active; 'I' for Inactive)
ROOT
ATOM      1  C2' OXE d   1      -3.448   3.196  -5.946  0.00  0.00     0.078 C 
ATOM      2  C1' OXE d   1      -3.129   5.985  -5.925  0.00  0.00     0.078 C 
ATOM      3  C1  OXE d   1      -1.883   5.135  -5.954  0.00  0.00    -0.078 A 
ATOM      4  C2  OXE d   1      -2.048   3.771  -5.917  0.00  0.00    -0.078 A 
ATOM      5  C3  OXE d   1      -0.934   2.940  -5.997  0.00  0.00     0.003 A 
ATOM      6  C4  OXE d   1       0.357   3.480  -5.959  0.00  0.00    -0.002 A 
ATOM      7  C5  OXE d   1       0.548   4.865  -5.957  0.00  0.00    -0.002 A 
ATOM      8  C6  OXE d   1      -0.560   5.706  -5.997  0.00  0.00     0.003 A 
ENDROOT
TORSDOF 0
ENDMDL
