MODEL 1
REMARK minimizedAffinity -1.95412517
REMARK minimizedRMSD -1
REMARK  0 active torsions:
REMARK  status: ('A' for Active; 'I' for Inactive)
ROOT
ATOM      1  C2' OXE d   1      -3.036   3.255  -5.963  0.00  0.00     0.078 C 
ATOM      2  C1' OXE d   1      -2.244   5.948  -5.942  0.00  0.00     0.078 C 
ATOM      3  C1  OXE d   1      -1.162   4.897  -5.964  0.00  0.00    -0.078 A 
ATOM      4  C2  OXE d   1      -1.558   3.581  -5.927  0.00  0.00    -0.078 A 
ATOM      5  C3  OXE d   1      -0.603   2.572  -6.000  0.00  0.00     0.003 A 
ATOM      6  C4  OXE d   1       0.762   2.882  -5.956  0.00  0.00    -0.002 A 
ATOM      7  C5  OXE d   1       1.187   4.215  -5.953  0.00  0.00    -0.002 A 
ATOM      8  C6  OXE d   1       0.240   5.232  -6.000  0.00  0.00     0.003 A 
ENDROOT
TORSDOF 0
ENDMDL
