MODEL 1
REMARK minimizedAffinity -3.19912028
REMARK minimizedRMSD -1
REMARK  0 active torsions:
REMARK  status: ('A' for Active; 'I' for Inactive)
ROOT
ATOM      1  C2' OXE d   1      -3.001   3.045  -5.994  0.00  0.00     0.078 C 
ATOM      2  C1' OXE d   1      -2.512   5.809  -5.972  0.00  0.00     0.078 C 
ATOM      3  C1  OXE d   1      -1.321   4.884  -5.978  0.00  0.00    -0.078 A 
ATOM      4  C2  OXE d   1      -1.569   3.533  -5.941  0.00  0.00    -0.078 A 
ATOM      5  C3  OXE d   1      -0.507   2.635  -6.000  0.00  0.00     0.003 A 
ATOM      6  C4  OXE d   1       0.814   3.095  -5.941  0.00  0.00    -0.002 A 
ATOM      7  C5  OXE d   1       1.089   4.467  -5.937  0.00  0.00    -0.002 A 
ATOM      8  C6  OXE d   1       0.036   5.373  -5.998  0.00  0.00     0.003 A 
ENDROOT
TORSDOF 0
ENDMDL
