MODEL 1
REMARK minimizedAffinity -1.77731252
REMARK minimizedRMSD -1
REMARK  0 active torsions:
REMARK  status: ('A' for Active; 'I' for Inactive)
ROOT
ATOM      1  C2' OXE d   1      -1.500   5.987  -5.900  0.00  0.00     0.078 C 
ATOM      2  C1' OXE d   1      -2.617   3.412  -5.916  0.00  0.00     0.078 C 
ATOM      3  C1  OXE d   1      -1.113   3.527  -5.929  0.00  0.00    -0.078 A 
ATOM      4  C2  OXE d   1      -0.576   4.791  -5.968  0.00  0.00    -0.078 A 
ATOM      5  C3  OXE d   1       0.806   4.954  -5.926  0.00  0.00     0.003 A 
ATOM      6  C4  OXE d   1       1.654   3.842  -5.999  0.00  0.00    -0.002 A 
ATOM      7  C5  OXE d   1       1.127   2.547  -6.000  0.00  0.00    -0.002 A 
ATOM      8  C6  OXE d   1      -0.251   2.371  -5.922  0.00  0.00     0.003 A 
ENDROOT
TORSDOF 0
ENDMDL
