MODEL 1
REMARK minimizedAffinity -3.52744341
REMARK minimizedRMSD -1
REMARK  0 active torsions:
REMARK  status: ('A' for Active; 'I' for Inactive)
ROOT
ATOM      1  C2' OXE d   1      -2.168   5.996  -5.948  0.00  0.00     0.078 C 
ATOM      2  C1' OXE d   1      -2.806   3.262  -5.981  0.00  0.00     0.078 C 
ATOM      3  C1  OXE d   1      -1.347   3.644  -5.968  0.00  0.00    -0.078 A 
ATOM      4  C2  OXE d   1      -1.043   4.984  -5.999  0.00  0.00    -0.078 A 
ATOM      5  C3  OXE d   1       0.286   5.392  -5.933  0.00  0.00     0.003 A 
ATOM      6  C4  OXE d   1       1.320   4.449  -5.990  0.00  0.00    -0.002 A 
ATOM      7  C5  OXE d   1       1.033   3.080  -5.999  0.00  0.00    -0.002 A 
ATOM      8  C6  OXE d   1      -0.292   2.661  -5.945  0.00  0.00     0.003 A 
ENDROOT
TORSDOF 0
ENDMDL
