MODEL 1
REMARK minimizedAffinity 5.49225521
REMARK minimizedRMSD -1
REMARK  0 active torsions:
REMARK  status: ('A' for Active; 'I' for Inactive)
ROOT
ATOM      1  C2' OXE d   1       2.352   4.491  -5.996  0.00  0.00     0.078 C 
ATOM      2  C1' OXE d   1       2.139   1.692  -5.976  0.00  0.00     0.078 C 
ATOM      3  C1  OXE d   1       0.862   2.494  -5.980  0.00  0.00    -0.078 A 
ATOM      4  C2  OXE d   1       0.976   3.863  -5.942  0.00  0.00    -0.078 A 
ATOM      5  C3  OXE d   1      -0.170   4.652  -6.000  0.00  0.00     0.003 A 
ATOM      6  C4  OXE d   1      -1.439   4.064  -5.940  0.00  0.00    -0.002 A 
ATOM      7  C5  OXE d   1      -1.577   2.671  -5.938  0.00  0.00    -0.002 A 
ATOM      8  C6  OXE d   1      -0.439   1.874  -6.000  0.00  0.00     0.003 A 
ENDROOT
TORSDOF 0
ENDMDL
