MODEL 1
REMARK minimizedAffinity 2.40584826
REMARK minimizedRMSD -1
REMARK  0 active torsions:
REMARK  status: ('A' for Active; 'I' for Inactive)
ROOT
ATOM      1  C2' OXE d   1      -0.929   5.999  -5.928  0.00  0.00     0.078 C 
ATOM      2  C1' OXE d   1      -0.895   3.192  -5.943  0.00  0.00     0.078 C 
ATOM      3  C1  OXE d   1       0.431   3.911  -5.946  0.00  0.00    -0.078 A 
ATOM      4  C2  OXE d   1       0.405   5.285  -5.986  0.00  0.00    -0.078 A 
ATOM      5  C3  OXE d   1       1.598   5.999  -5.936  0.00  0.00     0.003 A 
ATOM      6  C4  OXE d   1       2.827   5.331  -6.000  0.00  0.00    -0.002 A 
ATOM      7  C5  OXE d   1       2.876   3.933  -6.000  0.00  0.00    -0.002 A 
ATOM      8  C6  OXE d   1       1.691   3.210  -5.930  0.00  0.00     0.003 A 
ENDROOT
TORSDOF 0
ENDMDL
