MODEL 1
REMARK minimizedAffinity -1.3962307
REMARK minimizedRMSD -1
REMARK  1 active torsions:
REMARK  status: ('A' for Active; 'I' for Inactive)
REMARK    1  A    between atoms: C1_2  and  C2_3 
ROOT
ATOM      1  C2  UNL d   1       2.240   3.662   5.374  0.00  0.00    -0.076 A 
ATOM      2  C3  UNL d   1       3.493   3.414   4.787  0.00  0.00     0.004 A 
ATOM      3  C4  UNL d   1       4.219   4.440   4.185  0.00  0.00    -0.003 A 
ATOM      4  C5  UNL d   1       3.704   5.731   4.160  0.00  0.00     0.000 A 
ATOM      5  C6  UNL d   1       2.471   5.999   4.753  0.00  0.00     0.000 A 
ATOM      6  C7  UNL d   1       1.733   4.980   5.379  0.00  0.00    -0.073 A 
ATOM      7  C8  UNL d   1       0.406   5.324   5.997  0.00  0.00     0.078 C 
ENDROOT
BRANCH   1   8
ATOM      8  C1  UNL d   1       1.486   2.505   5.989  0.00  0.00     0.053 C 
ATOM      9  C   UNL d   1       1.743   1.192   5.265  0.00  0.00     0.018 C 
ENDBRANCH   1   8
TORSDOF 1
ENDMDL
