MODEL 1
REMARK minimizedAffinity -1.31448662
REMARK minimizedRMSD -1
REMARK  1 active torsions:
REMARK  status: ('A' for Active; 'I' for Inactive)
REMARK    1  A    between atoms: C1_2  and  C2_3 
ROOT
ATOM      1  C2  UNL d   1       2.963   5.039   5.259  0.00  0.00    -0.076 A 
ATOM      2  C3  UNL d   1       4.157   4.780   5.955  0.00  0.00     0.004 A 
ATOM      3  C4  UNL d   1       5.397   4.986   5.353  0.00  0.00    -0.003 A 
ATOM      4  C5  UNL d   1       5.464   5.455   4.046  0.00  0.00     0.000 A 
ATOM      5  C6  UNL d   1       4.291   5.735   3.347  0.00  0.00     0.000 A 
ATOM      6  C7  UNL d   1       3.032   5.548   3.944  0.00  0.00    -0.073 A 
ATOM      7  C8  UNL d   1       1.799   5.860   3.141  0.00  0.00     0.078 C 
ENDROOT
BRANCH   1   8
ATOM      8  C1  UNL d   1       1.647   4.771   5.953  0.00  0.00     0.053 C 
ATOM      9  C   UNL d   1       0.752   6.000   6.000  0.00  0.00     0.018 C 
ENDBRANCH   1   8
TORSDOF 1
ENDMDL
