MODEL 1
REMARK minimizedAffinity 11.0282459
REMARK minimizedRMSD -1
REMARK  1 active torsions:
REMARK  status: ('A' for Active; 'I' for Inactive)
REMARK    1  A    between atoms: C1_2  and  C2_3 
ROOT
ATOM      1  C2  UNL d   1       3.753   2.160   1.858  0.00  0.00    -0.076 A 
ATOM      2  C3  UNL d   1       2.609   1.389   1.586  0.00  0.00     0.004 A 
ATOM      3  C4  UNL d   1       2.429   0.786   0.343  0.00  0.00    -0.003 A 
ATOM      4  C5  UNL d   1       3.390   0.943  -0.649  0.00  0.00     0.000 A 
ATOM      5  C6  UNL d   1       4.540   1.689  -0.392  0.00  0.00     0.000 A 
ATOM      6  C7  UNL d   1       4.745   2.290   0.862  0.00  0.00    -0.073 A 
ATOM      7  C8  UNL d   1       6.000   3.089   1.083  0.00  0.00     0.078 C 
ENDROOT
BRANCH   1   8
ATOM      8  C1  UNL d   1       3.881   2.812   3.216  0.00  0.00     0.053 C 
ATOM      9  C   UNL d   1       3.028   2.129   4.273  0.00  0.00     0.018 C 
ENDBRANCH   1   8
TORSDOF 1
ENDMDL
