MODEL 1
REMARK minimizedAffinity 1.92267406
REMARK minimizedRMSD -1
REMARK  1 active torsions:
REMARK  status: ('A' for Active; 'I' for Inactive)
REMARK    1  A    between atoms: C1_2  and  C2_3 
ROOT
ATOM      1  C2  UNL d   1       2.041  -0.640  -0.750  0.00  0.00    -0.076 A 
ATOM      2  C3  UNL d   1       0.980  -0.612  -1.673  0.00  0.00     0.004 A 
ATOM      3  C4  UNL d   1       0.224  -1.754  -1.931  0.00  0.00    -0.003 A 
ATOM      4  C5  UNL d   1       0.515  -2.942  -1.270  0.00  0.00     0.000 A 
ATOM      5  C6  UNL d   1       1.553  -2.983  -0.339  0.00  0.00     0.000 A 
ATOM      6  C7  UNL d   1       2.314  -1.837  -0.055  0.00  0.00    -0.073 A 
ATOM      7  C8  UNL d   1       3.425  -1.940   0.954  0.00  0.00     0.078 C 
ENDROOT
BRANCH   1   8
ATOM      8  C1  UNL d   1       2.843   0.623  -0.532  0.00  0.00     0.053 C 
ATOM      9  C   UNL d   1       3.865   0.862  -1.633  0.00  0.00     0.018 C 
ENDBRANCH   1   8
TORSDOF 1
ENDMDL
