MODEL 1
REMARK minimizedAffinity -1.91239488
REMARK minimizedRMSD -1
REMARK  1 active torsions:
REMARK  status: ('A' for Active; 'I' for Inactive)
REMARK    1  A    between atoms: C1_2  and  C2_3 
ROOT
ATOM      1  C2  UNL d   1       2.229   4.812   5.018  0.00  0.00    -0.076 A 
ATOM      2  C3  UNL d   1       2.855   5.997   5.444  0.00  0.00     0.004 A 
ATOM      3  C4  UNL d   1       4.181   5.995   5.871  0.00  0.00    -0.003 A 
ATOM      4  C5  UNL d   1       4.905   4.807   5.878  0.00  0.00     0.000 A 
ATOM      5  C6  UNL d   1       4.306   3.626   5.443  0.00  0.00     0.000 A 
ATOM      6  C7  UNL d   1       2.974   3.614   4.993  0.00  0.00    -0.073 A 
ATOM      7  C8  UNL d   1       2.377   2.310   4.540  0.00  0.00     0.078 C 
ENDROOT
BRANCH   1   8
ATOM      8  C1  UNL d   1       0.780   4.871   4.591  0.00  0.00     0.053 C 
ATOM      9  C   UNL d   1      -0.031   5.856   5.419  0.00  0.00     0.018 C 
ENDBRANCH   1   8
TORSDOF 1
ENDMDL
