MODEL 1
REMARK minimizedAffinity -1.50203574
REMARK minimizedRMSD -1
REMARK  0 active torsions:
REMARK  status: ('A' for Active; 'I' for Inactive)
ROOT
ATOM      1  C   UNL d   1      -0.726   2.636   0.635  0.00  0.00     0.172 C 
ATOM      2  N   UNL d   1      -0.517   1.208   0.624  0.00  0.00    -0.070 N 
ATOM      3  C1  UNL d   1      -1.441   0.262   0.980  0.00  0.00    -0.004 A 
ATOM      4  C2  UNL d   1      -0.857  -0.977   0.832  0.00  0.00    -0.047 A 
ATOM      5  C3  UNL d   1       0.465  -0.769   0.372  0.00  0.00    -0.047 A 
ATOM      6  C4  UNL d   1       0.649   0.592   0.252  0.00  0.00    -0.004 A 
ENDROOT
TORSDOF 0
ENDMDL
