MODEL 1
REMARK minimizedAffinity -1.87080669
REMARK minimizedRMSD -1
REMARK  0 active torsions:
REMARK  status: ('A' for Active; 'I' for Inactive)
ROOT
ATOM      1  C   UNL d   1       0.396  -1.476   0.261  0.00  0.00     0.172 C 
ATOM      2  N   UNL d   1      -0.182  -2.352  -0.731  0.00  0.00    -0.070 N 
ATOM      3  C1  UNL d   1      -1.098  -3.341  -0.487  0.00  0.00    -0.004 A 
ATOM      4  C2  UNL d   1      -1.397  -3.945  -1.689  0.00  0.00    -0.047 A 
ATOM      5  C3  UNL d   1      -0.633  -3.298  -2.690  0.00  0.00    -0.047 A 
ATOM      6  C4  UNL d   1       0.110  -2.316  -2.069  0.00  0.00    -0.004 A 
ENDROOT
TORSDOF 0
ENDMDL
