MODEL 1
REMARK minimizedAffinity -3.56513524
REMARK minimizedRMSD -1
REMARK  0 active torsions:
REMARK  status: ('A' for Active; 'I' for Inactive)
ROOT
ATOM      1  C   UNL d   1       0.024  -0.980   0.265  0.00  0.00     0.172 C 
ATOM      2  N   UNL d   1       0.133   0.460   0.237  0.00  0.00    -0.070 N 
ATOM      3  C1  UNL d   1       1.244   1.169  -0.134  0.00  0.00    -0.004 A 
ATOM      4  C2  UNL d   1       0.944   2.510  -0.025  0.00  0.00    -0.047 A 
ATOM      5  C3  UNL d   1      -0.393   2.610   0.429  0.00  0.00    -0.047 A 
ATOM      6  C4  UNL d   1      -0.871   1.326   0.583  0.00  0.00    -0.004 A 
ENDROOT
TORSDOF 0
ENDMDL
