MODEL 1
REMARK minimizedAffinity -3.91170692
REMARK minimizedRMSD -1
REMARK  0 active torsions:
REMARK  status: ('A' for Active; 'I' for Inactive)
ROOT
ATOM      1  C   UNL d   1      -1.479   0.303   1.241  0.00  0.00     0.172 C 
ATOM      2  N   UNL d   1      -0.534   1.187   0.600  0.00  0.00    -0.070 N 
ATOM      3  C1  UNL d   1      -0.658   2.546   0.495  0.00  0.00    -0.004 A 
ATOM      4  C2  UNL d   1       0.446   3.020  -0.181  0.00  0.00    -0.047 A 
ATOM      5  C3  UNL d   1       1.261   1.906  -0.494  0.00  0.00    -0.047 A 
ATOM      6  C4  UNL d   1       0.630   0.784   0.001  0.00  0.00    -0.004 A 
ENDROOT
TORSDOF 0
ENDMDL
