MODEL 1
REMARK minimizedAffinity -2.6526649
REMARK minimizedRMSD -1
REMARK  0 active torsions:
REMARK  status: ('A' for Active; 'I' for Inactive)
ROOT
ATOM      1  C   UNL d   1       0.327  -1.821   0.000  0.00  0.00     0.172 C 
ATOM      2  N   UNL d   1       0.329  -0.383  -0.125  0.00  0.00    -0.070 N 
ATOM      3  C1  UNL d   1      -0.668   0.372  -0.682  0.00  0.00    -0.004 A 
ATOM      4  C2  UNL d   1      -0.287   1.695  -0.610  0.00  0.00    -0.047 A 
ATOM      5  C3  UNL d   1       0.983   1.736   0.013  0.00  0.00    -0.047 A 
ATOM      6  C4  UNL d   1       1.341   0.436   0.302  0.00  0.00    -0.004 A 
ENDROOT
TORSDOF 0
ENDMDL
