MODEL 1
REMARK minimizedAffinity -1.48601818
REMARK minimizedRMSD -1
REMARK  0 active torsions:
REMARK  status: ('A' for Active; 'I' for Inactive)
ROOT
ATOM      1  C   UNL d   1      -0.172   3.307   0.935  0.00  0.00     0.172 C 
ATOM      2  N   UNL d   1      -0.003   1.892   0.703  0.00  0.00    -0.070 N 
ATOM      3  C1  UNL d   1       1.191   1.222   0.692  0.00  0.00    -0.004 A 
ATOM      4  C2  UNL d   1       0.928  -0.107   0.437  0.00  0.00    -0.047 A 
ATOM      5  C3  UNL d   1      -0.473  -0.239   0.287  0.00  0.00    -0.047 A 
ATOM      6  C4  UNL d   1      -1.025   1.013   0.457  0.00  0.00    -0.004 A 
ENDROOT
TORSDOF 0
ENDMDL
