MODEL 1
REMARK minimizedAffinity -1.77539706
REMARK minimizedRMSD -1
REMARK  0 active torsions:
REMARK  status: ('A' for Active; 'I' for Inactive)
ROOT
ATOM      1  C   UNL d   1       0.103  -1.037  -0.300  0.00  0.00     0.172 C 
ATOM      2  N   UNL d   1       0.622   0.309  -0.249  0.00  0.00    -0.070 N 
ATOM      3  C1  UNL d   1      -0.126   1.455  -0.291  0.00  0.00    -0.004 A 
ATOM      4  C2  UNL d   1       0.737   2.527  -0.217  0.00  0.00    -0.047 A 
ATOM      5  C3  UNL d   1       2.051   2.007  -0.130  0.00  0.00    -0.047 A 
ATOM      6  C4  UNL d   1       1.950   0.632  -0.152  0.00  0.00    -0.004 A 
ENDROOT
TORSDOF 0
ENDMDL
