MODEL 1
REMARK minimizedAffinity -3.37972116
REMARK minimizedRMSD -1
REMARK  0 active torsions:
REMARK  status: ('A' for Active; 'I' for Inactive)
ROOT
ATOM      1  C   UNL d   1       0.354   3.202   0.243  0.00  0.00     0.172 C 
ATOM      2  N   UNL d   1      -0.118   1.841   0.347  0.00  0.00    -0.070 N 
ATOM      3  C1  UNL d   1       0.627   0.717   0.110  0.00  0.00    -0.004 A 
ATOM      4  C2  UNL d   1      -0.184  -0.378   0.317  0.00  0.00    -0.047 A 
ATOM      5  C3  UNL d   1      -1.461   0.105   0.690  0.00  0.00    -0.047 A 
ATOM      6  C4  UNL d   1      -1.392   1.482   0.701  0.00  0.00    -0.004 A 
ENDROOT
TORSDOF 0
ENDMDL
