MODEL 1
REMARK minimizedAffinity -1.0777142
REMARK minimizedRMSD -1
REMARK  0 active torsions:
REMARK  status: ('A' for Active; 'I' for Inactive)
ROOT
ATOM      1  C   UNL d   1       1.368   1.518  -0.460  0.00  0.00     0.172 C 
ATOM      2  N   UNL d   1       0.408   0.500  -0.104  0.00  0.00    -0.070 N 
ATOM      3  C1  UNL d   1       0.603  -0.852  -0.206  0.00  0.00    -0.004 A 
ATOM      4  C2  UNL d   1      -0.544  -1.478   0.232  0.00  0.00    -0.047 A 
ATOM      5  C3  UNL d   1      -1.460  -0.468   0.610  0.00  0.00    -0.047 A 
ATOM      6  C4  UNL d   1      -0.845   0.747   0.392  0.00  0.00    -0.004 A 
ENDROOT
TORSDOF 0
ENDMDL
