MODEL 1
REMARK minimizedAffinity -3.96555233
REMARK minimizedRMSD -1
REMARK  0 active torsions:
REMARK  status: ('A' for Active; 'I' for Inactive)
ROOT
ATOM      1  C   UNL d   1      -0.015  -0.146   0.246  0.00  0.00     0.172 C 
ATOM      2  N   UNL d   1       0.777   1.048   0.425  0.00  0.00    -0.070 N 
ATOM      3  C1  UNL d   1       2.113   1.082   0.723  0.00  0.00    -0.004 A 
ATOM      4  C2  UNL d   1       2.493   2.404   0.810  0.00  0.00    -0.047 A 
ATOM      5  C3  UNL d   1       1.345   3.192   0.556  0.00  0.00    -0.047 A 
ATOM      6  C4  UNL d   1       0.297   2.327   0.321  0.00  0.00    -0.004 A 
ENDROOT
TORSDOF 0
ENDMDL
