MODEL 1
REMARK minimizedAffinity -3.95010185
REMARK minimizedRMSD -1
REMARK  0 active torsions:
REMARK  status: ('A' for Active; 'I' for Inactive)
ROOT
ATOM      1  C   UNL d   1       0.243  -1.324   0.021  0.00  0.00     0.172 C 
ATOM      2  N   UNL d   1       0.245   0.119  -0.022  0.00  0.00    -0.070 N 
ATOM      3  C1  UNL d   1       1.334   0.908  -0.281  0.00  0.00    -0.004 A 
ATOM      4  C2  UNL d   1       0.924   2.223  -0.232  0.00  0.00    -0.047 A 
ATOM      5  C3  UNL d   1      -0.459   2.224   0.068  0.00  0.00    -0.047 A 
ATOM      6  C4  UNL d   1      -0.854   0.909   0.193  0.00  0.00    -0.004 A 
ENDROOT
TORSDOF 0
ENDMDL
