MODEL 1
REMARK minimizedAffinity -3.52933192
REMARK minimizedRMSD -1
REMARK  0 active torsions:
REMARK  status: ('A' for Active; 'I' for Inactive)
ROOT
ATOM      1  C   UNL d   1       0.354  -0.995   0.130  0.00  0.00     0.172 C 
ATOM      2  N   UNL d   1       0.047   0.415   0.180  0.00  0.00    -0.070 N 
ATOM      3  C1  UNL d   1       0.839   1.422  -0.303  0.00  0.00    -0.004 A 
ATOM      4  C2  UNL d   1       0.196   2.617  -0.064  0.00  0.00    -0.047 A 
ATOM      5  C3  UNL d   1      -1.025   2.318   0.586  0.00  0.00    -0.047 A 
ATOM      6  C4  UNL d   1      -1.091   0.948   0.725  0.00  0.00    -0.004 A 
ENDROOT
TORSDOF 0
ENDMDL
