MODEL 1
REMARK minimizedAffinity -3.02918267
REMARK minimizedRMSD -1
REMARK  0 active torsions:
REMARK  status: ('A' for Active; 'I' for Inactive)
ROOT
ATOM      1  C   UNL d   1       0.047  -0.747   0.336  0.00  0.00     0.172 C 
ATOM      2  N   UNL d   1       0.687   0.542   0.227  0.00  0.00    -0.070 N 
ATOM      3  C1  UNL d   1       1.997   0.811   0.520  0.00  0.00    -0.004 A 
ATOM      4  C2  UNL d   1       2.216   2.151   0.286  0.00  0.00    -0.047 A 
ATOM      5  C3  UNL d   1       0.995   2.708  -0.162  0.00  0.00    -0.047 A 
ATOM      6  C4  UNL d   1       0.065   1.690  -0.190  0.00  0.00    -0.004 A 
ENDROOT
TORSDOF 0
ENDMDL
