MODEL 1
REMARK minimizedAffinity -3.22470093
REMARK minimizedRMSD -1
REMARK  0 active torsions:
REMARK  status: ('A' for Active; 'I' for Inactive)
ROOT
ATOM      1  C   UNL d   1      -0.015   3.326  -0.008  0.00  0.00     0.172 C 
ATOM      2  N   UNL d   1      -0.302   1.924   0.187  0.00  0.00    -0.070 N 
ATOM      3  C1  UNL d   1       0.474   0.883  -0.247  0.00  0.00    -0.004 A 
ATOM      4  C2  UNL d   1      -0.140  -0.290   0.135  0.00  0.00    -0.047 A 
ATOM      5  C3  UNL d   1      -1.327   0.059   0.822  0.00  0.00    -0.047 A 
ATOM      6  C4  UNL d   1      -1.403   1.436   0.840  0.00  0.00    -0.004 A 
ENDROOT
TORSDOF 0
ENDMDL
