MODEL 1
REMARK minimizedAffinity -3.34242177
REMARK minimizedRMSD -1
REMARK  0 active torsions:
REMARK  status: ('A' for Active; 'I' for Inactive)
ROOT
ATOM      1  C   UNL d   1      -0.819  -0.081   0.951  0.00  0.00     0.172 C 
ATOM      2  N   UNL d   1      -0.100   1.074   0.465  0.00  0.00    -0.070 N 
ATOM      3  C1  UNL d   1      -0.567   2.361   0.459  0.00  0.00    -0.004 A 
ATOM      4  C2  UNL d   1       0.414   3.164  -0.081  0.00  0.00    -0.047 A 
ATOM      5  C3  UNL d   1       1.509   2.330  -0.411  0.00  0.00    -0.047 A 
ATOM      6  C4  UNL d   1       1.164   1.041  -0.062  0.00  0.00    -0.004 A 
ENDROOT
TORSDOF 0
ENDMDL
