MODEL 1
REMARK minimizedAffinity -2.88093209
REMARK minimizedRMSD -1
REMARK  0 active torsions:
REMARK  status: ('A' for Active; 'I' for Inactive)
ROOT
ATOM      1  C   UNL d   1      -1.350   0.105   0.535  0.00  0.00     0.172 C 
ATOM      2  N   UNL d   1      -0.365   1.103   0.188  0.00  0.00    -0.070 N 
ATOM      3  C1  UNL d   1      -0.396   2.420   0.564  0.00  0.00    -0.004 A 
ATOM      4  C2  UNL d   1       0.717   3.036   0.035  0.00  0.00    -0.047 A 
ATOM      5  C3  UNL d   1       1.442   2.056  -0.685  0.00  0.00    -0.047 A 
ATOM      6  C4  UNL d   1       0.750   0.869  -0.573  0.00  0.00    -0.004 A 
ENDROOT
TORSDOF 0
ENDMDL
