MODEL 1
REMARK minimizedAffinity 16.7791977
REMARK minimizedRMSD -1
REMARK  0 active torsions:
REMARK  status: ('A' for Active; 'I' for Inactive)
ROOT
ATOM      1  C   UNL d   1      -1.456  -2.794  -1.880  0.00  0.00     0.023 A 
ATOM      2  C1  UNL d   1      -0.937  -3.249  -3.093  0.00  0.00     0.003 A 
ATOM      3  C2  UNL d   1       0.415  -3.063  -3.389  0.00  0.00     0.048 A 
ATOM      4  C3  UNL d   1       1.243  -2.423  -2.467  0.00  0.00     0.023 A 
ATOM      5  C4  UNL d   1       0.729  -1.967  -1.252  0.00  0.00     0.048 A 
ATOM      6  C5  UNL d   1      -0.624  -2.154  -0.961  0.00  0.00     0.003 A 
ATOM      7  I   UNL d   1       3.255  -2.146  -2.906  0.00  0.00    -0.146 I 
ENDROOT
TORSDOF 0
ENDMDL
