MODEL 1
REMARK minimizedAffinity 8.49906158
REMARK minimizedRMSD -1
REMARK  0 active torsions:
REMARK  status: ('A' for Active; 'I' for Inactive)
ROOT
ATOM      1  C   UNL d   1      -1.082  -2.881   1.805  0.00  0.00     0.023 A 
ATOM      2  C1  UNL d   1      -0.394  -3.884   1.123  0.00  0.00     0.003 A 
ATOM      3  C2  UNL d   1      -0.204  -3.789  -0.257  0.00  0.00     0.048 A 
ATOM      4  C3  UNL d   1      -0.704  -2.686  -0.949  0.00  0.00     0.023 A 
ATOM      5  C4  UNL d   1      -1.392  -1.679  -0.270  0.00  0.00     0.048 A 
ATOM      6  C5  UNL d   1      -1.581  -1.780   1.109  0.00  0.00     0.003 A 
ATOM      7  I   UNL d   1      -0.422  -2.541  -3.003  0.00  0.00    -0.146 I 
ENDROOT
TORSDOF 0
ENDMDL
