MODEL 1
REMARK minimizedAffinity 11.3546171
REMARK minimizedRMSD -1
REMARK  0 active torsions:
REMARK  status: ('A' for Active; 'I' for Inactive)
ROOT
ATOM      1  C   UNL d   1      -1.227  -2.043  -1.309  0.00  0.00     0.023 A 
ATOM      2  C1  UNL d   1      -0.010  -2.363  -0.708  0.00  0.00     0.003 A 
ATOM      3  C2  UNL d   1       1.032  -2.890  -1.474  0.00  0.00     0.048 A 
ATOM      4  C3  UNL d   1       0.850  -3.094  -2.841  0.00  0.00     0.023 A 
ATOM      5  C4  UNL d   1      -0.366  -2.775  -3.447  0.00  0.00     0.048 A 
ATOM      6  C5  UNL d   1      -1.405  -2.249  -2.677  0.00  0.00     0.003 A 
ATOM      7  I   UNL d   1       2.399  -3.878  -3.983  0.00  0.00    -0.146 I 
ENDROOT
TORSDOF 0
ENDMDL
