MODEL 1
REMARK minimizedAffinity 8.00791645
REMARK minimizedRMSD -1
REMARK  0 active torsions:
REMARK  status: ('A' for Active; 'I' for Inactive)
ROOT
ATOM      1  C   UNL d   1      -4.909   5.998   0.213  0.00  0.00     0.023 A 
ATOM      2  C1  UNL d   1      -5.504   4.885  -0.380  0.00  0.00     0.003 A 
ATOM      3  C2  UNL d   1      -4.924   3.622  -0.237  0.00  0.00     0.048 A 
ATOM      4  C3  UNL d   1      -3.750   3.481   0.502  0.00  0.00     0.023 A 
ATOM      5  C4  UNL d   1      -3.152   4.592   1.098  0.00  0.00     0.048 A 
ATOM      6  C5  UNL d   1      -3.734   5.852   0.951  0.00  0.00     0.003 A 
ATOM      7  I   UNL d   1      -2.886   1.603   0.717  0.00  0.00    -0.146 I 
ENDROOT
TORSDOF 0
ENDMDL
