MODEL 1
REMARK minimizedAffinity 5.78308249
REMARK minimizedRMSD -1
REMARK  0 active torsions:
REMARK  status: ('A' for Active; 'I' for Inactive)
ROOT
ATOM      1  C   UNL d   1       0.060  -2.556  -2.338  0.00  0.00     0.023 A 
ATOM      2  C1  UNL d   1       0.358  -2.337  -0.993  0.00  0.00     0.003 A 
ATOM      3  C2  UNL d   1      -0.669  -2.283  -0.049  0.00  0.00     0.048 A 
ATOM      4  C3  UNL d   1      -1.992  -2.451  -0.457  0.00  0.00     0.023 A 
ATOM      5  C4  UNL d   1      -2.295  -2.672  -1.801  0.00  0.00     0.048 A 
ATOM      6  C5  UNL d   1      -1.264  -2.723  -2.742  0.00  0.00     0.003 A 
ATOM      7  I   UNL d   1      -3.523  -2.372   0.947  0.00  0.00    -0.146 I 
ENDROOT
TORSDOF 0
ENDMDL
