MODEL 1
REMARK minimizedAffinity 12.4049644
REMARK minimizedRMSD -1
REMARK  0 active torsions:
REMARK  status: ('A' for Active; 'I' for Inactive)
ROOT
ATOM      1  C   UNL d   1       5.690  -4.786   5.988  0.00  0.00     0.023 A 
ATOM      2  C1  UNL d   1       5.981  -3.425   5.895  0.00  0.00     0.003 A 
ATOM      3  C2  UNL d   1       5.185  -2.592   5.105  0.00  0.00     0.048 A 
ATOM      4  C3  UNL d   1       4.100  -3.127   4.412  0.00  0.00     0.023 A 
ATOM      5  C4  UNL d   1       3.804  -4.488   4.503  0.00  0.00     0.048 A 
ATOM      6  C5  UNL d   1       4.603  -5.317   5.293  0.00  0.00     0.003 A 
ATOM      7  I   UNL d   1       2.915  -1.889   3.237  0.00  0.00    -0.146 I 
ENDROOT
TORSDOF 0
ENDMDL
