MODEL 1
REMARK minimizedAffinity 2.91838551
REMARK minimizedRMSD -1
REMARK  0 active torsions:
REMARK  status: ('A' for Active; 'I' for Inactive)
ROOT
ATOM      1  C   UNL d   1       0.176  -4.385  -5.325  0.00  0.00     0.023 A 
ATOM      2  C1  UNL d   1      -0.225  -5.538  -6.000  0.00  0.00     0.003 A 
ATOM      3  C2  UNL d   1      -1.537  -6.000  -5.877  0.00  0.00     0.048 A 
ATOM      4  C3  UNL d   1      -2.443  -5.303  -5.078  0.00  0.00     0.023 A 
ATOM      5  C4  UNL d   1      -2.047  -4.149  -4.401  0.00  0.00     0.048 A 
ATOM      6  C5  UNL d   1      -0.734  -3.691  -4.526  0.00  0.00     0.003 A 
ATOM      7  I   UNL d   1      -4.397  -5.989  -4.894  0.00  0.00    -0.146 I 
ENDROOT
TORSDOF 0
ENDMDL
