MODEL 1
REMARK minimizedAffinity 9.47470188
REMARK minimizedRMSD -1
REMARK  0 active torsions:
REMARK  status: ('A' for Active; 'I' for Inactive)
ROOT
ATOM      1  C   UNL d   1      -1.138  -2.626  -1.290  0.00  0.00     0.023 A 
ATOM      2  C1  UNL d   1       0.183  -2.826  -0.890  0.00  0.00     0.003 A 
ATOM      3  C2  UNL d   1       1.165  -3.119  -1.839  0.00  0.00     0.048 A 
ATOM      4  C3  UNL d   1       0.818  -3.208  -3.187  0.00  0.00     0.023 A 
ATOM      5  C4  UNL d   1      -0.502  -3.007  -3.592  0.00  0.00     0.048 A 
ATOM      6  C5  UNL d   1      -1.480  -2.716  -2.639  0.00  0.00     0.003 A 
ATOM      7  I   UNL d   1       2.278  -3.643  -4.602  0.00  0.00    -0.146 I 
ENDROOT
TORSDOF 0
ENDMDL
