MODEL 1
REMARK minimizedAffinity 1.40000319
REMARK minimizedRMSD -1
REMARK  0 active torsions:
REMARK  status: ('A' for Active; 'I' for Inactive)
ROOT
ATOM      1  C   UNL d   1      -2.801  -0.105   6.000  0.00  0.00     0.023 A 
ATOM      2  C1  UNL d   1      -2.581   0.635   4.838  0.00  0.00     0.003 A 
ATOM      3  C2  UNL d   1      -2.192  -0.010   3.662  0.00  0.00     0.048 A 
ATOM      4  C3  UNL d   1      -2.027  -1.394   3.654  0.00  0.00     0.023 A 
ATOM      5  C4  UNL d   1      -2.247  -2.139   4.814  0.00  0.00     0.048 A 
ATOM      6  C5  UNL d   1      -2.635  -1.490   5.988  0.00  0.00     0.003 A 
ATOM      7  I   UNL d   1      -1.448  -2.356   1.905  0.00  0.00    -0.146 I 
ENDROOT
TORSDOF 0
ENDMDL
