MODEL 1
REMARK minimizedAffinity 8.62892437
REMARK minimizedRMSD -1
REMARK  0 active torsions:
REMARK  status: ('A' for Active; 'I' for Inactive)
ROOT
ATOM      1  C   UNL d   1      -0.258  -3.076  -3.360  0.00  0.00     0.023 A 
ATOM      2  C1  UNL d   1      -1.596  -3.353  -3.076  0.00  0.00     0.003 A 
ATOM      3  C2  UNL d   1      -2.105  -3.106  -1.800  0.00  0.00     0.048 A 
ATOM      4  C3  UNL d   1      -1.272  -2.582  -0.812  0.00  0.00     0.023 A 
ATOM      5  C4  UNL d   1       0.066  -2.302  -1.092  0.00  0.00     0.048 A 
ATOM      6  C5  UNL d   1       0.572  -2.552  -2.369  0.00  0.00     0.003 A 
ATOM      7  I   UNL d   1      -2.029  -2.213   1.088  0.00  0.00    -0.146 I 
ENDROOT
TORSDOF 0
ENDMDL
