MODEL 1
REMARK minimizedAffinity 4.11066961
REMARK minimizedRMSD -1
REMARK  0 active torsions:
REMARK  status: ('A' for Active; 'I' for Inactive)
ROOT
ATOM      1  C   UNL d   1      -1.105  -2.549   1.902  0.00  0.00     0.023 A 
ATOM      2  C1  UNL d   1      -0.031  -3.230   1.330  0.00  0.00     0.003 A 
ATOM      3  C2  UNL d   1       0.088  -3.308  -0.060  0.00  0.00     0.048 A 
ATOM      4  C3  UNL d   1      -0.871  -2.701  -0.870  0.00  0.00     0.023 A 
ATOM      5  C4  UNL d   1      -1.947  -2.018  -0.302  0.00  0.00     0.048 A 
ATOM      6  C5  UNL d   1      -2.062  -1.943   1.088  0.00  0.00     0.003 A 
ATOM      7  I   UNL d   1      -0.697  -2.815  -2.938  0.00  0.00    -0.146 I 
ENDROOT
TORSDOF 0
ENDMDL
