MODEL 1
REMARK minimizedAffinity 6.7921524
REMARK minimizedRMSD -1
REMARK  0 active torsions:
REMARK  status: ('A' for Active; 'I' for Inactive)
ROOT
ATOM      1  C   UNL d   1      -5.998  -5.271  -4.820  0.00  0.00     0.023 A 
ATOM      2  C1  UNL d   1      -5.623  -4.164  -4.058  0.00  0.00     0.003 A 
ATOM      3  C2  UNL d   1      -4.282  -3.781  -3.994  0.00  0.00     0.048 A 
ATOM      4  C3  UNL d   1      -3.321  -4.508  -4.695  0.00  0.00     0.023 A 
ATOM      5  C4  UNL d   1      -3.691  -5.616  -5.459  0.00  0.00     0.048 A 
ATOM      6  C5  UNL d   1      -5.033  -5.996  -5.520  0.00  0.00     0.003 A 
ATOM      7  I   UNL d   1      -1.324  -3.939  -4.602  0.00  0.00    -0.146 I 
ENDROOT
TORSDOF 0
ENDMDL
