MODEL 1
REMARK minimizedAffinity 4.30092525
REMARK minimizedRMSD -1
REMARK  0 active torsions:
REMARK  status: ('A' for Active; 'I' for Inactive)
ROOT
ATOM      1  C   UNL d   1      -0.394  -2.517  -2.867  0.00  0.00     0.023 A 
ATOM      2  C1  UNL d   1      -1.757  -2.756  -3.042  0.00  0.00     0.003 A 
ATOM      3  C2  UNL d   1      -2.637  -2.610  -1.967  0.00  0.00     0.048 A 
ATOM      4  C3  UNL d   1      -2.147  -2.223  -0.720  0.00  0.00     0.023 A 
ATOM      5  C4  UNL d   1      -0.784  -1.981  -0.541  0.00  0.00     0.048 A 
ATOM      6  C5  UNL d   1       0.092  -2.130  -1.618  0.00  0.00     0.003 A 
ATOM      7  I   UNL d   1      -3.454  -2.004   0.880  0.00  0.00    -0.146 I 
ENDROOT
TORSDOF 0
ENDMDL
