MODEL 1
REMARK minimizedAffinity 10.1802063
REMARK minimizedRMSD -1
REMARK  0 active torsions:
REMARK  status: ('A' for Active; 'I' for Inactive)
ROOT
ATOM      1  C   UNL d   1      -4.335   2.854   5.657  0.00  0.00     0.023 A 
ATOM      2  C1  UNL d   1      -5.176   1.795   5.999  0.00  0.00     0.003 A 
ATOM      3  C2  UNL d   1      -4.688   0.486   5.999  0.00  0.00     0.048 A 
ATOM      4  C3  UNL d   1      -3.358   0.244   5.657  0.00  0.00     0.023 A 
ATOM      5  C4  UNL d   1      -2.513   1.301   5.314  0.00  0.00     0.048 A 
ATOM      6  C5  UNL d   1      -3.006   2.607   5.314  0.00  0.00     0.003 A 
ATOM      7  I   UNL d   1      -2.630  -1.702   5.656  0.00  0.00    -0.146 I 
ENDROOT
TORSDOF 0
ENDMDL
