MODEL 1
REMARK minimizedAffinity 13.0892553
REMARK minimizedRMSD -1
REMARK  0 active torsions:
REMARK  status: ('A' for Active; 'I' for Inactive)
ROOT
ATOM      1  C   UNL d   1      -3.117   2.769   0.270  0.00  0.00     0.023 A 
ATOM      2  C1  UNL d   1      -3.231   4.159   0.317  0.00  0.00     0.003 A 
ATOM      3  C2  UNL d   1      -2.118   4.941   0.629  0.00  0.00     0.048 A 
ATOM      4  C3  UNL d   1      -0.893   4.328   0.892  0.00  0.00     0.023 A 
ATOM      5  C4  UNL d   1      -0.774   2.938   0.846  0.00  0.00     0.048 A 
ATOM      6  C5  UNL d   1      -1.891   2.160   0.534  0.00  0.00     0.003 A 
ATOM      7  I   UNL d   1       0.766   5.491   1.357  0.00  0.00    -0.146 I 
ENDROOT
TORSDOF 0
ENDMDL
