MODEL 1
REMARK minimizedAffinity 19.0000362
REMARK minimizedRMSD -1
REMARK  0 active torsions:
REMARK  status: ('A' for Active; 'I' for Inactive)
ROOT
ATOM      1  C   UNL d   1      -0.102  -2.222   0.680  0.00  0.00     0.023 A 
ATOM      2  C1  UNL d   1      -0.773  -1.232  -0.038  0.00  0.00     0.003 A 
ATOM      3  C2  UNL d   1      -1.073  -1.427  -1.387  0.00  0.00     0.048 A 
ATOM      4  C3  UNL d   1      -0.699  -2.616  -2.013  0.00  0.00     0.023 A 
ATOM      5  C4  UNL d   1      -0.028  -3.610  -1.299  0.00  0.00     0.048 A 
ATOM      6  C5  UNL d   1       0.270  -3.410   0.050  0.00  0.00     0.003 A 
ATOM      7  I   UNL d   1      -1.144  -2.910  -4.022  0.00  0.00    -0.146 I 
ENDROOT
TORSDOF 0
ENDMDL
