MODEL 1
REMARK minimizedAffinity 11.7720766
REMARK minimizedRMSD -1
REMARK  0 active torsions:
REMARK  status: ('A' for Active; 'I' for Inactive)
ROOT
ATOM      1  C   UNL d   1      -0.899  -1.600  -1.825  0.00  0.00     0.023 A 
ATOM      2  C1  UNL d   1      -0.407  -1.793  -0.534  0.00  0.00     0.003 A 
ATOM      3  C2  UNL d   1       0.058  -3.050  -0.143  0.00  0.00     0.048 A 
ATOM      4  C3  UNL d   1       0.029  -4.110  -1.048  0.00  0.00     0.023 A 
ATOM      5  C4  UNL d   1      -0.462  -3.922  -2.341  0.00  0.00     0.048 A 
ATOM      6  C5  UNL d   1      -0.927  -2.663  -2.727  0.00  0.00     0.003 A 
ATOM      7  I   UNL d   1       0.720  -5.983  -0.469  0.00  0.00    -0.146 I 
ENDROOT
TORSDOF 0
ENDMDL
