MODEL 1
REMARK minimizedAffinity -4.41529942
REMARK minimizedRMSD -1
REMARK  0 active torsions:
REMARK  status: ('A' for Active; 'I' for Inactive)
ROOT
ATOM      1  N1  IND d   1       1.042  -2.493  -0.315  0.00  0.00    -0.196 N 
ATOM      2  C2  IND d   1       2.020  -2.945  -1.157  0.00  0.00     0.054 A 
ATOM      3  C3  IND d   1       2.526  -1.922  -1.882  0.00  0.00    -0.031 A 
ATOM      4  C4  IND d   1       1.967   0.589  -1.778  0.00  0.00     0.051 A 
ATOM      5  C5  IND d   1       1.113   1.479  -1.190  0.00  0.00    -0.031 A 
ATOM      6  C6  IND d   1       0.174   1.083  -0.259  0.00  0.00     0.015 A 
ATOM      7  C7  IND d   1       0.062  -0.222   0.128  0.00  0.00    -0.016 A 
ATOM      8  C8  IND d   1       0.923  -1.130  -0.473  0.00  0.00    -0.047 A 
ATOM      9  C9  IND d   1       1.849  -0.740  -1.449  0.00  0.00    -0.096 A 
ATOM     10  HN1 IND d   1       0.578  -2.980   0.222  0.00  0.00     0.298 HD
ENDROOT
TORSDOF 0
ENDMDL
