MODEL 1
REMARK minimizedAffinity -3.22607899
REMARK minimizedRMSD -1
REMARK  0 active torsions:
REMARK  status: ('A' for Active; 'I' for Inactive)
ROOT
ATOM      1  N1  IND d   1       0.332  -2.152  -0.957  0.00  0.00    -0.196 N 
ATOM      2  C2  IND d   1       1.264  -2.606  -1.849  0.00  0.00     0.054 A 
ATOM      3  C3  IND d   1       1.920  -1.567  -2.413  0.00  0.00    -0.031 A 
ATOM      4  C4  IND d   1       1.698   0.955  -1.947  0.00  0.00     0.051 A 
ATOM      5  C5  IND d   1       0.955   1.858  -1.241  0.00  0.00    -0.031 A 
ATOM      6  C6  IND d   1      -0.052   1.463  -0.384  0.00  0.00     0.015 A 
ATOM      7  C7  IND d   1      -0.347   0.143  -0.193  0.00  0.00    -0.016 A 
ATOM      8  C8  IND d   1       0.400  -0.777  -0.914  0.00  0.00    -0.047 A 
ATOM      9  C9  IND d   1       1.395  -0.380  -1.817  0.00  0.00    -0.096 A 
ATOM     10  HN1 IND d   1      -0.206  -2.643  -0.500  0.00  0.00     0.298 HD
ENDROOT
TORSDOF 0
ENDMDL
