MODEL 1
REMARK minimizedAffinity -2.43436003
REMARK minimizedRMSD -1
REMARK  0 active torsions:
REMARK  status: ('A' for Active; 'I' for Inactive)
ROOT
ATOM      1  N1  IND d   1      -2.321  -0.879   1.390  0.00  0.00    -0.196 N 
ATOM      2  C2  IND d   1      -2.877   0.145   2.104  0.00  0.00     0.054 A 
ATOM      3  C3  IND d   1      -2.105   1.252   2.018  0.00  0.00    -0.031 A 
ATOM      4  C4  IND d   1       0.061   1.635   0.681  0.00  0.00     0.051 A 
ATOM      5  C5  IND d   1       0.977   0.983  -0.096  0.00  0.00    -0.031 A 
ATOM      6  C6  IND d   1       0.837  -0.350  -0.426  0.00  0.00     0.015 A 
ATOM      7  C7  IND d   1      -0.236  -1.080   0.001  0.00  0.00    -0.016 A 
ATOM      8  C8  IND d   1      -1.165  -0.423   0.796  0.00  0.00    -0.047 A 
ATOM      9  C9  IND d   1      -1.005   0.918   1.169  0.00  0.00    -0.096 A 
ATOM     10  HN1 IND d   1      -2.639  -1.675   1.324  0.00  0.00     0.298 HD
ENDROOT
TORSDOF 0
ENDMDL
