MODEL 1
REMARK minimizedAffinity -3.74130416
REMARK minimizedRMSD -1
REMARK  0 active torsions:
REMARK  status: ('A' for Active; 'I' for Inactive)
ROOT
ATOM      1  N1  IND d   1      -1.073  -0.441  -0.614  0.00  0.00    -0.196 N 
ATOM      2  C2  IND d   1      -1.167   0.013   0.672  0.00  0.00     0.054 A 
ATOM      3  C3  IND d   1      -0.013   0.610   1.046  0.00  0.00    -0.031 A 
ATOM      4  C4  IND d   1       2.123   1.042  -0.324  0.00  0.00     0.051 A 
ATOM      5  C5  IND d   1       2.697   0.779  -1.536  0.00  0.00    -0.031 A 
ATOM      6  C6  IND d   1       2.030   0.084  -2.523  0.00  0.00     0.015 A 
ATOM      7  C7  IND d   1       0.753  -0.366  -2.339  0.00  0.00    -0.016 A 
ATOM      8  C8  IND d   1       0.170  -0.107  -1.107  0.00  0.00    -0.047 A 
ATOM      9  C9  IND d   1       0.857   0.561  -0.086  0.00  0.00    -0.096 A 
ATOM     10  HN1 IND d   1      -1.686  -0.865  -1.043  0.00  0.00     0.298 HD
ENDROOT
TORSDOF 0
ENDMDL
