MODEL 1
REMARK minimizedAffinity -2.63749409
REMARK minimizedRMSD -1
REMARK  0 active torsions:
REMARK  status: ('A' for Active; 'I' for Inactive)
ROOT
ATOM      1  N1  IND d   1       0.344   1.525  -1.345  0.00  0.00    -0.196 N 
ATOM      2  C2  IND d   1       1.243   0.933  -2.188  0.00  0.00     0.054 A 
ATOM      3  C3  IND d   1       1.537  -0.315  -1.762  0.00  0.00    -0.031 A 
ATOM      4  C4  IND d   1       0.583  -1.628   0.237  0.00  0.00     0.051 A 
ATOM      5  C5  IND d   1      -0.240  -1.493   1.320  0.00  0.00    -0.031 A 
ATOM      6  C6  IND d   1      -0.926  -0.323   1.573  0.00  0.00     0.015 A 
ATOM      7  C7  IND d   1      -0.823   0.757   0.743  0.00  0.00    -0.016 A 
ATOM      8  C8  IND d   1       0.017   0.626  -0.354  0.00  0.00    -0.047 A 
ATOM      9  C9  IND d   1       0.749  -0.544  -0.592  0.00  0.00    -0.096 A 
ATOM     10  HN1 IND d   1       0.035   2.323  -1.422  0.00  0.00     0.298 HD
ENDROOT
TORSDOF 0
ENDMDL
