MODEL 1
REMARK minimizedAffinity -5.04763603
REMARK minimizedRMSD -1
REMARK  0 active torsions:
REMARK  status: ('A' for Active; 'I' for Inactive)
ROOT
ATOM      1  N1  IND d   1      -0.176  -1.220   0.987  0.00  0.00    -0.196 N 
ATOM      2  C2  IND d   1      -0.345   0.029   1.516  0.00  0.00     0.054 A 
ATOM      3  C3  IND d   1       0.161   0.965   0.683  0.00  0.00    -0.031 A 
ATOM      4  C4  IND d   1       1.219   0.681  -1.647  0.00  0.00     0.051 A 
ATOM      5  C5  IND d   1       1.623  -0.274  -2.537  0.00  0.00    -0.031 A 
ATOM      6  C6  IND d   1       1.442  -1.620  -2.295  0.00  0.00     0.015 A 
ATOM      7  C7  IND d   1       0.837  -2.063  -1.153  0.00  0.00    -0.016 A 
ATOM      8  C8  IND d   1       0.432  -1.097  -0.243  0.00  0.00    -0.047 A 
ATOM      9  C9  IND d   1       0.651   0.269  -0.464  0.00  0.00    -0.096 A 
ATOM     10  HN1 IND d   1      -0.410  -1.959   1.360  0.00  0.00     0.298 HD
ENDROOT
TORSDOF 0
ENDMDL
