MODEL 1
REMARK minimizedAffinity -3.60489535
REMARK minimizedRMSD -1
REMARK  0 active torsions:
REMARK  status: ('A' for Active; 'I' for Inactive)
ROOT
ATOM      1  N1  IND d   1       1.734   1.162  -0.476  0.00  0.00    -0.196 N 
ATOM      2  C2  IND d   1       1.194   1.217   0.779  0.00  0.00     0.054 A 
ATOM      3  C3  IND d   1       0.409   0.139   1.000  0.00  0.00    -0.031 A 
ATOM      4  C4  IND d   1      -0.052  -1.888  -0.517  0.00  0.00     0.051 A 
ATOM      5  C5  IND d   1       0.189  -2.371  -1.773  0.00  0.00    -0.031 A 
ATOM      6  C6  IND d   1       0.975  -1.688  -2.678  0.00  0.00     0.015 A 
ATOM      7  C7  IND d   1       1.562  -0.497  -2.355  0.00  0.00    -0.016 A 
ATOM      8  C8  IND d   1       1.314  -0.000  -1.084  0.00  0.00    -0.047 A 
ATOM      9  C9  IND d   1       0.482  -0.668  -0.176  0.00  0.00    -0.096 A 
ATOM     10  HN1 IND d   1       2.249   1.755  -0.827  0.00  0.00     0.298 HD
ENDROOT
TORSDOF 0
ENDMDL
