MODEL 1
REMARK minimizedAffinity -4.11025667
REMARK minimizedRMSD -1
REMARK  0 active torsions:
REMARK  status: ('A' for Active; 'I' for Inactive)
ROOT
ATOM      1  N1  IND d   1      -0.839  -0.567   0.343  0.00  0.00    -0.196 N 
ATOM      2  C2  IND d   1      -0.587   0.501   1.159  0.00  0.00     0.054 A 
ATOM      3  C3  IND d   1       0.546   1.130   0.774  0.00  0.00    -0.031 A 
ATOM      4  C4  IND d   1       2.089   0.641  -1.228  0.00  0.00     0.051 A 
ATOM      5  C5  IND d   1       2.289  -0.256  -2.239  0.00  0.00    -0.031 A 
ATOM      6  C6  IND d   1       1.439  -1.322  -2.447  0.00  0.00     0.015 A 
ATOM      7  C7  IND d   1       0.345  -1.526  -1.655  0.00  0.00    -0.016 A 
ATOM      8  C8  IND d   1       0.142  -0.621  -0.623  0.00  0.00    -0.047 A 
ATOM      9  C9  IND d   1       1.025   0.439  -0.381  0.00  0.00    -0.096 A 
ATOM     10  HN1 IND d   1      -1.498  -1.113   0.421  0.00  0.00     0.298 HD
ENDROOT
TORSDOF 0
ENDMDL
