MODEL 1
REMARK minimizedAffinity -1.8233304
REMARK minimizedRMSD -1
REMARK  0 active torsions:
REMARK  status: ('A' for Active; 'I' for Inactive)
ROOT
ATOM      1  N1  IND d   1      -0.245   0.755   1.046  0.00  0.00    -0.196 N 
ATOM      2  C2  IND d   1      -1.427   0.171   0.685  0.00  0.00     0.054 A 
ATOM      3  C3  IND d   1      -1.352  -0.301  -0.580  0.00  0.00    -0.031 A 
ATOM      4  C4  IND d   1       0.646  -0.315  -2.203  0.00  0.00     0.051 A 
ATOM      5  C5  IND d   1       1.929   0.136  -2.336  0.00  0.00    -0.031 A 
ATOM      6  C6  IND d   1       2.567   0.828  -1.327  0.00  0.00     0.015 A 
ATOM      7  C7  IND d   1       1.946   1.086  -0.138  0.00  0.00    -0.016 A 
ATOM      8  C8  IND d   1       0.641   0.636  -0.002  0.00  0.00    -0.047 A 
ATOM      9  C9  IND d   1      -0.026  -0.030  -1.038  0.00  0.00    -0.096 A 
ATOM     10  HN1 IND d   1      -0.083   1.133   1.801  0.00  0.00     0.298 HD
ENDROOT
TORSDOF 0
ENDMDL
