MODEL 1
REMARK minimizedAffinity -5.43196774
REMARK minimizedRMSD -1
REMARK  0 active torsions:
REMARK  status: ('A' for Active; 'I' for Inactive)
ROOT
ATOM      1  N1  IND d   1      -0.363  -0.859   0.463  0.00  0.00    -0.196 N 
ATOM      2  C2  IND d   1      -0.347   0.404   0.985  0.00  0.00     0.054 A 
ATOM      3  C3  IND d   1       0.487   1.196   0.274  0.00  0.00    -0.031 A 
ATOM      4  C4  IND d   1       1.847   0.656  -1.843  0.00  0.00     0.051 A 
ATOM      5  C5  IND d   1       2.184  -0.377  -2.673  0.00  0.00    -0.031 A 
ATOM      6  C6  IND d   1       1.676  -1.648  -2.498  0.00  0.00     0.015 A 
ATOM      7  C7  IND d   1       0.800  -1.932  -1.489  0.00  0.00    -0.016 A 
ATOM      8  C8  IND d   1       0.462  -0.888  -0.640  0.00  0.00    -0.047 A 
ATOM      9  C9  IND d   1       1.007   0.394  -0.787  0.00  0.00    -0.096 A 
ATOM     10  HN1 IND d   1      -0.812  -1.524   0.772  0.00  0.00     0.298 HD
ENDROOT
TORSDOF 0
ENDMDL
