MODEL 1
REMARK minimizedAffinity -3.9704082
REMARK minimizedRMSD -1
REMARK  0 active torsions:
REMARK  status: ('A' for Active; 'I' for Inactive)
ROOT
ATOM      1  N1  IND d   1      -2.853  -0.588   1.031  0.00  0.00    -0.196 N 
ATOM      2  C2  IND d   1      -3.326   0.467   1.760  0.00  0.00     0.054 A 
ATOM      3  C3  IND d   1      -2.436   1.485   1.746  0.00  0.00    -0.031 A 
ATOM      4  C4  IND d   1      -0.187   1.673   0.509  0.00  0.00     0.051 A 
ATOM      5  C5  IND d   1       0.686   0.951  -0.256  0.00  0.00    -0.031 A 
ATOM      6  C6  IND d   1       0.417  -0.347  -0.640  0.00  0.00     0.015 A 
ATOM      7  C7  IND d   1      -0.745  -0.969  -0.282  0.00  0.00    -0.016 A 
ATOM      8  C8  IND d   1      -1.631  -0.241   0.500  0.00  0.00    -0.047 A 
ATOM      9  C9  IND d   1      -1.344   1.061   0.928  0.00  0.00    -0.096 A 
ATOM     10  HN1 IND d   1      -3.252  -1.342   0.923  0.00  0.00     0.298 HD
ENDROOT
TORSDOF 0
ENDMDL
