MODEL 1
REMARK minimizedAffinity -5.68211794
REMARK minimizedRMSD -1
REMARK  0 active torsions:
REMARK  status: ('A' for Active; 'I' for Inactive)
ROOT
ATOM      1  N1  IND d   1      -0.052  -1.277   0.382  0.00  0.00    -0.196 N 
ATOM      2  C2  IND d   1      -0.241  -0.032   0.915  0.00  0.00     0.054 A 
ATOM      3  C3  IND d   1       0.343   0.906   0.136  0.00  0.00    -0.031 A 
ATOM      4  C4  IND d   1       1.573   0.634  -2.110  0.00  0.00     0.051 A 
ATOM      5  C5  IND d   1       2.028  -0.316  -2.980  0.00  0.00    -0.031 A 
ATOM      6  C6  IND d   1       1.806  -1.662  -2.771  0.00  0.00     0.015 A 
ATOM      7  C7  IND d   1       1.108  -2.109  -1.686  0.00  0.00    -0.016 A 
ATOM      8  C8  IND d   1       0.650  -1.148  -0.796  0.00  0.00    -0.047 A 
ATOM      9  C9  IND d   1       0.909   0.217  -0.980  0.00  0.00    -0.096 A 
ATOM     10  HN1 IND d   1      -0.326  -2.016   0.725  0.00  0.00     0.298 HD
ENDROOT
TORSDOF 0
ENDMDL
