MODEL 1
REMARK minimizedAffinity -3.59309602
REMARK minimizedRMSD -1
REMARK  0 active torsions:
REMARK  status: ('A' for Active; 'I' for Inactive)
ROOT
ATOM      1  N1  IND d   1       1.220  -2.909  -0.609  0.00  0.00    -0.196 N 
ATOM      2  C2  IND d   1       0.345  -2.721   0.424  0.00  0.00     0.054 A 
ATOM      3  C3  IND d   1       0.151  -1.401   0.643  0.00  0.00    -0.031 A 
ATOM      4  C4  IND d   1       1.089   0.624  -0.639  0.00  0.00     0.051 A 
ATOM      5  C5  IND d   1       1.960   0.957  -1.638  0.00  0.00    -0.031 A 
ATOM      6  C6  IND d   1       2.641  -0.000  -2.361  0.00  0.00     0.015 A 
ATOM      7  C7  IND d   1       2.467  -1.334  -2.119  0.00  0.00    -0.016 A 
ATOM      8  C8  IND d   1       1.588  -1.675  -1.101  0.00  0.00    -0.047 A 
ATOM      9  C9  IND d   1       0.926  -0.707  -0.335  0.00  0.00    -0.096 A 
ATOM     10  HN1 IND d   1       1.495  -3.669  -0.903  0.00  0.00     0.298 HD
ENDROOT
TORSDOF 0
ENDMDL
