MODEL 1
REMARK minimizedAffinity 0.667515397
REMARK minimizedRMSD -1
REMARK  0 active torsions:
REMARK  status: ('A' for Active; 'I' for Inactive)
ROOT
ATOM      1  N1  IND d   1      -0.057  -0.688  -0.022  0.00  0.00    -0.196 N 
ATOM      2  C2  IND d   1       0.938   0.223   0.202  0.00  0.00     0.054 A 
ATOM      3  C3  IND d   1       0.480   1.241   0.965  0.00  0.00    -0.031 A 
ATOM      4  C4  IND d   1      -1.837   1.565   2.041  0.00  0.00     0.051 A 
ATOM      5  C5  IND d   1      -3.087   1.015   2.092  0.00  0.00    -0.031 A 
ATOM      6  C6  IND d   1      -3.397  -0.155   1.429  0.00  0.00     0.015 A 
ATOM      7  C7  IND d   1      -2.460  -0.828   0.697  0.00  0.00    -0.016 A 
ATOM      8  C8  IND d   1      -1.191  -0.270   0.638  0.00  0.00    -0.047 A 
ATOM      9  C9  IND d   1      -0.882   0.940   1.273  0.00  0.00    -0.096 A 
ATOM     10  HN1 IND d   1       0.015  -1.402  -0.496  0.00  0.00     0.298 HD
ENDROOT
TORSDOF 0
ENDMDL
