MODEL 1
REMARK minimizedAffinity -2.48751211
REMARK minimizedRMSD -1
REMARK  0 active torsions:
REMARK  status: ('A' for Active; 'I' for Inactive)
ROOT
ATOM      1  C   UNL d   1       2.367   0.654   1.848  0.00  0.00     0.078 C 
ATOM      2  C1  UNL d   1       1.176   0.466   0.956  0.00  0.00    -0.077 A 
ATOM      3  C2  UNL d   1       0.791   1.460   0.048  0.00  0.00    -0.001 A 
ATOM      4  C3  UNL d   1      -0.325   1.276  -0.769  0.00  0.00     0.003 A 
ATOM      5  C4  UNL d   1      -1.066   0.099  -0.686  0.00  0.00    -0.005 A 
ATOM      6  C5  UNL d   1      -0.692  -0.895   0.216  0.00  0.00     0.003 A 
ATOM      7  C6  UNL d   1       0.424  -0.712   1.034  0.00  0.00    -0.001 A 
ENDROOT
TORSDOF 0
ENDMDL
