MODEL 1
REMARK minimizedAffinity -2.44220185
REMARK minimizedRMSD -1
REMARK  0 active torsions:
REMARK  status: ('A' for Active; 'I' for Inactive)
ROOT
ATOM      1  C   UNL d   1       2.957   0.375   1.734  0.00  0.00     0.078 C 
ATOM      2  C1  UNL d   1       1.629   0.228   1.054  0.00  0.00    -0.077 A 
ATOM      3  C2  UNL d   1       1.016   1.319   0.425  0.00  0.00    -0.001 A 
ATOM      4  C3  UNL d   1      -0.225   1.171  -0.196  0.00  0.00     0.003 A 
ATOM      5  C4  UNL d   1      -0.865  -0.067  -0.193  0.00  0.00    -0.005 A 
ATOM      6  C5  UNL d   1      -0.264  -1.158   0.432  0.00  0.00     0.003 A 
ATOM      7  C6  UNL d   1       0.977  -1.011   1.054  0.00  0.00    -0.001 A 
ENDROOT
TORSDOF 0
ENDMDL
