MODEL 1
REMARK minimizedAffinity -4.30795097
REMARK minimizedRMSD -1
REMARK  0 active torsions:
REMARK  status: ('A' for Active; 'I' for Inactive)
ROOT
ATOM      1  C   UNL d   1       0.963   1.087   0.450  0.00  0.00     0.078 C 
ATOM      2  C1  UNL d   1       0.126   0.623  -0.704  0.00  0.00    -0.077 A 
ATOM      3  C2  UNL d   1      -1.230   0.318  -0.535  0.00  0.00    -0.001 A 
ATOM      4  C3  UNL d   1      -1.995  -0.123  -1.616  0.00  0.00     0.003 A 
ATOM      5  C4  UNL d   1      -1.412  -0.262  -2.874  0.00  0.00    -0.005 A 
ATOM      6  C5  UNL d   1      -0.063   0.038  -3.052  0.00  0.00     0.003 A 
ATOM      7  C6  UNL d   1       0.703   0.478  -1.972  0.00  0.00    -0.001 A 
ENDROOT
TORSDOF 0
ENDMDL
