MODEL 1
REMARK minimizedAffinity -2.00155234
REMARK minimizedRMSD -1
REMARK  0 active torsions:
REMARK  status: ('A' for Active; 'I' for Inactive)
ROOT
ATOM      1  C   UNL d   1      -1.535   0.362   0.283  0.00  0.00     0.078 C 
ATOM      2  C1  UNL d   1      -2.230   0.291  -1.044  0.00  0.00    -0.077 A 
ATOM      3  C2  UNL d   1      -2.414  -0.933  -1.698  0.00  0.00    -0.001 A 
ATOM      4  C3  UNL d   1      -3.054  -0.983  -2.937  0.00  0.00     0.003 A 
ATOM      5  C4  UNL d   1      -3.515   0.189  -3.534  0.00  0.00    -0.005 A 
ATOM      6  C5  UNL d   1      -3.335   1.413  -2.892  0.00  0.00     0.003 A 
ATOM      7  C6  UNL d   1      -2.695   1.464  -1.653  0.00  0.00    -0.001 A 
ENDROOT
TORSDOF 0
ENDMDL
