MODEL 1
REMARK minimizedAffinity -3.61779141
REMARK minimizedRMSD -1
REMARK  0 active torsions:
REMARK  status: ('A' for Active; 'I' for Inactive)
ROOT
ATOM      1  C   UNL d   1       2.609   0.314   1.479  0.00  0.00     0.078 C 
ATOM      2  C1  UNL d   1       1.285   0.432   0.786  0.00  0.00    -0.077 A 
ATOM      3  C2  UNL d   1       0.975   1.555   0.009  0.00  0.00    -0.001 A 
ATOM      4  C3  UNL d   1      -0.265   1.656  -0.623  0.00  0.00     0.003 A 
ATOM      5  C4  UNL d   1      -1.207   0.639  -0.483  0.00  0.00    -0.005 A 
ATOM      6  C5  UNL d   1      -0.909  -0.481   0.291  0.00  0.00     0.003 A 
ATOM      7  C6  UNL d   1       0.331  -0.584   0.923  0.00  0.00    -0.001 A 
ENDROOT
TORSDOF 0
ENDMDL
