MODEL 1
REMARK minimizedAffinity -3.9743886
REMARK minimizedRMSD -1
REMARK  0 active torsions:
REMARK  status: ('A' for Active; 'I' for Inactive)
ROOT
ATOM      1  C   UNL d   1      -0.440  -0.040   0.037  0.00  0.00     0.078 C 
ATOM      2  C1  UNL d   1      -1.305  -0.071  -1.187  0.00  0.00    -0.077 A 
ATOM      3  C2  UNL d   1      -1.604  -1.279  -1.830  0.00  0.00    -0.001 A 
ATOM      4  C3  UNL d   1      -2.402  -1.291  -2.974  0.00  0.00     0.003 A 
ATOM      5  C4  UNL d   1      -2.909  -0.098  -3.487  0.00  0.00    -0.005 A 
ATOM      6  C5  UNL d   1      -2.615   1.109  -2.856  0.00  0.00     0.003 A 
ATOM      7  C6  UNL d   1      -1.817   1.123  -1.711  0.00  0.00    -0.001 A 
ENDROOT
TORSDOF 0
ENDMDL
