MODEL 1
REMARK minimizedAffinity -3.13350558
REMARK minimizedRMSD -1
REMARK  0 active torsions:
REMARK  status: ('A' for Active; 'I' for Inactive)
ROOT
ATOM      1  C   UNL d   1      -0.803   0.006   0.330  0.00  0.00     0.078 C 
ATOM      2  C1  UNL d   1      -1.568   0.043  -0.959  0.00  0.00    -0.077 A 
ATOM      3  C2  UNL d   1      -2.504   1.053  -1.212  0.00  0.00    -0.001 A 
ATOM      4  C3  UNL d   1      -3.217   1.070  -2.412  0.00  0.00     0.003 A 
ATOM      5  C4  UNL d   1      -3.002   0.079  -3.368  0.00  0.00    -0.005 A 
ATOM      6  C5  UNL d   1      -2.074  -0.931  -3.124  0.00  0.00     0.003 A 
ATOM      7  C6  UNL d   1      -1.361  -0.950  -1.924  0.00  0.00    -0.001 A 
ENDROOT
TORSDOF 0
ENDMDL
