MODEL 1
REMARK minimizedAffinity -3.26810074
REMARK minimizedRMSD -1
REMARK  0 active torsions:
REMARK  status: ('A' for Active; 'I' for Inactive)
ROOT
ATOM      1  C   UNL d   1      -2.991   0.749  -1.579  0.00  0.00     0.078 C 
ATOM      2  C1  UNL d   1      -1.857   0.447  -0.646  0.00  0.00    -0.077 A 
ATOM      3  C2  UNL d   1      -0.660   1.170  -0.709  0.00  0.00    -0.001 A 
ATOM      4  C3  UNL d   1       0.392   0.872   0.159  0.00  0.00     0.003 A 
ATOM      5  C4  UNL d   1       0.257  -0.151   1.096  0.00  0.00    -0.005 A 
ATOM      6  C5  UNL d   1      -0.930  -0.878   1.164  0.00  0.00     0.003 A 
ATOM      7  C6  UNL d   1      -1.982  -0.581   0.297  0.00  0.00    -0.001 A 
ENDROOT
TORSDOF 0
ENDMDL
