MODEL 1
REMARK minimizedAffinity 1.9598012
REMARK minimizedRMSD -1
REMARK  1 active torsions:
REMARK  status: ('A' for Active; 'I' for Inactive)
REMARK    1  A    between atoms: C1_2  and  C2_3 
ROOT
ATOM      1  C2  UNL d   1       0.851  -1.423   3.621  0.00  0.00    -0.081 A 
ATOM      2  C3  UNL d   1      -0.502  -1.066   3.658  0.00  0.00     0.006 A 
ATOM      3  C4  UNL d   1      -1.079  -0.363   2.597  0.00  0.00     0.002 A 
ATOM      4  C5  UNL d   1      -0.315  -0.014   1.479  0.00  0.00    -0.080 A 
ATOM      5  C6  UNL d   1      -0.929   0.714   0.319  0.00  0.00     0.076 C 
ATOM      6  C7  UNL d   1       1.042  -0.355   1.449  0.00  0.00     0.002 A 
ATOM      7  C8  UNL d   1       1.619  -1.057   2.510  0.00  0.00     0.006 A 
ENDROOT
BRANCH   1   8
ATOM      8  C1  UNL d   1       1.460  -2.237   4.734  0.00  0.00     0.054 C 
ATOM      9  C   UNL d   1       2.432  -1.405   5.559  0.00  0.00     0.018 C 
ENDBRANCH   1   8
TORSDOF 1
ENDMDL
