MODEL 1
REMARK minimizedAffinity 3.23115206
REMARK minimizedRMSD -1
REMARK  1 active torsions:
REMARK  status: ('A' for Active; 'I' for Inactive)
REMARK    1  A    between atoms: C1_2  and  C2_3 
ROOT
ATOM      1  C2  UNL d   1      -1.421  -0.197   0.875  0.00  0.00    -0.081 A 
ATOM      2  C3  UNL d   1      -0.208   0.452   1.134  0.00  0.00     0.006 A 
ATOM      3  C4  UNL d   1       0.623   0.014   2.168  0.00  0.00     0.002 A 
ATOM      4  C5  UNL d   1       0.258  -1.083   2.956  0.00  0.00    -0.080 A 
ATOM      5  C6  UNL d   1       1.155  -1.581   4.050  0.00  0.00     0.076 C 
ATOM      6  C7  UNL d   1      -0.963  -1.720   2.709  0.00  0.00     0.002 A 
ATOM      7  C8  UNL d   1      -1.794  -1.283   1.675  0.00  0.00     0.006 A 
ENDROOT
BRANCH   1   8
ATOM      8  C1  UNL d   1      -2.289   0.232  -0.281  0.00  0.00     0.054 C 
ATOM      9  C   UNL d   1      -1.979  -0.575  -1.534  0.00  0.00     0.018 C 
ENDBRANCH   1   8
TORSDOF 1
ENDMDL
