MODEL 1
REMARK minimizedAffinity 6.10053587
REMARK minimizedRMSD -1
REMARK  1 active torsions:
REMARK  status: ('A' for Active; 'I' for Inactive)
REMARK    1  A    between atoms: C1_2  and  C2_3 
ROOT
ATOM      1  C2  UNL d   1      -0.632  -0.141   1.118  0.00  0.00    -0.081 A 
ATOM      2  C3  UNL d   1       0.758  -0.298   1.059  0.00  0.00     0.006 A 
ATOM      3  C4  UNL d   1       1.472  -0.714   2.186  0.00  0.00     0.002 A 
ATOM      4  C5  UNL d   1       0.808  -0.986   3.387  0.00  0.00    -0.080 A 
ATOM      5  C6  UNL d   1       1.559  -1.462   4.594  0.00  0.00     0.076 C 
ATOM      6  C7  UNL d   1      -0.579  -0.812   3.451  0.00  0.00     0.002 A 
ATOM      7  C8  UNL d   1      -1.293  -0.396   2.325  0.00  0.00     0.006 A 
ENDROOT
BRANCH   1   8
ATOM      8  C1  UNL d   1      -1.413   0.245  -0.112  0.00  0.00     0.054 C 
ATOM      9  C   UNL d   1      -1.975  -0.981  -0.818  0.00  0.00     0.018 C 
ENDBRANCH   1   8
TORSDOF 1
ENDMDL
