MODEL 1
REMARK minimizedAffinity 9.77172947
REMARK minimizedRMSD -1
REMARK  1 active torsions:
REMARK  status: ('A' for Active; 'I' for Inactive)
REMARK    1  A    between atoms: C1_2  and  C2_3 
ROOT
ATOM      1  C2  UNL d   1       0.492  -1.048   3.157  0.00  0.00    -0.081 A 
ATOM      2  C3  UNL d   1      -0.653  -1.708   2.695  0.00  0.00     0.006 A 
ATOM      3  C4  UNL d   1      -1.486  -1.102   1.751  0.00  0.00     0.002 A 
ATOM      4  C5  UNL d   1      -1.185   0.168   1.249  0.00  0.00    -0.080 A 
ATOM      5  C6  UNL d   1      -2.054   0.817   0.213  0.00  0.00     0.076 C 
ATOM      6  C7  UNL d   1      -0.050   0.834   1.724  0.00  0.00     0.002 A 
ATOM      7  C8  UNL d   1       0.783   0.230   2.668  0.00  0.00     0.006 A 
ENDROOT
BRANCH   1   8
ATOM      8  C1  UNL d   1       1.428  -1.726   4.126  0.00  0.00     0.054 C 
ATOM      9  C   UNL d   1       1.373  -1.069   5.498  0.00  0.00     0.018 C 
ENDBRANCH   1   8
TORSDOF 1
ENDMDL
