MODEL 1
REMARK minimizedAffinity -0.069773823
REMARK minimizedRMSD -1
REMARK  1 active torsions:
REMARK  status: ('A' for Active; 'I' for Inactive)
REMARK    1  A    between atoms: C1_2  and  C2_3 
ROOT
ATOM      1  C2  UNL d   1      -0.448  -0.611   2.900  0.00  0.00    -0.081 A 
ATOM      2  C3  UNL d   1       0.637  -1.074   2.146  0.00  0.00     0.006 A 
ATOM      3  C4  UNL d   1       1.874  -1.308   2.753  0.00  0.00     0.002 A 
ATOM      4  C5  UNL d   1       2.043  -1.090   4.125  0.00  0.00    -0.080 A 
ATOM      5  C6  UNL d   1       3.356  -1.366   4.795  0.00  0.00     0.076 C 
ATOM      6  C7  UNL d   1       0.964  -0.611   4.875  0.00  0.00     0.002 A 
ATOM      7  C8  UNL d   1      -0.272  -0.376   4.268  0.00  0.00     0.006 A 
ENDROOT
BRANCH   1   8
ATOM      8  C1  UNL d   1      -1.799  -0.420   2.261  0.00  0.00     0.054 C 
ATOM      9  C   UNL d   1      -2.870  -1.229   2.979  0.00  0.00     0.018 C 
ENDBRANCH   1   8
TORSDOF 1
ENDMDL
