MODEL 1
REMARK minimizedAffinity 6.2935524
REMARK minimizedRMSD -1
REMARK  1 active torsions:
REMARK  status: ('A' for Active; 'I' for Inactive)
REMARK    1  A    between atoms: C1_2  and  C2_3 
ROOT
ATOM      1  C2  UNL d   1      -0.196  -0.703   2.742  0.00  0.00    -0.081 A 
ATOM      2  C3  UNL d   1      -1.546  -1.058   2.630  0.00  0.00     0.006 A 
ATOM      3  C4  UNL d   1      -2.349  -0.488   1.639  0.00  0.00     0.002 A 
ATOM      4  C5  UNL d   1      -1.814   0.440   0.739  0.00  0.00    -0.080 A 
ATOM      5  C6  UNL d   1      -2.656   1.036  -0.349  0.00  0.00     0.076 C 
ATOM      6  C7  UNL d   1      -0.469   0.807   0.861  0.00  0.00     0.002 A 
ATOM      7  C8  UNL d   1       0.333   0.238   1.853  0.00  0.00     0.006 A 
ENDROOT
BRANCH   1   8
ATOM      8  C1  UNL d   1       0.687  -1.364   3.768  0.00  0.00     0.054 C 
ATOM      9  C   UNL d   1       2.136  -1.411   3.304  0.00  0.00     0.018 C 
ENDBRANCH   1   8
TORSDOF 1
ENDMDL
