MODEL 1
REMARK minimizedAffinity -1.08923721
REMARK minimizedRMSD -1
REMARK  2 active torsions:
REMARK  status: ('A' for Active; 'I' for Inactive)
REMARK    1  A    between atoms: C1_2  and  C2_3 
REMARK    2  A    between atoms: C2_3  and  C3_4 
ROOT
ATOM      1  C3  UNL d   1       0.360  -5.780  -3.896  0.00  0.00    -0.075 A 
ATOM      2  C4  UNL d   1      -0.019  -5.989  -5.230  0.00  0.00     0.002 A 
ATOM      3  C5  UNL d   1      -1.367  -5.999  -5.590  0.00  0.00     0.002 A 
ATOM      4  C6  UNL d   1      -2.351  -5.810  -4.622  0.00  0.00    -0.004 A 
ATOM      5  C7  UNL d   1      -1.986  -5.619  -3.291  0.00  0.00     0.002 A 
ATOM      6  C8  UNL d   1      -0.638  -5.604  -2.929  0.00  0.00     0.002 A 
ENDROOT
BRANCH   1   7
ATOM      7  C2  UNL d   1       1.818  -5.739  -3.505  0.00  0.00     0.056 C 
BRANCH   7   8
ATOM      8  C1  UNL d   1       2.728  -5.092  -4.555  0.00  0.00     0.007 C 
ATOM      9  C   UNL d   1       2.989  -5.989  -5.758  0.00  0.00     0.009 C 
ENDBRANCH   7   8
ENDBRANCH   1   7
TORSDOF 2
ENDMDL
