MODEL 1
REMARK minimizedAffinity -1.88314962
REMARK minimizedRMSD -1
REMARK  2 active torsions:
REMARK  status: ('A' for Active; 'I' for Inactive)
REMARK    1  A    between atoms: C1_2  and  C2_3 
REMARK    2  A    between atoms: C2_3  and  C3_4 
ROOT
ATOM      1  C3  UNL d   1      -1.162  -5.983  -4.243  0.00  0.00    -0.075 A 
ATOM      2  C4  UNL d   1      -0.409  -5.984  -3.061  0.00  0.00     0.002 A 
ATOM      3  C5  UNL d   1      -1.042  -5.997  -1.817  0.00  0.00     0.002 A 
ATOM      4  C6  UNL d   1      -2.433  -5.999  -1.741  0.00  0.00    -0.004 A 
ATOM      5  C7  UNL d   1      -3.192  -5.982  -2.909  0.00  0.00     0.002 A 
ATOM      6  C8  UNL d   1      -2.561  -5.973  -4.155  0.00  0.00     0.002 A 
ENDROOT
BRANCH   1   7
ATOM      7  C2  UNL d   1      -0.483  -5.999  -5.592  0.00  0.00     0.056 C 
BRANCH   7   8
ATOM      8  C1  UNL d   1       0.799  -5.162  -5.654  0.00  0.00     0.007 C 
ATOM      9  C   UNL d   1       2.051  -5.997  -5.889  0.00  0.00     0.009 C 
ENDBRANCH   7   8
ENDBRANCH   1   7
TORSDOF 2
ENDMDL
