MODEL 1
REMARK minimizedAffinity 1.55194855
REMARK minimizedRMSD -1
REMARK  2 active torsions:
REMARK  status: ('A' for Active; 'I' for Inactive)
REMARK    1  A    between atoms: C1_2  and  C2_3 
REMARK    2  A    between atoms: C2_3  and  C3_4 
ROOT
ATOM      1  C3  UNL d   1      -0.369  -5.908  -3.396  0.00  0.00    -0.075 A 
ATOM      2  C4  UNL d   1      -0.864  -5.737  -4.697  0.00  0.00     0.002 A 
ATOM      3  C5  UNL d   1       0.008  -5.682  -5.785  0.00  0.00     0.002 A 
ATOM      4  C6  UNL d   1       1.383  -5.786  -5.585  0.00  0.00    -0.004 A 
ATOM      5  C7  UNL d   1       1.887  -5.940  -4.296  0.00  0.00     0.002 A 
ATOM      6  C8  UNL d   1       1.017  -6.000  -3.206  0.00  0.00     0.002 A 
ENDROOT
BRANCH   1   7
ATOM      7  C2  UNL d   1      -1.308  -5.999  -2.217  0.00  0.00     0.056 C 
BRANCH   7   8
ATOM      8  C1  UNL d   1      -2.792  -5.999  -2.601  0.00  0.00     0.007 C 
ATOM      9  C   UNL d   1      -3.724  -5.940  -1.398  0.00  0.00     0.009 C 
ENDBRANCH   7   8
ENDBRANCH   1   7
TORSDOF 2
ENDMDL
