MODEL 1
REMARK minimizedAffinity 9.02007389
REMARK minimizedRMSD -1
REMARK  2 active torsions:
REMARK  status: ('A' for Active; 'I' for Inactive)
REMARK    1  A    between atoms: C1_2  and  C2_3 
REMARK    2  A    between atoms: C2_3  and  C3_4 
ROOT
ATOM      1  C3  UNL d   1      -0.160  -0.289   0.762  0.00  0.00    -0.075 A 
ATOM      2  C4  UNL d   1       1.079  -0.909   0.980  0.00  0.00     0.002 A 
ATOM      3  C5  UNL d   1       1.169  -2.298   1.076  0.00  0.00     0.002 A 
ATOM      4  C6  UNL d   1       0.023  -3.082   0.967  0.00  0.00    -0.004 A 
ATOM      5  C7  UNL d   1      -1.215  -2.476   0.767  0.00  0.00     0.002 A 
ATOM      6  C8  UNL d   1      -1.308  -1.087   0.666  0.00  0.00     0.002 A 
ENDROOT
BRANCH   1   7
ATOM      7  C2  UNL d   1      -0.260   1.212   0.628  0.00  0.00     0.056 C 
BRANCH   7   8
ATOM      8  C1  UNL d   1       1.007   1.874   0.077  0.00  0.00     0.007 C 
ATOM      9  C   UNL d   1       1.118   3.350   0.437  0.00  0.00     0.009 C 
ENDBRANCH   7   8
ENDBRANCH   1   7
TORSDOF 2
ENDMDL
