MODEL 1
REMARK minimizedAffinity 6.48092842
REMARK minimizedRMSD -1
REMARK  2 active torsions:
REMARK  status: ('A' for Active; 'I' for Inactive)
REMARK    1  A    between atoms: C1_2  and  C2_3 
REMARK    2  A    between atoms: C2_3  and  C3_4 
ROOT
ATOM      1  C3  UNL d   1       1.442  -1.022   1.463  0.00  0.00    -0.075 A 
ATOM      2  C4  UNL d   1       0.927  -1.019   2.767  0.00  0.00     0.002 A 
ATOM      3  C5  UNL d   1      -0.076  -1.918   3.134  0.00  0.00     0.002 A 
ATOM      4  C6  UNL d   1      -0.581  -2.821   2.202  0.00  0.00    -0.004 A 
ATOM      5  C7  UNL d   1      -0.088  -2.821   0.899  0.00  0.00     0.002 A 
ATOM      6  C8  UNL d   1       0.918  -1.927   0.530  0.00  0.00     0.002 A 
ENDROOT
BRANCH   1   7
ATOM      7  C2  UNL d   1       2.548  -0.072   1.067  0.00  0.00     0.056 C 
BRANCH   7   8
ATOM      8  C1  UNL d   1       3.949  -0.547   1.463  0.00  0.00     0.007 C 
ATOM      9  C   UNL d   1       4.338  -0.153   2.882  0.00  0.00     0.009 C 
ENDBRANCH   7   8
ENDBRANCH   1   7
TORSDOF 2
ENDMDL
