MODEL 1
REMARK minimizedAffinity 4.81718874
REMARK minimizedRMSD -1
REMARK  2 active torsions:
REMARK  status: ('A' for Active; 'I' for Inactive)
REMARK    1  A    between atoms: C1_2  and  C2_3 
REMARK    2  A    between atoms: C2_3  and  C3_4 
ROOT
ATOM      1  C3  UNL d   1       0.712  -0.954   0.789  0.00  0.00    -0.075 A 
ATOM      2  C4  UNL d   1       1.635  -0.133   0.125  0.00  0.00     0.002 A 
ATOM      3  C5  UNL d   1       1.351   1.214  -0.101  0.00  0.00     0.002 A 
ATOM      4  C6  UNL d   1       0.139   1.754   0.324  0.00  0.00    -0.004 A 
ATOM      5  C7  UNL d   1      -0.792   0.944   0.970  0.00  0.00     0.002 A 
ATOM      6  C8  UNL d   1      -0.509  -0.403   1.201  0.00  0.00     0.002 A 
ENDROOT
BRANCH   1   7
ATOM      7  C2  UNL d   1       1.026  -2.405   1.062  0.00  0.00     0.056 C 
BRANCH   7   8
ATOM      8  C1  UNL d   1      -0.183  -3.339   0.938  0.00  0.00     0.007 C 
ATOM      9  C   UNL d   1      -0.121  -4.241  -0.288  0.00  0.00     0.009 C 
ENDBRANCH   7   8
ENDBRANCH   1   7
TORSDOF 2
ENDMDL
