MODEL 1
REMARK minimizedAffinity 2.88436651
REMARK minimizedRMSD -1
REMARK  2 active torsions:
REMARK  status: ('A' for Active; 'I' for Inactive)
REMARK    1  A    between atoms: C1_2  and  C2_3 
REMARK    2  A    between atoms: C2_3  and  C3_4 
ROOT
ATOM      1  C3  UNL d   1       2.324   2.083  -0.092  0.00  0.00    -0.075 A 
ATOM      2  C4  UNL d   1       3.548   2.742  -0.276  0.00  0.00     0.002 A 
ATOM      3  C5  UNL d   1       3.686   4.088   0.065  0.00  0.00     0.002 A 
ATOM      4  C6  UNL d   1       2.602   4.793   0.583  0.00  0.00    -0.004 A 
ATOM      5  C7  UNL d   1       1.377   4.153   0.755  0.00  0.00     0.002 A 
ATOM      6  C8  UNL d   1       1.237   2.806   0.418  0.00  0.00     0.002 A 
ENDROOT
BRANCH   1   7
ATOM      7  C2  UNL d   1       2.176   0.619  -0.432  0.00  0.00     0.056 C 
BRANCH   7   8
ATOM      8  C1  UNL d   1       0.906  -0.027   0.133  0.00  0.00     0.007 C 
ATOM      9  C   UNL d   1       1.178  -1.310   0.906  0.00  0.00     0.009 C 
ENDBRANCH   7   8
ENDBRANCH   1   7
TORSDOF 2
ENDMDL
