MODEL 1
REMARK minimizedAffinity -0.855326235
REMARK minimizedRMSD -1
REMARK  2 active torsions:
REMARK  status: ('A' for Active; 'I' for Inactive)
REMARK    1  A    between atoms: C1_2  and  C2_3 
REMARK    2  A    between atoms: C2_3  and  C3_4 
ROOT
ATOM      1  C3  UNL d   1      -0.448  -5.555  -2.938  0.00  0.00    -0.075 A 
ATOM      2  C4  UNL d   1       0.514  -5.444  -3.953  0.00  0.00     0.002 A 
ATOM      3  C5  UNL d   1       0.152  -5.596  -5.292  0.00  0.00     0.002 A 
ATOM      4  C6  UNL d   1      -1.171  -5.869  -5.632  0.00  0.00    -0.004 A 
ATOM      5  C7  UNL d   1      -2.132  -5.998  -4.631  0.00  0.00     0.002 A 
ATOM      6  C8  UNL d   1      -1.773  -5.842  -3.291  0.00  0.00     0.002 A 
ENDROOT
BRANCH   1   7
ATOM      7  C2  UNL d   1      -0.068  -5.362  -1.490  0.00  0.00     0.056 C 
BRANCH   7   8
ATOM      8  C1  UNL d   1      -0.545  -4.035  -0.891  0.00  0.00     0.007 C 
ATOM      9  C   UNL d   1       0.225  -3.629   0.359  0.00  0.00     0.009 C 
ENDBRANCH   7   8
ENDBRANCH   1   7
TORSDOF 2
ENDMDL
