MODEL 1
REMARK minimizedAffinity -0.868426919
REMARK minimizedRMSD -1
REMARK  2 active torsions:
REMARK  status: ('A' for Active; 'I' for Inactive)
REMARK    1  A    between atoms: C1_2  and  C2_3 
REMARK    2  A    between atoms: C2_3  and  C3_4 
ROOT
ATOM      1  C3  UNL d   1      -0.114  -5.979  -4.630  0.00  0.00    -0.075 A 
ATOM      2  C4  UNL d   1      -1.496  -5.995  -4.867  0.00  0.00     0.002 A 
ATOM      3  C5  UNL d   1      -2.397  -6.000  -3.802  0.00  0.00     0.002 A 
ATOM      4  C6  UNL d   1      -1.930  -5.999  -2.490  0.00  0.00    -0.004 A 
ATOM      5  C7  UNL d   1      -0.559  -6.000  -2.243  0.00  0.00     0.002 A 
ATOM      6  C8  UNL d   1       0.345  -5.990  -3.306  0.00  0.00     0.002 A 
ENDROOT
BRANCH   1   7
ATOM      7  C2  UNL d   1       0.867  -5.943  -5.778  0.00  0.00     0.056 C 
BRANCH   7   8
ATOM      8  C1  UNL d   1       2.269  -5.467  -5.385  0.00  0.00     0.007 C 
ATOM      9  C   UNL d   1       2.259  -4.205  -4.533  0.00  0.00     0.009 C 
ENDBRANCH   7   8
ENDBRANCH   1   7
TORSDOF 2
ENDMDL
