MODEL 1
REMARK minimizedAffinity 7.88542795
REMARK minimizedRMSD -1
REMARK  2 active torsions:
REMARK  status: ('A' for Active; 'I' for Inactive)
REMARK    1  A    between atoms: C1_2  and  C2_3 
REMARK    2  A    between atoms: C2_3  and  C3_4 
ROOT
ATOM      1  C3  UNL d   1       2.702   2.654   0.003  0.00  0.00    -0.075 A 
ATOM      2  C4  UNL d   1       1.317   2.750   0.203  0.00  0.00     0.002 A 
ATOM      3  C5  UNL d   1       0.558   1.608   0.457  0.00  0.00     0.002 A 
ATOM      4  C6  UNL d   1       1.169   0.357   0.504  0.00  0.00    -0.004 A 
ATOM      5  C7  UNL d   1       2.542   0.248   0.290  0.00  0.00     0.002 A 
ATOM      6  C8  UNL d   1       3.305   1.390   0.040  0.00  0.00     0.002 A 
ENDROOT
BRANCH   1   7
ATOM      7  C2  UNL d   1       3.535   3.890  -0.244  0.00  0.00     0.056 C 
BRANCH   7   8
ATOM      8  C1  UNL d   1       5.046   3.639  -0.220  0.00  0.00     0.007 C 
ATOM      9  C   UNL d   1       5.830   4.611  -1.091  0.00  0.00     0.009 C 
ENDBRANCH   7   8
ENDBRANCH   1   7
TORSDOF 2
ENDMDL
