MODEL 1
REMARK minimizedAffinity 6.5530715
REMARK minimizedRMSD -1
REMARK  2 active torsions:
REMARK  status: ('A' for Active; 'I' for Inactive)
REMARK    1  A    between atoms: C1_2  and  C2_3 
REMARK    2  A    between atoms: C2_3  and  C3_4 
ROOT
ATOM      1  C3  UNL d   1       1.402  -0.823   1.154  0.00  0.00    -0.075 A 
ATOM      2  C4  UNL d   1       0.724   0.083   0.326  0.00  0.00     0.002 A 
ATOM      3  C5  UNL d   1       1.433   0.990  -0.463  0.00  0.00     0.002 A 
ATOM      4  C6  UNL d   1       2.826   1.009  -0.426  0.00  0.00    -0.004 A 
ATOM      5  C7  UNL d   1       3.509   0.124   0.406  0.00  0.00     0.002 A 
ATOM      6  C8  UNL d   1       2.802  -0.787   1.192  0.00  0.00     0.002 A 
ENDROOT
BRANCH   1   7
ATOM      7  C2  UNL d   1       0.641  -1.826   1.988  0.00  0.00     0.056 C 
BRANCH   7   8
ATOM      8  C1  UNL d   1       0.526  -3.212   1.345  0.00  0.00     0.007 C 
ATOM      9  C   UNL d   1      -0.437  -3.249   0.166  0.00  0.00     0.009 C 
ENDBRANCH   7   8
ENDBRANCH   1   7
TORSDOF 2
ENDMDL
