MODEL 1
REMARK minimizedAffinity -0.431047052
REMARK minimizedRMSD -1
REMARK  2 active torsions:
REMARK  status: ('A' for Active; 'I' for Inactive)
REMARK    1  A    between atoms: C1_2  and  C2_3 
REMARK    2  A    between atoms: C2_3  and  C3_4 
ROOT
ATOM      1  C3  UNL d   1      -1.585  -5.952  -4.402  0.00  0.00    -0.075 A 
ATOM      2  C4  UNL d   1      -1.123  -5.867  -5.723  0.00  0.00     0.002 A 
ATOM      3  C5  UNL d   1       0.246  -5.851  -5.995  0.00  0.00     0.002 A 
ATOM      4  C6  UNL d   1       1.167  -5.910  -4.952  0.00  0.00    -0.004 A 
ATOM      5  C7  UNL d   1       0.718  -5.978  -3.634  0.00  0.00     0.002 A 
ATOM      6  C8  UNL d   1      -0.650  -5.999  -3.360  0.00  0.00     0.002 A 
ENDROOT
BRANCH   1   7
ATOM      7  C2  UNL d   1      -3.065  -6.000  -4.103  0.00  0.00     0.056 C 
BRANCH   7   8
ATOM      8  C1  UNL d   1      -3.399  -6.000  -2.608  0.00  0.00     0.007 C 
ATOM      9  C   UNL d   1      -4.892  -5.888  -2.326  0.00  0.00     0.009 C 
ENDBRANCH   7   8
ENDBRANCH   1   7
TORSDOF 2
ENDMDL
