MODEL 1
REMARK minimizedAffinity 7.51425648
REMARK minimizedRMSD -1
REMARK  2 active torsions:
REMARK  status: ('A' for Active; 'I' for Inactive)
REMARK    1  A    between atoms: C1_2  and  C2_3 
REMARK    2  A    between atoms: C2_3  and  C3_4 
ROOT
ATOM      1  C3  UNL d   1      -0.963  -1.771   0.490  0.00  0.00    -0.075 A 
ATOM      2  C4  UNL d   1      -0.092  -2.757   0.976  0.00  0.00     0.002 A 
ATOM      3  C5  UNL d   1       1.237  -2.448   1.266  0.00  0.00     0.002 A 
ATOM      4  C6  UNL d   1       1.715  -1.155   1.064  0.00  0.00    -0.004 A 
ATOM      5  C7  UNL d   1       0.863  -0.171   0.566  0.00  0.00     0.002 A 
ATOM      6  C8  UNL d   1      -0.469  -0.477   0.279  0.00  0.00     0.002 A 
ENDROOT
BRANCH   1   7
ATOM      7  C2  UNL d   1      -2.410  -2.092   0.202  0.00  0.00     0.056 C 
BRANCH   7   8
ATOM      8  C1  UNL d   1      -3.351  -0.889   0.319  0.00  0.00     0.007 C 
ATOM      9  C   UNL d   1      -4.532  -1.137   1.247  0.00  0.00     0.009 C 
ENDBRANCH   7   8
ENDBRANCH   1   7
TORSDOF 2
ENDMDL
