MODEL 1
REMARK minimizedAffinity -6.06085348
REMARK minimizedRMSD -1
REMARK  2 active torsions:
REMARK  status: ('A' for Active; 'I' for Inactive)
REMARK    1  A    between atoms: C1_2  and  C2_3 
REMARK    2  A    between atoms: C2_3  and  C3_4 
ROOT
ATOM      1  C3  UNL d   1      -0.119   0.360  -0.065  0.00  0.00    -0.075 A 
ATOM      2  C4  UNL d   1      -0.557  -0.756   0.664  0.00  0.00     0.002 A 
ATOM      3  C5  UNL d   1       0.327  -1.790   0.975  0.00  0.00     0.002 A 
ATOM      4  C6  UNL d   1       1.653  -1.727   0.553  0.00  0.00    -0.004 A 
ATOM      5  C7  UNL d   1       2.094  -0.632  -0.187  0.00  0.00     0.002 A 
ATOM      6  C8  UNL d   1       1.213   0.406  -0.495  0.00  0.00     0.002 A 
ENDROOT
BRANCH   1   7
ATOM      7  C2  UNL d   1      -1.063   1.496  -0.379  0.00  0.00     0.056 C 
BRANCH   7   8
ATOM      8  C1  UNL d   1      -1.389   1.642  -1.870  0.00  0.00     0.007 C 
ATOM      9  C   UNL d   1      -2.662   0.914  -2.280  0.00  0.00     0.009 C 
ENDBRANCH   7   8
ENDBRANCH   1   7
TORSDOF 2
ENDMDL
