MODEL 1
REMARK minimizedAffinity -5.60620499
REMARK minimizedRMSD -1
REMARK  2 active torsions:
REMARK  status: ('A' for Active; 'I' for Inactive)
REMARK    1  A    between atoms: C1_2  and  C2_3 
REMARK    2  A    between atoms: C2_3  and  C3_4 
ROOT
ATOM      1  C3  UNL d   1       0.095   0.034  -0.141  0.00  0.00    -0.075 A 
ATOM      2  C4  UNL d   1      -0.713  -0.918   0.497  0.00  0.00     0.002 A 
ATOM      3  C5  UNL d   1      -0.149  -2.060   1.066  0.00  0.00     0.002 A 
ATOM      4  C6  UNL d   1       1.227  -2.270   0.995  0.00  0.00    -0.004 A 
ATOM      5  C7  UNL d   1       2.037  -1.339   0.349  0.00  0.00     0.002 A 
ATOM      6  C8  UNL d   1       1.476  -0.193  -0.217  0.00  0.00     0.002 A 
ENDROOT
BRANCH   1   7
ATOM      7  C2  UNL d   1      -0.506   1.287  -0.733  0.00  0.00     0.056 C 
BRANCH   7   8
ATOM      8  C1  UNL d   1      -1.976   1.140  -1.142  0.00  0.00     0.007 C 
ATOM      9  C   UNL d   1      -2.253   1.609  -2.564  0.00  0.00     0.009 C 
ENDBRANCH   7   8
ENDBRANCH   1   7
TORSDOF 2
ENDMDL
