MODEL 1
REMARK minimizedAffinity -4.26083183
REMARK minimizedRMSD -1
REMARK  2 active torsions:
REMARK  status: ('A' for Active; 'I' for Inactive)
REMARK    1  A    between atoms: C1_2  and  C2_3 
REMARK    2  A    between atoms: C2_3  and  C3_4 
ROOT
ATOM      1  C3  UNL d   1       0.098   0.375  -0.001  0.00  0.00    -0.075 A 
ATOM      2  C4  UNL d   1       1.478   0.182  -0.163  0.00  0.00     0.002 A 
ATOM      3  C5  UNL d   1       2.114  -0.910   0.429  0.00  0.00     0.002 A 
ATOM      4  C6  UNL d   1       1.383  -1.814   1.197  0.00  0.00    -0.004 A 
ATOM      5  C7  UNL d   1       0.015  -1.622   1.378  0.00  0.00     0.002 A 
ATOM      6  C8  UNL d   1      -0.625  -0.533   0.783  0.00  0.00     0.002 A 
ENDROOT
BRANCH   1   7
ATOM      7  C2  UNL d   1      -0.602   1.538  -0.664  0.00  0.00     0.056 C 
BRANCH   7   8
ATOM      8  C1  UNL d   1      -1.837   1.140  -1.478  0.00  0.00     0.007 C 
ATOM      9  C   UNL d   1      -2.131   2.094  -2.628  0.00  0.00     0.009 C 
ENDBRANCH   7   8
ENDBRANCH   1   7
TORSDOF 2
ENDMDL
