MODEL 1
REMARK minimizedAffinity -4.0621953
REMARK minimizedRMSD -1
REMARK  2 active torsions:
REMARK  status: ('A' for Active; 'I' for Inactive)
REMARK    1  A    between atoms: C1_2  and  C2_3 
REMARK    2  A    between atoms: C2_3  and  C3_4 
ROOT
ATOM      1  C3  UNL d   1      -0.088  -0.263   0.058  0.00  0.00    -0.075 A 
ATOM      2  C4  UNL d   1      -0.742  -1.479   0.302  0.00  0.00     0.002 A 
ATOM      3  C5  UNL d   1      -0.011  -2.631   0.594  0.00  0.00     0.002 A 
ATOM      4  C6  UNL d   1       1.380  -2.585   0.636  0.00  0.00    -0.004 A 
ATOM      5  C7  UNL d   1       2.042  -1.386   0.379  0.00  0.00     0.002 A 
ATOM      6  C8  UNL d   1       1.313  -0.231   0.090  0.00  0.00     0.002 A 
ENDROOT
BRANCH   1   7
ATOM      7  C2  UNL d   1      -0.874   0.993  -0.230  0.00  0.00     0.056 C 
BRANCH   7   8
ATOM      8  C1  UNL d   1      -1.659   0.950  -1.545  0.00  0.00     0.007 C 
ATOM      9  C   UNL d   1      -1.466   2.196  -2.400  0.00  0.00     0.009 C 
ENDBRANCH   7   8
ENDBRANCH   1   7
TORSDOF 2
ENDMDL
