MODEL 1
REMARK minimizedAffinity -1.64893878
REMARK minimizedRMSD -1
REMARK  2 active torsions:
REMARK  status: ('A' for Active; 'I' for Inactive)
REMARK    1  A    between atoms: C1_2  and  C2_3 
REMARK    2  A    between atoms: C2_3  and  C3_4 
ROOT
ATOM      1  C3  UNL d   1      -0.301   0.453  -0.101  0.00  0.00    -0.075 A 
ATOM      2  C4  UNL d   1       0.990   0.610  -0.627  0.00  0.00     0.002 A 
ATOM      3  C5  UNL d   1       1.984  -0.329  -0.354  0.00  0.00     0.002 A 
ATOM      4  C6  UNL d   1       1.705  -1.429   0.454  0.00  0.00    -0.004 A 
ATOM      5  C7  UNL d   1       0.431  -1.586   0.996  0.00  0.00     0.002 A 
ATOM      6  C8  UNL d   1      -0.567  -0.650   0.721  0.00  0.00     0.002 A 
ENDROOT
BRANCH   1   7
ATOM      7  C2  UNL d   1      -1.390   1.451  -0.417  0.00  0.00     0.056 C 
BRANCH   7   8
ATOM      8  C1  UNL d   1      -1.359   1.973  -1.857  0.00  0.00     0.007 C 
ATOM      9  C   UNL d   1      -2.592   1.586  -2.663  0.00  0.00     0.009 C 
ENDBRANCH   7   8
ENDBRANCH   1   7
TORSDOF 2
ENDMDL
