MODEL 1
REMARK minimizedAffinity -4.59930229
REMARK minimizedRMSD -1
REMARK  2 active torsions:
REMARK  status: ('A' for Active; 'I' for Inactive)
REMARK    1  A    between atoms: C1_2  and  C2_3 
REMARK    2  A    between atoms: C2_3  and  C3_4 
ROOT
ATOM      1  C3  UNL d   1       0.155   0.315  -0.199  0.00  0.00    -0.075 A 
ATOM      2  C4  UNL d   1       1.539   0.229  -0.409  0.00  0.00     0.002 A 
ATOM      3  C5  UNL d   1       2.259  -0.871   0.057  0.00  0.00     0.002 A 
ATOM      4  C6  UNL d   1       1.608  -1.893   0.745  0.00  0.00    -0.004 A 
ATOM      5  C7  UNL d   1       0.236  -1.811   0.973  0.00  0.00     0.002 A 
ATOM      6  C8  UNL d   1      -0.487  -0.713   0.505  0.00  0.00     0.002 A 
ENDROOT
BRANCH   1   7
ATOM      7  C2  UNL d   1      -0.635   1.489  -0.726  0.00  0.00     0.056 C 
BRANCH   7   8
ATOM      8  C1  UNL d   1      -1.858   1.093  -1.561  0.00  0.00     0.007 C 
ATOM      9  C   UNL d   1      -1.913   1.791  -2.913  0.00  0.00     0.009 C 
ENDBRANCH   7   8
ENDBRANCH   1   7
TORSDOF 2
ENDMDL
