MODEL 1
REMARK minimizedAffinity -5.09370899
REMARK minimizedRMSD -1
REMARK  2 active torsions:
REMARK  status: ('A' for Active; 'I' for Inactive)
REMARK    1  A    between atoms: C1_2  and  C2_3 
REMARK    2  A    between atoms: C2_3  and  C3_4 
ROOT
ATOM      1  C3  UNL d   1       0.520  -0.091  -0.468  0.00  0.00    -0.075 A 
ATOM      2  C4  UNL d   1      -0.281  -1.118   0.052  0.00  0.00     0.002 A 
ATOM      3  C5  UNL d   1       0.266  -2.083   0.898  0.00  0.00     0.002 A 
ATOM      4  C6  UNL d   1       1.619  -2.040   1.227  0.00  0.00    -0.004 A 
ATOM      5  C7  UNL d   1       2.427  -1.034   0.703  0.00  0.00     0.002 A 
ATOM      6  C8  UNL d   1       1.882  -0.064  -0.140  0.00  0.00     0.002 A 
ENDROOT
BRANCH   1   7
ATOM      7  C2  UNL d   1      -0.072   0.974  -1.360  0.00  0.00     0.056 C 
BRANCH   7   8
ATOM      8  C1  UNL d   1      -1.459   1.455  -0.921  0.00  0.00     0.007 C 
ATOM      9  C   UNL d   1      -2.384   1.767  -2.090  0.00  0.00     0.009 C 
ENDBRANCH   7   8
ENDBRANCH   1   7
TORSDOF 2
ENDMDL
