MODEL 1
REMARK minimizedAffinity -6.11907101
REMARK minimizedRMSD -1
REMARK  2 active torsions:
REMARK  status: ('A' for Active; 'I' for Inactive)
REMARK    1  A    between atoms: C1_2  and  C2_3 
REMARK    2  A    between atoms: C2_3  and  C3_4 
ROOT
ATOM      1  C3  UNL d   1      -0.476   0.257  -0.115  0.00  0.00    -0.075 A 
ATOM      2  C4  UNL d   1       0.830   0.449  -0.588  0.00  0.00     0.002 A 
ATOM      3  C5  UNL d   1       1.790  -0.553  -0.443  0.00  0.00     0.002 A 
ATOM      4  C6  UNL d   1       1.461  -1.753   0.183  0.00  0.00    -0.004 A 
ATOM      5  C7  UNL d   1       0.171  -1.948   0.671  0.00  0.00     0.002 A 
ATOM      6  C8  UNL d   1      -0.793  -0.949   0.523  0.00  0.00     0.002 A 
ENDROOT
BRANCH   1   7
ATOM      7  C2  UNL d   1      -1.528   1.325  -0.295  0.00  0.00     0.056 C 
BRANCH   7   8
ATOM      8  C1  UNL d   1      -2.466   1.084  -1.482  0.00  0.00     0.007 C 
ATOM      9  C   UNL d   1      -1.910   1.603  -2.802  0.00  0.00     0.009 C 
ENDBRANCH   7   8
ENDBRANCH   1   7
TORSDOF 2
ENDMDL
