MODEL 1
REMARK minimizedAffinity -5.03076839
REMARK minimizedRMSD -1
REMARK  2 active torsions:
REMARK  status: ('A' for Active; 'I' for Inactive)
REMARK    1  A    between atoms: C1_2  and  C2_3 
REMARK    2  A    between atoms: C2_3  and  C3_4 
ROOT
ATOM      1  C3  UNL d   1      -0.146   0.133   0.149  0.00  0.00    -0.075 A 
ATOM      2  C4  UNL d   1       1.172   0.144  -0.331  0.00  0.00     0.002 A 
ATOM      3  C5  UNL d   1       2.008  -0.954  -0.130  0.00  0.00     0.002 A 
ATOM      4  C6  UNL d   1       1.543  -2.071   0.560  0.00  0.00    -0.004 A 
ATOM      5  C7  UNL d   1       0.241  -2.087   1.056  0.00  0.00     0.002 A 
ATOM      6  C8  UNL d   1      -0.600  -0.991   0.852  0.00  0.00     0.002 A 
ENDROOT
BRANCH   1   7
ATOM      7  C2  UNL d   1      -1.066   1.306  -0.091  0.00  0.00     0.056 C 
BRANCH   7   8
ATOM      8  C1  UNL d   1      -1.187   1.713  -1.563  0.00  0.00     0.007 C 
ATOM      9  C   UNL d   1      -2.532   1.348  -2.178  0.00  0.00     0.009 C 
ENDBRANCH   7   8
ENDBRANCH   1   7
TORSDOF 2
ENDMDL
