MODEL 1
REMARK minimizedAffinity -5.11362696
REMARK minimizedRMSD -1
REMARK  2 active torsions:
REMARK  status: ('A' for Active; 'I' for Inactive)
REMARK    1  A    between atoms: C1_2  and  C2_3 
REMARK    2  A    between atoms: C2_3  and  C3_4 
ROOT
ATOM      1  C3  UNL d   1       0.115   0.656  -0.583  0.00  0.00    -0.075 A 
ATOM      2  C4  UNL d   1       1.354   0.229  -1.085  0.00  0.00     0.002 A 
ATOM      3  C5  UNL d   1       2.004  -0.871  -0.525  0.00  0.00     0.002 A 
ATOM      4  C6  UNL d   1       1.431  -1.551   0.547  0.00  0.00    -0.004 A 
ATOM      5  C7  UNL d   1       0.209  -1.126   1.064  0.00  0.00     0.002 A 
ATOM      6  C8  UNL d   1      -0.446  -0.028   0.503  0.00  0.00     0.002 A 
ENDROOT
BRANCH   1   7
ATOM      7  C2  UNL d   1      -0.608   1.827  -1.204  0.00  0.00     0.056 C 
BRANCH   7   8
ATOM      8  C1  UNL d   1      -1.650   1.431  -2.254  0.00  0.00     0.007 C 
ATOM      9  C   UNL d   1      -2.951   0.921  -1.647  0.00  0.00     0.009 C 
ENDBRANCH   7   8
ENDBRANCH   1   7
TORSDOF 2
ENDMDL
