MODEL 1
REMARK minimizedAffinity -6.63094997
REMARK minimizedRMSD -1
REMARK  2 active torsions:
REMARK  status: ('A' for Active; 'I' for Inactive)
REMARK    1  A    between atoms: C1_2  and  C2_3 
REMARK    2  A    between atoms: C2_3  and  C3_4 
ROOT
ATOM      1  C3  UNL d   1      -0.069  -1.132   1.380  0.00  0.00    -0.075 A 
ATOM      2  C4  UNL d   1      -0.946  -1.436   2.431  0.00  0.00     0.002 A 
ATOM      3  C5  UNL d   1      -0.800  -2.619   3.157  0.00  0.00     0.002 A 
ATOM      4  C6  UNL d   1       0.216  -3.516   2.834  0.00  0.00    -0.004 A 
ATOM      5  C7  UNL d   1       1.083  -3.232   1.781  0.00  0.00     0.002 A 
ATOM      6  C8  UNL d   1       0.941  -2.048   1.057  0.00  0.00     0.002 A 
ENDROOT
BRANCH   1   7
ATOM      7  C2  UNL d   1      -0.204   0.160   0.610  0.00  0.00     0.056 C 
BRANCH   7   8
ATOM      8  C1  UNL d   1      -0.178  -0.015  -0.912  0.00  0.00     0.007 C 
ATOM      9  C   UNL d   1      -1.033   1.008  -1.648  0.00  0.00     0.009 C 
ENDBRANCH   7   8
ENDBRANCH   1   7
TORSDOF 2
ENDMDL
