MODEL 1
REMARK minimizedAffinity -5.58576488
REMARK minimizedRMSD -1
REMARK  2 active torsions:
REMARK  status: ('A' for Active; 'I' for Inactive)
REMARK    1  A    between atoms: C1_2  and  C2_3 
REMARK    2  A    between atoms: C2_3  and  C3_4 
ROOT
ATOM      1  C3  UNL d   1      -0.136   0.103  -0.100  0.00  0.00    -0.075 A 
ATOM      2  C4  UNL d   1       1.245   0.148  -0.337  0.00  0.00     0.002 A 
ATOM      3  C5  UNL d   1       2.062  -0.924   0.024  0.00  0.00     0.002 A 
ATOM      4  C6  UNL d   1       1.511  -2.048   0.636  0.00  0.00    -0.004 A 
ATOM      5  C7  UNL d   1       0.142  -2.096   0.892  0.00  0.00     0.002 A 
ATOM      6  C8  UNL d   1      -0.678  -1.027   0.528  0.00  0.00     0.002 A 
ENDROOT
BRANCH   1   7
ATOM      7  C2  UNL d   1      -1.029   1.247  -0.515  0.00  0.00     0.056 C 
BRANCH   7   8
ATOM      8  C1  UNL d   1      -1.906   0.943  -1.735  0.00  0.00     0.007 C 
ATOM      9  C   UNL d   1      -2.146   2.159  -2.620  0.00  0.00     0.009 C 
ENDBRANCH   7   8
ENDBRANCH   1   7
TORSDOF 2
ENDMDL
