MODEL 1
REMARK minimizedAffinity 10.7841234
REMARK minimizedRMSD -1
REMARK  1 active torsions:
REMARK  status: ('A' for Active; 'I' for Inactive)
REMARK    1  A    between atoms: N_2  and  C1_3 
ROOT
ATOM      1  C1  UNL d   1      -0.967   1.892   0.734  0.00  0.00     0.143 A 
ATOM      2  C2  UNL d   1       0.223   1.535   1.377  0.00  0.00    -0.057 A 
ATOM      3  C3  UNL d   1       0.416   0.244   1.882  0.00  0.00     0.033 A 
ATOM      4  C4  UNL d   1      -0.592  -0.709   1.778  0.00  0.00    -0.042 A 
ATOM      5  C5  UNL d   1      -1.793  -0.369   1.165  0.00  0.00     0.033 A 
ATOM      6  C6  UNL d   1      -1.978   0.920   0.657  0.00  0.00    -0.057 A 
ENDROOT
BRANCH   1   7
ATOM      7  N   UNL d   1      -1.258   3.187   0.298  0.00  0.00    -0.732 N 
ATOM      8  C   UNL d   1      -0.577   4.328   0.872  0.00  0.00     0.284 C 
ATOM      9  H3  UNL d   1      -1.381   3.240  -0.710  0.00  0.00     0.395 HD
ENDBRANCH   1   7
TORSDOF 1
ENDMDL
