MODEL 1
REMARK minimizedAffinity 1.36542702
REMARK minimizedRMSD -1
REMARK  1 active torsions:
REMARK  status: ('A' for Active; 'I' for Inactive)
REMARK    1  A    between atoms: N_2  and  C1_3 
ROOT
ATOM      1  C1  UNL d   1      -0.139  -2.249   0.464  0.00  0.00     0.143 A 
ATOM      2  C2  UNL d   1       0.124  -2.806  -0.792  0.00  0.00    -0.057 A 
ATOM      3  C3  UNL d   1       1.435  -2.949  -1.263  0.00  0.00     0.033 A 
ATOM      4  C4  UNL d   1       2.508  -2.509  -0.494  0.00  0.00    -0.042 A 
ATOM      5  C5  UNL d   1       2.268  -1.930   0.746  0.00  0.00     0.033 A 
ATOM      6  C6  UNL d   1       0.957  -1.796   1.214  0.00  0.00    -0.057 A 
ENDROOT
BRANCH   1   7
ATOM      7  N   UNL d   1      -1.425  -1.990   0.946  0.00  0.00    -0.732 N 
ATOM      8  C   UNL d   1      -1.778  -0.674   1.434  0.00  0.00     0.284 C 
ATOM      9  H3  UNL d   1      -2.147  -2.432   0.383  0.00  0.00     0.395 HD
ENDBRANCH   1   7
TORSDOF 1
ENDMDL
