MODEL 1
REMARK minimizedAffinity 5.81929827
REMARK minimizedRMSD -1
REMARK  1 active torsions:
REMARK  status: ('A' for Active; 'I' for Inactive)
REMARK    1  A    between atoms: N_2  and  C1_3 
ROOT
ATOM      1  C1  UNL d   1      -5.683   4.879  -1.066  0.00  0.00     0.143 A 
ATOM      2  C2  UNL d   1      -5.229   3.735  -1.730  0.00  0.00    -0.057 A 
ATOM      3  C3  UNL d   1      -5.052   3.723  -3.119  0.00  0.00     0.033 A 
ATOM      4  C4  UNL d   1      -5.355   4.851  -3.874  0.00  0.00    -0.042 A 
ATOM      5  C5  UNL d   1      -5.831   5.992  -3.238  0.00  0.00     0.033 A 
ATOM      6  C6  UNL d   1      -6.000   6.000  -1.850  0.00  0.00    -0.057 A 
ENDROOT
BRANCH   1   7
ATOM      7  N   UNL d   1      -5.973   4.922   0.300  0.00  0.00    -0.732 N 
ATOM      8  C   UNL d   1      -4.998   4.483   1.275  0.00  0.00     0.284 C 
ATOM      9  H3  UNL d   1      -6.473   5.768   0.564  0.00  0.00     0.395 HD
ENDBRANCH   1   7
TORSDOF 1
ENDMDL
