MODEL 1
REMARK minimizedAffinity 0.398977041
REMARK minimizedRMSD -1
REMARK  1 active torsions:
REMARK  status: ('A' for Active; 'I' for Inactive)
REMARK    1  A    between atoms: N_2  and  C1_3 
ROOT
ATOM      1  C1  UNL d   1       4.862   3.926  -1.868  0.00  0.00     0.143 A 
ATOM      2  C2  UNL d   1       3.708   3.375  -2.437  0.00  0.00    -0.057 A 
ATOM      3  C3  UNL d   1       3.704   2.902  -3.755  0.00  0.00     0.033 A 
ATOM      4  C4  UNL d   1       4.849   2.999  -4.539  0.00  0.00    -0.042 A 
ATOM      5  C5  UNL d   1       6.000   3.565  -4.002  0.00  0.00     0.033 A 
ATOM      6  C6  UNL d   1       6.000   4.029  -2.683  0.00  0.00    -0.057 A 
ENDROOT
BRANCH   1   7
ATOM      7  N   UNL d   1       4.902   4.503  -0.596  0.00  0.00    -0.732 N 
ATOM      8  C   UNL d   1       5.873   5.529  -0.283  0.00  0.00     0.284 C 
ATOM      9  H3  UNL d   1       3.973   4.681  -0.221  0.00  0.00     0.395 HD
ENDBRANCH   1   7
TORSDOF 1
ENDMDL
