MODEL 1
REMARK minimizedAffinity -1.8480767
REMARK minimizedRMSD -1
REMARK  1 active torsions:
REMARK  status: ('A' for Active; 'I' for Inactive)
REMARK    1  A    between atoms: N_2  and  C1_3 
ROOT
ATOM      1  C1  UNL d   1       5.183  -1.347  -5.970  0.00  0.00     0.143 A 
ATOM      2  C2  UNL d   1       5.905  -2.545  -5.948  0.00  0.00    -0.057 A 
ATOM      3  C3  UNL d   1       5.256  -3.785  -5.978  0.00  0.00     0.033 A 
ATOM      4  C4  UNL d   1       3.867  -3.850  -6.000  0.00  0.00    -0.042 A 
ATOM      5  C5  UNL d   1       3.128  -2.672  -5.997  0.00  0.00     0.033 A 
ATOM      6  C6  UNL d   1       3.782  -1.436  -5.974  0.00  0.00    -0.057 A 
ENDROOT
BRANCH   1   7
ATOM      7  N   UNL d   1       5.766  -0.084  -5.843  0.00  0.00    -0.732 N 
ATOM      8  C   UNL d   1       4.971   1.114  -5.999  0.00  0.00     0.284 C 
ATOM      9  H3  UNL d   1       6.438  -0.041  -5.080  0.00  0.00     0.395 HD
ENDBRANCH   1   7
TORSDOF 1
ENDMDL
