MODEL 1
REMARK minimizedAffinity -4.93778753
REMARK minimizedRMSD -1
REMARK  2 active torsions:
REMARK  status: ('A' for Active; 'I' for Inactive)
REMARK    1  A    between atoms: C1_2  and  C2_3 
REMARK    2  A    between atoms: C2_3  and  C3_4 
ROOT
ATOM      1  C3  UNL d   1      -0.119  -0.048  -0.419  0.00  0.00    -0.075 A 
ATOM      2  C4  UNL d   1       1.259  -0.127  -0.669  0.00  0.00     0.002 A 
ATOM      3  C5  UNL d   1       2.033  -1.114  -0.059  0.00  0.00     0.002 A 
ATOM      4  C6  UNL d   1       1.444  -2.026   0.814  0.00  0.00    -0.004 A 
ATOM      5  C7  UNL d   1       0.080  -1.946   1.082  0.00  0.00     0.002 A 
ATOM      6  C8  UNL d   1      -0.699  -0.963   0.470  0.00  0.00     0.002 A 
ENDROOT
BRANCH   1   7
ATOM      7  C2  UNL d   1      -0.968   0.999  -1.099  0.00  0.00     0.056 C 
BRANCH   7   8
ATOM      8  C1  UNL d   1      -1.490   0.580  -2.478  0.00  0.00     0.007 C 
ATOM      9  C   UNL d   1      -2.706   1.379  -2.928  0.00  0.00     0.009 C 
ENDBRANCH   7   8
ENDBRANCH   1   7
TORSDOF 2
ENDMDL
