MODEL 1
REMARK minimizedAffinity -6.1852417
REMARK minimizedRMSD -1
REMARK  2 active torsions:
REMARK  status: ('A' for Active; 'I' for Inactive)
REMARK    1  A    between atoms: C1_2  and  C2_3 
REMARK    2  A    between atoms: C2_3  and  C3_4 
ROOT
ATOM      1  C3  UNL d   1       0.677  -0.803   0.365  0.00  0.00    -0.075 A 
ATOM      2  C4  UNL d   1      -0.179  -0.841   1.475  0.00  0.00     0.002 A 
ATOM      3  C5  UNL d   1      -0.135  -1.913   2.367  0.00  0.00     0.002 A 
ATOM      4  C6  UNL d   1       0.757  -2.962   2.156  0.00  0.00    -0.004 A 
ATOM      5  C7  UNL d   1       1.600  -2.943   1.048  0.00  0.00     0.002 A 
ATOM      6  C8  UNL d   1       1.561  -1.870   0.156  0.00  0.00     0.002 A 
ENDROOT
BRANCH   1   7
ATOM      7  C2  UNL d   1       0.654   0.368  -0.588  0.00  0.00     0.056 C 
BRANCH   7   8
ATOM      8  C1  UNL d   1      -0.722   1.027  -0.734  0.00  0.00     0.007 C 
ATOM      9  C   UNL d   1      -1.544   0.452  -1.879  0.00  0.00     0.009 C 
ENDBRANCH   7   8
ENDBRANCH   1   7
TORSDOF 2
ENDMDL
