MODEL 1
REMARK minimizedAffinity -4.89457273
REMARK minimizedRMSD -1
REMARK  2 active torsions:
REMARK  status: ('A' for Active; 'I' for Inactive)
REMARK    1  A    between atoms: C1_2  and  C2_3 
REMARK    2  A    between atoms: C2_3  and  C3_4 
ROOT
ATOM      1  C3  UNL d   1      -0.683   0.326  -0.844  0.00  0.00    -0.075 A 
ATOM      2  C4  UNL d   1      -1.142  -0.529  -1.856  0.00  0.00     0.002 A 
ATOM      3  C5  UNL d   1      -1.767  -0.012  -2.991  0.00  0.00     0.002 A 
ATOM      4  C6  UNL d   1      -1.951   1.362  -3.124  0.00  0.00    -0.004 A 
ATOM      5  C7  UNL d   1      -1.514   2.220  -2.117  0.00  0.00     0.002 A 
ATOM      6  C8  UNL d   1      -0.883   1.706  -0.982  0.00  0.00     0.002 A 
ENDROOT
BRANCH   1   7
ATOM      7  C2  UNL d   1       0.022  -0.225   0.372  0.00  0.00     0.056 C 
BRANCH   7   8
ATOM      8  C1  UNL d   1       1.550  -0.128   0.306  0.00  0.00     0.007 C 
ATOM      9  C   UNL d   1       2.205  -1.371  -0.281  0.00  0.00     0.009 C 
ENDBRANCH   7   8
ENDBRANCH   1   7
TORSDOF 2
ENDMDL
