MODEL 1
REMARK minimizedAffinity -5.65623999
REMARK minimizedRMSD -1
REMARK  2 active torsions:
REMARK  status: ('A' for Active; 'I' for Inactive)
REMARK    1  A    between atoms: C1_2  and  C2_3 
REMARK    2  A    between atoms: C2_3  and  C3_4 
ROOT
ATOM      1  C3  UNL d   1       0.701  -0.930   0.466  0.00  0.00    -0.075 A 
ATOM      2  C4  UNL d   1      -0.115  -0.867   1.605  0.00  0.00     0.002 A 
ATOM      3  C5  UNL d   1      -0.051  -1.864   2.579  0.00  0.00     0.002 A 
ATOM      4  C6  UNL d   1       0.820  -2.940   2.422  0.00  0.00    -0.004 A 
ATOM      5  C7  UNL d   1       1.623  -3.022   1.287  0.00  0.00     0.002 A 
ATOM      6  C8  UNL d   1       1.565  -2.023   0.313  0.00  0.00     0.002 A 
ENDROOT
BRANCH   1   7
ATOM      7  C2  UNL d   1       0.658   0.160  -0.577  0.00  0.00     0.056 C 
BRANCH   7   8
ATOM      8  C1  UNL d   1      -0.680   0.905  -0.647  0.00  0.00     0.007 C 
ATOM      9  C   UNL d   1      -1.583   0.413  -1.769  0.00  0.00     0.009 C 
ENDBRANCH   7   8
ENDBRANCH   1   7
TORSDOF 2
ENDMDL
