MODEL 1
REMARK minimizedAffinity -3.06430459
REMARK minimizedRMSD -1
REMARK  2 active torsions:
REMARK  status: ('A' for Active; 'I' for Inactive)
REMARK    1  A    between atoms: C1_2  and  C2_3 
REMARK    2  A    between atoms: C2_3  and  C3_4 
ROOT
ATOM      1  C3  UNL d   1      -1.137   0.785  -1.351  0.00  0.00    -0.075 A 
ATOM      2  C4  UNL d   1      -2.044  -0.096  -1.958  0.00  0.00     0.002 A 
ATOM      3  C5  UNL d   1      -2.709   0.268  -3.129  0.00  0.00     0.002 A 
ATOM      4  C6  UNL d   1      -2.484   1.518  -3.701  0.00  0.00    -0.004 A 
ATOM      5  C7  UNL d   1      -1.598   2.408  -3.097  0.00  0.00     0.002 A 
ATOM      6  C8  UNL d   1      -0.928   2.044  -1.928  0.00  0.00     0.002 A 
ENDROOT
BRANCH   1   7
ATOM      7  C2  UNL d   1      -0.392   0.385  -0.099  0.00  0.00     0.056 C 
BRANCH   7   8
ATOM      8  C1  UNL d   1       1.107   0.150  -0.314  0.00  0.00     0.007 C 
ATOM      9  C   UNL d   1       1.578  -1.213   0.176  0.00  0.00     0.009 C 
ENDBRANCH   7   8
ENDBRANCH   1   7
TORSDOF 2
ENDMDL
