MODEL 1
REMARK minimizedAffinity -3.92440057
REMARK minimizedRMSD -1
REMARK  2 active torsions:
REMARK  status: ('A' for Active; 'I' for Inactive)
REMARK    1  A    between atoms: C1_2  and  C2_3 
REMARK    2  A    between atoms: C2_3  and  C3_4 
ROOT
ATOM      1  C3  UNL d   1       0.147  -0.632  -0.147  0.00  0.00    -0.075 A 
ATOM      2  C4  UNL d   1       1.402  -0.401  -0.728  0.00  0.00     0.002 A 
ATOM      3  C5  UNL d   1       2.507  -1.165  -0.353  0.00  0.00     0.002 A 
ATOM      4  C6  UNL d   1       2.375  -2.161   0.611  0.00  0.00    -0.004 A 
ATOM      5  C7  UNL d   1       1.136  -2.389   1.207  0.00  0.00     0.002 A 
ATOM      6  C8  UNL d   1       0.027  -1.628   0.832  0.00  0.00     0.002 A 
ENDROOT
BRANCH   1   7
ATOM      7  C2  UNL d   1      -1.060   0.172  -0.569  0.00  0.00     0.056 C 
BRANCH   7   8
ATOM      8  C1  UNL d   1      -1.544  -0.129  -1.991  0.00  0.00     0.007 C 
ATOM      9  C   UNL d   1      -2.451   0.954  -2.558  0.00  0.00     0.009 C 
ENDBRANCH   7   8
ENDBRANCH   1   7
TORSDOF 2
ENDMDL
