MODEL 1
REMARK minimizedAffinity -5.64727783
REMARK minimizedRMSD -1
REMARK  2 active torsions:
REMARK  status: ('A' for Active; 'I' for Inactive)
REMARK    1  A    between atoms: C1_2  and  C2_3 
REMARK    2  A    between atoms: C2_3  and  C3_4 
ROOT
ATOM      1  C3  UNL d   1       0.623  -0.779   0.443  0.00  0.00    -0.075 A 
ATOM      2  C4  UNL d   1      -0.516  -0.870   1.256  0.00  0.00     0.002 A 
ATOM      3  C5  UNL d   1      -0.593  -1.833   2.262  0.00  0.00     0.002 A 
ATOM      4  C6  UNL d   1       0.460  -2.724   2.460  0.00  0.00    -0.004 A 
ATOM      5  C7  UNL d   1       1.589  -2.654   1.647  0.00  0.00     0.002 A 
ATOM      6  C8  UNL d   1       1.671  -1.688   0.643  0.00  0.00     0.002 A 
ENDROOT
BRANCH   1   7
ATOM      7  C2  UNL d   1       0.725   0.280  -0.628  0.00  0.00     0.056 C 
BRANCH   7   8
ATOM      8  C1  UNL d   1      -0.515   1.173  -0.743  0.00  0.00     0.007 C 
ATOM      9  C   UNL d   1      -1.376   0.852  -1.957  0.00  0.00     0.009 C 
ENDBRANCH   7   8
ENDBRANCH   1   7
TORSDOF 2
ENDMDL
