MODEL 1
REMARK minimizedAffinity -2.40228343
REMARK minimizedRMSD -1
REMARK  2 active torsions:
REMARK  status: ('A' for Active; 'I' for Inactive)
REMARK    1  A    between atoms: C1_2  and  C2_3 
REMARK    2  A    between atoms: C2_3  and  C3_4 
ROOT
ATOM      1  C3  UNL d   1      -1.508   2.099  -3.718  0.00  0.00    -0.075 A 
ATOM      2  C4  UNL d   1      -2.872   1.928  -4.000  0.00  0.00     0.002 A 
ATOM      3  C5  UNL d   1      -3.572   0.841  -3.476  0.00  0.00     0.002 A 
ATOM      4  C6  UNL d   1      -2.919  -0.092  -2.675  0.00  0.00    -0.004 A 
ATOM      5  C7  UNL d   1      -1.561   0.059  -2.402  0.00  0.00     0.002 A 
ATOM      6  C8  UNL d   1      -0.858   1.148  -2.921  0.00  0.00     0.002 A 
ENDROOT
BRANCH   1   7
ATOM      7  C2  UNL d   1      -0.751   3.289  -4.258  0.00  0.00     0.056 C 
BRANCH   7   8
ATOM      8  C1  UNL d   1      -0.064   4.132  -3.179  0.00  0.00     0.007 C 
ATOM      9  C   UNL d   1       0.781   5.264  -3.749  0.00  0.00     0.009 C 
ENDBRANCH   7   8
ENDBRANCH   1   7
TORSDOF 2
ENDMDL
