MODEL 1
REMARK minimizedAffinity -2.9660306
REMARK minimizedRMSD -1
REMARK  2 active torsions:
REMARK  status: ('A' for Active; 'I' for Inactive)
REMARK    1  A    between atoms: C1_2  and  C2_3 
REMARK    2  A    between atoms: C2_3  and  C3_4 
ROOT
ATOM      1  C3  UNL d   1       1.410  -2.576   1.451  0.00  0.00    -0.075 A 
ATOM      2  C4  UNL d   1       0.112  -2.145   1.757  0.00  0.00     0.002 A 
ATOM      3  C5  UNL d   1      -0.375  -0.943   1.243  0.00  0.00     0.002 A 
ATOM      4  C6  UNL d   1       0.431  -0.153   0.427  0.00  0.00    -0.004 A 
ATOM      5  C7  UNL d   1       1.729  -0.564   0.129  0.00  0.00     0.002 A 
ATOM      6  C8  UNL d   1       2.217  -1.769   0.638  0.00  0.00     0.002 A 
ENDROOT
BRANCH   1   7
ATOM      7  C2  UNL d   1       1.933  -3.891   1.980  0.00  0.00     0.056 C 
BRANCH   7   8
ATOM      8  C1  UNL d   1       1.007  -4.566   2.997  0.00  0.00     0.007 C 
ATOM      9  C   UNL d   1       1.569  -5.870   3.547  0.00  0.00     0.009 C 
ENDBRANCH   7   8
ENDBRANCH   1   7
TORSDOF 2
ENDMDL
