MODEL 1
REMARK minimizedAffinity -5.04472542
REMARK minimizedRMSD -1
REMARK  2 active torsions:
REMARK  status: ('A' for Active; 'I' for Inactive)
REMARK    1  A    between atoms: C1_2  and  C2_3 
REMARK    2  A    between atoms: C2_3  and  C3_4 
ROOT
ATOM      1  C3  UNL d   1      -0.117  -0.947   0.572  0.00  0.00    -0.075 A 
ATOM      2  C4  UNL d   1      -0.057   0.285  -0.096  0.00  0.00     0.002 A 
ATOM      3  C5  UNL d   1      -0.727   1.399   0.410  0.00  0.00     0.002 A 
ATOM      4  C6  UNL d   1      -1.473   1.294   1.582  0.00  0.00    -0.004 A 
ATOM      5  C7  UNL d   1      -1.553   0.071   2.245  0.00  0.00     0.002 A 
ATOM      6  C8  UNL d   1      -0.879  -1.044   1.743  0.00  0.00     0.002 A 
ENDROOT
BRANCH   1   7
ATOM      7  C2  UNL d   1       0.630  -2.148   0.045  0.00  0.00     0.056 C 
BRANCH   7   8
ATOM      8  C1  UNL d   1       1.646  -2.733   1.032  0.00  0.00     0.007 C 
ATOM      9  C   UNL d   1       2.581  -1.686   1.622  0.00  0.00     0.009 C 
ENDBRANCH   7   8
ENDBRANCH   1   7
TORSDOF 2
ENDMDL
