MODEL 1
REMARK minimizedAffinity -5.66915274
REMARK minimizedRMSD -1
REMARK  2 active torsions:
REMARK  status: ('A' for Active; 'I' for Inactive)
REMARK    1  A    between atoms: C1_2  and  C2_3 
REMARK    2  A    between atoms: C2_3  and  C3_4 
ROOT
ATOM      1  C3  UNL d   1      -0.054   0.156  -0.252  0.00  0.00    -0.075 A 
ATOM      2  C4  UNL d   1      -0.579  -0.953   0.427  0.00  0.00     0.002 A 
ATOM      3  C5  UNL d   1       0.267  -1.947   0.921  0.00  0.00     0.002 A 
ATOM      4  C6  UNL d   1       1.644  -1.849   0.734  0.00  0.00    -0.004 A 
ATOM      5  C7  UNL d   1       2.175  -0.760   0.046  0.00  0.00     0.002 A 
ATOM      6  C8  UNL d   1       1.331   0.238  -0.445  0.00  0.00     0.002 A 
ENDROOT
BRANCH   1   7
ATOM      7  C2  UNL d   1      -0.962   1.249  -0.763  0.00  0.00     0.056 C 
BRANCH   7   8
ATOM      8  C1  UNL d   1      -1.993   0.774  -1.792  0.00  0.00     0.007 C 
ATOM      9  C   UNL d   1      -2.407   1.862  -2.774  0.00  0.00     0.009 C 
ENDBRANCH   7   8
ENDBRANCH   1   7
TORSDOF 2
ENDMDL
