MODEL 1
REMARK minimizedAffinity -6.06979847
REMARK minimizedRMSD -1
REMARK  2 active torsions:
REMARK  status: ('A' for Active; 'I' for Inactive)
REMARK    1  A    between atoms: C1_2  and  C2_3 
REMARK    2  A    between atoms: C2_3  and  C3_4 
ROOT
ATOM      1  C3  UNL d   1      -0.201  -0.120  -1.033  0.00  0.00    -0.075 A 
ATOM      2  C4  UNL d   1      -0.943  -0.117  -2.223  0.00  0.00     0.002 A 
ATOM      3  C5  UNL d   1      -1.988   0.789  -2.403  0.00  0.00     0.002 A 
ATOM      4  C6  UNL d   1      -2.312   1.694  -1.394  0.00  0.00    -0.004 A 
ATOM      5  C7  UNL d   1      -1.593   1.688  -0.201  0.00  0.00     0.002 A 
ATOM      6  C8  UNL d   1      -0.543   0.785  -0.020  0.00  0.00     0.002 A 
ENDROOT
BRANCH   1   7
ATOM      7  C2  UNL d   1       0.951  -1.078  -0.843  0.00  0.00     0.056 C 
BRANCH   7   8
ATOM      8  C1  UNL d   1       1.393  -1.242   0.615  0.00  0.00     0.007 C 
ATOM      9  C   UNL d   1       1.797  -2.668   0.964  0.00  0.00     0.009 C 
ENDBRANCH   7   8
ENDBRANCH   1   7
TORSDOF 2
ENDMDL
