MODEL 1
REMARK minimizedAffinity -5.18457651
REMARK minimizedRMSD -1
REMARK  2 active torsions:
REMARK  status: ('A' for Active; 'I' for Inactive)
REMARK    1  A    between atoms: C1_2  and  C2_3 
REMARK    2  A    between atoms: C2_3  and  C3_4 
ROOT
ATOM      1  C3  UNL d   1       0.505  -0.983   0.431  0.00  0.00    -0.075 A 
ATOM      2  C4  UNL d   1      -0.661  -1.281   1.151  0.00  0.00     0.002 A 
ATOM      3  C5  UNL d   1      -0.690  -2.359   2.037  0.00  0.00     0.002 A 
ATOM      4  C6  UNL d   1       0.440  -3.156   2.206  0.00  0.00    -0.004 A 
ATOM      5  C7  UNL d   1       1.599  -2.879   1.483  0.00  0.00     0.002 A 
ATOM      6  C8  UNL d   1       1.632  -1.799   0.599  0.00  0.00     0.002 A 
ENDROOT
BRANCH   1   7
ATOM      7  C2  UNL d   1       0.552   0.199  -0.507  0.00  0.00     0.056 C 
BRANCH   7   8
ATOM      8  C1  UNL d   1      -0.642   1.151  -0.372  0.00  0.00     0.007 C 
ATOM      9  C   UNL d   1      -1.598   1.086  -1.556  0.00  0.00     0.009 C 
ENDBRANCH   7   8
ENDBRANCH   1   7
TORSDOF 2
ENDMDL
