MODEL 1
REMARK minimizedAffinity -3.44249558
REMARK minimizedRMSD -1
REMARK  2 active torsions:
REMARK  status: ('A' for Active; 'I' for Inactive)
REMARK    1  A    between atoms: C1_2  and  C2_3 
REMARK    2  A    between atoms: C2_3  and  C3_4 
ROOT
ATOM      1  C3  UNL d   1      -1.399   1.147  -1.498  0.00  0.00    -0.075 A 
ATOM      2  C4  UNL d   1      -1.360   2.392  -2.143  0.00  0.00     0.002 A 
ATOM      3  C5  UNL d   1      -1.960   2.563  -3.391  0.00  0.00     0.002 A 
ATOM      4  C6  UNL d   1      -2.596   1.491  -4.014  0.00  0.00    -0.004 A 
ATOM      5  C7  UNL d   1      -2.626   0.246  -3.390  0.00  0.00     0.002 A 
ATOM      6  C8  UNL d   1      -2.031   0.073  -2.140  0.00  0.00     0.002 A 
ENDROOT
BRANCH   1   7
ATOM      7  C2  UNL d   1      -0.777   0.963  -0.135  0.00  0.00     0.056 C 
BRANCH   7   8
ATOM      8  C1  UNL d   1       0.235  -0.185  -0.060  0.00  0.00     0.007 C 
ATOM      9  C   UNL d   1      -0.284  -1.394   0.707  0.00  0.00     0.009 C 
ENDBRANCH   7   8
ENDBRANCH   1   7
TORSDOF 2
ENDMDL
