MODEL 1
REMARK minimizedAffinity -2.44490099
REMARK minimizedRMSD -1
REMARK  2 active torsions:
REMARK  status: ('A' for Active; 'I' for Inactive)
REMARK    1  A    between atoms: C1_2  and  C2_3 
REMARK    2  A    between atoms: C2_3  and  C3_4 
ROOT
ATOM      1  C3  UNL d   1      -1.269   1.226  -1.488  0.00  0.00    -0.075 A 
ATOM      2  C4  UNL d   1      -1.775   0.231  -2.336  0.00  0.00     0.002 A 
ATOM      3  C5  UNL d   1      -2.534   0.572  -3.456  0.00  0.00     0.002 A 
ATOM      4  C6  UNL d   1      -2.807   1.910  -3.735  0.00  0.00    -0.004 A 
ATOM      5  C7  UNL d   1      -2.324   2.906  -2.889  0.00  0.00     0.002 A 
ATOM      6  C8  UNL d   1      -1.559   2.567  -1.771  0.00  0.00     0.002 A 
ENDROOT
BRANCH   1   7
ATOM      7  C2  UNL d   1      -0.422   0.865  -0.292  0.00  0.00     0.056 C 
BRANCH   7   8
ATOM      8  C1  UNL d   1       0.246  -0.511  -0.393  0.00  0.00     0.007 C 
ATOM      9  C   UNL d   1      -0.336  -1.534   0.573  0.00  0.00     0.009 C 
ENDBRANCH   7   8
ENDBRANCH   1   7
TORSDOF 2
ENDMDL
