MODEL 1
REMARK minimizedAffinity 5.59916592
REMARK minimizedRMSD -1
REMARK  0 active torsions:
REMARK  status: ('A' for Active; 'I' for Inactive)
ROOT
ATOM      1  C   UNL d   1       1.441  -4.098   0.747  0.00  0.00     0.020 A 
ATOM      2  C1  UNL d   1       0.869  -2.828   0.695  0.00  0.00     0.020 A 
ATOM      3  C2  UNL d   1       1.001  -1.958   1.779  0.00  0.00     0.034 A 
ATOM      4  C3  UNL d   1       1.707  -2.356   2.920  0.00  0.00     0.017 A 
ATOM      5  C4  UNL d   1       2.282  -3.632   2.971  0.00  0.00     0.017 A 
ATOM      6  C5  UNL d   1       2.146  -4.499   1.883  0.00  0.00     0.034 A 
ATOM      7 Cl   UNL d   1       3.168  -4.195   4.344  0.00  0.00    -0.070 Cl
ATOM      8 Cl1  UNL d   1       1.832  -1.229   4.223  0.00  0.00    -0.070 Cl
ENDROOT
TORSDOF 0
ENDMDL
