MODEL 1
REMARK minimizedAffinity 10.4061289
REMARK minimizedRMSD -1
REMARK  0 active torsions:
REMARK  status: ('A' for Active; 'I' for Inactive)
ROOT
ATOM      1  C   UNL d   1       1.596  -1.373   2.294  0.00  0.00     0.020 A 
ATOM      2  C1  UNL d   1       1.859  -1.059   3.626  0.00  0.00     0.020 A 
ATOM      3  C2  UNL d   1       2.284   0.226   3.970  0.00  0.00     0.034 A 
ATOM      4  C3  UNL d   1       2.450   1.201   2.980  0.00  0.00     0.017 A 
ATOM      5  C4  UNL d   1       2.186   0.885   1.642  0.00  0.00     0.017 A 
ATOM      6  C5  UNL d   1       1.760  -0.403   1.304  0.00  0.00     0.034 A 
ATOM      7 Cl   UNL d   1       2.367   2.035   0.365  0.00  0.00    -0.070 Cl
ATOM      8 Cl1  UNL d   1       2.979   2.769   3.477  0.00  0.00    -0.070 Cl
ENDROOT
TORSDOF 0
ENDMDL
