MODEL 1
REMARK minimizedAffinity 6.7649312
REMARK minimizedRMSD -1
REMARK  0 active torsions:
REMARK  status: ('A' for Active; 'I' for Inactive)
ROOT
ATOM      1  C   UNL d   1       1.598  -5.997  -5.177  0.00  0.00     0.020 A 
ATOM      2  C1  UNL d   1       2.841  -5.998  -5.808  0.00  0.00     0.020 A 
ATOM      3  C2  UNL d   1       4.012  -5.999  -5.046  0.00  0.00     0.034 A 
ATOM      4  C3  UNL d   1       3.941  -5.998  -3.648  0.00  0.00     0.017 A 
ATOM      5  C4  UNL d   1       2.693  -5.997  -3.015  0.00  0.00     0.017 A 
ATOM      6  C5  UNL d   1       1.525  -5.997  -3.783  0.00  0.00     0.034 A 
ATOM      7 Cl   UNL d   1       2.526  -5.997  -1.295  0.00  0.00    -0.070 Cl
ATOM      8 Cl1  UNL d   1       5.429  -6.000  -2.769  0.00  0.00    -0.070 Cl
ENDROOT
TORSDOF 0
ENDMDL
