MODEL 1
REMARK minimizedAffinity -3.74537182
REMARK minimizedRMSD -1
REMARK  0 active torsions:
REMARK  status: ('A' for Active; 'I' for Inactive)
ROOT
ATOM      1  C   UNL d   1       1.465  -1.895   3.730  0.00  0.00     0.020 A 
ATOM      2  C1  UNL d   1       1.924  -3.144   4.146  0.00  0.00     0.020 A 
ATOM      3  C2  UNL d   1       1.931  -4.218   3.253  0.00  0.00     0.034 A 
ATOM      4  C3  UNL d   1       1.479  -4.045   1.940  0.00  0.00     0.017 A 
ATOM      5  C4  UNL d   1       1.019  -2.790   1.524  0.00  0.00     0.017 A 
ATOM      6  C5  UNL d   1       1.013  -1.718   2.422  0.00  0.00     0.034 A 
ATOM      7 Cl   UNL d   1       0.445  -2.499  -0.081  0.00  0.00    -0.070 Cl
ATOM      8 Cl1  UNL d   1       1.517  -5.416   0.890  0.00  0.00    -0.070 Cl
ENDROOT
TORSDOF 0
ENDMDL
