MODEL 1
REMARK minimizedAffinity 7.85611057
REMARK minimizedRMSD -1
REMARK  0 active torsions:
REMARK  status: ('A' for Active; 'I' for Inactive)
ROOT
ATOM      1  C   UNL d   1       1.686  -1.206   2.001  0.00  0.00     0.020 A 
ATOM      2  C1  UNL d   1       2.026  -0.925   3.324  0.00  0.00     0.020 A 
ATOM      3  C2  UNL d   1       2.505   0.341   3.667  0.00  0.00     0.034 A 
ATOM      4  C3  UNL d   1       2.646   1.330   2.686  0.00  0.00     0.017 A 
ATOM      5  C4  UNL d   1       2.305   1.046   1.359  0.00  0.00     0.017 A 
ATOM      6  C5  UNL d   1       1.825  -0.223   1.021  0.00  0.00     0.034 A 
ATOM      7 Cl   UNL d   1       2.451   2.215   0.094  0.00  0.00    -0.070 Cl
ATOM      8 Cl1  UNL d   1       3.244   2.874   3.182  0.00  0.00    -0.070 Cl
ENDROOT
TORSDOF 0
ENDMDL
