MODEL 1
REMARK minimizedAffinity -0.862427831
REMARK minimizedRMSD -1
REMARK  0 active torsions:
REMARK  status: ('A' for Active; 'I' for Inactive)
ROOT
ATOM      1  C   UNL d   1       2.779  -5.979  -1.548  0.00  0.00     0.020 A 
ATOM      2  C1  UNL d   1       1.469  -5.992  -2.025  0.00  0.00     0.020 A 
ATOM      3  C2  UNL d   1       1.227  -5.998  -3.401  0.00  0.00     0.034 A 
ATOM      4  C3  UNL d   1       2.297  -5.991  -4.303  0.00  0.00     0.017 A 
ATOM      5  C4  UNL d   1       3.611  -5.978  -3.823  0.00  0.00     0.017 A 
ATOM      6  C5  UNL d   1       3.848  -5.972  -2.445  0.00  0.00     0.034 A 
ATOM      7 Cl   UNL d   1       4.982  -5.968  -4.876  0.00  0.00    -0.070 Cl
ATOM      8 Cl1  UNL d   1       1.924  -5.999  -5.991  0.00  0.00    -0.070 Cl
ENDROOT
TORSDOF 0
ENDMDL
