MODEL 1
REMARK minimizedAffinity 7.35463285
REMARK minimizedRMSD -1
REMARK  0 active torsions:
REMARK  status: ('A' for Active; 'I' for Inactive)
ROOT
ATOM      1  C   UNL d   1       3.322  -1.978   4.367  0.00  0.00     0.020 A 
ATOM      2  C1  UNL d   1       2.036  -2.455   4.617  0.00  0.00     0.020 A 
ATOM      3  C2  UNL d   1       0.973  -2.058   3.803  0.00  0.00     0.034 A 
ATOM      4  C3  UNL d   1       1.194  -1.180   2.736  0.00  0.00     0.017 A 
ATOM      5  C4  UNL d   1       2.485  -0.701   2.486  0.00  0.00     0.017 A 
ATOM      6  C5  UNL d   1       3.546  -1.103   3.304  0.00  0.00     0.034 A 
ATOM      7 Cl   UNL d   1       2.836   0.384   1.187  0.00  0.00    -0.070 Cl
ATOM      8 Cl1  UNL d   1      -0.167  -0.731   1.770  0.00  0.00    -0.070 Cl
ENDROOT
TORSDOF 0
ENDMDL
