MODEL 1
REMARK minimizedAffinity 4.64630079
REMARK minimizedRMSD -1
REMARK  0 active torsions:
REMARK  status: ('A' for Active; 'I' for Inactive)
ROOT
ATOM      1  C   UNL d   1       5.163  -5.998  -3.399  0.00  0.00     0.020 A 
ATOM      2  C1  UNL d   1       5.420  -5.998  -2.029  0.00  0.00     0.020 A 
ATOM      3  C2  UNL d   1       4.360  -5.999  -1.120  0.00  0.00     0.034 A 
ATOM      4  C3  UNL d   1       3.038  -5.999  -1.581  0.00  0.00     0.017 A 
ATOM      5  C4  UNL d   1       2.781  -5.999  -2.957  0.00  0.00     0.017 A 
ATOM      6  C5  UNL d   1       3.847  -5.999  -3.862  0.00  0.00     0.034 A 
ATOM      7 Cl   UNL d   1       1.178  -6.000  -3.601  0.00  0.00    -0.070 Cl
ATOM      8 Cl1  UNL d   1       1.776  -6.000  -0.401  0.00  0.00    -0.070 Cl
ENDROOT
TORSDOF 0
ENDMDL
