MODEL 1
REMARK minimizedAffinity 8.56075096
REMARK minimizedRMSD -1
REMARK  0 active torsions:
REMARK  status: ('A' for Active; 'I' for Inactive)
ROOT
ATOM      1  C   UNL d   1       1.489  -6.000   5.996  0.00  0.00     0.020 A 
ATOM      2  C1  UNL d   1       0.383  -5.721   5.195  0.00  0.00     0.020 A 
ATOM      3  C2  UNL d   1       0.445  -4.694   4.252  0.00  0.00     0.034 A 
ATOM      4  C3  UNL d   1       1.616  -3.941   4.107  0.00  0.00     0.017 A 
ATOM      5  C4  UNL d   1       2.726  -4.221   4.912  0.00  0.00     0.017 A 
ATOM      6  C5  UNL d   1       2.658  -5.251   5.855  0.00  0.00     0.034 A 
ATOM      7 Cl   UNL d   1       4.205  -3.335   4.791  0.00  0.00    -0.070 Cl
ATOM      8 Cl1  UNL d   1       1.622  -2.685   2.921  0.00  0.00    -0.070 Cl
ENDROOT
TORSDOF 0
ENDMDL
