MODEL 1
REMARK minimizedAffinity 11.1380901
REMARK minimizedRMSD -1
REMARK  1 active torsions:
REMARK  status: ('A' for Active; 'I' for Inactive)
REMARK    1  A    between atoms: C1_2  and  C2_3 
ROOT
ATOM      1  C2  UNL d   1       5.158   5.100  -2.185  0.00  0.00    -0.081 A 
ATOM      2  C3  UNL d   1       3.808   4.776  -2.368  0.00  0.00     0.006 A 
ATOM      3  C4  UNL d   1       3.183   5.013  -3.594  0.00  0.00     0.002 A 
ATOM      4  C5  UNL d   1       3.898   5.571  -4.659  0.00  0.00    -0.080 A 
ATOM      5  C6  UNL d   1       3.247   5.803  -5.990  0.00  0.00     0.076 C 
ATOM      6  C7  UNL d   1       5.242   5.911  -4.471  0.00  0.00     0.002 A 
ATOM      7  C8  UNL d   1       5.868   5.675  -3.245  0.00  0.00     0.006 A 
ENDROOT
BRANCH   1   8
ATOM      8  C1  UNL d   1       5.852   4.786  -0.884  0.00  0.00     0.054 C 
ATOM      9  C   UNL d   1       5.845   5.987   0.051  0.00  0.00     0.018 C 
ENDBRANCH   1   8
TORSDOF 1
ENDMDL
