MODEL 1
REMARK minimizedAffinity 2.44550133
REMARK minimizedRMSD -1
REMARK  1 active torsions:
REMARK  status: ('A' for Active; 'I' for Inactive)
REMARK    1  A    between atoms: C1_2  and  C2_3 
ROOT
ATOM      1  C2  UNL d   1       2.471   4.541  -2.063  0.00  0.00    -0.081 A 
ATOM      2  C3  UNL d   1       3.730   4.432  -1.459  0.00  0.00     0.006 A 
ATOM      3  C4  UNL d   1       4.876   4.872  -2.125  0.00  0.00     0.002 A 
ATOM      4  C5  UNL d   1       4.781   5.436  -3.402  0.00  0.00    -0.080 A 
ATOM      5  C6  UNL d   1       6.000   5.941  -4.116  0.00  0.00     0.076 C 
ATOM      6  C7  UNL d   1       3.526   5.529  -4.012  0.00  0.00     0.002 A 
ATOM      7  C8  UNL d   1       2.380   5.088  -3.347  0.00  0.00     0.006 A 
ENDROOT
BRANCH   1   8
ATOM      8  C1  UNL d   1       1.227   4.126  -1.320  0.00  0.00     0.054 C 
ATOM      9  C   UNL d   1       1.540   3.756   0.122  0.00  0.00     0.018 C 
ENDBRANCH   1   8
TORSDOF 1
ENDMDL
