MODEL 1
REMARK minimizedAffinity 1.71296847
REMARK minimizedRMSD -1
REMARK  1 active torsions:
REMARK  status: ('A' for Active; 'I' for Inactive)
REMARK    1  A    between atoms: C1_2  and  C2_3 
ROOT
ATOM      1  C2  UNL d   1       3.800   4.871  -1.986  0.00  0.00    -0.081 A 
ATOM      2  C3  UNL d   1       5.003   5.584  -1.927  0.00  0.00     0.006 A 
ATOM      3  C4  UNL d   1       5.721   5.859  -3.094  0.00  0.00     0.002 A 
ATOM      4  C5  UNL d   1       5.243   5.434  -4.338  0.00  0.00    -0.080 A 
ATOM      5  C6  UNL d   1       5.989   5.749  -5.601  0.00  0.00     0.076 C 
ATOM      6  C7  UNL d   1       4.050   4.706  -4.394  0.00  0.00     0.002 A 
ATOM      7  C8  UNL d   1       3.332   4.430  -3.228  0.00  0.00     0.006 A 
ENDROOT
BRANCH   1   8
ATOM      8  C1  UNL d   1       2.991   4.629  -0.737  0.00  0.00     0.054 C 
ATOM      9  C   UNL d   1       2.214   5.873  -0.331  0.00  0.00     0.018 C 
ENDBRANCH   1   8
TORSDOF 1
ENDMDL
