MODEL 1
REMARK minimizedAffinity 0.279168516
REMARK minimizedRMSD -1
REMARK  1 active torsions:
REMARK  status: ('A' for Active; 'I' for Inactive)
REMARK    1  A    between atoms: C1_2  and  C2_3 
ROOT
ATOM      1  C2  UNL d   1       4.013   4.445  -2.483  0.00  0.00    -0.081 A 
ATOM      2  C3  UNL d   1       5.012   5.417  -2.355  0.00  0.00     0.006 A 
ATOM      3  C4  UNL d   1       5.666   5.913  -3.486  0.00  0.00     0.002 A 
ATOM      4  C5  UNL d   1       5.327   5.452  -4.762  0.00  0.00    -0.080 A 
ATOM      5  C6  UNL d   1       6.000   5.998  -5.986  0.00  0.00     0.076 C 
ATOM      6  C7  UNL d   1       4.340   4.468  -4.888  0.00  0.00     0.002 A 
ATOM      7  C8  UNL d   1       3.686   3.971  -3.759  0.00  0.00     0.006 A 
ENDROOT
BRANCH   1   8
ATOM      8  C1  UNL d   1       3.260   3.955  -1.272  0.00  0.00     0.054 C 
ATOM      9  C   UNL d   1       1.839   4.499  -1.246  0.00  0.00     0.018 C 
ENDBRANCH   1   8
TORSDOF 1
ENDMDL
