MODEL 1
REMARK minimizedAffinity 0.136085153
REMARK minimizedRMSD -1
REMARK  1 active torsions:
REMARK  status: ('A' for Active; 'I' for Inactive)
REMARK    1  A    between atoms: C1_2  and  C2_3 
ROOT
ATOM      1  C2  UNL d   1       3.264   5.133  -2.270  0.00  0.00    -0.081 A 
ATOM      2  C3  UNL d   1       4.473   4.425  -2.256  0.00  0.00     0.006 A 
ATOM      3  C4  UNL d   1       5.355   4.509  -3.336  0.00  0.00     0.002 A 
ATOM      4  C5  UNL d   1       5.047   5.307  -4.443  0.00  0.00    -0.080 A 
ATOM      5  C6  UNL d   1       5.999   5.430  -5.596  0.00  0.00     0.076 C 
ATOM      6  C7  UNL d   1       3.832   6.000  -4.465  0.00  0.00     0.002 A 
ATOM      7  C8  UNL d   1       2.949   5.916  -3.386  0.00  0.00     0.006 A 
ENDROOT
BRANCH   1   8
ATOM      8  C1  UNL d   1       2.341   5.095  -1.079  0.00  0.00     0.054 C 
ATOM      9  C   UNL d   1       1.955   3.667  -0.722  0.00  0.00     0.018 C 
ENDBRANCH   1   8
TORSDOF 1
ENDMDL
