MODEL 1
REMARK minimizedAffinity 0.854745746
REMARK minimizedRMSD -1
REMARK  1 active torsions:
REMARK  status: ('A' for Active; 'I' for Inactive)
REMARK    1  A    between atoms: C1_2  and  C2_3 
ROOT
ATOM      1  C2  UNL d   1       4.954   4.657  -4.567  0.00  0.00    -0.081 A 
ATOM      2  C3  UNL d   1       5.959   5.535  -4.144  0.00  0.00     0.006 A 
ATOM      3  C4  UNL d   1       5.999   5.981  -2.821  0.00  0.00     0.002 A 
ATOM      4  C5  UNL d   1       5.040   5.551  -1.898  0.00  0.00    -0.080 A 
ATOM      5  C6  UNL d   1       5.089   5.999  -0.467  0.00  0.00     0.076 C 
ATOM      6  C7  UNL d   1       4.025   4.688  -2.325  0.00  0.00     0.002 A 
ATOM      7  C8  UNL d   1       3.984   4.242  -3.648  0.00  0.00     0.006 A 
ENDROOT
BRANCH   1   8
ATOM      8  C1  UNL d   1       4.946   4.123  -5.977  0.00  0.00     0.054 C 
ATOM      9  C   UNL d   1       5.148   2.615  -5.999  0.00  0.00     0.018 C 
ENDBRANCH   1   8
TORSDOF 1
ENDMDL
