MODEL 1
REMARK minimizedAffinity 1.26100481
REMARK minimizedRMSD -1
REMARK  1 active torsions:
REMARK  status: ('A' for Active; 'I' for Inactive)
REMARK    1  A    between atoms: C1_2  and  C2_3 
ROOT
ATOM      1  C2  UNL d   1       5.008   4.535  -4.080  0.00  0.00    -0.081 A 
ATOM      2  C3  UNL d   1       3.835   3.771  -4.094  0.00  0.00     0.006 A 
ATOM      3  C4  UNL d   1       2.997   3.737  -2.977  0.00  0.00     0.002 A 
ATOM      4  C5  UNL d   1       3.314   4.473  -1.830  0.00  0.00    -0.080 A 
ATOM      5  C6  UNL d   1       2.408   4.470  -0.635  0.00  0.00     0.076 C 
ATOM      6  C7  UNL d   1       4.494   5.223  -1.809  0.00  0.00     0.002 A 
ATOM      7  C8  UNL d   1       5.333   5.257  -2.926  0.00  0.00     0.006 A 
ENDROOT
BRANCH   1   8
ATOM      8  C1  UNL d   1       5.880   4.625  -5.306  0.00  0.00     0.054 C 
ATOM      9  C   UNL d   1       6.000   3.276  -5.999  0.00  0.00     0.018 C 
ENDBRANCH   1   8
TORSDOF 1
ENDMDL
