MODEL 1
REMARK minimizedAffinity 5.35664845
REMARK minimizedRMSD -1
REMARK  1 active torsions:
REMARK  status: ('A' for Active; 'I' for Inactive)
REMARK    1  A    between atoms: C1_2  and  C2_3 
ROOT
ATOM      1  C2  UNL d   1       5.174   5.381  -3.555  0.00  0.00    -0.081 A 
ATOM      2  C3  UNL d   1       5.951   5.683  -2.430  0.00  0.00     0.006 A 
ATOM      3  C4  UNL d   1       5.403   5.601  -1.148  0.00  0.00     0.002 A 
ATOM      4  C5  UNL d   1       4.072   5.209  -0.969  0.00  0.00    -0.080 A 
ATOM      5  C6  UNL d   1       3.480   5.087   0.404  0.00  0.00     0.076 C 
ATOM      6  C7  UNL d   1       3.291   4.924  -2.094  0.00  0.00     0.002 A 
ATOM      7  C8  UNL d   1       3.838   5.006  -3.376  0.00  0.00     0.006 A 
ENDROOT
BRANCH   1   8
ATOM      8  C1  UNL d   1       5.781   5.406  -4.935  0.00  0.00     0.054 C 
ATOM      9  C   UNL d   1       4.724   5.660  -6.000  0.00  0.00     0.018 C 
ENDBRANCH   1   8
TORSDOF 1
ENDMDL
