MODEL 1
REMARK minimizedAffinity 3.6943171
REMARK minimizedRMSD -1
REMARK  1 active torsions:
REMARK  status: ('A' for Active; 'I' for Inactive)
REMARK    1  A    between atoms: C1_2  and  C2_3 
ROOT
ATOM      1  C2  UNL d   1       2.965   4.606  -2.001  0.00  0.00    -0.081 A 
ATOM      2  C3  UNL d   1       4.166   5.311  -1.855  0.00  0.00     0.006 A 
ATOM      3  C4  UNL d   1       5.156   5.235  -2.838  0.00  0.00     0.002 A 
ATOM      4  C5  UNL d   1       4.958   4.461  -3.986  0.00  0.00    -0.080 A 
ATOM      5  C6  UNL d   1       6.000   4.395  -5.063  0.00  0.00     0.076 C 
ATOM      6  C7  UNL d   1       3.765   3.743  -4.124  0.00  0.00     0.002 A 
ATOM      7  C8  UNL d   1       2.776   3.818  -3.141  0.00  0.00     0.006 A 
ENDROOT
BRANCH   1   8
ATOM      8  C1  UNL d   1       1.869   4.737  -0.974  0.00  0.00     0.054 C 
ATOM      9  C   UNL d   1       1.488   3.382  -0.396  0.00  0.00     0.018 C 
ENDBRANCH   1   8
TORSDOF 1
ENDMDL
