MODEL 1
REMARK minimizedAffinity 11.4176064
REMARK minimizedRMSD -1
REMARK  1 active torsions:
REMARK  status: ('A' for Active; 'I' for Inactive)
REMARK    1  A    between atoms: C1_2  and  C2_3 
ROOT
ATOM      1  C2  UNL d   1       4.958   5.196  -3.670  0.00  0.00    -0.081 A 
ATOM      2  C3  UNL d   1       4.506   3.880  -3.826  0.00  0.00     0.006 A 
ATOM      3  C4  UNL d   1       3.499   3.374  -3.000  0.00  0.00     0.002 A 
ATOM      4  C5  UNL d   1       2.921   4.178  -2.012  0.00  0.00    -0.080 A 
ATOM      5  C6  UNL d   1       1.818   3.658  -1.140  0.00  0.00     0.076 C 
ATOM      6  C7  UNL d   1       3.384   5.488  -1.845  0.00  0.00     0.002 A 
ATOM      7  C8  UNL d   1       4.392   5.993  -2.669  0.00  0.00     0.006 A 
ENDROOT
BRANCH   1   8
ATOM      8  C1  UNL d   1       5.999   5.764  -4.601  0.00  0.00     0.054 C 
ATOM      9  C   UNL d   1       5.429   5.995  -5.993  0.00  0.00     0.018 C 
ENDBRANCH   1   8
TORSDOF 1
ENDMDL
