MODEL 1
REMARK minimizedAffinity -0.248165205
REMARK minimizedRMSD -1
REMARK  1 active torsions:
REMARK  status: ('A' for Active; 'I' for Inactive)
REMARK    1  A    between atoms: C1_2  and  C2_3 
ROOT
ATOM      1  C2  UNL d   1       4.947   4.536  -3.784  0.00  0.00    -0.081 A 
ATOM      2  C3  UNL d   1       3.794   3.769  -3.991  0.00  0.00     0.006 A 
ATOM      3  C4  UNL d   1       2.792   3.719  -3.019  0.00  0.00     0.002 A 
ATOM      4  C5  UNL d   1       2.922   4.443  -1.828  0.00  0.00    -0.080 A 
ATOM      5  C6  UNL d   1       1.840   4.423  -0.790  0.00  0.00     0.076 C 
ATOM      6  C7  UNL d   1       4.081   5.196  -1.614  0.00  0.00     0.002 A 
ATOM      7  C8  UNL d   1       5.084   5.245  -2.585  0.00  0.00     0.006 A 
ENDROOT
BRANCH   1   8
ATOM      8  C1  UNL d   1       5.999   4.643  -4.858  0.00  0.00     0.054 C 
ATOM      9  C   UNL d   1       5.999   3.415  -5.756  0.00  0.00     0.018 C 
ENDBRANCH   1   8
TORSDOF 1
ENDMDL
