MODEL 1
REMARK minimizedAffinity 13.234519
REMARK minimizedRMSD -1
REMARK  1 active torsions:
REMARK  status: ('A' for Active; 'I' for Inactive)
REMARK    1  A    between atoms: C1_2  and  C2_3 
ROOT
ATOM      1  C2  UNL d   1       4.974   5.679  -3.212  0.00  0.00    -0.081 A 
ATOM      2  C3  UNL d   1       5.250   5.982  -1.873  0.00  0.00     0.006 A 
ATOM      3  C4  UNL d   1       4.347   5.630  -0.867  0.00  0.00     0.002 A 
ATOM      4  C5  UNL d   1       3.158   4.963  -1.181  0.00  0.00    -0.080 A 
ATOM      5  C6  UNL d   1       2.195   4.553  -0.107  0.00  0.00     0.076 C 
ATOM      6  C7  UNL d   1       2.875   4.675  -2.520  0.00  0.00     0.002 A 
ATOM      7  C8  UNL d   1       3.776   5.027  -3.527  0.00  0.00     0.006 A 
ENDROOT
BRANCH   1   8
ATOM      8  C1  UNL d   1       5.975   5.999  -4.292  0.00  0.00     0.054 C 
ATOM      9  C   UNL d   1       5.323   6.000  -5.668  0.00  0.00     0.018 C 
ENDBRANCH   1   8
TORSDOF 1
ENDMDL
