MODEL 1
REMARK minimizedAffinity 8.96284676
REMARK minimizedRMSD -1
REMARK  1 active torsions:
REMARK  status: ('A' for Active; 'I' for Inactive)
REMARK    1  A    between atoms: C1_2  and  C2_3 
ROOT
ATOM      1  C2  UNL d   1       4.777   5.170  -3.801  0.00  0.00    -0.081 A 
ATOM      2  C3  UNL d   1       4.751   4.631  -2.509  0.00  0.00     0.006 A 
ATOM      3  C4  UNL d   1       3.608   4.749  -1.715  0.00  0.00     0.002 A 
ATOM      4  C5  UNL d   1       2.470   5.400  -2.202  0.00  0.00    -0.080 A 
ATOM      5  C6  UNL d   1       1.225   5.507  -1.372  0.00  0.00     0.076 C 
ATOM      6  C7  UNL d   1       2.502   5.954  -3.487  0.00  0.00     0.002 A 
ATOM      7  C8  UNL d   1       3.645   5.837  -4.280  0.00  0.00     0.006 A 
ENDROOT
BRANCH   1   8
ATOM      8  C1  UNL d   1       5.986   4.988  -4.683  0.00  0.00     0.054 C 
ATOM      9  C   UNL d   1       5.995   3.612  -5.333  0.00  0.00     0.018 C 
ENDBRANCH   1   8
TORSDOF 1
ENDMDL
