MODEL 1
REMARK minimizedAffinity 13.388854
REMARK minimizedRMSD -1
REMARK  1 active torsions:
REMARK  status: ('A' for Active; 'I' for Inactive)
REMARK    1  A    between atoms: C1_2  and  C2_3 
ROOT
ATOM      1  C2  UNL d   1       2.242   4.871  -1.447  0.00  0.00    -0.081 A 
ATOM      2  C3  UNL d   1       2.282   5.244  -2.796  0.00  0.00     0.006 A 
ATOM      3  C4  UNL d   1       3.497   5.279  -3.484  0.00  0.00     0.002 A 
ATOM      4  C5  UNL d   1       4.689   4.933  -2.839  0.00  0.00    -0.080 A 
ATOM      5  C6  UNL d   1       5.996   4.937  -3.575  0.00  0.00     0.076 C 
ATOM      6  C7  UNL d   1       4.651   4.577  -1.487  0.00  0.00     0.002 A 
ATOM      7  C8  UNL d   1       3.437   4.543  -0.797  0.00  0.00     0.006 A 
ENDROOT
BRANCH   1   8
ATOM      8  C1  UNL d   1       0.925   4.770  -0.719  0.00  0.00     0.054 C 
ATOM      9  C   UNL d   1       1.132   4.460   0.757  0.00  0.00     0.018 C 
ENDBRANCH   1   8
TORSDOF 1
ENDMDL
