MODEL 1
REMARK minimizedAffinity -1.96770203
REMARK minimizedRMSD -1
REMARK  0 active torsions:
REMARK  status: ('A' for Active; 'I' for Inactive)
ROOT
ATOM      1  C   UNL d   1       1.744  -0.661  -2.545  0.00  0.00    -0.002 A 
ATOM      2  C1  UNL d   1       1.060  -1.650  -1.852  0.00  0.00     0.010 A 
ATOM      3  C2  UNL d   1       0.598  -1.418  -0.555  0.00  0.00     0.041 A 
ATOM      4  C3  UNL d   1       0.835  -0.163   0.039  0.00  0.00    -0.075 A 
ATOM      5  S   UNL d   1       0.361   0.346   1.617  0.00  0.00     0.015 SA
ATOM      6  C4  UNL d   1       1.054   1.889   1.408  0.00  0.00     0.022 A 
ATOM      7  C5  UNL d   1       1.638   2.029   0.171  0.00  0.00     0.026 A 
ATOM      8  C6  UNL d   1       1.520   0.849  -0.638  0.00  0.00    -0.082 A 
ATOM      9  C7  UNL d   1       1.977   0.583  -1.952  0.00  0.00     0.045 A 
ENDROOT
TORSDOF 0
ENDMDL
