MODEL 1
REMARK minimizedAffinity 4.59574509
REMARK minimizedRMSD -1
REMARK  0 active torsions:
REMARK  status: ('A' for Active; 'I' for Inactive)
ROOT
ATOM      1  C   UNL d   1      -4.715   0.561   1.703  0.00  0.00    -0.002 A 
ATOM      2  C1  UNL d   1      -4.015   1.439   2.518  0.00  0.00     0.010 A 
ATOM      3  C2  UNL d   1      -2.625   1.540   2.424  0.00  0.00     0.041 A 
ATOM      4  C3  UNL d   1      -1.945   0.737   1.487  0.00  0.00    -0.075 A 
ATOM      5  S   UNL d   1      -0.247   0.692   1.194  0.00  0.00     0.015 SA
ATOM      6  C4  UNL d   1      -0.412  -0.492  -0.020  0.00  0.00     0.022 A 
ATOM      7  C5  UNL d   1      -1.723  -0.857  -0.210  0.00  0.00     0.026 A 
ATOM      8  C6  UNL d   1      -2.629  -0.154   0.655  0.00  0.00    -0.082 A 
ATOM      9  C7  UNL d   1      -4.037  -0.234   0.775  0.00  0.00     0.045 A 
ENDROOT
TORSDOF 0
ENDMDL
