MODEL 1
REMARK minimizedAffinity 1.09204781
REMARK minimizedRMSD -1
REMARK  0 active torsions:
REMARK  status: ('A' for Active; 'I' for Inactive)
ROOT
ATOM      1  C   UNL d   1       1.565   0.113  -2.638  0.00  0.00    -0.002 A 
ATOM      2  C1  UNL d   1       1.936   1.211  -1.875  0.00  0.00     0.010 A 
ATOM      3  C2  UNL d   1       1.412   1.395  -0.594  0.00  0.00     0.041 A 
ATOM      4  C3  UNL d   1       0.502   0.447  -0.087  0.00  0.00    -0.075 A 
ATOM      5  S   UNL d   1      -0.266   0.466   1.457  0.00  0.00     0.015 SA
ATOM      6  C4  UNL d   1      -1.104  -0.984   1.140  0.00  0.00     0.022 A 
ATOM      7  C5  UNL d   1      -0.816  -1.484  -0.108  0.00  0.00     0.026 A 
ATOM      8  C6  UNL d   1       0.115  -0.668  -0.835  0.00  0.00    -0.082 A 
ATOM      9  C7  UNL d   1       0.662  -0.826  -2.131  0.00  0.00     0.045 A 
ENDROOT
TORSDOF 0
ENDMDL
