MODEL 1
REMARK minimizedAffinity -2.90057421
REMARK minimizedRMSD -1
REMARK  0 active torsions:
REMARK  status: ('A' for Active; 'I' for Inactive)
ROOT
ATOM      1  C   UNL d   1       2.585   2.631   2.238  0.00  0.00    -0.002 A 
ATOM      2  C1  UNL d   1       1.807   1.921   3.143  0.00  0.00     0.010 A 
ATOM      3  C2  UNL d   1       0.801   1.063   2.695  0.00  0.00     0.041 A 
ATOM      4  C3  UNL d   1       0.588   0.928   1.309  0.00  0.00    -0.075 A 
ATOM      5  S   UNL d   1      -0.586  -0.065   0.529  0.00  0.00     0.015 SA
ATOM      6  C4  UNL d   1      -0.083   0.428  -1.022  0.00  0.00     0.022 A 
ATOM      7  C5  UNL d   1       0.954   1.328  -0.966  0.00  0.00     0.026 A 
ATOM      8  C6  UNL d   1       1.359   1.631   0.378  0.00  0.00    -0.082 A 
ATOM      9  C7  UNL d   1       2.371   2.494   0.864  0.00  0.00     0.045 A 
ENDROOT
TORSDOF 0
ENDMDL
