MODEL 1
REMARK minimizedAffinity -0.916105032
REMARK minimizedRMSD -1
REMARK  0 active torsions:
REMARK  status: ('A' for Active; 'I' for Inactive)
ROOT
ATOM      1  C   UNL d   1       1.300   2.402   3.868  0.00  0.00    -0.002 A 
ATOM      2  C1  UNL d   1       0.189   1.763   4.400  0.00  0.00     0.010 A 
ATOM      3  C2  UNL d   1      -0.686   1.054   3.573  0.00  0.00     0.041 A 
ATOM      4  C3  UNL d   1      -0.421   0.996   2.191  0.00  0.00    -0.075 A 
ATOM      5  S   UNL d   1      -1.352   0.187   0.987  0.00  0.00     0.015 SA
ATOM      6  C4  UNL d   1      -0.296   0.669  -0.261  0.00  0.00     0.022 A 
ATOM      7  C5  UNL d   1       0.747   1.430   0.212  0.00  0.00     0.026 A 
ATOM      8  C6  UNL d   1       0.692   1.631   1.633  0.00  0.00    -0.082 A 
ATOM      9  C7  UNL d   1       1.560   2.342   2.496  0.00  0.00     0.045 A 
ENDROOT
TORSDOF 0
ENDMDL
