MODEL 1
REMARK minimizedAffinity -0.764128506
REMARK minimizedRMSD -1
REMARK  0 active torsions:
REMARK  status: ('A' for Active; 'I' for Inactive)
ROOT
ATOM      1  C   UNL d   1       0.220   1.730   4.185  0.00  0.00    -0.002 A 
ATOM      2  C1  UNL d   1       1.011   0.980   3.326  0.00  0.00     0.010 A 
ATOM      3  C2  UNL d   1       0.432   0.214   2.313  0.00  0.00     0.041 A 
ATOM      4  C3  UNL d   1      -0.970   0.215   2.175  0.00  0.00    -0.075 A 
ATOM      5  S   UNL d   1      -1.901  -0.647   1.007  0.00  0.00     0.015 SA
ATOM      6  C4  UNL d   1      -3.370  -0.040   1.620  0.00  0.00     0.022 A 
ATOM      7  C5  UNL d   1      -3.175   0.801   2.689  0.00  0.00     0.026 A 
ATOM      8  C6  UNL d   1      -1.788   0.962   3.027  0.00  0.00    -0.082 A 
ATOM      9  C7  UNL d   1      -1.171   1.728   4.045  0.00  0.00     0.045 A 
ENDROOT
TORSDOF 0
ENDMDL
