MODEL 1
REMARK minimizedAffinity -2.97346663
REMARK minimizedRMSD -1
REMARK  0 active torsions:
REMARK  status: ('A' for Active; 'I' for Inactive)
ROOT
ATOM      1  C   UNL d   1       2.237  -0.129  -2.806  0.00  0.00    -0.002 A 
ATOM      2  C1  UNL d   1       1.019  -0.776  -2.964  0.00  0.00     0.010 A 
ATOM      3  C2  UNL d   1       0.039  -0.695  -1.973  0.00  0.00     0.041 A 
ATOM      4  C3  UNL d   1       0.304   0.056  -0.811  0.00  0.00    -0.075 A 
ATOM      5  S   UNL d   1      -0.748   0.297   0.534  0.00  0.00     0.015 SA
ATOM      6  C4  UNL d   1       0.394   1.266   1.348  0.00  0.00     0.022 A 
ATOM      7  C5  UNL d   1       1.555   1.412   0.626  0.00  0.00     0.026 A 
ATOM      8  C6  UNL d   1       1.522   0.718  -0.630  0.00  0.00    -0.082 A 
ATOM      9  C7  UNL d   1       2.496   0.616  -1.652  0.00  0.00     0.045 A 
ENDROOT
TORSDOF 0
ENDMDL
