MODEL 1
REMARK minimizedAffinity 4.25459433
REMARK minimizedRMSD -1
REMARK  0 active torsions:
REMARK  status: ('A' for Active; 'I' for Inactive)
ROOT
ATOM      1  C   UNL d   1       0.392  -1.404  -2.175  0.00  0.00    -0.002 A 
ATOM      2  C1  UNL d   1       0.019  -2.270  -1.157  0.00  0.00     0.010 A 
ATOM      3  C2  UNL d   1      -0.038  -1.829   0.167  0.00  0.00     0.041 A 
ATOM      4  C3  UNL d   1       0.288  -0.488   0.452  0.00  0.00    -0.075 A 
ATOM      5  S   UNL d   1       0.288   0.274   1.999  0.00  0.00     0.015 SA
ATOM      6  C4  UNL d   1       0.782   1.768   1.344  0.00  0.00     0.022 A 
ATOM      7  C5  UNL d   1       0.948   1.705  -0.019  0.00  0.00     0.026 A 
ATOM      8  C6  UNL d   1       0.665   0.403  -0.556  0.00  0.00    -0.082 A 
ATOM      9  C7  UNL d   1       0.714  -0.075  -1.887  0.00  0.00     0.045 A 
ENDROOT
TORSDOF 0
ENDMDL
