MODEL 1
REMARK minimizedAffinity -2.93568873
REMARK minimizedRMSD -1
REMARK  0 active torsions:
REMARK  status: ('A' for Active; 'I' for Inactive)
ROOT
ATOM      1  C   UNL d   1       1.426   0.496  -3.310  0.00  0.00    -0.002 A 
ATOM      2  C1  UNL d   1       2.472   0.221  -2.440  0.00  0.00     0.010 A 
ATOM      3  C2  UNL d   1       2.232   0.036  -1.077  0.00  0.00     0.041 A 
ATOM      4  C3  UNL d   1       0.911   0.131  -0.599  0.00  0.00    -0.075 A 
ATOM      5  S   UNL d   1       0.379  -0.060   1.030  0.00  0.00     0.015 SA
ATOM      6  C4  UNL d   1      -1.249   0.219   0.610  0.00  0.00     0.022 A 
ATOM      7  C5  UNL d   1      -1.402   0.453  -0.736  0.00  0.00     0.026 A 
ATOM      8  C6  UNL d   1      -0.159   0.406  -1.455  0.00  0.00    -0.082 A 
ATOM      9  C7  UNL d   1       0.116   0.590  -2.831  0.00  0.00     0.045 A 
ENDROOT
TORSDOF 0
ENDMDL
