MODEL 1
REMARK minimizedAffinity -0.43557027
REMARK minimizedRMSD -1
REMARK  0 active torsions:
REMARK  status: ('A' for Active; 'I' for Inactive)
ROOT
ATOM      1  C   UNL d   1       2.594   3.105   3.481  0.00  0.00    -0.002 A 
ATOM      2  C1  UNL d   1       1.938   1.930   3.819  0.00  0.00     0.010 A 
ATOM      3  C2  UNL d   1       1.278   1.180   2.844  0.00  0.00     0.041 A 
ATOM      4  C3  UNL d   1       1.289   1.634   1.511  0.00  0.00    -0.075 A 
ATOM      5  S   UNL d   1       0.549   0.879   0.149  0.00  0.00     0.015 SA
ATOM      6  C4  UNL d   1       1.086   2.098  -0.913  0.00  0.00     0.022 A 
ATOM      7  C5  UNL d   1       1.814   3.065  -0.262  0.00  0.00     0.026 A 
ATOM      8  C6  UNL d   1       1.944   2.814   1.146  0.00  0.00    -0.082 A 
ATOM      9  C7  UNL d   1       2.604   3.552   2.157  0.00  0.00     0.045 A 
ENDROOT
TORSDOF 0
ENDMDL
