MODEL 1
REMARK minimizedAffinity 10.539155
REMARK minimizedRMSD -1
REMARK  0 active torsions:
REMARK  status: ('A' for Active; 'I' for Inactive)
ROOT
ATOM      1  C   UNL d   1      -4.150   1.364  -5.142  0.00  0.00    -0.002 A 
ATOM      2  C1  UNL d   1      -5.382   1.889  -5.503  0.00  0.00     0.010 A 
ATOM      3  C2  UNL d   1      -5.520   3.250  -5.783  0.00  0.00     0.041 A 
ATOM      4  C3  UNL d   1      -4.386   4.082  -5.695  0.00  0.00    -0.075 A 
ATOM      5  S   UNL d   1      -4.317   5.779  -5.994  0.00  0.00     0.015 SA
ATOM      6  C4  UNL d   1      -2.649   5.846  -5.650  0.00  0.00     0.022 A 
ATOM      7  C5  UNL d   1      -2.141   4.613  -5.314  0.00  0.00     0.026 A 
ATOM      8  C6  UNL d   1      -3.134   3.576  -5.334  0.00  0.00    -0.082 A 
ATOM      9  C7  UNL d   1      -3.028   2.192  -5.056  0.00  0.00     0.045 A 
ENDROOT
TORSDOF 0
ENDMDL
