MODEL 1
REMARK minimizedAffinity 6.65007353
REMARK minimizedRMSD -1
REMARK  0 active torsions:
REMARK  status: ('A' for Active; 'I' for Inactive)
ROOT
ATOM      1  C1  BNZ d   1       2.472  -0.969  -0.229  0.00  0.00     0.000 A 
ATOM      2  C2  BNZ d   1       2.129  -0.044  -1.179  0.00  0.00     0.000 A 
ATOM      3  C3  BNZ d   1       1.694  -0.437  -2.414  0.00  0.00     0.000 A 
ATOM      4  C4  BNZ d   1       1.641  -1.751  -2.710  0.00  0.00     0.000 A 
ATOM      5  C5  BNZ d   1       1.992  -2.696  -1.767  0.00  0.00     0.000 A 
ATOM      6  C6  BNZ d   1       2.392  -2.298  -0.512  0.00  0.00     0.000 A 
ENDROOT
TORSDOF 0
ENDMDL
