MODEL 1
REMARK minimizedAffinity 7.50481272
REMARK minimizedRMSD -1
REMARK  0 active torsions:
REMARK  status: ('A' for Active; 'I' for Inactive)
ROOT
ATOM      1  C1  BNZ d   1       1.271  -2.337  -2.022  0.00  0.00     0.000 A 
ATOM      2  C2  BNZ d   1       1.879  -3.509  -1.660  0.00  0.00     0.000 A 
ATOM      3  C3  BNZ d   1       2.979  -3.506  -0.848  0.00  0.00     0.000 A 
ATOM      4  C4  BNZ d   1       3.492  -2.330  -0.432  0.00  0.00     0.000 A 
ATOM      5  C5  BNZ d   1       2.896  -1.139  -0.796  0.00  0.00     0.000 A 
ATOM      6  C6  BNZ d   1       1.766  -1.148  -1.582  0.00  0.00     0.000 A 
ENDROOT
TORSDOF 0
ENDMDL
