MODEL 1
REMARK minimizedAffinity 6.09544802
REMARK minimizedRMSD -1
REMARK  0 active torsions:
REMARK  status: ('A' for Active; 'I' for Inactive)
ROOT
ATOM      1  C1  BNZ d   1       1.973  -0.962  -3.006  0.00  0.00     0.000 A 
ATOM      2  C2  BNZ d   1       2.265  -2.299  -3.052  0.00  0.00     0.000 A 
ATOM      3  C3  BNZ d   1       2.609  -2.980  -1.917  0.00  0.00     0.000 A 
ATOM      4  C4  BNZ d   1       2.699  -2.316  -0.747  0.00  0.00     0.000 A 
ATOM      5  C5  BNZ d   1       2.417  -0.965  -0.686  0.00  0.00     0.000 A 
ATOM      6  C6  BNZ d   1       2.033  -0.292  -1.823  0.00  0.00     0.000 A 
ENDROOT
TORSDOF 0
ENDMDL
