MODEL 1
REMARK minimizedAffinity 10.4902477
REMARK minimizedRMSD -1
REMARK  0 active torsions:
REMARK  status: ('A' for Active; 'I' for Inactive)
ROOT
ATOM      1  C1  BNZ d   1      -2.935   1.419   3.014  0.00  0.00     0.000 A 
ATOM      2  C2  BNZ d   1      -3.041   0.668   1.874  0.00  0.00     0.000 A 
ATOM      3  C3  BNZ d   1      -3.497  -0.620   1.923  0.00  0.00     0.000 A 
ATOM      4  C4  BNZ d   1      -3.807  -1.168   3.116  0.00  0.00     0.000 A 
ATOM      5  C5  BNZ d   1      -3.697  -0.427   4.276  0.00  0.00     0.000 A 
ATOM      6  C6  BNZ d   1      -3.275   0.881   4.218  0.00  0.00     0.000 A 
ENDROOT
TORSDOF 0
ENDMDL
