MODEL 1
REMARK minimizedAffinity -3.44667697
REMARK minimizedRMSD -1
REMARK  0 active torsions:
REMARK  status: ('A' for Active; 'I' for Inactive)
ROOT
ATOM      1  C1  BNZ d   1      -5.984  -3.652   3.231  0.00  0.00     0.000 A 
ATOM      2  C2  BNZ d   1      -6.000  -3.791   1.869  0.00  0.00     0.000 A 
ATOM      3  C3  BNZ d   1      -5.299  -4.793   1.259  0.00  0.00     0.000 A 
ATOM      4  C4  BNZ d   1      -4.552  -5.630   2.007  0.00  0.00     0.000 A 
ATOM      5  C5  BNZ d   1      -4.518  -5.498   3.381  0.00  0.00     0.000 A 
ATOM      6  C6  BNZ d   1      -5.256  -4.512   3.995  0.00  0.00     0.000 A 
ENDROOT
TORSDOF 0
ENDMDL
