MODEL 1
REMARK minimizedAffinity 3.96214247
REMARK minimizedRMSD -1
REMARK  0 active torsions:
REMARK  status: ('A' for Active; 'I' for Inactive)
ROOT
ATOM      1  C1  BNZ d   1       1.480   3.774   1.510  0.00  0.00     0.000 A 
ATOM      2  C2  BNZ d   1       2.038   2.585   1.122  0.00  0.00     0.000 A 
ATOM      3  C3  BNZ d   1       2.197   2.286  -0.202  0.00  0.00     0.000 A 
ATOM      4  C4  BNZ d   1       1.763   3.157  -1.135  0.00  0.00     0.000 A 
ATOM      5  C5  BNZ d   1       1.190   4.355  -0.760  0.00  0.00     0.000 A 
ATOM      6  C6  BNZ d   1       1.067   4.670   0.574  0.00  0.00     0.000 A 
ENDROOT
TORSDOF 0
ENDMDL
