MODEL 1
REMARK minimizedAffinity -2.99547982
REMARK minimizedRMSD -1
REMARK  0 active torsions:
REMARK  status: ('A' for Active; 'I' for Inactive)
ROOT
ATOM      1  C1  BNZ d   1       3.145  -3.844  -1.124  0.00  0.00     0.000 A 
ATOM      2  C2  BNZ d   1       2.519  -3.426  -2.268  0.00  0.00     0.000 A 
ATOM      3  C3  BNZ d   1       3.103  -3.606  -3.491  0.00  0.00     0.000 A 
ATOM      4  C4  BNZ d   1       4.327  -4.166  -3.565  0.00  0.00     0.000 A 
ATOM      5  C5  BNZ d   1       4.976  -4.584  -2.420  0.00  0.00     0.000 A 
ATOM      6  C6  BNZ d   1       4.368  -4.437  -1.194  0.00  0.00     0.000 A 
ENDROOT
TORSDOF 0
ENDMDL
