MODEL 1
REMARK minimizedAffinity -4.24470758
REMARK minimizedRMSD -1
REMARK  0 active torsions:
REMARK  status: ('A' for Active; 'I' for Inactive)
ROOT
ATOM      1  C1  BNZ d   1       4.540  -5.188  -3.908  0.00  0.00     0.000 A 
ATOM      2  C2  BNZ d   1       3.397  -4.434  -3.917  0.00  0.00     0.000 A 
ATOM      3  C3  BNZ d   1       3.107  -3.616  -4.972  0.00  0.00     0.000 A 
ATOM      4  C4  BNZ d   1       3.977  -3.523  -5.998  0.00  0.00     0.000 A 
ATOM      5  C5  BNZ d   1       5.138  -4.270  -6.000  0.00  0.00     0.000 A 
ATOM      6  C6  BNZ d   1       5.409  -5.122  -4.953  0.00  0.00     0.000 A 
ENDROOT
TORSDOF 0
ENDMDL
