MODEL 1
REMARK minimizedAffinity 7.11725712
REMARK minimizedRMSD -1
REMARK  0 active torsions:
REMARK  status: ('A' for Active; 'I' for Inactive)
ROOT
ATOM      1  C1  BNZ d   1      -6.000  -2.139   2.993  0.00  0.00     0.000 A 
ATOM      2  C2  BNZ d   1      -5.999  -2.610   4.278  0.00  0.00     0.000 A 
ATOM      3  C3  BNZ d   1      -4.846  -3.061   4.858  0.00  0.00     0.000 A 
ATOM      4  C4  BNZ d   1      -3.705  -3.077   4.139  0.00  0.00     0.000 A 
ATOM      5  C5  BNZ d   1      -3.691  -2.614   2.839  0.00  0.00     0.000 A 
ATOM      6  C6  BNZ d   1      -4.846  -2.125   2.271  0.00  0.00     0.000 A 
ENDROOT
TORSDOF 0
ENDMDL
