MODEL 1
REMARK minimizedAffinity 6.49640656
REMARK minimizedRMSD -1
REMARK  0 active torsions:
REMARK  status: ('A' for Active; 'I' for Inactive)
ROOT
ATOM      1  C1  BNZ d   1       3.338  -1.802  -0.202  0.00  0.00     0.000 A 
ATOM      2  C2  BNZ d   1       3.017  -0.510  -0.524  0.00  0.00     0.000 A 
ATOM      3  C3  BNZ d   1       2.246  -0.233  -1.618  0.00  0.00     0.000 A 
ATOM      4  C4  BNZ d   1       1.831  -1.243  -2.410  0.00  0.00     0.000 A 
ATOM      5  C5  BNZ d   1       2.155  -2.550  -2.104  0.00  0.00     0.000 A 
ATOM      6  C6  BNZ d   1       2.899  -2.828  -0.980  0.00  0.00     0.000 A 
ENDROOT
TORSDOF 0
ENDMDL
