MODEL 1
REMARK minimizedAffinity 6.67667961
REMARK minimizedRMSD -1
REMARK  0 active torsions:
REMARK  status: ('A' for Active; 'I' for Inactive)
ROOT
ATOM      1  C1  BNZ d   1      -3.373  -0.817   4.342  0.00  0.00     0.000 A 
ATOM      2  C2  BNZ d   1      -3.499  -0.521   3.011  0.00  0.00     0.000 A 
ATOM      3  C3  BNZ d   1      -3.396   0.769   2.569  0.00  0.00     0.000 A 
ATOM      4  C4  BNZ d   1      -3.206   1.762   3.460  0.00  0.00     0.000 A 
ATOM      5  C5  BNZ d   1      -3.086   1.480   4.807  0.00  0.00     0.000 A 
ATOM      6  C6  BNZ d   1      -3.152   0.177   5.244  0.00  0.00     0.000 A 
ENDROOT
TORSDOF 0
ENDMDL
