MODEL 1
REMARK minimizedAffinity -0.607726097
REMARK minimizedRMSD -1
REMARK  0 active torsions:
REMARK  status: ('A' for Active; 'I' for Inactive)
ROOT
ATOM      1  C1  BNZ d   1       3.876  -3.524  -0.292  0.00  0.00     0.000 A 
ATOM      2  C2  BNZ d   1       4.315  -4.668  -0.904  0.00  0.00     0.000 A 
ATOM      3  C3  BNZ d   1       3.834  -5.034  -2.129  0.00  0.00     0.000 A 
ATOM      4  C4  BNZ d   1       2.887  -4.280  -2.723  0.00  0.00     0.000 A 
ATOM      5  C5  BNZ d   1       2.427  -3.128  -2.115  0.00  0.00     0.000 A 
ATOM      6  C6  BNZ d   1       2.942  -2.741  -0.899  0.00  0.00     0.000 A 
ENDROOT
TORSDOF 0
ENDMDL
