MODEL 1
REMARK minimizedAffinity 13.6794996
REMARK minimizedRMSD -1
REMARK  0 active torsions:
REMARK  status: ('A' for Active; 'I' for Inactive)
ROOT
ATOM      1  C1  BNZ d   1      -0.739   2.635   4.909  0.00  0.00     0.000 A 
ATOM      2  C2  BNZ d   1      -0.345   2.286   3.645  0.00  0.00     0.000 A 
ATOM      3  C3  BNZ d   1       0.786   1.545   3.444  0.00  0.00     0.000 A 
ATOM      4  C4  BNZ d   1       1.542   1.189   4.502  0.00  0.00     0.000 A 
ATOM      5  C5  BNZ d   1       1.163   1.542   5.782  0.00  0.00     0.000 A 
ATOM      6  C6  BNZ d   1       0.004   2.254   5.984  0.00  0.00     0.000 A 
ENDROOT
TORSDOF 0
ENDMDL
