MODEL 1
REMARK minimizedAffinity 6.84293985
REMARK minimizedRMSD -1
REMARK  0 active torsions:
REMARK  status: ('A' for Active; 'I' for Inactive)
ROOT
ATOM      1  C1  BNZ d   1       4.227  -4.885  -2.356  0.00  0.00     0.000 A 
ATOM      2  C2  BNZ d   1       3.417  -3.789  -2.220  0.00  0.00     0.000 A 
ATOM      3  C3  BNZ d   1       2.138  -3.800  -2.702  0.00  0.00     0.000 A 
ATOM      4  C4  BNZ d   1       1.684  -4.890  -3.353  0.00  0.00     0.000 A 
ATOM      5  C5  BNZ d   1       2.491  -6.000  -3.506  0.00  0.00     0.000 A 
ATOM      6  C6  BNZ d   1       3.765  -6.000  -2.986  0.00  0.00     0.000 A 
ENDROOT
TORSDOF 0
ENDMDL
