MODEL 1
REMARK minimizedAffinity 5.89386177
REMARK minimizedRMSD -1
REMARK  0 active torsions:
REMARK  status: ('A' for Active; 'I' for Inactive)
ROOT
ATOM      1  C1  BNZ d   1      -1.892  -5.953  -0.370  0.00  0.00     0.000 A 
ATOM      2  C2  BNZ d   1      -3.215  -5.944  -0.015  0.00  0.00     0.000 A 
ATOM      3  C3  BNZ d   1      -4.195  -5.987  -0.967  0.00  0.00     0.000 A 
ATOM      4  C4  BNZ d   1      -3.853  -6.000  -2.271  0.00  0.00     0.000 A 
ATOM      5  C5  BNZ d   1      -2.524  -6.000  -2.645  0.00  0.00     0.000 A 
ATOM      6  C6  BNZ d   1      -1.540  -5.995  -1.684  0.00  0.00     0.000 A 
ENDROOT
TORSDOF 0
ENDMDL
