MODEL 1
REMARK minimizedAffinity 3.92345715
REMARK minimizedRMSD -1
REMARK  0 active torsions:
REMARK  status: ('A' for Active; 'I' for Inactive)
ROOT
ATOM      1  C1  BNZ d   1       2.443  -1.464  -0.921  0.00  0.00     0.000 A 
ATOM      2  C2  BNZ d   1       2.106  -0.177  -1.247  0.00  0.00     0.000 A 
ATOM      3  C3  BNZ d   1       1.802   0.162  -2.536  0.00  0.00     0.000 A 
ATOM      4  C4  BNZ d   1       1.876  -0.775  -3.503  0.00  0.00     0.000 A 
ATOM      5  C5  BNZ d   1       2.224  -2.074  -3.192  0.00  0.00     0.000 A 
ATOM      6  C6  BNZ d   1       2.491  -2.421  -1.888  0.00  0.00     0.000 A 
ENDROOT
TORSDOF 0
ENDMDL
