MODEL 1
REMARK minimizedAffinity 2.07416344
REMARK minimizedRMSD -1
REMARK  0 active torsions:
REMARK  status: ('A' for Active; 'I' for Inactive)
ROOT
ATOM      1  C1  BNZ d   1       4.932  -4.372  -4.276  0.00  0.00     0.000 A 
ATOM      2  C2  BNZ d   1       3.815  -3.752  -4.769  0.00  0.00     0.000 A 
ATOM      3  C3  BNZ d   1       2.670  -3.677  -4.026  0.00  0.00     0.000 A 
ATOM      4  C4  BNZ d   1       2.631  -4.258  -2.809  0.00  0.00     0.000 A 
ATOM      5  C5  BNZ d   1       3.745  -4.896  -2.302  0.00  0.00     0.000 A 
ATOM      6  C6  BNZ d   1       4.908  -4.935  -3.037  0.00  0.00     0.000 A 
ENDROOT
TORSDOF 0
ENDMDL
