MODEL 1
REMARK minimizedAffinity -0.99333322
REMARK minimizedRMSD -1
REMARK  0 active torsions:
REMARK  status: ('A' for Active; 'I' for Inactive)
ROOT
ATOM      1  C1  BNZ d   1       3.776  -4.420  -3.597  0.00  0.00     0.000 A 
ATOM      2  C2  BNZ d   1       4.379  -4.889  -2.460  0.00  0.00     0.000 A 
ATOM      3  C3  BNZ d   1       3.758  -4.791  -1.247  0.00  0.00     0.000 A 
ATOM      4  C4  BNZ d   1       2.553  -4.189  -1.165  0.00  0.00     0.000 A 
ATOM      5  C5  BNZ d   1       1.936  -3.704  -2.301  0.00  0.00     0.000 A 
ATOM      6  C6  BNZ d   1       2.547  -3.839  -3.526  0.00  0.00     0.000 A 
ENDROOT
TORSDOF 0
ENDMDL
