MODEL 1
REMARK minimizedAffinity 3.98174548
REMARK minimizedRMSD -1
REMARK  0 active torsions:
REMARK  status: ('A' for Active; 'I' for Inactive)
ROOT
ATOM      1  C1  BNZ d   1      -4.232  -2.086   3.672  0.00  0.00     0.000 A 
ATOM      2  C2  BNZ d   1      -4.278  -1.518   2.427  0.00  0.00     0.000 A 
ATOM      3  C3  BNZ d   1      -3.892  -0.221   2.234  0.00  0.00     0.000 A 
ATOM      4  C4  BNZ d   1      -3.499   0.518   3.292  0.00  0.00     0.000 A 
ATOM      5  C5  BNZ d   1      -3.456  -0.037   4.555  0.00  0.00     0.000 A 
ATOM      6  C6  BNZ d   1      -3.808  -1.355   4.739  0.00  0.00     0.000 A 
ENDROOT
TORSDOF 0
ENDMDL
