MODEL 1
REMARK minimizedAffinity 0.316841751
REMARK minimizedRMSD -1
REMARK  0 active torsions:
REMARK  status: ('A' for Active; 'I' for Inactive)
ROOT
ATOM      1  C   UNL d   1       2.093  -0.313   1.781  0.00  0.00     0.124 A 
ATOM      2  C1  UNL d   1       1.610  -1.370   1.022  0.00  0.00     0.062 A 
ATOM      3  C2  UNL d   1       0.541  -1.176   0.153  0.00  0.00     0.162 A 
ATOM      4  C3  UNL d   1      -0.054   0.081   0.037  0.00  0.00    -0.034 A 
ATOM      5  C4  UNL d   1       0.437   1.139   0.805  0.00  0.00     0.162 A 
ATOM      6  C5  UNL d   1       1.507   0.940   1.672  0.00  0.00     0.062 A 
ATOM      7  F   UNL d   1       1.972   1.962   2.405  0.00  0.00    -0.097 F 
ATOM      8  F1  UNL d   1      -0.111   2.360   0.719  0.00  0.00    -0.096 F 
ATOM      9  I   UNL d   1      -1.653   0.375  -1.261  0.00  0.00    -0.060 I 
ATOM     10  F2  UNL d   1       0.094  -2.215  -0.569  0.00  0.00    -0.096 F 
ATOM     11  F3  UNL d   1       2.175  -2.581   1.126  0.00  0.00    -0.097 F 
ATOM     12  F4  UNL d   1       3.122  -0.503   2.617  0.00  0.00    -0.092 F 
ENDROOT
TORSDOF 0
ENDMDL
