MODEL 1
REMARK minimizedAffinity 12.2246094
REMARK minimizedRMSD -1
REMARK  0 active torsions:
REMARK  status: ('A' for Active; 'I' for Inactive)
ROOT
ATOM      1  C   UNL d   1       2.564   2.113   2.655  0.00  0.00     0.124 A 
ATOM      2  C1  UNL d   1       1.999   2.319   1.404  0.00  0.00     0.062 A 
ATOM      3  C2  UNL d   1       1.356   1.275   0.746  0.00  0.00     0.162 A 
ATOM      4  C3  UNL d   1       1.273   0.015   1.337  0.00  0.00    -0.034 A 
ATOM      5  C4  UNL d   1       1.844  -0.186   2.595  0.00  0.00     0.162 A 
ATOM      6  C5  UNL d   1       2.486   0.861   3.249  0.00  0.00     0.062 A 
ATOM      7  F   UNL d   1       3.031   0.659   4.458  0.00  0.00    -0.097 F 
ATOM      8  F1  UNL d   1       1.782  -1.385   3.193  0.00  0.00    -0.096 F 
ATOM      9  I   UNL d   1       0.312  -1.549   0.356  0.00  0.00    -0.060 I 
ATOM     10  F2  UNL d   1       0.820   1.504  -0.462  0.00  0.00    -0.096 F 
ATOM     11  F3  UNL d   1       2.074   3.527   0.828  0.00  0.00    -0.097 F 
ATOM     12  F4  UNL d   1       3.183   3.118   3.286  0.00  0.00    -0.092 F 
ENDROOT
TORSDOF 0
ENDMDL
