MODEL 1
REMARK minimizedAffinity 16.6193504
REMARK minimizedRMSD -1
REMARK  0 active torsions:
REMARK  status: ('A' for Active; 'I' for Inactive)
ROOT
ATOM      1  C   UNL d   1       2.430   1.998   2.700  0.00  0.00     0.124 A 
ATOM      2  C1  UNL d   1       2.465   0.705   3.202  0.00  0.00     0.062 A 
ATOM      3  C2  UNL d   1       1.873  -0.337   2.494  0.00  0.00     0.162 A 
ATOM      4  C3  UNL d   1       1.241  -0.091   1.275  0.00  0.00    -0.034 A 
ATOM      5  C4  UNL d   1       1.209   1.213   0.777  0.00  0.00     0.162 A 
ATOM      6  C5  UNL d   1       1.802   2.251   1.488  0.00  0.00     0.062 A 
ATOM      7  F   UNL d   1       1.767   3.500   1.001  0.00  0.00    -0.097 F 
ATOM      8  F1  UNL d   1       0.610   1.486  -0.392  0.00  0.00    -0.096 F 
ATOM      9  I   UNL d   1       0.355  -1.646   0.214  0.00  0.00    -0.060 I 
ATOM     10  F2  UNL d   1       1.922  -1.577   3.003  0.00  0.00    -0.096 F 
ATOM     11  F3  UNL d   1       3.070   0.458   4.373  0.00  0.00    -0.097 F 
ATOM     12  F4  UNL d   1       3.000   2.999   3.383  0.00  0.00    -0.092 F 
ENDROOT
TORSDOF 0
ENDMDL
