MODEL 1
REMARK minimizedAffinity 4.62280703
REMARK minimizedRMSD -1
REMARK  0 active torsions:
REMARK  status: ('A' for Active; 'I' for Inactive)
ROOT
ATOM      1  C   UNL d   1       2.459   0.994   2.773  0.00  0.00     0.124 A 
ATOM      2  C1  UNL d   1       2.011   1.474   1.550  0.00  0.00     0.062 A 
ATOM      3  C2  UNL d   1       1.244   0.664   0.718  0.00  0.00     0.162 A 
ATOM      4  C3  UNL d   1       0.918  -0.635   1.107  0.00  0.00    -0.034 A 
ATOM      5  C4  UNL d   1       1.373  -1.112   2.338  0.00  0.00     0.162 A 
ATOM      6  C5  UNL d   1       2.140  -0.298   3.165  0.00  0.00     0.062 A 
ATOM      7  F   UNL d   1       2.572  -0.764   4.346  0.00  0.00    -0.097 F 
ATOM      8  F1  UNL d   1       1.079  -2.356   2.743  0.00  0.00    -0.096 F 
ATOM      9  I   UNL d   1      -0.229  -1.850  -0.133  0.00  0.00    -0.060 I 
ATOM     10  F2  UNL d   1       0.824   1.154  -0.458  0.00  0.00    -0.096 F 
ATOM     11  F3  UNL d   1       2.319   2.722   1.168  0.00  0.00    -0.097 F 
ATOM     12  F4  UNL d   1       3.198   1.776   3.570  0.00  0.00    -0.092 F 
ENDROOT
TORSDOF 0
ENDMDL
