MODEL 1
REMARK minimizedAffinity 14.6926966
REMARK minimizedRMSD -1
REMARK  0 active torsions:
REMARK  status: ('A' for Active; 'I' for Inactive)
ROOT
ATOM      1  C   UNL d   1       1.411   0.954   1.432  0.00  0.00     0.124 A 
ATOM      2  C1  UNL d   1       2.229   0.589   2.492  0.00  0.00     0.062 A 
ATOM      3  C2  UNL d   1       2.127  -0.682   3.049  0.00  0.00     0.162 A 
ATOM      4  C3  UNL d   1       1.204  -1.599   2.547  0.00  0.00    -0.034 A 
ATOM      5  C4  UNL d   1       0.383  -1.224   1.482  0.00  0.00     0.162 A 
ATOM      6  C5  UNL d   1       0.489   0.048   0.928  0.00  0.00     0.062 A 
ATOM      7  F   UNL d   1      -0.302   0.399  -0.096  0.00  0.00    -0.097 F 
ATOM      8  F1  UNL d   1      -0.516  -2.080   0.974  0.00  0.00    -0.096 F 
ATOM      9  I   UNL d   1       1.048  -3.500   3.378  0.00  0.00    -0.060 I 
ATOM     10  F2  UNL d   1       2.931  -1.008   4.073  0.00  0.00    -0.096 F 
ATOM     11  F3  UNL d   1       3.121   1.464   2.981  0.00  0.00    -0.097 F 
ATOM     12  F4  UNL d   1       1.511   2.179   0.898  0.00  0.00    -0.092 F 
ENDROOT
TORSDOF 0
ENDMDL
