MODEL 1
REMARK minimizedAffinity 6.9340744
REMARK minimizedRMSD -1
REMARK  0 active torsions:
REMARK  status: ('A' for Active; 'I' for Inactive)
ROOT
ATOM      1  C   UNL d   1       2.634   1.522   2.617  0.00  0.00     0.124 A 
ATOM      2  C1  UNL d   1       2.198   1.930   1.364  0.00  0.00     0.062 A 
ATOM      3  C2  UNL d   1       1.319   1.134   0.635  0.00  0.00     0.162 A 
ATOM      4  C3  UNL d   1       0.869  -0.079   1.158  0.00  0.00    -0.034 A 
ATOM      5  C4  UNL d   1       1.313  -0.483   2.418  0.00  0.00     0.162 A 
ATOM      6  C5  UNL d   1       2.191   0.317   3.143  0.00  0.00     0.062 A 
ATOM      7  F   UNL d   1       2.611  -0.079   4.353  0.00  0.00    -0.097 F 
ATOM      8  F1  UNL d   1       0.900  -1.642   2.951  0.00  0.00    -0.096 F 
ATOM      9  I   UNL d   1      -0.444  -1.272   0.071  0.00  0.00    -0.060 I 
ATOM     10  F2  UNL d   1       0.915   1.553  -0.574  0.00  0.00    -0.096 F 
ATOM     11  F3  UNL d   1       2.625   3.094   0.853  0.00  0.00    -0.097 F 
ATOM     12  F4  UNL d   1       3.480   2.290   3.315  0.00  0.00    -0.092 F 
ENDROOT
TORSDOF 0
ENDMDL
