MODEL 1
REMARK minimizedAffinity 9.09481239
REMARK minimizedRMSD -1
REMARK  0 active torsions:
REMARK  status: ('A' for Active; 'I' for Inactive)
ROOT
ATOM      1  C   UNL d   1      -0.114   1.127  -0.279  0.00  0.00     0.124 A 
ATOM      2  C1  UNL d   1      -0.136  -0.192   0.154  0.00  0.00     0.062 A 
ATOM      3  C2  UNL d   1       0.678  -0.597   1.208  0.00  0.00     0.162 A 
ATOM      4  C3  UNL d   1       1.520   0.319   1.838  0.00  0.00    -0.034 A 
ATOM      5  C4  UNL d   1       1.538   1.643   1.397  0.00  0.00     0.162 A 
ATOM      6  C5  UNL d   1       0.723   2.043   0.343  0.00  0.00     0.062 A 
ATOM      7  F   UNL d   1       0.746   3.317  -0.074  0.00  0.00    -0.097 F 
ATOM      8  F1  UNL d   1       2.337   2.550   1.980  0.00  0.00    -0.096 F 
ATOM      9  I   UNL d   1       2.739  -0.282   3.415  0.00  0.00    -0.060 I 
ATOM     10  F2  UNL d   1       0.635  -1.877   1.605  0.00  0.00    -0.096 F 
ATOM     11  F3  UNL d   1      -0.943  -1.079  -0.445  0.00  0.00    -0.097 F 
ATOM     12  F4  UNL d   1      -0.897   1.513  -1.294  0.00  0.00    -0.092 F 
ENDROOT
TORSDOF 0
ENDMDL
