MODEL 1
REMARK minimizedAffinity -2.54932237
REMARK minimizedRMSD -1
REMARK  0 active torsions:
REMARK  status: ('A' for Active; 'I' for Inactive)
ROOT
ATOM      1  C   UNL d   1       2.581  -1.541   3.045  0.00  0.00     0.124 A 
ATOM      2  C1  UNL d   1       1.345  -1.806   2.472  0.00  0.00     0.062 A 
ATOM      3  C2  UNL d   1       0.827  -0.955   1.500  0.00  0.00     0.162 A 
ATOM      4  C3  UNL d   1       1.547   0.169   1.093  0.00  0.00    -0.034 A 
ATOM      5  C4  UNL d   1       2.789   0.429   1.675  0.00  0.00     0.162 A 
ATOM      6  C5  UNL d   1       3.302  -0.424   2.646  0.00  0.00     0.062 A 
ATOM      7  F   UNL d   1       4.496  -0.167   3.199  0.00  0.00    -0.097 F 
ATOM      8  F1  UNL d   1       3.506   1.501   1.307  0.00  0.00    -0.096 F 
ATOM      9  I   UNL d   1       0.776   1.444  -0.360  0.00  0.00    -0.060 I 
ATOM     10  F2  UNL d   1      -0.369  -1.236   0.963  0.00  0.00    -0.096 F 
ATOM     11  F3  UNL d   1       0.647  -2.884   2.856  0.00  0.00    -0.097 F 
ATOM     12  F4  UNL d   1       3.076  -2.361   3.981  0.00  0.00    -0.092 F 
ENDROOT
TORSDOF 0
ENDMDL
