MODEL 1
REMARK minimizedAffinity 7.05662823
REMARK minimizedRMSD -1
REMARK  0 active torsions:
REMARK  status: ('A' for Active; 'I' for Inactive)
ROOT
ATOM      1  C   UNL d   1       2.711   1.275   2.922  0.00  0.00     0.124 A 
ATOM      2  C1  UNL d   1       2.355   0.082   3.535  0.00  0.00     0.062 A 
ATOM      3  C2  UNL d   1       1.734  -0.924   2.800  0.00  0.00     0.162 A 
ATOM      4  C3  UNL d   1       1.467  -0.742   1.443  0.00  0.00    -0.034 A 
ATOM      5  C4  UNL d   1       1.828   0.461   0.834  0.00  0.00     0.162 A 
ATOM      6  C5  UNL d   1       2.448   1.464   1.572  0.00  0.00     0.062 A 
ATOM      7  F   UNL d   1       2.792   2.616   0.979  0.00  0.00    -0.097 F 
ATOM      8  F1  UNL d   1       1.586   0.669  -0.469  0.00  0.00    -0.096 F 
ATOM      9  I   UNL d   1       0.540  -2.244   0.341  0.00  0.00    -0.060 I 
ATOM     10  F2  UNL d   1       1.401  -2.067   3.418  0.00  0.00    -0.096 F 
ATOM     11  F3  UNL d   1       2.607  -0.102   4.839  0.00  0.00    -0.097 F 
ATOM     12  F4  UNL d   1       3.307   2.242   3.632  0.00  0.00    -0.092 F 
ENDROOT
TORSDOF 0
ENDMDL
