MODEL 1
REMARK minimizedAffinity -2.05631757
REMARK minimizedRMSD -1
REMARK  0 active torsions:
REMARK  status: ('A' for Active; 'I' for Inactive)
ROOT
ATOM      1  C   UNL d   1      -1.263   0.197   1.205  0.00  0.00     0.077 C 
ATOM      2  C1  UNL d   1      -0.101  -0.737   1.367  0.00  0.00    -0.074 A 
ATOM      3  C2  UNL d   1       0.136  -1.385   2.584  0.00  0.00    -0.005 A 
ATOM      4  C3  UNL d   1       1.215  -2.258   2.718  0.00  0.00     0.006 A 
ATOM      5  C4  UNL d   1       2.067  -2.493   1.638  0.00  0.00    -0.005 A 
ATOM      6  C5  UNL d   1       1.845  -1.855   0.413  0.00  0.00    -0.074 A 
ATOM      7  C6  UNL d   1       2.745  -2.104  -0.761  0.00  0.00     0.077 C 
ATOM      8  C7  UNL d   1       0.755  -0.984   0.285  0.00  0.00    -0.001 A 
ENDROOT
TORSDOF 0
ENDMDL
