MODEL 1
REMARK minimizedAffinity -2.55916739
REMARK minimizedRMSD -1
REMARK  0 active torsions:
REMARK  status: ('A' for Active; 'I' for Inactive)
ROOT
ATOM      1  C   UNL d   1       1.590  -1.409   2.964  0.00  0.00     0.077 C 
ATOM      2  C1  UNL d   1       0.430  -0.987   2.110  0.00  0.00    -0.074 A 
ATOM      3  C2  UNL d   1      -0.886  -1.245   2.507  0.00  0.00    -0.005 A 
ATOM      4  C3  UNL d   1      -1.954  -0.839   1.708  0.00  0.00     0.006 A 
ATOM      5  C4  UNL d   1      -1.717  -0.172   0.505  0.00  0.00    -0.005 A 
ATOM      6  C5  UNL d   1      -0.408   0.095   0.092  0.00  0.00    -0.074 A 
ATOM      7  C6  UNL d   1      -0.136   0.819  -1.193  0.00  0.00     0.077 C 
ATOM      8  C7  UNL d   1       0.660  -0.310   0.904  0.00  0.00    -0.001 A 
ENDROOT
TORSDOF 0
ENDMDL
