MODEL 1
REMARK minimizedAffinity -4.07110214
REMARK minimizedRMSD -1
REMARK  0 active torsions:
REMARK  status: ('A' for Active; 'I' for Inactive)
ROOT
ATOM      1  C   UNL d   1       2.978  -1.541  -0.239  0.00  0.00     0.077 C 
ATOM      2  C1  UNL d   1       1.696  -0.834   0.087  0.00  0.00    -0.074 A 
ATOM      3  C2  UNL d   1       1.262  -0.707   1.411  0.00  0.00    -0.005 A 
ATOM      4  C3  UNL d   1       0.072  -0.038   1.699  0.00  0.00     0.006 A 
ATOM      5  C4  UNL d   1      -0.693   0.511   0.670  0.00  0.00    -0.005 A 
ATOM      6  C5  UNL d   1      -0.274   0.395  -0.659  0.00  0.00    -0.074 A 
ATOM      7  C6  UNL d   1      -1.080   0.987  -1.777  0.00  0.00     0.077 C 
ATOM      8  C7  UNL d   1       0.925  -0.273  -0.941  0.00  0.00    -0.001 A 
ENDROOT
TORSDOF 0
ENDMDL
