MODEL 1
REMARK minimizedAffinity -0.308589339
REMARK minimizedRMSD -1
REMARK  0 active torsions:
REMARK  status: ('A' for Active; 'I' for Inactive)
ROOT
ATOM      1  C   UNL d   1       1.591   0.225   0.582  0.00  0.00     0.077 C 
ATOM      2  C1  UNL d   1       0.412   0.437  -0.320  0.00  0.00    -0.074 A 
ATOM      3  C2  UNL d   1      -0.699  -0.411  -0.262  0.00  0.00    -0.005 A 
ATOM      4  C3  UNL d   1      -1.793  -0.196  -1.100  0.00  0.00     0.006 A 
ATOM      5  C4  UNL d   1      -1.787   0.867  -2.004  0.00  0.00    -0.005 A 
ATOM      6  C5  UNL d   1      -0.686   1.726  -2.075  0.00  0.00    -0.074 A 
ATOM      7  C6  UNL d   1      -0.668   2.880  -3.033  0.00  0.00     0.077 C 
ATOM      8  C7  UNL d   1       0.407   1.508  -1.224  0.00  0.00    -0.001 A 
ENDROOT
TORSDOF 0
ENDMDL
