MODEL 1
REMARK minimizedAffinity -3.37070274
REMARK minimizedRMSD -1
REMARK  0 active torsions:
REMARK  status: ('A' for Active; 'I' for Inactive)
ROOT
ATOM      1  C   UNL d   1      -0.383  -0.826   2.642  0.00  0.00     0.077 C 
ATOM      2  C1  UNL d   1       0.123  -0.656   1.240  0.00  0.00    -0.074 A 
ATOM      3  C2  UNL d   1       1.205  -1.407   0.771  0.00  0.00    -0.005 A 
ATOM      4  C3  UNL d   1       1.659  -1.245  -0.539  0.00  0.00     0.006 A 
ATOM      5  C4  UNL d   1       1.035  -0.332  -1.390  0.00  0.00    -0.005 A 
ATOM      6  C5  UNL d   1      -0.049   0.427  -0.938  0.00  0.00    -0.074 A 
ATOM      7  C6  UNL d   1      -0.737   1.405  -1.843  0.00  0.00     0.077 C 
ATOM      8  C7  UNL d   1      -0.503   0.253   0.376  0.00  0.00    -0.001 A 
ENDROOT
TORSDOF 0
ENDMDL
