MODEL 1
REMARK minimizedAffinity -4.99864149
REMARK minimizedRMSD -1
REMARK  0 active torsions:
REMARK  status: ('A' for Active; 'I' for Inactive)
ROOT
ATOM      1  C   UNL d   1       1.861  -1.505   3.210  0.00  0.00     0.077 C 
ATOM      2  C1  UNL d   1       1.091  -1.195   1.960  0.00  0.00    -0.074 A 
ATOM      3  C2  UNL d   1      -0.204  -0.669   2.026  0.00  0.00    -0.005 A 
ATOM      4  C3  UNL d   1      -0.904  -0.377   0.855  0.00  0.00     0.006 A 
ATOM      5  C4  UNL d   1      -0.318  -0.608  -0.390  0.00  0.00    -0.005 A 
ATOM      6  C5  UNL d   1       0.976  -1.132  -0.475  0.00  0.00    -0.074 A 
ATOM      7  C6  UNL d   1       1.624  -1.376  -1.805  0.00  0.00     0.077 C 
ATOM      8  C7  UNL d   1       1.676  -1.416   0.706  0.00  0.00    -0.001 A 
ENDROOT
TORSDOF 0
ENDMDL
