MODEL 1
REMARK minimizedAffinity -5.5142107
REMARK minimizedRMSD -1
REMARK  0 active torsions:
REMARK  status: ('A' for Active; 'I' for Inactive)
ROOT
ATOM      1  C   UNL d   1       2.025  -1.712   2.757  0.00  0.00     0.077 C 
ATOM      2  C1  UNL d   1       1.275  -1.423   1.491  0.00  0.00    -0.074 A 
ATOM      3  C2  UNL d   1       1.874  -1.613   0.241  0.00  0.00    -0.005 A 
ATOM      4  C3  UNL d   1       1.161  -1.350  -0.928  0.00  0.00     0.006 A 
ATOM      5  C4  UNL d   1      -0.156  -0.894  -0.860  0.00  0.00    -0.005 A 
ATOM      6  C5  UNL d   1      -0.772  -0.699   0.380  0.00  0.00    -0.074 A 
ATOM      7  C6  UNL d   1      -2.191  -0.220   0.471  0.00  0.00     0.077 C 
ATOM      8  C7  UNL d   1      -0.051  -0.973   1.551  0.00  0.00    -0.001 A 
ENDROOT
TORSDOF 0
ENDMDL
