MODEL 1
REMARK minimizedAffinity -2.98582506
REMARK minimizedRMSD -1
REMARK  1 active torsions:
REMARK  status: ('A' for Active; 'I' for Inactive)
REMARK    1  A    between atoms: C3_4  and  O_7 
ROOT
ATOM      1  C   UNL d   1       6.000  -3.852   5.997  0.00  0.00    -0.033 A 
ATOM      2  C1  UNL d   1       5.190  -2.948   5.306  0.00  0.00     0.039 A 
ATOM      3  C2  UNL d   1       4.146  -3.414   4.505  0.00  0.00    -0.080 A 
ATOM      4  C3  UNL d   1       3.922  -4.784   4.404  0.00  0.00     0.150 A 
ATOM      5  C4  UNL d   1       4.722  -5.690   5.092  0.00  0.00    -0.007 A 
ATOM      6  C5  UNL d   1       5.765  -5.223   5.890  0.00  0.00     0.039 A 
ENDROOT
BRANCH   4   7
ATOM      7  O   UNL d   1       2.918  -5.287   3.630  0.00  0.00    -0.526 OA
ATOM      8  H5  UNL d   1       2.467  -4.546   3.192  0.00  0.00     0.418 HD
ENDBRANCH   4   7
TORSDOF 1
ENDMDL
