MODEL 1
REMARK minimizedAffinity 4.42126131
REMARK minimizedRMSD -1
REMARK  1 active torsions:
REMARK  status: ('A' for Active; 'I' for Inactive)
REMARK    1  A    between atoms: C3_4  and  O_7 
ROOT
ATOM      1  C   UNL d   1       5.697   4.889   0.614  0.00  0.00    -0.033 A 
ATOM      2  C1  UNL d   1       6.000   5.999   1.404  0.00  0.00     0.039 A 
ATOM      3  C2  UNL d   1       5.735   5.976   2.775  0.00  0.00    -0.080 A 
ATOM      4  C3  UNL d   1       5.169   4.838   3.343  0.00  0.00     0.150 A 
ATOM      5  C4  UNL d   1       4.869   3.726   2.562  0.00  0.00    -0.007 A 
ATOM      6  C5  UNL d   1       5.132   3.752   1.193  0.00  0.00     0.039 A 
ENDROOT
BRANCH   4   7
ATOM      7  O   UNL d   1       4.889   4.770   4.675  0.00  0.00    -0.526 OA
ATOM      8  H5  UNL d   1       5.123   5.620   5.082  0.00  0.00     0.418 HD
ENDBRANCH   4   7
TORSDOF 1
ENDMDL
