MODEL 1
REMARK minimizedAffinity 5.81735849
REMARK minimizedRMSD -1
REMARK  1 active torsions:
REMARK  status: ('A' for Active; 'I' for Inactive)
REMARK    1  A    between atoms: C3_4  and  O_7 
ROOT
ATOM      1  C   UNL d   1      -2.709   1.637   1.210  0.00  0.00    -0.033 A 
ATOM      2  C1  UNL d   1      -3.238   2.915   1.023  0.00  0.00     0.039 A 
ATOM      3  C2  UNL d   1      -3.156   3.863   2.044  0.00  0.00    -0.080 A 
ATOM      4  C3  UNL d   1      -2.544   3.521   3.247  0.00  0.00     0.150 A 
ATOM      5  C4  UNL d   1      -2.012   2.250   3.439  0.00  0.00    -0.007 A 
ATOM      6  C5  UNL d   1      -2.095   1.305   2.418  0.00  0.00     0.039 A 
ENDROOT
BRANCH   4   7
ATOM      7  O   UNL d   1      -2.445   4.411   4.275  0.00  0.00    -0.526 OA
ATOM      8  H5  UNL d   1      -2.881   5.238   4.009  0.00  0.00     0.418 HD
ENDBRANCH   4   7
TORSDOF 1
ENDMDL
