MODEL 1
REMARK minimizedAffinity 11.2994881
REMARK minimizedRMSD -1
REMARK  1 active torsions:
REMARK  status: ('A' for Active; 'I' for Inactive)
REMARK    1  A    between atoms: C3_4  and  O_7 
ROOT
ATOM      1  C   UNL d   1      -1.254   6.000   5.152  0.00  0.00    -0.033 A 
ATOM      2  C1  UNL d   1      -2.364   5.999   6.000  0.00  0.00     0.039 A 
ATOM      3  C2  UNL d   1      -3.653   5.998   5.465  0.00  0.00    -0.080 A 
ATOM      4  C3  UNL d   1      -3.820   5.996   4.083  0.00  0.00     0.150 A 
ATOM      5  C4  UNL d   1      -2.720   5.993   3.232  0.00  0.00    -0.007 A 
ATOM      6  C5  UNL d   1      -1.433   5.995   3.768  0.00  0.00     0.039 A 
ENDROOT
BRANCH   4   7
ATOM      7  O   UNL d   1      -5.059   6.000   3.515  0.00  0.00    -0.526 OA
ATOM      8  H5  UNL d   1      -5.723   6.031   4.224  0.00  0.00     0.418 HD
ENDBRANCH   4   7
TORSDOF 1
ENDMDL
