MODEL 1
REMARK minimizedAffinity 7.83331347
REMARK minimizedRMSD -1
REMARK  1 active torsions:
REMARK  status: ('A' for Active; 'I' for Inactive)
REMARK    1  A    between atoms: C3_4  and  O_7 
ROOT
ATOM      1  C   UNL d   1      -4.085   4.314   3.065  0.00  0.00    -0.033 A 
ATOM      2  C1  UNL d   1      -2.913   3.615   3.362  0.00  0.00     0.039 A 
ATOM      3  C2  UNL d   1      -2.044   4.092   4.345  0.00  0.00    -0.080 A 
ATOM      4  C3  UNL d   1      -2.358   5.266   5.024  0.00  0.00     0.150 A 
ATOM      5  C4  UNL d   1      -3.526   5.965   4.736  0.00  0.00    -0.007 A 
ATOM      6  C5  UNL d   1      -4.392   5.488   3.753  0.00  0.00     0.039 A 
ENDROOT
BRANCH   4   7
ATOM      7  O   UNL d   1      -1.539   5.773   5.988  0.00  0.00    -0.526 OA
ATOM      8  H5  UNL d   1      -0.757   5.201   6.059  0.00  0.00     0.418 HD
ENDBRANCH   4   7
TORSDOF 1
ENDMDL
