MODEL 1
REMARK minimizedAffinity 5.39152098
REMARK minimizedRMSD -1
REMARK  1 active torsions:
REMARK  status: ('A' for Active; 'I' for Inactive)
REMARK    1  A    between atoms: C3_4  and  O_7 
ROOT
ATOM      1  C   UNL d   1      -3.353   0.327   3.633  0.00  0.00    -0.033 A 
ATOM      2  C1  UNL d   1      -2.680   1.535   3.440  0.00  0.00     0.039 A 
ATOM      3  C2  UNL d   1      -3.344   2.622   2.867  0.00  0.00    -0.080 A 
ATOM      4  C3  UNL d   1      -4.679   2.488   2.494  0.00  0.00     0.150 A 
ATOM      5  C4  UNL d   1      -5.356   1.288   2.687  0.00  0.00    -0.007 A 
ATOM      6  C5  UNL d   1      -4.691   0.204   3.258  0.00  0.00     0.039 A 
ENDROOT
BRANCH   4   7
ATOM      7  O   UNL d   1      -5.367   3.519   1.927  0.00  0.00    -0.526 OA
ATOM      8  H5  UNL d   1      -4.764   4.274   1.829  0.00  0.00     0.418 HD
ENDBRANCH   4   7
TORSDOF 1
ENDMDL
