MODEL 1
REMARK minimizedAffinity -1.34027541
REMARK minimizedRMSD -1
REMARK  1 active torsions:
REMARK  status: ('A' for Active; 'I' for Inactive)
REMARK    1  A    between atoms: C3_4  and  O_7 
ROOT
ATOM      1  C   UNL d   1       4.846   5.603   0.000  0.00  0.00    -0.033 A 
ATOM      2  C1  UNL d   1       5.983   5.149   0.671  0.00  0.00     0.039 A 
ATOM      3  C2  UNL d   1       5.998   5.094   2.066  0.00  0.00    -0.080 A 
ATOM      4  C3  UNL d   1       4.871   5.495   2.778  0.00  0.00     0.150 A 
ATOM      5  C4  UNL d   1       3.733   5.945   2.116  0.00  0.00    -0.007 A 
ATOM      6  C5  UNL d   1       3.720   6.000   0.723  0.00  0.00     0.039 A 
ENDROOT
BRANCH   4   7
ATOM      7  O   UNL d   1       4.840   5.464   4.140  0.00  0.00    -0.526 OA
ATOM      8  H5  UNL d   1       5.705   5.159   4.461  0.00  0.00     0.418 HD
ENDBRANCH   4   7
TORSDOF 1
ENDMDL
