MODEL 1
REMARK minimizedAffinity -1.68262303
REMARK minimizedRMSD -1
REMARK  1 active torsions:
REMARK  status: ('A' for Active; 'I' for Inactive)
REMARK    1  A    between atoms: C3_4  and  O_7 
ROOT
ATOM      1  C   UNL d   1      -1.721   4.880   5.251  0.00  0.00    -0.033 A 
ATOM      2  C1  UNL d   1      -2.237   4.268   4.107  0.00  0.00     0.039 A 
ATOM      3  C2  UNL d   1      -3.553   4.519   3.712  0.00  0.00    -0.080 A 
ATOM      4  C3  UNL d   1      -4.340   5.383   4.468  0.00  0.00     0.150 A 
ATOM      5  C4  UNL d   1      -3.831   5.999   5.607  0.00  0.00    -0.007 A 
ATOM      6  C5  UNL d   1      -2.517   5.747   6.000  0.00  0.00     0.039 A 
ENDROOT
BRANCH   4   7
ATOM      7  O   UNL d   1      -5.631   5.655   4.125  0.00  0.00    -0.526 OA
ATOM      8  H5  UNL d   1      -5.855   5.137   3.334  0.00  0.00     0.418 HD
ENDBRANCH   4   7
TORSDOF 1
ENDMDL
