MODEL 1
REMARK minimizedAffinity 3.35360074
REMARK minimizedRMSD -1
REMARK  1 active torsions:
REMARK  status: ('A' for Active; 'I' for Inactive)
REMARK    1  A    between atoms: C3_4  and  O_7 
ROOT
ATOM      1  C   UNL d   1       4.687   4.958   1.832  0.00  0.00    -0.033 A 
ATOM      2  C1  UNL d   1       5.847   4.595   2.520  0.00  0.00     0.039 A 
ATOM      3  C2  UNL d   1       5.998   4.937   3.865  0.00  0.00    -0.080 A 
ATOM      4  C3  UNL d   1       4.984   5.639   4.510  0.00  0.00     0.150 A 
ATOM      5  C4  UNL d   1       3.824   6.000   3.832  0.00  0.00    -0.007 A 
ATOM      6  C5  UNL d   1       3.675   5.659   2.488  0.00  0.00     0.039 A 
ENDROOT
BRANCH   4   7
ATOM      7  O   UNL d   1       5.088   5.998   5.821  0.00  0.00    -0.526 OA
ATOM      8  H5  UNL d   1       5.955   5.707   6.152  0.00  0.00     0.418 HD
ENDBRANCH   4   7
TORSDOF 1
ENDMDL
