MODEL 1
REMARK minimizedAffinity 7.45724249
REMARK minimizedRMSD -1
REMARK  1 active torsions:
REMARK  status: ('A' for Active; 'I' for Inactive)
REMARK    1  A    between atoms: C3_4  and  O_7 
ROOT
ATOM      1  C   UNL d   1      -1.353   4.829   5.375  0.00  0.00    -0.033 A 
ATOM      2  C1  UNL d   1      -1.758   4.180   4.206  0.00  0.00     0.039 A 
ATOM      3  C2  UNL d   1      -3.018   4.439   3.664  0.00  0.00    -0.080 A 
ATOM      4  C3  UNL d   1      -3.862   5.347   4.297  0.00  0.00     0.150 A 
ATOM      5  C4  UNL d   1      -3.463   6.000   5.459  0.00  0.00    -0.007 A 
ATOM      6  C5  UNL d   1      -2.205   5.740   6.000  0.00  0.00     0.039 A 
ENDROOT
BRANCH   4   7
ATOM      7  O   UNL d   1      -5.103   5.628   3.807  0.00  0.00    -0.526 OA
ATOM      8  H5  UNL d   1      -5.253   5.082   3.017  0.00  0.00     0.418 HD
ENDBRANCH   4   7
TORSDOF 1
ENDMDL
