MODEL 1
REMARK minimizedAffinity 3.24287295
REMARK minimizedRMSD -1
REMARK  1 active torsions:
REMARK  status: ('A' for Active; 'I' for Inactive)
REMARK    1  A    between atoms: C3_4  and  O_7 
ROOT
ATOM      1  C   UNL d   1      -5.488  -0.625  -0.752  0.00  0.00    -0.033 A 
ATOM      2  C1  UNL d   1      -6.000  -0.752   0.541  0.00  0.00     0.039 A 
ATOM      3  C2  UNL d   1      -5.150  -0.645   1.644  0.00  0.00    -0.080 A 
ATOM      4  C3  UNL d   1      -3.793  -0.410   1.440  0.00  0.00     0.150 A 
ATOM      5  C4  UNL d   1      -3.277  -0.278   0.155  0.00  0.00    -0.007 A 
ATOM      6  C5  UNL d   1      -4.127  -0.386  -0.945  0.00  0.00     0.039 A 
ENDROOT
BRANCH   4   7
ATOM      7  O   UNL d   1      -2.924  -0.302   2.485  0.00  0.00    -0.526 OA
ATOM      8  H5  UNL d   1      -3.416  -0.443   3.311  0.00  0.00     0.418 HD
ENDBRANCH   4   7
TORSDOF 1
ENDMDL
