MODEL 1
REMARK minimizedAffinity 6.05934525
REMARK minimizedRMSD -1
REMARK  1 active torsions:
REMARK  status: ('A' for Active; 'I' for Inactive)
REMARK    1  A    between atoms: C3_4  and  O_7 
ROOT
ATOM      1  C   UNL d   1      -4.461   0.477   2.162  0.00  0.00    -0.033 A 
ATOM      2  C1  UNL d   1      -3.545  -0.576   2.202  0.00  0.00     0.039 A 
ATOM      3  C2  UNL d   1      -2.200  -0.323   2.477  0.00  0.00    -0.080 A 
ATOM      4  C3  UNL d   1      -1.784   0.985   2.711  0.00  0.00     0.150 A 
ATOM      5  C4  UNL d   1      -2.692   2.038   2.677  0.00  0.00    -0.007 A 
ATOM      6  C5  UNL d   1      -4.035   1.784   2.401  0.00  0.00     0.039 A 
ENDROOT
BRANCH   4   7
ATOM      7  O   UNL d   1      -0.481   1.281   2.980  0.00  0.00    -0.526 OA
ATOM      8  H5  UNL d   1       0.035   0.459   2.942  0.00  0.00     0.418 HD
ENDBRANCH   4   7
TORSDOF 1
ENDMDL
