MODEL 1
REMARK minimizedAffinity 7.06310749
REMARK minimizedRMSD -1
REMARK  1 active torsions:
REMARK  status: ('A' for Active; 'I' for Inactive)
REMARK    1  A    between atoms: C3_4  and  O_7 
ROOT
ATOM      1  C   UNL d   1       0.542   0.555  -3.045  0.00  0.00    -0.033 A 
ATOM      2  C1  UNL d   1      -0.450   1.502  -2.782  0.00  0.00     0.039 A 
ATOM      3  C2  UNL d   1      -1.470   1.213  -1.873  0.00  0.00    -0.080 A 
ATOM      4  C3  UNL d   1      -1.486  -0.024  -1.234  0.00  0.00     0.150 A 
ATOM      5  C4  UNL d   1      -0.499  -0.970  -1.489  0.00  0.00    -0.007 A 
ATOM      6  C5  UNL d   1       0.518  -0.681  -2.397  0.00  0.00     0.039 A 
ENDROOT
BRANCH   4   7
ATOM      7  O   UNL d   1      -2.464  -0.353  -0.343  0.00  0.00    -0.526 OA
ATOM      8  H5  UNL d   1      -3.092   0.386  -0.289  0.00  0.00     0.418 HD
ENDBRANCH   4   7
TORSDOF 1
ENDMDL
