MODEL 1
REMARK minimizedAffinity 7.38493729
REMARK minimizedRMSD -1
REMARK  1 active torsions:
REMARK  status: ('A' for Active; 'I' for Inactive)
REMARK    1  A    between atoms: C3_4  and  O_7 
ROOT
ATOM      1  C   UNL d   1       5.977   4.639   4.066  0.00  0.00    -0.033 A 
ATOM      2  C1  UNL d   1       5.981   4.069   2.791  0.00  0.00     0.039 A 
ATOM      3  C2  UNL d   1       5.031   4.462   1.846  0.00  0.00    -0.080 A 
ATOM      4  C3  UNL d   1       4.085   5.424   2.187  0.00  0.00     0.150 A 
ATOM      5  C4  UNL d   1       4.077   5.999   3.454  0.00  0.00    -0.007 A 
ATOM      6  C5  UNL d   1       5.026   5.605   4.397  0.00  0.00     0.039 A 
ENDROOT
BRANCH   4   7
ATOM      7  O   UNL d   1       3.135   5.836   1.300  0.00  0.00    -0.526 OA
ATOM      8  H5  UNL d   1       3.245   5.332   0.476  0.00  0.00     0.418 HD
ENDBRANCH   4   7
TORSDOF 1
ENDMDL
