MODEL 1
REMARK minimizedAffinity 7.31342173
REMARK minimizedRMSD -1
REMARK  1 active torsions:
REMARK  status: ('A' for Active; 'I' for Inactive)
REMARK    1  A    between atoms: C3_4  and  O_7 
ROOT
ATOM      1  C   UNL d   1       0.865  -2.363  -1.741  0.00  0.00    -0.033 A 
ATOM      2  C1  UNL d   1      -0.508  -2.216  -1.537  0.00  0.00     0.039 A 
ATOM      3  C2  UNL d   1      -1.093  -0.949  -1.598  0.00  0.00    -0.080 A 
ATOM      4  C3  UNL d   1      -0.295   0.160  -1.865  0.00  0.00     0.150 A 
ATOM      5  C4  UNL d   1       1.074   0.020  -2.073  0.00  0.00    -0.007 A 
ATOM      6  C5  UNL d   1       1.656  -1.246  -2.010  0.00  0.00     0.039 A 
ENDROOT
BRANCH   4   7
ATOM      7  O   UNL d   1      -0.819   1.416  -1.930  0.00  0.00    -0.526 OA
ATOM      8  H5  UNL d   1      -1.770   1.363  -1.737  0.00  0.00     0.418 HD
ENDBRANCH   4   7
TORSDOF 1
ENDMDL
