MODEL 1
REMARK minimizedAffinity 11.0156851
REMARK minimizedRMSD -1
REMARK  1 active torsions:
REMARK  status: ('A' for Active; 'I' for Inactive)
REMARK    1  A    between atoms: C3_4  and  O_7 
ROOT
ATOM      1  C   UNL d   1      -2.428   1.313   2.629  0.00  0.00    -0.033 A 
ATOM      2  C1  UNL d   1      -2.610   1.983   3.841  0.00  0.00     0.039 A 
ATOM      3  C2  UNL d   1      -2.981   1.274   4.984  0.00  0.00    -0.080 A 
ATOM      4  C3  UNL d   1      -3.167  -0.103   4.903  0.00  0.00     0.150 A 
ATOM      5  C4  UNL d   1      -2.984  -0.778   3.701  0.00  0.00    -0.007 A 
ATOM      6  C5  UNL d   1      -2.614  -0.068   2.560  0.00  0.00     0.039 A 
ENDROOT
BRANCH   4   7
ATOM      7  O   UNL d   1      -3.534  -0.838   5.991  0.00  0.00    -0.526 OA
ATOM      8  H5  UNL d   1      -3.652  -0.235   6.744  0.00  0.00     0.418 HD
ENDBRANCH   4   7
TORSDOF 1
ENDMDL
