MODEL 1
REMARK minimizedAffinity 0.913497269
REMARK minimizedRMSD -1
REMARK  1 active torsions:
REMARK  status: ('A' for Active; 'I' for Inactive)
REMARK    1  A    between atoms: C3_4  and  O_7 
ROOT
ATOM      1  C   UNL d   1      -6.000  -0.483   4.435  0.00  0.00    -0.033 A 
ATOM      2  C1  UNL d   1      -5.892  -0.009   3.126  0.00  0.00     0.039 A 
ATOM      3  C2  UNL d   1      -4.681   0.514   2.669  0.00  0.00    -0.080 A 
ATOM      4  C3  UNL d   1      -3.586   0.555   3.528  0.00  0.00     0.150 A 
ATOM      5  C4  UNL d   1      -3.685   0.080   4.832  0.00  0.00    -0.007 A 
ATOM      6  C5  UNL d   1      -4.896  -0.440   5.287  0.00  0.00     0.039 A 
ENDROOT
BRANCH   4   7
ATOM      7  O   UNL d   1      -2.385   1.060   3.128  0.00  0.00    -0.526 OA
ATOM      8  H5  UNL d   1      -2.473   1.376   2.214  0.00  0.00     0.418 HD
ENDBRANCH   4   7
TORSDOF 1
ENDMDL
