MODEL 1
REMARK minimizedAffinity -1.54805994
REMARK minimizedRMSD -1
REMARK  1 active torsions:
REMARK  status: ('A' for Active; 'I' for Inactive)
REMARK    1  A    between atoms: C3_4  and  O_7 
ROOT
ATOM      1  C   UNL d   1      -2.223  -0.627  -0.243  0.00  0.00    -0.033 A 
ATOM      2  C1  UNL d   1      -1.089   0.187  -0.291  0.00  0.00     0.039 A 
ATOM      3  C2  UNL d   1      -0.681   0.887   0.846  0.00  0.00    -0.080 A 
ATOM      4  C3  UNL d   1      -1.414   0.765   2.023  0.00  0.00     0.150 A 
ATOM      5  C4  UNL d   1      -2.542  -0.047   2.080  0.00  0.00    -0.007 A 
ATOM      6  C5  UNL d   1      -2.949  -0.745   0.943  0.00  0.00     0.039 A 
ENDROOT
BRANCH   4   7
ATOM      7  O   UNL d   1      -1.057   1.432   3.157  0.00  0.00    -0.526 OA
ATOM      8  H5  UNL d   1      -0.276   1.976   2.961  0.00  0.00     0.418 HD
ENDBRANCH   4   7
TORSDOF 1
ENDMDL
