MODEL 1
REMARK minimizedAffinity 5.39489698
REMARK minimizedRMSD -1
REMARK  1 active torsions:
REMARK  status: ('A' for Active; 'I' for Inactive)
REMARK    1  A    between atoms: C3_4  and  O_7 
ROOT
ATOM      1  C   UNL d   1       0.715   5.241  -1.112  0.00  0.00    -0.033 A 
ATOM      2  C1  UNL d   1       0.307   6.000  -2.211  0.00  0.00     0.039 A 
ATOM      3  C2  UNL d   1       1.067   6.000  -3.382  0.00  0.00    -0.080 A 
ATOM      4  C3  UNL d   1       2.229   5.237  -3.443  0.00  0.00     0.150 A 
ATOM      5  C4  UNL d   1       2.640   4.475  -2.353  0.00  0.00    -0.007 A 
ATOM      6  C5  UNL d   1       1.880   4.477  -1.184  0.00  0.00     0.039 A 
ENDROOT
BRANCH   4   7
ATOM      7  O   UNL d   1       3.006   5.209  -4.563  0.00  0.00    -0.526 OA
ATOM      8  H5  UNL d   1       2.615   5.805  -5.223  0.00  0.00     0.418 HD
ENDBRANCH   4   7
TORSDOF 1
ENDMDL
