MODEL 1
REMARK minimizedAffinity 3.02651095
REMARK minimizedRMSD -1
REMARK  1 active torsions:
REMARK  status: ('A' for Active; 'I' for Inactive)
REMARK    1  A    between atoms: C3_4  and  O_7 
ROOT
ATOM      1  C   UNL d   1      -5.453  -0.407   4.432  0.00  0.00    -0.033 A 
ATOM      2  C1  UNL d   1      -4.427  -0.373   5.378  0.00  0.00     0.039 A 
ATOM      3  C2  UNL d   1      -3.126  -0.052   4.988  0.00  0.00    -0.080 A 
ATOM      4  C3  UNL d   1      -2.864   0.234   3.651  0.00  0.00     0.150 A 
ATOM      5  C4  UNL d   1      -3.882   0.206   2.704  0.00  0.00    -0.007 A 
ATOM      6  C5  UNL d   1      -5.181  -0.116   3.095  0.00  0.00     0.039 A 
ENDROOT
BRANCH   4   7
ATOM      7  O   UNL d   1      -1.609   0.549   3.222  0.00  0.00    -0.526 OA
ATOM      8  H5  UNL d   1      -1.004   0.501   3.981  0.00  0.00     0.418 HD
ENDBRANCH   4   7
TORSDOF 1
ENDMDL
