MODEL 1
REMARK minimizedAffinity -1.0414201
REMARK minimizedRMSD -1
REMARK  1 active torsions:
REMARK  status: ('A' for Active; 'I' for Inactive)
REMARK    1  A    between atoms: N_2  and  C1_3 
ROOT
ATOM      1  C1  UNL d   1       0.485  -0.270   0.408  0.00  0.00     0.143 A 
ATOM      2  C2  UNL d   1       1.357   0.096   1.439  0.00  0.00    -0.057 A 
ATOM      3  C3  UNL d   1       2.686  -0.346   1.457  0.00  0.00     0.033 A 
ATOM      4  C4  UNL d   1       3.159  -1.188   0.457  0.00  0.00    -0.042 A 
ATOM      5  C5  UNL d   1       2.303  -1.585  -0.564  0.00  0.00     0.033 A 
ATOM      6  C6  UNL d   1       0.979  -1.135  -0.581  0.00  0.00    -0.057 A 
ENDROOT
BRANCH   1   7
ATOM      7  N   UNL d   1      -0.873   0.057   0.386  0.00  0.00    -0.732 N 
ATOM      8  C   UNL d   1      -1.385   1.016  -0.569  0.00  0.00     0.284 C 
ATOM      9  H3  UNL d   1      -1.470  -0.756   0.519  0.00  0.00     0.395 HD
ENDBRANCH   1   7
TORSDOF 1
ENDMDL
