MODEL 1
REMARK minimizedAffinity -2.57307673
REMARK minimizedRMSD -1
REMARK  1 active torsions:
REMARK  status: ('A' for Active; 'I' for Inactive)
REMARK    1  A    between atoms: N_2  and  C1_3 
ROOT
ATOM      1  C1  UNL d   1       0.400  -0.157   0.180  0.00  0.00     0.143 A 
ATOM      2  C2  UNL d   1       0.619  -1.291  -0.609  0.00  0.00    -0.057 A 
ATOM      3  C3  UNL d   1       1.666  -2.178  -0.331  0.00  0.00     0.033 A 
ATOM      4  C4  UNL d   1       2.533  -1.931   0.728  0.00  0.00    -0.042 A 
ATOM      5  C5  UNL d   1       2.349  -0.796   1.511  0.00  0.00     0.033 A 
ATOM      6  C6  UNL d   1       1.298   0.083   1.232  0.00  0.00    -0.057 A 
ENDROOT
BRANCH   1   7
ATOM      7  N   UNL d   1      -0.562   0.815  -0.104  0.00  0.00    -0.732 N 
ATOM      8  C   UNL d   1      -0.195   2.212  -0.193  0.00  0.00     0.284 C 
ATOM      9  H3  UNL d   1      -1.221   0.512  -0.818  0.00  0.00     0.395 HD
ENDBRANCH   1   7
TORSDOF 1
ENDMDL
