MODEL 1
REMARK minimizedAffinity -4.11410522
REMARK minimizedRMSD -1
REMARK  1 active torsions:
REMARK  status: ('A' for Active; 'I' for Inactive)
REMARK    1  A    between atoms: N_2  and  C1_3 
ROOT
ATOM      1  C1  UNL d   1       0.120  -0.287   0.167  0.00  0.00     0.143 A 
ATOM      2  C2  UNL d   1       0.826  -1.161  -0.667  0.00  0.00    -0.057 A 
ATOM      3  C3  UNL d   1       1.896  -1.922  -0.182  0.00  0.00     0.033 A 
ATOM      4  C4  UNL d   1       2.298  -1.801   1.144  0.00  0.00    -0.042 A 
ATOM      5  C5  UNL d   1       1.628  -0.920   1.985  0.00  0.00     0.033 A 
ATOM      6  C6  UNL d   1       0.556  -0.167   1.496  0.00  0.00    -0.057 A 
ENDROOT
BRANCH   1   7
ATOM      7  N   UNL d   1      -0.889   0.570  -0.280  0.00  0.00    -0.732 N 
ATOM      8  C   UNL d   1      -2.064   0.810   0.530  0.00  0.00     0.284 C 
ATOM      9  H3  UNL d   1      -0.519   1.403  -0.733  0.00  0.00     0.395 HD
ENDBRANCH   1   7
TORSDOF 1
ENDMDL
