MODEL 1
REMARK minimizedAffinity -4.90129852
REMARK minimizedRMSD -1
REMARK  1 active torsions:
REMARK  status: ('A' for Active; 'I' for Inactive)
REMARK    1  A    between atoms: N_2  and  C1_3 
ROOT
ATOM      1  C1  UNL d   1       0.636   0.177  -0.006  0.00  0.00     0.143 A 
ATOM      2  C2  UNL d   1       0.701  -1.220  -0.029  0.00  0.00    -0.057 A 
ATOM      3  C3  UNL d   1       1.851  -1.900   0.390  0.00  0.00     0.033 A 
ATOM      4  C4  UNL d   1       2.970  -1.191   0.814  0.00  0.00    -0.042 A 
ATOM      5  C5  UNL d   1       2.937   0.199   0.821  0.00  0.00     0.033 A 
ATOM      6  C6  UNL d   1       1.783   0.872   0.408  0.00  0.00    -0.057 A 
ENDROOT
BRANCH   1   7
ATOM      7  N   UNL d   1      -0.442   0.914  -0.503  0.00  0.00    -0.732 N 
ATOM      8  C   UNL d   1      -1.657   1.055   0.271  0.00  0.00     0.284 C 
ATOM      9  H3  UNL d   1      -0.147   1.767  -0.972  0.00  0.00     0.395 HD
ENDBRANCH   1   7
TORSDOF 1
ENDMDL
