MODEL 1
REMARK minimizedAffinity -3.33805203
REMARK minimizedRMSD -1
REMARK  1 active torsions:
REMARK  status: ('A' for Active; 'I' for Inactive)
REMARK    1  A    between atoms: N_2  and  C1_3 
ROOT
ATOM      1  C1  UNL d   1      -2.497   0.101   0.311  0.00  0.00     0.143 A 
ATOM      2  C2  UNL d   1      -1.624   0.634  -0.644  0.00  0.00    -0.057 A 
ATOM      3  C3  UNL d   1      -0.439  -0.025  -0.992  0.00  0.00     0.033 A 
ATOM      4  C4  UNL d   1      -0.090  -1.217  -0.367  0.00  0.00    -0.042 A 
ATOM      5  C5  UNL d   1      -0.929  -1.753   0.603  0.00  0.00     0.033 A 
ATOM      6  C6  UNL d   1      -2.115  -1.093   0.941  0.00  0.00    -0.057 A 
ENDROOT
BRANCH   1   7
ATOM      7  N   UNL d   1      -3.641   0.758   0.771  0.00  0.00    -0.732 N 
ATOM      8  C   UNL d   1      -3.727   1.216   2.141  0.00  0.00     0.284 C 
ATOM      9  H3  UNL d   1      -4.012   1.415   0.089  0.00  0.00     0.395 HD
ENDBRANCH   1   7
TORSDOF 1
ENDMDL
