MODEL 1
REMARK minimizedAffinity -3.72833133
REMARK minimizedRMSD -1
REMARK  1 active torsions:
REMARK  status: ('A' for Active; 'I' for Inactive)
REMARK    1  A    between atoms: N_2  and  C1_3 
ROOT
ATOM      1  C1  UNL d   1      -0.409   0.861   0.156  0.00  0.00     0.143 A 
ATOM      2  C2  UNL d   1      -0.001  -0.418   0.549  0.00  0.00    -0.057 A 
ATOM      3  C3  UNL d   1       1.297  -0.655   1.018  0.00  0.00     0.033 A 
ATOM      4  C4  UNL d   1       2.222   0.383   1.075  0.00  0.00    -0.042 A 
ATOM      5  C5  UNL d   1       1.846   1.657   0.667  0.00  0.00     0.033 A 
ATOM      6  C6  UNL d   1       0.546   1.888   0.206  0.00  0.00    -0.057 A 
ENDROOT
BRANCH   1   7
ATOM      7  N   UNL d   1      -1.655   1.140  -0.411  0.00  0.00    -0.732 N 
ATOM      8  C   UNL d   1      -2.847   1.173   0.408  0.00  0.00     0.284 C 
ATOM      9  H3  UNL d   1      -1.607   1.882  -1.106  0.00  0.00     0.395 HD
ENDBRANCH   1   7
TORSDOF 1
ENDMDL
