MODEL 1
REMARK minimizedAffinity 16.1542263
REMARK minimizedRMSD -1
REMARK  1 active torsions:
REMARK  status: ('A' for Active; 'I' for Inactive)
REMARK    1  A    between atoms: C1_2  and  C2_3 
ROOT
ATOM      1  C2  UNL d   1       5.611  -2.591   3.374  0.00  0.00    -0.081 A 
ATOM      2  C3  UNL d   1       5.577  -3.891   2.855  0.00  0.00     0.006 A 
ATOM      3  C4  UNL d   1       5.712  -4.995   3.700  0.00  0.00     0.002 A 
ATOM      4  C5  UNL d   1       5.876  -4.818   5.078  0.00  0.00    -0.080 A 
ATOM      5  C6  UNL d   1       5.992  -5.995   6.000  0.00  0.00     0.076 C 
ATOM      6  C7  UNL d   1       5.928  -3.519   5.594  0.00  0.00     0.002 A 
ATOM      7  C8  UNL d   1       5.794  -2.414   4.750  0.00  0.00     0.006 A 
ENDROOT
BRANCH   1   8
ATOM      8  C1  UNL d   1       5.401  -1.400   2.474  0.00  0.00     0.054 C 
ATOM      9  C   UNL d   1       4.546  -0.339   3.151  0.00  0.00     0.018 C 
ENDBRANCH   1   8
TORSDOF 1
ENDMDL
