MODEL 1
REMARK minimizedAffinity 2.91949368
REMARK minimizedRMSD -1
REMARK  1 active torsions:
REMARK  status: ('A' for Active; 'I' for Inactive)
REMARK    1  A    between atoms: C1_2  and  C2_3 
ROOT
ATOM      1  C2  UNL d   1       4.000  -5.665   3.071  0.00  0.00    -0.081 A 
ATOM      2  C3  UNL d   1       3.979  -4.972   1.854  0.00  0.00     0.006 A 
ATOM      3  C4  UNL d   1       2.765  -4.611   1.266  0.00  0.00     0.002 A 
ATOM      4  C5  UNL d   1       1.552  -4.930   1.887  0.00  0.00    -0.080 A 
ATOM      5  C6  UNL d   1       0.242  -4.521   1.281  0.00  0.00     0.076 C 
ATOM      6  C7  UNL d   1       1.573  -5.638   3.093  0.00  0.00     0.002 A 
ATOM      7  C8  UNL d   1       2.786  -6.000   3.682  0.00  0.00     0.006 A 
ENDROOT
BRANCH   1   8
ATOM      8  C1  UNL d   1       5.308  -5.999   3.740  0.00  0.00     0.054 C 
ATOM      9  C   UNL d   1       5.175  -5.979   5.256  0.00  0.00     0.018 C 
ENDBRANCH   1   8
TORSDOF 1
ENDMDL
