MODEL 1
REMARK minimizedAffinity 0.00958982948
REMARK minimizedRMSD -1
REMARK  1 active torsions:
REMARK  status: ('A' for Active; 'I' for Inactive)
REMARK    1  A    between atoms: C1_2  and  C2_3 
ROOT
ATOM      1  C2  UNL d   1       5.643  -2.583   3.320  0.00  0.00    -0.081 A 
ATOM      2  C3  UNL d   1       5.566  -3.883   2.805  0.00  0.00     0.006 A 
ATOM      3  C4  UNL d   1       5.693  -4.988   3.649  0.00  0.00     0.002 A 
ATOM      4  C5  UNL d   1       5.892  -4.812   5.023  0.00  0.00    -0.080 A 
ATOM      5  C6  UNL d   1       5.999  -5.990   5.945  0.00  0.00     0.076 C 
ATOM      6  C7  UNL d   1       5.987  -3.514   5.535  0.00  0.00     0.002 A 
ATOM      7  C8  UNL d   1       5.860  -2.409   4.691  0.00  0.00     0.006 A 
ENDROOT
BRANCH   1   8
ATOM      8  C1  UNL d   1       5.442  -1.390   2.421  0.00  0.00     0.054 C 
ATOM      9  C   UNL d   1       5.251  -0.114   3.230  0.00  0.00     0.018 C 
ENDBRANCH   1   8
TORSDOF 1
ENDMDL
