MODEL 1
REMARK minimizedAffinity 3.12538505
REMARK minimizedRMSD -1
REMARK  1 active torsions:
REMARK  status: ('A' for Active; 'I' for Inactive)
REMARK    1  A    between atoms: C1_2  and  C2_3 
ROOT
ATOM      1  C2  UNL d   1      -4.926  -2.222   1.772  0.00  0.00    -0.081 A 
ATOM      2  C3  UNL d   1      -5.162  -3.432   2.435  0.00  0.00     0.006 A 
ATOM      3  C4  UNL d   1      -4.896  -3.555   3.801  0.00  0.00     0.002 A 
ATOM      4  C5  UNL d   1      -4.396  -2.469   4.527  0.00  0.00    -0.080 A 
ATOM      5  C6  UNL d   1      -4.134  -2.578   6.000  0.00  0.00     0.076 C 
ATOM      6  C7  UNL d   1      -4.144  -1.264   3.861  0.00  0.00     0.002 A 
ATOM      7  C8  UNL d   1      -4.410  -1.141   2.496  0.00  0.00     0.006 A 
ENDROOT
BRANCH   1   8
ATOM      8  C1  UNL d   1      -5.274  -2.066   0.313  0.00  0.00     0.054 C 
ATOM      9  C   UNL d   1      -4.566  -3.111  -0.538  0.00  0.00     0.018 C 
ENDBRANCH   1   8
TORSDOF 1
ENDMDL
