MODEL 1
REMARK minimizedAffinity 0.348846853
REMARK minimizedRMSD -1
REMARK  1 active torsions:
REMARK  status: ('A' for Active; 'I' for Inactive)
REMARK    1  A    between atoms: C1_2  and  C2_3 
ROOT
ATOM      1  C2  UNL d   1       3.420  -5.263   2.393  0.00  0.00    -0.081 A 
ATOM      2  C3  UNL d   1       4.738  -4.792   2.354  0.00  0.00     0.006 A 
ATOM      3  C4  UNL d   1       5.572  -4.929   3.467  0.00  0.00     0.002 A 
ATOM      4  C5  UNL d   1       5.105  -5.545   4.633  0.00  0.00    -0.080 A 
ATOM      5  C6  UNL d   1       5.999  -5.725   5.823  0.00  0.00     0.076 C 
ATOM      6  C7  UNL d   1       3.782  -6.000   4.677  0.00  0.00     0.002 A 
ATOM      7  C8  UNL d   1       2.948  -5.863   3.566  0.00  0.00     0.006 A 
ENDROOT
BRANCH   1   8
ATOM      8  C1  UNL d   1       2.539  -5.175   1.173  0.00  0.00     0.054 C 
ATOM      9  C   UNL d   1       1.136  -4.709   1.537  0.00  0.00     0.018 C 
ENDBRANCH   1   8
TORSDOF 1
ENDMDL
