MODEL 1
REMARK minimizedAffinity -2.65155816
REMARK minimizedRMSD -1
REMARK  1 active torsions:
REMARK  status: ('A' for Active; 'I' for Inactive)
REMARK    1  A    between atoms: C1_2  and  C2_3 
ROOT
ATOM      1  C2  UNL d   1       4.177  -5.611   2.170  0.00  0.00    -0.081 A 
ATOM      2  C3  UNL d   1       3.241  -5.499   1.134  0.00  0.00     0.006 A 
ATOM      3  C4  UNL d   1       1.875  -5.632   1.396  0.00  0.00     0.002 A 
ATOM      4  C5  UNL d   1       1.423  -5.871   2.698  0.00  0.00    -0.080 A 
ATOM      5  C6  UNL d   1      -0.043  -5.986   2.998  0.00  0.00     0.076 C 
ATOM      6  C7  UNL d   1       2.358  -6.000   3.730  0.00  0.00     0.002 A 
ATOM      7  C8  UNL d   1       3.724  -5.867   3.469  0.00  0.00     0.006 A 
ENDROOT
BRANCH   1   8
ATOM      8  C1  UNL d   1       5.645  -5.403   1.901  0.00  0.00     0.054 C 
ATOM      9  C   UNL d   1       6.000  -3.924   1.877  0.00  0.00     0.018 C 
ENDBRANCH   1   8
TORSDOF 1
ENDMDL
