MODEL 1
REMARK minimizedAffinity 0.51564014
REMARK minimizedRMSD -1
REMARK  1 active torsions:
REMARK  status: ('A' for Active; 'I' for Inactive)
REMARK    1  A    between atoms: C1_2  and  C2_3 
ROOT
ATOM      1  C2  UNL d   1      -3.257   3.052   2.487  0.00  0.00    -0.081 A 
ATOM      2  C3  UNL d   1      -3.016   1.773   1.969  0.00  0.00     0.006 A 
ATOM      3  C4  UNL d   1      -1.719   1.378   1.634  0.00  0.00     0.002 A 
ATOM      4  C5  UNL d   1      -0.641   2.250   1.819  0.00  0.00    -0.080 A 
ATOM      5  C6  UNL d   1       0.761   1.827   1.492  0.00  0.00     0.076 C 
ATOM      6  C7  UNL d   1      -0.884   3.534   2.320  0.00  0.00     0.002 A 
ATOM      7  C8  UNL d   1      -2.181   3.930   2.654  0.00  0.00     0.006 A 
ENDROOT
BRANCH   1   8
ATOM      8  C1  UNL d   1      -4.646   3.458   2.909  0.00  0.00     0.054 C 
ATOM      9  C   UNL d   1      -5.324   4.304   1.841  0.00  0.00     0.018 C 
ENDBRANCH   1   8
TORSDOF 1
ENDMDL
