MODEL 1
REMARK minimizedAffinity 5.97453642
REMARK minimizedRMSD -1
REMARK  1 active torsions:
REMARK  status: ('A' for Active; 'I' for Inactive)
REMARK    1  A    between atoms: C1_2  and  C2_3 
ROOT
ATOM      1  C2  UNL d   1       1.735   1.658  -0.190  0.00  0.00    -0.081 A 
ATOM      2  C3  UNL d   1       0.414   1.360  -0.547  0.00  0.00     0.006 A 
ATOM      3  C4  UNL d   1      -0.327   0.434   0.191  0.00  0.00     0.002 A 
ATOM      4  C5  UNL d   1       0.237  -0.203   1.302  0.00  0.00    -0.080 A 
ATOM      5  C6  UNL d   1      -0.557  -1.176   2.121  0.00  0.00     0.076 C 
ATOM      6  C7  UNL d   1       1.562   0.082   1.648  0.00  0.00     0.002 A 
ATOM      7  C8  UNL d   1       2.304   1.008   0.910  0.00  0.00     0.006 A 
ENDROOT
BRANCH   1   8
ATOM      8  C1  UNL d   1       2.515   2.704  -0.945  0.00  0.00     0.054 C 
ATOM      9  C   UNL d   1       3.344   3.564  -0.002  0.00  0.00     0.018 C 
ENDBRANCH   1   8
TORSDOF 1
ENDMDL
