MODEL 1
REMARK minimizedAffinity 8.70555973
REMARK minimizedRMSD -1
REMARK  1 active torsions:
REMARK  status: ('A' for Active; 'I' for Inactive)
REMARK    1  A    between atoms: C1_2  and  C2_3 
ROOT
ATOM      1  C2  UNL d   1      -5.850   1.963   5.088  0.00  0.00    -0.081 A 
ATOM      2  C3  UNL d   1      -5.701   1.903   3.697  0.00  0.00     0.006 A 
ATOM      3  C4  UNL d   1      -5.688   0.671   3.038  0.00  0.00     0.002 A 
ATOM      4  C5  UNL d   1      -5.832  -0.520   3.758  0.00  0.00    -0.080 A 
ATOM      5  C6  UNL d   1      -5.850  -1.847   3.060  0.00  0.00     0.076 C 
ATOM      6  C7  UNL d   1      -5.963  -0.461   5.149  0.00  0.00     0.002 A 
ATOM      7  C8  UNL d   1      -5.975   0.770   5.809  0.00  0.00     0.006 A 
ENDROOT
BRANCH   1   8
ATOM      8  C1  UNL d   1      -5.929   3.292   5.794  0.00  0.00     0.054 C 
ATOM      9  C   UNL d   1      -4.546   3.893   5.999  0.00  0.00     0.018 C 
ENDBRANCH   1   8
TORSDOF 1
ENDMDL
