MODEL 1
REMARK minimizedAffinity 4.964077
REMARK minimizedRMSD -1
REMARK  1 active torsions:
REMARK  status: ('A' for Active; 'I' for Inactive)
REMARK    1  A    between atoms: C1_2  and  C2_3 
ROOT
ATOM      1  C2  UNL d   1      -2.020   0.260   0.570  0.00  0.00    -0.081 A 
ATOM      2  C3  UNL d   1      -0.643   0.475   0.700  0.00  0.00     0.006 A 
ATOM      3  C4  UNL d   1      -0.154   1.382   1.643  0.00  0.00     0.002 A 
ATOM      4  C5  UNL d   1      -1.033   2.083   2.476  0.00  0.00    -0.080 A 
ATOM      5  C6  UNL d   1      -0.519   3.038   3.512  0.00  0.00     0.076 C 
ATOM      6  C7  UNL d   1      -2.410   1.882   2.334  0.00  0.00     0.002 A 
ATOM      7  C8  UNL d   1      -2.899   0.975   1.391  0.00  0.00     0.006 A 
ENDROOT
BRANCH   1   8
ATOM      8  C1  UNL d   1      -2.547  -0.766  -0.401  0.00  0.00     0.054 C 
ATOM      9  C   UNL d   1      -2.483  -2.169   0.187  0.00  0.00     0.018 C 
ENDBRANCH   1   8
TORSDOF 1
ENDMDL
