MODEL 1
REMARK minimizedAffinity 5.1502552
REMARK minimizedRMSD -1
REMARK  1 active torsions:
REMARK  status: ('A' for Active; 'I' for Inactive)
REMARK    1  A    between atoms: C1_2  and  C2_3 
ROOT
ATOM      1  C2  UNL d   1      -0.593  -5.121   1.106  0.00  0.00    -0.081 A 
ATOM      2  C3  UNL d   1      -0.448  -3.728   1.072  0.00  0.00     0.006 A 
ATOM      3  C4  UNL d   1      -1.517  -2.915   0.689  0.00  0.00     0.002 A 
ATOM      4  C5  UNL d   1      -2.749  -3.478   0.341  0.00  0.00    -0.080 A 
ATOM      5  C6  UNL d   1      -3.914  -2.614  -0.044  0.00  0.00     0.076 C 
ATOM      6  C7  UNL d   1      -2.888  -4.870   0.358  0.00  0.00     0.002 A 
ATOM      7  C8  UNL d   1      -1.820  -5.684   0.740  0.00  0.00     0.006 A 
ENDROOT
BRANCH   1   8
ATOM      8  C1  UNL d   1       0.538  -5.997   1.581  0.00  0.00     0.054 C 
ATOM      9  C   UNL d   1       0.651  -5.980   3.099  0.00  0.00     0.018 C 
ENDBRANCH   1   8
TORSDOF 1
ENDMDL
