MODEL 1
REMARK minimizedAffinity 5.51520538
REMARK minimizedRMSD -1
REMARK  1 active torsions:
REMARK  status: ('A' for Active; 'I' for Inactive)
REMARK    1  A    between atoms: C1_2  and  C2_3 
ROOT
ATOM      1  C2  UNL d   1      -2.035  -0.041   1.017  0.00  0.00    -0.081 A 
ATOM      2  C3  UNL d   1      -1.324   1.091   0.600  0.00  0.00     0.006 A 
ATOM      3  C4  UNL d   1       0.002   1.281   0.997  0.00  0.00     0.002 A 
ATOM      4  C5  UNL d   1       0.641   0.339   1.810  0.00  0.00    -0.080 A 
ATOM      5  C6  UNL d   1       2.073   0.515   2.218  0.00  0.00     0.076 C 
ATOM      6  C7  UNL d   1      -0.075  -0.783   2.241  0.00  0.00     0.002 A 
ATOM      7  C8  UNL d   1      -1.400  -0.973   1.845  0.00  0.00     0.006 A 
ENDROOT
BRANCH   1   8
ATOM      8  C1  UNL d   1      -3.444  -0.281   0.538  0.00  0.00     0.054 C 
ATOM      9  C   UNL d   1      -3.572  -1.632  -0.150  0.00  0.00     0.018 C 
ENDBRANCH   1   8
TORSDOF 1
ENDMDL
