MODEL 1
REMARK minimizedAffinity 13.4867439
REMARK minimizedRMSD -1
REMARK  1 active torsions:
REMARK  status: ('A' for Active; 'I' for Inactive)
REMARK    1  A    between atoms: C1_2  and  C2_3 
ROOT
ATOM      1  C2  UNL d   1      -0.106   2.367   2.566  0.00  0.00    -0.081 A 
ATOM      2  C3  UNL d   1      -1.035   3.182   3.223  0.00  0.00     0.006 A 
ATOM      3  C4  UNL d   1      -2.406   2.955   3.074  0.00  0.00     0.002 A 
ATOM      4  C5  UNL d   1      -2.869   1.906   2.273  0.00  0.00    -0.080 A 
ATOM      5  C6  UNL d   1      -4.337   1.633   2.129  0.00  0.00     0.076 C 
ATOM      6  C7  UNL d   1      -1.940   1.102   1.603  0.00  0.00     0.002 A 
ATOM      7  C8  UNL d   1      -0.570   1.329   1.751  0.00  0.00     0.006 A 
ENDROOT
BRANCH   1   8
ATOM      8  C1  UNL d   1       1.373   2.568   2.776  0.00  0.00     0.054 C 
ATOM      9  C   UNL d   1       1.712   2.682   4.255  0.00  0.00     0.018 C 
ENDBRANCH   1   8
TORSDOF 1
ENDMDL
