MODEL 1
REMARK minimizedAffinity 7.82888174
REMARK minimizedRMSD -1
REMARK  1 active torsions:
REMARK  status: ('A' for Active; 'I' for Inactive)
REMARK    1  A    between atoms: C1_2  and  C2_3 
ROOT
ATOM      1  C2  UNL d   1       3.577   2.049   0.625  0.00  0.00    -0.081 A 
ATOM      2  C3  UNL d   1       4.932   1.911   0.298  0.00  0.00     0.006 A 
ATOM      3  C4  UNL d   1       5.666   3.009  -0.156  0.00  0.00     0.002 A 
ATOM      4  C5  UNL d   1       5.061   4.264  -0.283  0.00  0.00    -0.080 A 
ATOM      5  C6  UNL d   1       5.845   5.458  -0.740  0.00  0.00     0.076 C 
ATOM      6  C7  UNL d   1       3.703   4.398   0.027  0.00  0.00     0.002 A 
ATOM      7  C8  UNL d   1       2.968   3.300   0.480  0.00  0.00     0.006 A 
ENDROOT
BRANCH   1   8
ATOM      8  C1  UNL d   1       2.799   0.881   1.176  0.00  0.00     0.054 C 
ATOM      9  C   UNL d   1       1.678   1.347   2.094  0.00  0.00     0.018 C 
ENDBRANCH   1   8
TORSDOF 1
ENDMDL
