MODEL 1
REMARK minimizedAffinity 11.5129108
REMARK minimizedRMSD -1
REMARK  1 active torsions:
REMARK  status: ('A' for Active; 'I' for Inactive)
REMARK    1  A    between atoms: C1_2  and  C2_3 
ROOT
ATOM      1  C2  UNL d   1       1.871  -1.820  -5.213  0.00  0.00    -0.081 A 
ATOM      2  C3  UNL d   1       2.879  -1.250  -6.000  0.00  0.00     0.006 A 
ATOM      3  C4  UNL d   1       3.997  -0.662  -5.402  0.00  0.00     0.002 A 
ATOM      4  C5  UNL d   1       4.129  -0.643  -4.010  0.00  0.00    -0.080 A 
ATOM      5  C6  UNL d   1       5.339  -0.042  -3.357  0.00  0.00     0.076 C 
ATOM      6  C7  UNL d   1       3.114  -1.197  -3.223  0.00  0.00     0.002 A 
ATOM      7  C8  UNL d   1       1.996  -1.784  -3.820  0.00  0.00     0.006 A 
ENDROOT
BRANCH   1   8
ATOM      8  C1  UNL d   1       0.696  -2.512  -5.856  0.00  0.00     0.054 C 
ATOM      9  C   UNL d   1      -0.580  -1.699  -5.694  0.00  0.00     0.018 C 
ENDBRANCH   1   8
TORSDOF 1
ENDMDL
