MODEL 1
REMARK minimizedAffinity -3.27359581
REMARK minimizedRMSD -1
REMARK  0 active torsions:
REMARK  status: ('A' for Active; 'I' for Inactive)
ROOT
ATOM      1  C   UNL d   1       5.301   5.280  -2.150  0.00  0.00     0.078 C 
ATOM      2  C1  UNL d   1       5.282   4.621  -3.497  0.00  0.00    -0.077 A 
ATOM      3  C2  UNL d   1       4.546   5.165  -4.556  0.00  0.00    -0.001 A 
ATOM      4  C3  UNL d   1       4.530   4.536  -5.802  0.00  0.00     0.003 A 
ATOM      5  C4  UNL d   1       5.247   3.358  -6.000  0.00  0.00    -0.005 A 
ATOM      6  C5  UNL d   1       5.981   2.807  -4.951  0.00  0.00     0.003 A 
ATOM      7  C6  UNL d   1       5.999   3.436  -3.705  0.00  0.00    -0.001 A 
ENDROOT
TORSDOF 0
ENDMDL
