MODEL 1
REMARK minimizedAffinity -1.940413
REMARK minimizedRMSD -1
REMARK  0 active torsions:
REMARK  status: ('A' for Active; 'I' for Inactive)
ROOT
ATOM      1  C   UNL d   1       5.191   5.417  -1.732  0.00  0.00     0.078 C 
ATOM      2  C1  UNL d   1       5.145   5.221  -3.218  0.00  0.00    -0.077 A 
ATOM      3  C2  UNL d   1       5.999   4.310  -3.852  0.00  0.00    -0.001 A 
ATOM      4  C3  UNL d   1       5.951   4.145  -5.237  0.00  0.00     0.003 A 
ATOM      5  C4  UNL d   1       5.053   4.888  -6.000  0.00  0.00    -0.005 A 
ATOM      6  C5  UNL d   1       4.200   5.798  -5.378  0.00  0.00     0.003 A 
ATOM      7  C6  UNL d   1       4.246   5.964  -3.993  0.00  0.00    -0.001 A 
ENDROOT
TORSDOF 0
ENDMDL
