MODEL 1
REMARK minimizedAffinity -2.04045582
REMARK minimizedRMSD -1
REMARK  0 active torsions:
REMARK  status: ('A' for Active; 'I' for Inactive)
ROOT
ATOM      1  C   UNL d   1       5.997   2.669  -5.136  0.00  0.00     0.078 C 
ATOM      2  C1  UNL d   1       5.459   3.826  -4.349  0.00  0.00    -0.077 A 
ATOM      3  C2  UNL d   1       4.428   4.626  -4.856  0.00  0.00    -0.001 A 
ATOM      4  C3  UNL d   1       3.943   5.706  -4.116  0.00  0.00     0.003 A 
ATOM      5  C4  UNL d   1       4.485   5.997  -2.865  0.00  0.00    -0.005 A 
ATOM      6  C5  UNL d   1       5.513   5.208  -2.354  0.00  0.00     0.003 A 
ATOM      7  C6  UNL d   1       5.999   4.128  -3.092  0.00  0.00    -0.001 A 
ENDROOT
TORSDOF 0
ENDMDL
