MODEL 1
REMARK minimizedAffinity -4.73944473
REMARK minimizedRMSD -1
REMARK  0 active torsions:
REMARK  status: ('A' for Active; 'I' for Inactive)
ROOT
ATOM      1  C   UNL d   1       4.114   5.615  -1.508  0.00  0.00     0.078 C 
ATOM      2  C1  UNL d   1       4.421   4.840  -2.755  0.00  0.00    -0.077 A 
ATOM      3  C2  UNL d   1       5.727   4.425  -3.042  0.00  0.00    -0.001 A 
ATOM      4  C3  UNL d   1       6.000   3.712  -4.211  0.00  0.00     0.003 A 
ATOM      5  C4  UNL d   1       4.972   3.409  -5.102  0.00  0.00    -0.005 A 
ATOM      6  C5  UNL d   1       3.670   3.820  -4.826  0.00  0.00     0.003 A 
ATOM      7  C6  UNL d   1       3.395   4.533  -3.657  0.00  0.00    -0.001 A 
ENDROOT
TORSDOF 0
ENDMDL
