MODEL 1
REMARK minimizedAffinity -3.62941504
REMARK minimizedRMSD -1
REMARK  0 active torsions:
REMARK  status: ('A' for Active; 'I' for Inactive)
ROOT
ATOM      1  C   UNL d   1       5.637   5.247  -1.898  0.00  0.00     0.078 C 
ATOM      2  C1  UNL d   1       5.251   4.998  -3.325  0.00  0.00    -0.077 A 
ATOM      3  C2  UNL d   1       6.000   4.136  -4.136  0.00  0.00    -0.001 A 
ATOM      4  C3  UNL d   1       5.634   3.921  -5.465  0.00  0.00     0.003 A 
ATOM      5  C4  UNL d   1       4.518   4.565  -5.997  0.00  0.00    -0.005 A 
ATOM      6  C5  UNL d   1       3.768   5.426  -5.199  0.00  0.00     0.003 A 
ATOM      7  C6  UNL d   1       4.132   5.642  -3.869  0.00  0.00    -0.001 A 
ENDROOT
TORSDOF 0
ENDMDL
