MODEL 1
REMARK minimizedAffinity -3.34204888
REMARK minimizedRMSD -1
REMARK  0 active torsions:
REMARK  status: ('A' for Active; 'I' for Inactive)
ROOT
ATOM      1  C   UNL d   1       5.687   3.307  -5.940  0.00  0.00     0.078 C 
ATOM      2  C1  UNL d   1       5.266   4.227  -4.833  0.00  0.00    -0.077 A 
ATOM      3  C2  UNL d   1       4.165   5.079  -4.983  0.00  0.00    -0.001 A 
ATOM      4  C3  UNL d   1       3.791   5.937  -3.948  0.00  0.00     0.003 A 
ATOM      5  C4  UNL d   1       4.512   5.953  -2.756  0.00  0.00    -0.005 A 
ATOM      6  C5  UNL d   1       5.611   5.110  -2.598  0.00  0.00     0.003 A 
ATOM      7  C6  UNL d   1       5.987   4.251  -3.632  0.00  0.00    -0.001 A 
ENDROOT
TORSDOF 0
ENDMDL
