MODEL 1
REMARK minimizedAffinity -3.42058253
REMARK minimizedRMSD -1
REMARK  0 active torsions:
REMARK  status: ('A' for Active; 'I' for Inactive)
ROOT
ATOM      1  C   UNL d   1       5.277   5.663  -2.284  0.00  0.00     0.078 C 
ATOM      2  C1  UNL d   1       5.238   4.897  -3.572  0.00  0.00    -0.077 A 
ATOM      3  C2  UNL d   1       5.994   3.730  -3.740  0.00  0.00    -0.001 A 
ATOM      4  C3  UNL d   1       5.956   3.032  -4.949  0.00  0.00     0.003 A 
ATOM      5  C4  UNL d   1       5.163   3.493  -5.998  0.00  0.00    -0.005 A 
ATOM      6  C5  UNL d   1       4.409   4.654  -5.841  0.00  0.00     0.003 A 
ATOM      7  C6  UNL d   1       4.446   5.354  -4.633  0.00  0.00    -0.001 A 
ENDROOT
TORSDOF 0
ENDMDL
