MODEL 1
REMARK minimizedAffinity -3.96436548
REMARK minimizedRMSD -1
REMARK  0 active torsions:
REMARK  status: ('A' for Active; 'I' for Inactive)
ROOT
ATOM      1  C   UNL d   1       4.872   2.777  -5.976  0.00  0.00     0.078 C 
ATOM      2  C1  UNL d   1       4.826   3.619  -4.736  0.00  0.00    -0.077 A 
ATOM      3  C2  UNL d   1       6.000   4.115  -4.157  0.00  0.00    -0.001 A 
ATOM      4  C3  UNL d   1       5.943   4.889  -2.997  0.00  0.00     0.003 A 
ATOM      5  C4  UNL d   1       4.713   5.173  -2.405  0.00  0.00    -0.005 A 
ATOM      6  C5  UNL d   1       3.539   4.682  -2.973  0.00  0.00     0.003 A 
ATOM      7  C6  UNL d   1       3.595   3.908  -4.133  0.00  0.00    -0.001 A 
ENDROOT
TORSDOF 0
ENDMDL
