MODEL 1
REMARK minimizedAffinity -0.71475184
REMARK minimizedRMSD -1
REMARK  0 active torsions:
REMARK  status: ('A' for Active; 'I' for Inactive)
ROOT
ATOM      1  C   UNL d   1       6.000   6.000  -0.956  0.00  0.00     0.078 C 
ATOM      2  C1  UNL d   1       5.368   5.311  -2.128  0.00  0.00    -0.077 A 
ATOM      3  C2  UNL d   1       5.786   4.035  -2.526  0.00  0.00    -0.001 A 
ATOM      4  C3  UNL d   1       5.195   3.409  -3.625  0.00  0.00     0.003 A 
ATOM      5  C4  UNL d   1       4.184   4.052  -4.336  0.00  0.00    -0.005 A 
ATOM      6  C5  UNL d   1       3.763   5.323  -3.949  0.00  0.00     0.003 A 
ATOM      7  C6  UNL d   1       4.352   5.950  -2.850  0.00  0.00    -0.001 A 
ENDROOT
TORSDOF 0
ENDMDL
