MODEL 1
REMARK minimizedAffinity -2.17894459
REMARK minimizedRMSD -1
REMARK  0 active torsions:
REMARK  status: ('A' for Active; 'I' for Inactive)
ROOT
ATOM      1  C   UNL d   1       3.404  -3.003  -4.501  0.00  0.00     0.078 C 
ATOM      2  C1  UNL d   1       4.299  -3.362  -3.353  0.00  0.00    -0.077 A 
ATOM      3  C2  UNL d   1       4.309  -2.599  -2.179  0.00  0.00    -0.001 A 
ATOM      4  C3  UNL d   1       5.155  -2.939  -1.123  0.00  0.00     0.003 A 
ATOM      5  C4  UNL d   1       5.999  -4.043  -1.230  0.00  0.00    -0.005 A 
ATOM      6  C5  UNL d   1       5.998  -4.807  -2.395  0.00  0.00     0.003 A 
ATOM      7  C6  UNL d   1       5.153  -4.468  -3.453  0.00  0.00    -0.001 A 
ENDROOT
TORSDOF 0
ENDMDL
