MODEL 1
REMARK minimizedAffinity -2.06341386
REMARK minimizedRMSD -1
REMARK  0 active torsions:
REMARK  status: ('A' for Active; 'I' for Inactive)
ROOT
ATOM      1  C   UNL d   1       5.999   5.996  -1.851  0.00  0.00     0.078 C 
ATOM      2  C1  UNL d   1       5.413   5.415  -3.102  0.00  0.00    -0.077 A 
ATOM      3  C2  UNL d   1       5.998   4.306  -3.725  0.00  0.00    -0.001 A 
ATOM      4  C3  UNL d   1       5.448   3.781  -4.896  0.00  0.00     0.003 A 
ATOM      5  C4  UNL d   1       4.309   4.359  -5.454  0.00  0.00    -0.005 A 
ATOM      6  C5  UNL d   1       3.721   5.464  -4.842  0.00  0.00     0.003 A 
ATOM      7  C6  UNL d   1       4.270   5.990  -3.672  0.00  0.00    -0.001 A 
ENDROOT
TORSDOF 0
ENDMDL
