MODEL 1
REMARK minimizedAffinity -1.2991277
REMARK minimizedRMSD -1
REMARK  0 active torsions:
REMARK  status: ('A' for Active; 'I' for Inactive)
ROOT
ATOM      1  C   UNL d   1       6.000   4.878  -1.514  0.00  0.00     0.078 C 
ATOM      2  C1  UNL d   1       4.829   4.886  -2.451  0.00  0.00    -0.077 A 
ATOM      3  C2  UNL d   1       4.556   6.000  -3.255  0.00  0.00    -0.001 A 
ATOM      4  C3  UNL d   1       3.457   5.997  -4.116  0.00  0.00     0.003 A 
ATOM      5  C4  UNL d   1       2.622   4.884  -4.180  0.00  0.00    -0.005 A 
ATOM      6  C5  UNL d   1       2.884   3.772  -3.383  0.00  0.00     0.003 A 
ATOM      7  C6  UNL d   1       3.982   3.773  -2.521  0.00  0.00    -0.001 A 
ENDROOT
TORSDOF 0
ENDMDL
