MODEL 1
REMARK minimizedAffinity -2.74723768
REMARK minimizedRMSD -1
REMARK  0 active torsions:
REMARK  status: ('A' for Active; 'I' for Inactive)
ROOT
ATOM      1  C   UNL d   1       5.617   4.865  -6.000  0.00  0.00     0.078 C 
ATOM      2  C1  UNL d   1       5.234   5.016  -4.558  0.00  0.00    -0.077 A 
ATOM      3  C2  UNL d   1       4.118   4.352  -4.034  0.00  0.00    -0.001 A 
ATOM      4  C3  UNL d   1       3.768   4.510  -2.692  0.00  0.00     0.003 A 
ATOM      5  C4  UNL d   1       4.528   5.332  -1.863  0.00  0.00    -0.005 A 
ATOM      6  C5  UNL d   1       5.639   5.999  -2.376  0.00  0.00     0.003 A 
ATOM      7  C6  UNL d   1       5.990   5.842  -3.717  0.00  0.00    -0.001 A 
ENDROOT
TORSDOF 0
ENDMDL
