MODEL 1
REMARK minimizedAffinity -0.734598041
REMARK minimizedRMSD -1
REMARK  0 active torsions:
REMARK  status: ('A' for Active; 'I' for Inactive)
ROOT
ATOM      1  C   UNL d   1       2.360   5.962  -3.378  0.00  0.00     0.078 C 
ATOM      2  C1  UNL d   1       3.626   5.479  -4.020  0.00  0.00    -0.077 A 
ATOM      3  C2  UNL d   1       3.699   5.266  -5.402  0.00  0.00    -0.001 A 
ATOM      4  C3  UNL d   1       4.881   4.807  -5.984  0.00  0.00     0.003 A 
ATOM      5  C4  UNL d   1       6.000   4.556  -5.192  0.00  0.00    -0.005 A 
ATOM      6  C5  UNL d   1       5.936   4.763  -3.816  0.00  0.00     0.003 A 
ATOM      7  C6  UNL d   1       4.755   5.222  -3.231  0.00  0.00    -0.001 A 
ENDROOT
TORSDOF 0
ENDMDL
