MODEL 1
REMARK minimizedAffinity 1.6108532
REMARK minimizedRMSD -1
REMARK  0 active torsions:
REMARK  status: ('A' for Active; 'I' for Inactive)
ROOT
ATOM      1  C4' PXY d   1      -0.277  -0.765   2.251  0.00  0.00     0.077 C 
ATOM      2  C1' PXY d   1       3.406  -4.192  -0.596  0.00  0.00     0.077 C 
ATOM      3  C1  PXY d   1       2.430  -3.300   0.146  0.00  0.00    -0.082 A 
ATOM      4  C2  PXY d   1       2.765  -2.050   0.421  0.00  0.00     0.003 A 
ATOM      5  C3  PXY d   1       1.907  -1.240   1.120  0.00  0.00     0.003 A 
ATOM      6  C4  PXY d   1       0.672  -1.698   1.495  0.00  0.00    -0.082 A 
ATOM      7  C5  PXY d   1       0.319  -2.969   1.209  0.00  0.00     0.003 A 
ATOM      8  C6  PXY d   1       1.220  -3.788   0.535  0.00  0.00     0.003 A 
ENDROOT
TORSDOF 0
ENDMDL
