MODEL 1
REMARK minimizedAffinity -3.19376779
REMARK minimizedRMSD -1
REMARK  0 active torsions:
REMARK  status: ('A' for Active; 'I' for Inactive)
ROOT
ATOM      1  C4' PXY d   1      -0.451  -0.701   0.401  0.00  0.00     0.077 C 
ATOM      2  C1' PXY d   1       3.738  -4.666   0.020  0.00  0.00     0.077 C 
ATOM      3  C1  PXY d   1       2.646  -3.620   0.129  0.00  0.00    -0.082 A 
ATOM      4  C2  PXY d   1       1.404  -3.933  -0.203  0.00  0.00     0.003 A 
ATOM      5  C3  PXY d   1       0.411  -2.990  -0.141  0.00  0.00     0.003 A 
ATOM      6  C4  PXY d   1       0.681  -1.728   0.316  0.00  0.00    -0.082 A 
ATOM      7  C5  PXY d   1       1.944  -1.404   0.666  0.00  0.00     0.003 A 
ATOM      8  C6  PXY d   1       2.946  -2.363   0.557  0.00  0.00     0.003 A 
ENDROOT
TORSDOF 0
ENDMDL
