MODEL 1
REMARK minimizedAffinity 0.392305046
REMARK minimizedRMSD -1
REMARK  0 active torsions:
REMARK  status: ('A' for Active; 'I' for Inactive)
ROOT
ATOM      1  C4' PXY d   1       2.918   0.267  -1.976  0.00  0.00     0.077 C 
ATOM      2  C1' PXY d   1      -0.610  -0.917   2.448  0.00  0.00     0.077 C 
ATOM      3  C1  PXY d   1       0.319  -0.595   1.294  0.00  0.00    -0.082 A 
ATOM      4  C2  PXY d   1       0.065  -1.088   0.093  0.00  0.00     0.003 A 
ATOM      5  C3  PXY d   1       0.912  -0.834  -0.955  0.00  0.00     0.003 A 
ATOM      6  C4  PXY d   1       2.002  -0.023  -0.784  0.00  0.00    -0.082 A 
ATOM      7  C5  PXY d   1       2.262   0.492   0.436  0.00  0.00     0.003 A 
ATOM      8  C6  PXY d   1       1.413   0.189   1.496  0.00  0.00     0.003 A 
ENDROOT
TORSDOF 0
ENDMDL
