MODEL 1
REMARK minimizedAffinity 0.417280704
REMARK minimizedRMSD -1
REMARK  0 active torsions:
REMARK  status: ('A' for Active; 'I' for Inactive)
ROOT
ATOM      1  C4' PXY d   1       3.504  -3.981  -0.426  0.00  0.00     0.077 C 
ATOM      2  C1' PXY d   1      -0.663  -0.271   1.085  0.00  0.00     0.077 C 
ATOM      3  C1  PXY d   1       0.436  -1.234   0.682  0.00  0.00    -0.082 A 
ATOM      4  C2  PXY d   1       0.176  -2.530   0.611  0.00  0.00     0.003 A 
ATOM      5  C3  PXY d   1       1.167  -3.418   0.280  0.00  0.00     0.003 A 
ATOM      6  C4  PXY d   1       2.422  -2.971  -0.033  0.00  0.00    -0.082 A 
ATOM      7  C5  PXY d   1       2.692  -1.650   0.026  0.00  0.00     0.003 A 
ATOM      8  C6  PXY d   1       1.684  -0.768   0.405  0.00  0.00     0.003 A 
ENDROOT
TORSDOF 0
ENDMDL
