MODEL 1
REMARK minimizedAffinity -1.92563677
REMARK minimizedRMSD -1
REMARK  0 active torsions:
REMARK  status: ('A' for Active; 'I' for Inactive)
ROOT
ATOM      1  C4' PXY d   1       3.638  -4.194  -0.067  0.00  0.00     0.077 C 
ATOM      2  C1' PXY d   1      -0.937  -0.722   0.592  0.00  0.00     0.077 C 
ATOM      3  C1  PXY d   1       0.270  -1.622   0.416  0.00  0.00    -0.082 A 
ATOM      4  C2  PXY d   1       0.096  -2.903   0.135  0.00  0.00     0.003 A 
ATOM      5  C3  PXY d   1       1.176  -3.738   0.005  0.00  0.00     0.003 A 
ATOM      6  C4  PXY d   1       2.449  -3.246   0.110  0.00  0.00    -0.082 A 
ATOM      7  C5  PXY d   1       2.635  -1.937   0.385  0.00  0.00     0.003 A 
ATOM      8  C6  PXY d   1       1.525  -1.115   0.555  0.00  0.00     0.003 A 
ENDROOT
TORSDOF 0
ENDMDL
