MODEL 1
REMARK minimizedAffinity -1.54933655
REMARK minimizedRMSD -1
REMARK  0 active torsions:
REMARK  status: ('A' for Active; 'I' for Inactive)
ROOT
ATOM      1  C4' PXY d   1       1.843  -4.087   0.093  0.00  0.00     0.077 C 
ATOM      2  C1' PXY d   1      -1.004   0.735   1.528  0.00  0.00     0.077 C 
ATOM      3  C1  PXY d   1      -0.247  -0.522   1.148  0.00  0.00    -0.082 A 
ATOM      4  C2  PXY d   1      -0.916  -1.630   0.872  0.00  0.00     0.003 A 
ATOM      5  C3  PXY d   1      -0.246  -2.785   0.558  0.00  0.00     0.003 A 
ATOM      6  C4  PXY d   1       1.120  -2.792   0.473  0.00  0.00    -0.082 A 
ATOM      7  C5  PXY d   1       1.809  -1.663   0.742  0.00  0.00     0.003 A 
ATOM      8  C6  PXY d   1       1.113  -0.512   1.099  0.00  0.00     0.003 A 
ENDROOT
TORSDOF 0
ENDMDL
