MODEL 1
REMARK minimizedAffinity 0.352860332
REMARK minimizedRMSD -1
REMARK  0 active torsions:
REMARK  status: ('A' for Active; 'I' for Inactive)
ROOT
ATOM      1  C4' PXY d   1       3.379  -4.467   0.317  0.00  0.00     0.077 C 
ATOM      2  C1' PXY d   1      -0.575  -0.322   1.086  0.00  0.00     0.077 C 
ATOM      3  C1  PXY d   1       0.454  -1.418   0.889  0.00  0.00    -0.082 A 
ATOM      4  C2  PXY d   1       1.739  -1.107   0.836  0.00  0.00     0.003 A 
ATOM      5  C3  PXY d   1       2.680  -2.082   0.627  0.00  0.00     0.003 A 
ATOM      6  C4  PXY d   1       2.306  -3.395   0.523  0.00  0.00    -0.082 A 
ATOM      7  C5  PXY d   1       0.998  -3.721   0.587  0.00  0.00     0.003 A 
ATOM      8  C6  PXY d   1       0.055  -2.712   0.759  0.00  0.00     0.003 A 
ENDROOT
TORSDOF 0
ENDMDL
