MODEL 1
REMARK minimizedAffinity 3.14755702
REMARK minimizedRMSD -1
REMARK  0 active torsions:
REMARK  status: ('A' for Active; 'I' for Inactive)
ROOT
ATOM      1  C4' PXY d   1       5.999  -5.999  -0.051  0.00  0.00     0.077 C 
ATOM      2  C1' PXY d   1       1.161  -2.846   0.211  0.00  0.00     0.077 C 
ATOM      3  C1  PXY d   1       2.435  -3.665   0.133  0.00  0.00    -0.082 A 
ATOM      4  C2  PXY d   1       2.418  -4.936   0.499  0.00  0.00     0.003 A 
ATOM      5  C3  PXY d   1       3.567  -5.683   0.465  0.00  0.00     0.003 A 
ATOM      6  C4  PXY d   1       4.735  -5.137   0.002  0.00  0.00    -0.082 A 
ATOM      7  C5  PXY d   1       4.757  -3.843  -0.383  0.00  0.00     0.003 A 
ATOM      8  C6  PXY d   1       3.589  -3.091  -0.302  0.00  0.00     0.003 A 
ENDROOT
TORSDOF 0
ENDMDL
