MODEL 1
REMARK minimizedAffinity -3.62679982
REMARK minimizedRMSD -1
REMARK  0 active torsions:
REMARK  status: ('A' for Active; 'I' for Inactive)
ROOT
ATOM      1  C4' PXY d   1       4.027  -4.265  -0.107  0.00  0.00     0.077 C 
ATOM      2  C1' PXY d   1      -0.387  -0.623   0.707  0.00  0.00     0.077 C 
ATOM      3  C1  PXY d   1       0.777  -1.568   0.489  0.00  0.00    -0.082 A 
ATOM      4  C2  PXY d   1       0.552  -2.866   0.359  0.00  0.00     0.003 A 
ATOM      5  C3  PXY d   1       1.596  -3.738   0.193  0.00  0.00     0.003 A 
ATOM      6  C4  PXY d   1       2.881  -3.272   0.106  0.00  0.00    -0.082 A 
ATOM      7  C5  PXY d   1       3.118  -1.949   0.227  0.00  0.00     0.003 A 
ATOM      8  C6  PXY d   1       2.048  -1.084   0.436  0.00  0.00     0.003 A 
ENDROOT
TORSDOF 0
ENDMDL
