MODEL 1
REMARK minimizedAffinity -3.96092963
REMARK minimizedRMSD -1
REMARK  0 active torsions:
REMARK  status: ('A' for Active; 'I' for Inactive)
ROOT
ATOM      1  C4' PXY d   1       3.205  -4.439  -0.189  0.00  0.00     0.077 C 
ATOM      2  C1' PXY d   1      -1.391  -0.957   0.223  0.00  0.00     0.077 C 
ATOM      3  C1  PXY d   1      -0.178  -1.860   0.112  0.00  0.00    -0.082 A 
ATOM      4  C2  PXY d   1      -0.345  -3.156  -0.096  0.00  0.00     0.003 A 
ATOM      5  C3  PXY d   1       0.740  -3.992  -0.167  0.00  0.00     0.003 A 
ATOM      6  C4  PXY d   1       2.010  -3.488  -0.079  0.00  0.00    -0.082 A 
ATOM      7  C5  PXY d   1       2.189  -2.166   0.121  0.00  0.00     0.003 A 
ATOM      8  C6  PXY d   1       1.073  -1.340   0.233  0.00  0.00     0.003 A 
ENDROOT
TORSDOF 0
ENDMDL
