MODEL 1
REMARK minimizedAffinity -3.98896003
REMARK minimizedRMSD -1
REMARK  0 active torsions:
REMARK  status: ('A' for Active; 'I' for Inactive)
ROOT
ATOM      1  C4' PXY d   1       3.225  -3.958  -0.307  0.00  0.00     0.077 C 
ATOM      2  C1' PXY d   1      -0.982  -0.365   1.368  0.00  0.00     0.077 C 
ATOM      3  C1  PXY d   1       0.127  -1.297   0.922  0.00  0.00    -0.082 A 
ATOM      4  C2  PXY d   1      -0.092  -2.602   0.882  0.00  0.00     0.003 A 
ATOM      5  C3  PXY d   1       0.910  -3.462   0.511  0.00  0.00     0.003 A 
ATOM      6  C4  PXY d   1       2.132  -2.978   0.128  0.00  0.00    -0.082 A 
ATOM      7  C5  PXY d   1       2.360  -1.648   0.156  0.00  0.00     0.003 A 
ATOM      8  C6  PXY d   1       1.343  -0.795   0.575  0.00  0.00     0.003 A 
ENDROOT
TORSDOF 0
ENDMDL
