MODEL 1
REMARK minimizedAffinity -3.87205958
REMARK minimizedRMSD -1
REMARK  0 active torsions:
REMARK  status: ('A' for Active; 'I' for Inactive)
ROOT
ATOM      1  C4' PXY d   1      -1.058  -0.706   0.833  0.00  0.00     0.077 C 
ATOM      2  C1' PXY d   1       3.552  -4.074  -0.071  0.00  0.00     0.077 C 
ATOM      3  C1  PXY d   1       2.350  -3.184   0.174  0.00  0.00    -0.082 A 
ATOM      4  C2  PXY d   1       1.133  -3.648  -0.060  0.00  0.00     0.003 A 
ATOM      5  C3  PXY d   1       0.037  -2.846   0.127  0.00  0.00     0.003 A 
ATOM      6  C4  PXY d   1       0.184  -1.572   0.608  0.00  0.00    -0.082 A 
ATOM      7  C5  PXY d   1       1.422  -1.095   0.859  0.00  0.00     0.003 A 
ATOM      8  C6  PXY d   1       2.524  -1.911   0.624  0.00  0.00     0.003 A 
ENDROOT
TORSDOF 0
ENDMDL
