MODEL 1
REMARK minimizedAffinity 0.649997771
REMARK minimizedRMSD -1
REMARK  0 active torsions:
REMARK  status: ('A' for Active; 'I' for Inactive)
ROOT
ATOM      1  C4' PXY d   1       4.629  -4.728  -0.274  0.00  0.00     0.077 C 
ATOM      2  C1' PXY d   1      -0.233  -1.668   0.371  0.00  0.00     0.077 C 
ATOM      3  C1  PXY d   1       1.048  -2.460   0.198  0.00  0.00    -0.082 A 
ATOM      4  C2  PXY d   1       0.988  -3.766  -0.001  0.00  0.00     0.003 A 
ATOM      5  C3  PXY d   1       2.138  -4.502  -0.127  0.00  0.00     0.003 A 
ATOM      6  C4  PXY d   1       3.360  -3.887  -0.104  0.00  0.00    -0.082 A 
ATOM      7  C5  PXY d   1       3.430  -2.552   0.088  0.00  0.00     0.003 A 
ATOM      8  C6  PXY d   1       2.253  -1.829   0.255  0.00  0.00     0.003 A 
ENDROOT
TORSDOF 0
ENDMDL
