MODEL 1
REMARK minimizedAffinity -3.52681327
REMARK minimizedRMSD -1
REMARK  0 active torsions:
REMARK  status: ('A' for Active; 'I' for Inactive)
ROOT
ATOM      1  C4' PXY d   1      -0.713  -0.784   0.974  0.00  0.00     0.077 C 
ATOM      2  C1' PXY d   1       3.784  -4.151  -0.386  0.00  0.00     0.077 C 
ATOM      3  C1  PXY d   1       2.613  -3.259  -0.025  0.00  0.00    -0.082 A 
ATOM      4  C2  PXY d   1       1.433  -3.800   0.231  0.00  0.00     0.003 A 
ATOM      5  C3  PXY d   1       0.355  -3.006   0.527  0.00  0.00     0.003 A 
ATOM      6  C4  PXY d   1       0.499  -1.647   0.615  0.00  0.00    -0.082 A 
ATOM      7  C5  PXY d   1       1.703  -1.088   0.366  0.00  0.00     0.003 A 
ATOM      8  C6  PXY d   1       2.774  -1.909   0.026  0.00  0.00     0.003 A 
ENDROOT
TORSDOF 0
ENDMDL
