MODEL 1
REMARK minimizedAffinity 6.58822966
REMARK minimizedRMSD -1
REMARK  0 active torsions:
REMARK  status: ('A' for Active; 'I' for Inactive)
ROOT
ATOM      1  C4' PXY d   1      -3.185  -1.178   0.868  0.00  0.00     0.077 C 
ATOM      2  C1' PXY d   1      -1.799   4.428   1.125  0.00  0.00     0.077 C 
ATOM      3  C1  PXY d   1      -2.174   2.961   1.052  0.00  0.00    -0.082 A 
ATOM      4  C2  PXY d   1      -1.621   2.102   1.892  0.00  0.00     0.003 A 
ATOM      5  C3  PXY d   1      -1.924   0.767   1.819  0.00  0.00     0.003 A 
ATOM      6  C4  PXY d   1      -2.844   0.314   0.911  0.00  0.00    -0.082 A 
ATOM      7  C5  PXY d   1      -3.420   1.186   0.057  0.00  0.00     0.003 A 
ATOM      8  C6  PXY d   1      -3.068   2.531   0.120  0.00  0.00     0.003 A 
ENDROOT
TORSDOF 0
ENDMDL
