MODEL 1
REMARK minimizedAffinity -4.66383505
REMARK minimizedRMSD -1
REMARK  0 active torsions:
REMARK  status: ('A' for Active; 'I' for Inactive)
ROOT
ATOM      1  C4' PXY d   1       3.476  -4.167  -0.079  0.00  0.00     0.077 C 
ATOM      2  C1' PXY d   1      -1.301  -0.969   0.530  0.00  0.00     0.077 C 
ATOM      3  C1  PXY d   1      -0.041  -1.797   0.368  0.00  0.00    -0.082 A 
ATOM      4  C2  PXY d   1      -0.137  -3.077   0.049  0.00  0.00     0.003 A 
ATOM      5  C3  PXY d   1       0.991  -3.849  -0.071  0.00  0.00     0.003 A 
ATOM      6  C4  PXY d   1       2.231  -3.291   0.086  0.00  0.00    -0.082 A 
ATOM      7  C5  PXY d   1       2.338  -1.983   0.401  0.00  0.00     0.003 A 
ATOM      8  C6  PXY d   1       1.179  -1.227   0.558  0.00  0.00     0.003 A 
ENDROOT
TORSDOF 0
ENDMDL
