MODEL 1
REMARK minimizedAffinity -2.9303081
REMARK minimizedRMSD -1
REMARK  0 active torsions:
REMARK  status: ('A' for Active; 'I' for Inactive)
ROOT
ATOM      1  C4' PXY d   1       3.066  -4.479  -0.447  0.00  0.00     0.077 C 
ATOM      2  C1' PXY d   1      -0.852  -0.516   1.090  0.00  0.00     0.077 C 
ATOM      3  C1  PXY d   1       0.169  -1.564   0.694  0.00  0.00    -0.082 A 
ATOM      4  C2  PXY d   1       1.387  -1.189   0.338  0.00  0.00     0.003 A 
ATOM      5  C3  PXY d   1       2.313  -2.122  -0.053  0.00  0.00     0.003 A 
ATOM      6  C4  PXY d   1       2.006  -3.456  -0.030  0.00  0.00    -0.082 A 
ATOM      7  C5  PXY d   1       0.768  -3.847   0.341  0.00  0.00     0.003 A 
ATOM      8  C6  PXY d   1      -0.170  -2.882   0.696  0.00  0.00     0.003 A 
ENDROOT
TORSDOF 0
ENDMDL
