MODEL 1
REMARK minimizedAffinity -1.11184132
REMARK minimizedRMSD -1
REMARK  0 active torsions:
REMARK  status: ('A' for Active; 'I' for Inactive)
ROOT
ATOM      1  C4' PXY d   1       3.645  -0.888  -0.542  0.00  0.00     0.077 C 
ATOM      2  C1' PXY d   1      -1.858  -1.519   1.112  0.00  0.00     0.077 C 
ATOM      3  C1  PXY d   1      -0.416  -1.341   0.679  0.00  0.00    -0.082 A 
ATOM      4  C2  PXY d   1       0.186  -2.301  -0.004  0.00  0.00     0.003 A 
ATOM      5  C3  PXY d   1       1.499  -2.170  -0.376  0.00  0.00     0.003 A 
ATOM      6  C4  PXY d   1       2.188  -1.021  -0.092  0.00  0.00    -0.082 A 
ATOM      7  C5  PXY d   1       1.578  -0.032   0.595  0.00  0.00     0.003 A 
ATOM      8  C6  PXY d   1       0.257  -0.202   0.999  0.00  0.00     0.003 A 
ENDROOT
TORSDOF 0
ENDMDL
