MODEL 1
REMARK minimizedAffinity 4.84783554
REMARK minimizedRMSD -1
REMARK  0 active torsions:
REMARK  status: ('A' for Active; 'I' for Inactive)
ROOT
ATOM      1  C4' PXY d   1       2.715   1.319   1.898  0.00  0.00     0.077 C 
ATOM      2  C1' PXY d   1      -0.548  -3.040  -0.042  0.00  0.00     0.077 C 
ATOM      3  C1  PXY d   1       0.318  -1.905   0.466  0.00  0.00    -0.082 A 
ATOM      4  C2  PXY d   1      -0.237  -0.910   1.139  0.00  0.00     0.003 A 
ATOM      5  C3  PXY d   1       0.527   0.141   1.579  0.00  0.00     0.003 A 
ATOM      6  C4  PXY d   1       1.881   0.147   1.373  0.00  0.00    -0.082 A 
ATOM      7  C5  PXY d   1       2.455  -0.870   0.697  0.00  0.00     0.003 A 
ATOM      8  C6  PXY d   1       1.657  -1.907   0.223  0.00  0.00     0.003 A 
ENDROOT
TORSDOF 0
ENDMDL
