MODEL 1
REMARK minimizedAffinity -3.36556387
REMARK minimizedRMSD -1
REMARK  0 active torsions:
REMARK  status: ('A' for Active; 'I' for Inactive)
ROOT
ATOM      1  C   UNL d   1      -5.619  -1.172   5.957  0.00  0.00     0.020 A 
ATOM      2  C1  UNL d   1      -5.735  -2.561   5.997  0.00  0.00     0.020 A 
ATOM      3  C2  UNL d   1      -5.850  -3.287   4.810  0.00  0.00     0.034 A 
ATOM      4  C3  UNL d   1      -5.850  -2.624   3.577  0.00  0.00     0.017 A 
ATOM      5  C4  UNL d   1      -5.733  -1.230   3.538  0.00  0.00     0.017 A 
ATOM      6  C5  UNL d   1      -5.618  -0.508   4.730  0.00  0.00     0.034 A 
ATOM      7 Cl   UNL d   1      -5.725  -0.342   2.055  0.00  0.00    -0.070 Cl
ATOM      8 Cl1  UNL d   1      -5.996  -3.585   2.148  0.00  0.00    -0.070 Cl
ENDROOT
TORSDOF 0
ENDMDL
