MODEL 1
REMARK minimizedAffinity 1.73477125
REMARK minimizedRMSD -1
REMARK  0 active torsions:
REMARK  status: ('A' for Active; 'I' for Inactive)
ROOT
ATOM      1  C   UNL d   1       0.723  -0.697   1.035  0.00  0.00     0.020 A 
ATOM      2  C1  UNL d   1      -0.109   0.142   0.295  0.00  0.00     0.020 A 
ATOM      3  C2  UNL d   1      -0.144   1.510   0.570  0.00  0.00     0.034 A 
ATOM      4  C3  UNL d   1       0.655   2.045   1.588  0.00  0.00     0.017 A 
ATOM      5  C4  UNL d   1       1.490   1.202   2.330  0.00  0.00     0.017 A 
ATOM      6  C5  UNL d   1       1.521  -0.168   2.051  0.00  0.00     0.034 A 
ATOM      7 Cl   UNL d   1       2.504   1.787   3.601  0.00  0.00    -0.070 Cl
ATOM      8 Cl1  UNL d   1       0.562   3.746   1.873  0.00  0.00    -0.070 Cl
ENDROOT
TORSDOF 0
ENDMDL
