MODEL 1
REMARK minimizedAffinity 0.976116955
REMARK minimizedRMSD -1
REMARK  0 active torsions:
REMARK  status: ('A' for Active; 'I' for Inactive)
ROOT
ATOM      1  C   UNL d   1       0.012   0.732  -0.376  0.00  0.00     0.020 A 
ATOM      2  C1  UNL d   1       0.804  -0.350  -0.755  0.00  0.00     0.020 A 
ATOM      3  C2  UNL d   1       1.877  -0.745   0.047  0.00  0.00     0.034 A 
ATOM      4  C3  UNL d   1       2.160  -0.057   1.233  0.00  0.00     0.017 A 
ATOM      5  C4  UNL d   1       1.364   1.030   1.612  0.00  0.00     0.017 A 
ATOM      6  C5  UNL d   1       0.291   1.421   0.806  0.00  0.00     0.034 A 
ATOM      7 Cl   UNL d   1       1.651   1.927   3.061  0.00  0.00    -0.070 Cl
ATOM      8 Cl1  UNL d   1       3.502  -0.600   2.176  0.00  0.00    -0.070 Cl
ENDROOT
TORSDOF 0
ENDMDL
