MODEL 1
REMARK minimizedAffinity -0.43830514
REMARK minimizedRMSD -1
REMARK  0 active torsions:
REMARK  status: ('A' for Active; 'I' for Inactive)
ROOT
ATOM      1  C   UNL d   1      -0.311   0.495  -1.190  0.00  0.00     0.020 A 
ATOM      2  C1  UNL d   1       0.585  -0.573  -1.159  0.00  0.00     0.020 A 
ATOM      3  C2  UNL d   1       1.302  -0.848   0.007  0.00  0.00     0.034 A 
ATOM      4  C3  UNL d   1       1.124  -0.055   1.147  0.00  0.00     0.017 A 
ATOM      5  C4  UNL d   1       0.225   1.017   1.114  0.00  0.00     0.017 A 
ATOM      6  C5  UNL d   1      -0.491   1.288  -0.056  0.00  0.00     0.034 A 
ATOM      7 Cl   UNL d   1      -0.048   2.040   2.480  0.00  0.00    -0.070 Cl
ATOM      8 Cl1  UNL d   1       2.044  -0.453   2.554  0.00  0.00    -0.070 Cl
ENDROOT
TORSDOF 0
ENDMDL
