MODEL 1
REMARK minimizedAffinity -3.22360516
REMARK minimizedRMSD -1
REMARK  0 active torsions:
REMARK  status: ('A' for Active; 'I' for Inactive)
ROOT
ATOM      1  C   UNL d   1       0.254   0.880   1.827  0.00  0.00     0.020 A 
ATOM      2  C1  UNL d   1      -0.182   1.327   0.581  0.00  0.00     0.020 A 
ATOM      3  C2  UNL d   1       0.149   2.612   0.145  0.00  0.00     0.034 A 
ATOM      4  C3  UNL d   1       0.918   3.454   0.957  0.00  0.00     0.017 A 
ATOM      5  C4  UNL d   1       1.356   3.004   2.208  0.00  0.00     0.017 A 
ATOM      6  C5  UNL d   1       1.022   1.716   2.639  0.00  0.00     0.034 A 
ATOM      7 Cl   UNL d   1       2.309   3.985   3.264  0.00  0.00    -0.070 Cl
ATOM      8 Cl1  UNL d   1       1.290   5.030   0.354  0.00  0.00    -0.070 Cl
ENDROOT
TORSDOF 0
ENDMDL
