MODEL 1
REMARK minimizedAffinity -3.1442275
REMARK minimizedRMSD -1
REMARK  0 active torsions:
REMARK  status: ('A' for Active; 'I' for Inactive)
ROOT
ATOM      1  C   UNL d   1      -0.718   1.481   0.628  0.00  0.00     0.020 A 
ATOM      2  C1  UNL d   1      -0.326   0.993   1.874  0.00  0.00     0.020 A 
ATOM      3  C2  UNL d   1       0.745   1.581   2.549  0.00  0.00     0.034 A 
ATOM      4  C3  UNL d   1       1.429   2.661   1.978  0.00  0.00     0.017 A 
ATOM      5  C4  UNL d   1       1.035   3.150   0.727  0.00  0.00     0.017 A 
ATOM      6  C5  UNL d   1      -0.039   2.557   0.056  0.00  0.00     0.034 A 
ATOM      7 Cl   UNL d   1       1.829   4.479  -0.041  0.00  0.00    -0.070 Cl
ATOM      8 Cl1  UNL d   1       2.744   3.340   2.869  0.00  0.00    -0.070 Cl
ENDROOT
TORSDOF 0
ENDMDL
