MODEL 1
REMARK minimizedAffinity 1.33940828
REMARK minimizedRMSD -1
REMARK  0 active torsions:
REMARK  status: ('A' for Active; 'I' for Inactive)
ROOT
ATOM      1  C   UNL d   1       0.883   0.644   2.975  0.00  0.00     0.020 A 
ATOM      2  C1  UNL d   1       0.446   1.883   2.508  0.00  0.00     0.020 A 
ATOM      3  C2  UNL d   1       0.370   2.125   1.135  0.00  0.00     0.034 A 
ATOM      4  C3  UNL d   1       0.733   1.127   0.223  0.00  0.00     0.017 A 
ATOM      5  C4  UNL d   1       1.172  -0.117   0.692  0.00  0.00     0.017 A 
ATOM      6  C5  UNL d   1       1.245  -0.354   2.069  0.00  0.00     0.034 A 
ATOM      7 Cl   UNL d   1       1.636  -1.398  -0.371  0.00  0.00    -0.070 Cl
ATOM      8 Cl1  UNL d   1       0.615   1.495  -1.461  0.00  0.00    -0.070 Cl
ENDROOT
TORSDOF 0
ENDMDL
