MODEL 1
REMARK minimizedAffinity 11.1646957
REMARK minimizedRMSD -1
REMARK  0 active torsions:
REMARK  status: ('A' for Active; 'I' for Inactive)
ROOT
ATOM      1  C   UNL d   1      -4.818   5.029   2.265  0.00  0.00     0.020 A 
ATOM      2  C1  UNL d   1      -5.999   4.509   1.736  0.00  0.00     0.020 A 
ATOM      3  C2  UNL d   1      -5.961   3.371   0.928  0.00  0.00     0.034 A 
ATOM      4  C3  UNL d   1      -4.739   2.749   0.646  0.00  0.00     0.017 A 
ATOM      5  C4  UNL d   1      -3.554   3.271   1.177  0.00  0.00     0.017 A 
ATOM      6  C5  UNL d   1      -3.599   4.411   1.986  0.00  0.00     0.034 A 
ATOM      7 Cl   UNL d   1      -2.009   2.559   0.874  0.00  0.00    -0.070 Cl
ATOM      8 Cl1  UNL d   1      -4.766   1.345  -0.361  0.00  0.00    -0.070 Cl
ENDROOT
TORSDOF 0
ENDMDL
