MODEL 1
REMARK minimizedAffinity 6.39888096
REMARK minimizedRMSD -1
REMARK  0 active torsions:
REMARK  status: ('A' for Active; 'I' for Inactive)
ROOT
ATOM      1  C   UNL d   1       1.228   4.696  -0.966  0.00  0.00     0.020 A 
ATOM      2  C1  UNL d   1      -0.009   5.270  -1.258  0.00  0.00     0.020 A 
ATOM      3  C2  UNL d   1      -1.186   4.576  -0.970  0.00  0.00     0.034 A 
ATOM      4  C3  UNL d   1      -1.129   3.304  -0.389  0.00  0.00     0.017 A 
ATOM      5  C4  UNL d   1       0.113   2.729  -0.096  0.00  0.00     0.017 A 
ATOM      6  C5  UNL d   1       1.288   3.428  -0.386  0.00  0.00     0.034 A 
ATOM      7 Cl   UNL d   1       0.263   1.164   0.622  0.00  0.00    -0.070 Cl
ATOM      8 Cl1  UNL d   1      -2.625   2.503  -0.060  0.00  0.00    -0.070 Cl
ENDROOT
TORSDOF 0
ENDMDL
