MODEL 1
REMARK minimizedAffinity 3.5862329
REMARK minimizedRMSD -1
REMARK  0 active torsions:
REMARK  status: ('A' for Active; 'I' for Inactive)
ROOT
ATOM      1  C   UNL d   1      -0.191   3.076  -0.175  0.00  0.00     0.020 A 
ATOM      2  C1  UNL d   1       0.364   2.206   0.762  0.00  0.00     0.020 A 
ATOM      3  C2  UNL d   1       1.647   2.441   1.260  0.00  0.00     0.034 A 
ATOM      4  C3  UNL d   1       2.380   3.550   0.821  0.00  0.00     0.017 A 
ATOM      5  C4  UNL d   1       1.822   4.424  -0.119  0.00  0.00     0.017 A 
ATOM      6  C5  UNL d   1       0.536   4.183  -0.614  0.00  0.00     0.034 A 
ATOM      7 Cl   UNL d   1       2.664   5.813  -0.709  0.00  0.00    -0.070 Cl
ATOM      8 Cl1  UNL d   1       3.960   3.781   1.479  0.00  0.00    -0.070 Cl
ENDROOT
TORSDOF 0
ENDMDL
