MODEL 1
REMARK minimizedAffinity 16.1594677
REMARK minimizedRMSD -1
REMARK  0 active torsions:
REMARK  status: ('A' for Active; 'I' for Inactive)
ROOT
ATOM      1  C   UNL d   1      -5.318   5.645   2.062  0.00  0.00     0.020 A 
ATOM      2  C1  UNL d   1      -5.999   4.577   1.478  0.00  0.00     0.020 A 
ATOM      3  C2  UNL d   1      -5.300   3.432   1.091  0.00  0.00     0.034 A 
ATOM      4  C3  UNL d   1      -3.916   3.352   1.286  0.00  0.00     0.017 A 
ATOM      5  C4  UNL d   1      -3.234   4.425   1.871  0.00  0.00     0.017 A 
ATOM      6  C5  UNL d   1      -3.939   5.569   2.258  0.00  0.00     0.034 A 
ATOM      7 Cl   UNL d   1      -1.527   4.400   2.144  0.00  0.00    -0.070 Cl
ATOM      8 Cl1  UNL d   1      -3.116   1.905   0.783  0.00  0.00    -0.070 Cl
ENDROOT
TORSDOF 0
ENDMDL
