MODEL 1
REMARK minimizedAffinity 5.06874514
REMARK minimizedRMSD -1
REMARK  0 active torsions:
REMARK  status: ('A' for Active; 'I' for Inactive)
ROOT
ATOM      1  C   UNL d   1      -1.987   2.046  -5.728  0.00  0.00     0.020 A 
ATOM      2  C1  UNL d   1      -2.301   3.337  -5.305  0.00  0.00     0.020 A 
ATOM      3  C2  UNL d   1      -1.686   3.869  -4.170  0.00  0.00     0.034 A 
ATOM      4  C3  UNL d   1      -0.754   3.109  -3.453  0.00  0.00     0.017 A 
ATOM      5  C4  UNL d   1      -0.440   1.814  -3.878  0.00  0.00     0.017 A 
ATOM      6  C5  UNL d   1      -1.058   1.286  -5.015  0.00  0.00     0.034 A 
ATOM      7 Cl   UNL d   1       0.700   0.816  -3.045  0.00  0.00    -0.070 Cl
ATOM      8 Cl1  UNL d   1      -0.032   3.831  -2.058  0.00  0.00    -0.070 Cl
ENDROOT
TORSDOF 0
ENDMDL
