MODEL 1
REMARK minimizedAffinity 11.0523806
REMARK minimizedRMSD -1
REMARK  0 active torsions:
REMARK  status: ('A' for Active; 'I' for Inactive)
ROOT
ATOM      1  C   UNL d   1       1.388   3.059   0.749  0.00  0.00     0.020 A 
ATOM      2  C1  UNL d   1       0.000   2.926   0.750  0.00  0.00     0.020 A 
ATOM      3  C2  UNL d   1      -0.781   3.748  -0.065  0.00  0.00     0.034 A 
ATOM      4  C3  UNL d   1      -0.174   4.707  -0.885  0.00  0.00     0.017 A 
ATOM      5  C4  UNL d   1       1.219   4.840  -0.886  0.00  0.00     0.017 A 
ATOM      6  C5  UNL d   1       1.996   4.014  -0.068  0.00  0.00     0.034 A 
ATOM      7 Cl   UNL d   1       2.039   6.000  -1.870  0.00  0.00    -0.070 Cl
ATOM      8 Cl1  UNL d   1      -1.202   5.689  -1.867  0.00  0.00    -0.070 Cl
ENDROOT
TORSDOF 0
ENDMDL
