MODEL 1
REMARK minimizedAffinity 10.3690434
REMARK minimizedRMSD -1
REMARK  0 active torsions:
REMARK  status: ('A' for Active; 'I' for Inactive)
ROOT
ATOM      1  C   UNL d   1      -1.077   3.309  -0.426  0.00  0.00     0.020 A 
ATOM      2  C1  UNL d   1      -0.060   2.806   0.384  0.00  0.00     0.020 A 
ATOM      3  C2  UNL d   1       0.679   1.696  -0.031  0.00  0.00     0.034 A 
ATOM      4  C3  UNL d   1       0.402   1.086  -1.260  0.00  0.00     0.017 A 
ATOM      5  C4  UNL d   1      -0.620   1.591  -2.072  0.00  0.00     0.017 A 
ATOM      6  C5  UNL d   1      -1.356   2.703  -1.651  0.00  0.00     0.034 A 
ATOM      7 Cl   UNL d   1      -1.020   0.892  -3.601  0.00  0.00    -0.070 Cl
ATOM      8 Cl1  UNL d   1       1.356  -0.282  -1.711  0.00  0.00    -0.070 Cl
ENDROOT
TORSDOF 0
ENDMDL
