MODEL 1
REMARK minimizedAffinity 10.6753492
REMARK minimizedRMSD -1
REMARK  0 active torsions:
REMARK  status: ('A' for Active; 'I' for Inactive)
ROOT
ATOM      1  C   UNL d   1      -0.062  -4.095  -1.604  0.00  0.00     0.020 A 
ATOM      2  C1  UNL d   1      -0.223  -5.409  -1.165  0.00  0.00     0.020 A 
ATOM      3  C2  UNL d   1       0.713  -5.975  -0.298  0.00  0.00     0.034 A 
ATOM      4  C3  UNL d   1       1.815  -5.228   0.134  0.00  0.00     0.017 A 
ATOM      5  C4  UNL d   1       1.976  -3.909  -0.307  0.00  0.00     0.017 A 
ATOM      6  C5  UNL d   1       1.036  -3.347  -1.176  0.00  0.00     0.034 A 
ATOM      7 Cl   UNL d   1       3.310  -2.925   0.182  0.00  0.00    -0.070 Cl
ATOM      8 Cl1  UNL d   1       2.933  -5.992   1.207  0.00  0.00    -0.070 Cl
ENDROOT
TORSDOF 0
ENDMDL
