MODEL 1
REMARK minimizedAffinity 13.3173227
REMARK minimizedRMSD -1
REMARK  0 active torsions:
REMARK  status: ('A' for Active; 'I' for Inactive)
ROOT
ATOM      1  C   UNL d   1       1.130   2.549   0.285  0.00  0.00     0.020 A 
ATOM      2  C1  UNL d   1      -0.229   2.279   0.127  0.00  0.00     0.020 A 
ATOM      3  C2  UNL d   1      -1.037   3.163  -0.591  0.00  0.00     0.034 A 
ATOM      4  C3  UNL d   1      -0.488   4.322  -1.153  0.00  0.00     0.017 A 
ATOM      5  C4  UNL d   1       0.876   4.592  -0.993  0.00  0.00     0.017 A 
ATOM      6  C5  UNL d   1       1.681   3.703  -0.274  0.00  0.00     0.034 A 
ATOM      7 Cl   UNL d   1       1.626   6.000  -1.657  0.00  0.00    -0.070 Cl
ATOM      8 Cl1  UNL d   1      -1.546   5.370  -2.028  0.00  0.00    -0.070 Cl
ENDROOT
TORSDOF 0
ENDMDL
