MODEL 1
REMARK minimizedAffinity 6.81515169
REMARK minimizedRMSD -1
REMARK  0 active torsions:
REMARK  status: ('A' for Active; 'I' for Inactive)
ROOT
ATOM      1  C   UNL d   1       0.865  -0.349   1.135  0.00  0.00     0.020 A 
ATOM      2  C1  UNL d   1       1.350  -1.096   0.062  0.00  0.00     0.020 A 
ATOM      3  C2  UNL d   1       1.051  -0.713  -1.247  0.00  0.00     0.034 A 
ATOM      4  C3  UNL d   1       0.266   0.420  -1.487  0.00  0.00     0.017 A 
ATOM      5  C4  UNL d   1      -0.220   1.169  -0.410  0.00  0.00     0.017 A 
ATOM      6  C5  UNL d   1       0.082   0.781   0.899  0.00  0.00     0.034 A 
ATOM      7 Cl   UNL d   1      -1.195   2.580  -0.627  0.00  0.00    -0.070 Cl
ATOM      8 Cl1  UNL d   1      -0.064   0.835  -3.132  0.00  0.00    -0.070 Cl
ENDROOT
TORSDOF 0
ENDMDL
