MODEL 1
REMARK minimizedAffinity 1.13599348
REMARK minimizedRMSD -1
REMARK  0 active torsions:
REMARK  status: ('A' for Active; 'I' for Inactive)
ROOT
ATOM      1  C   UNL d   1       4.251  -1.766   4.340  0.00  0.00     0.020 A 
ATOM      2  C1  UNL d   1       5.310  -2.619   4.032  0.00  0.00     0.020 A 
ATOM      3  C2  UNL d   1       5.523  -3.019   2.711  0.00  0.00     0.034 A 
ATOM      4  C3  UNL d   1       4.676  -2.564   1.693  0.00  0.00     0.017 A 
ATOM      5  C4  UNL d   1       3.614  -1.708   2.003  0.00  0.00     0.017 A 
ATOM      6  C5  UNL d   1       3.405  -1.311   3.328  0.00  0.00     0.034 A 
ATOM      7 Cl   UNL d   1       2.528  -1.106   0.802  0.00  0.00    -0.070 Cl
ATOM      8 Cl1  UNL d   1       4.999  -3.098   0.082  0.00  0.00    -0.070 Cl
ENDROOT
TORSDOF 0
ENDMDL
