MODEL 1
REMARK minimizedAffinity 7.21842194
REMARK minimizedRMSD -1
REMARK  1 active torsions:
REMARK  status: ('A' for Active; 'I' for Inactive)
REMARK    1  A    between atoms: C1_2  and  C2_3 
ROOT
ATOM      1  C2  UNL d   1       1.547  -3.178  -2.016  0.00  0.00    -0.077 A 
ATOM      2  C3  UNL d   1       2.250  -3.638  -0.894  0.00  0.00     0.002 A 
ATOM      3  C4  UNL d   1       2.853  -2.734  -0.018  0.00  0.00     0.002 A 
ATOM      4  C5  UNL d   1       2.755  -1.364  -0.252  0.00  0.00    -0.004 A 
ATOM      5  C6  UNL d   1       2.060  -0.896  -1.367  0.00  0.00     0.002 A 
ATOM      6  C7  UNL d   1       1.457  -1.799  -2.244  0.00  0.00     0.002 A 
ENDROOT
BRANCH   1   7
ATOM      7  C1  UNL d   1       0.854  -4.150  -2.935  0.00  0.00     0.055 C 
ATOM      8  C   UNL d   1      -0.520  -3.641  -3.345  0.00  0.00     0.019 C 
ENDBRANCH   1   7
TORSDOF 1
ENDMDL
