MODEL 1
REMARK minimizedAffinity 7.15233135
REMARK minimizedRMSD -1
REMARK  1 active torsions:
REMARK  status: ('A' for Active; 'I' for Inactive)
REMARK    1  A    between atoms: C1_2  and  C2_3 
ROOT
ATOM      1  C2  UNL d   1       1.304  -2.813  -2.212  0.00  0.00    -0.077 A 
ATOM      2  C3  UNL d   1       1.367  -1.432  -2.444  0.00  0.00     0.002 A 
ATOM      3  C4  UNL d   1       2.013  -0.591  -1.536  0.00  0.00     0.002 A 
ATOM      4  C5  UNL d   1       2.605  -1.123  -0.392  0.00  0.00    -0.004 A 
ATOM      5  C6  UNL d   1       2.546  -2.495  -0.151  0.00  0.00     0.002 A 
ATOM      6  C7  UNL d   1       1.899  -3.336  -1.057  0.00  0.00     0.002 A 
ENDROOT
BRANCH   1   7
ATOM      7  C1  UNL d   1       0.650  -3.727  -3.215  0.00  0.00     0.055 C 
ATOM      8  C   UNL d   1      -0.839  -3.438  -3.340  0.00  0.00     0.019 C 
ENDBRANCH   1   7
TORSDOF 1
ENDMDL
