MODEL 1
REMARK minimizedAffinity 10.1166334
REMARK minimizedRMSD -1
REMARK  1 active torsions:
REMARK  status: ('A' for Active; 'I' for Inactive)
REMARK    1  A    between atoms: C1_2  and  C2_3 
ROOT
ATOM      1  C2  UNL d   1       3.298   0.334   0.337  0.00  0.00    -0.077 A 
ATOM      2  C3  UNL d   1       2.229  -0.184  -0.408  0.00  0.00     0.002 A 
ATOM      3  C4  UNL d   1       2.098  -1.562  -0.591  0.00  0.00     0.002 A 
ATOM      4  C5  UNL d   1       3.028  -2.432  -0.027  0.00  0.00    -0.004 A 
ATOM      5  C6  UNL d   1       4.095  -1.927   0.714  0.00  0.00     0.002 A 
ATOM      6  C7  UNL d   1       4.229  -0.550   0.897  0.00  0.00     0.002 A 
ENDROOT
BRANCH   1   7
ATOM      7  C1  UNL d   1       3.414   1.817   0.576  0.00  0.00     0.055 C 
ATOM      8  C   UNL d   1       4.809   2.193   1.052  0.00  0.00     0.019 C 
ENDBRANCH   1   7
TORSDOF 1
ENDMDL
