MODEL 1
REMARK minimizedAffinity 6.67914724
REMARK minimizedRMSD -1
REMARK  1 active torsions:
REMARK  status: ('A' for Active; 'I' for Inactive)
REMARK    1  A    between atoms: C1_2  and  C2_3 
ROOT
ATOM      1  C2  UNL d   1       2.194   1.694   1.515  0.00  0.00    -0.077 A 
ATOM      2  C3  UNL d   1       3.167   2.619   1.918  0.00  0.00     0.002 A 
ATOM      3  C4  UNL d   1       4.293   2.851   1.125  0.00  0.00     0.002 A 
ATOM      4  C5  UNL d   1       4.453   2.166  -0.077  0.00  0.00    -0.004 A 
ATOM      5  C6  UNL d   1       3.491   1.243  -0.486  0.00  0.00     0.002 A 
ATOM      6  C7  UNL d   1       2.366   1.009   0.306  0.00  0.00     0.002 A 
ENDROOT
BRANCH   1   7
ATOM      7  C1  UNL d   1       0.955   1.479   2.345  0.00  0.00     0.055 C 
ATOM      8  C   UNL d   1       1.277   1.485   3.832  0.00  0.00     0.019 C 
ENDBRANCH   1   7
TORSDOF 1
ENDMDL
