MODEL 1
REMARK minimizedAffinity 8.73353386
REMARK minimizedRMSD -1
REMARK  1 active torsions:
REMARK  status: ('A' for Active; 'I' for Inactive)
REMARK    1  A    between atoms: C1_2  and  C2_3 
ROOT
ATOM      1  C2  UNL d   1       2.065  -1.744  -0.828  0.00  0.00    -0.077 A 
ATOM      2  C3  UNL d   1       2.817  -2.698  -0.129  0.00  0.00     0.002 A 
ATOM      3  C4  UNL d   1       2.837  -4.029  -0.552  0.00  0.00     0.002 A 
ATOM      4  C5  UNL d   1       2.112  -4.416  -1.677  0.00  0.00    -0.004 A 
ATOM      5  C6  UNL d   1       1.359  -3.474  -2.377  0.00  0.00     0.002 A 
ATOM      6  C7  UNL d   1       1.336  -2.144  -1.955  0.00  0.00     0.002 A 
ENDROOT
BRANCH   1   7
ATOM      7  C1  UNL d   1       2.080  -0.299  -0.402  0.00  0.00     0.055 C 
ATOM      8  C   UNL d   1       2.117   0.632  -1.606  0.00  0.00     0.019 C 
ENDBRANCH   1   7
TORSDOF 1
ENDMDL
