MODEL 1
REMARK minimizedAffinity 8.76344681
REMARK minimizedRMSD -1
REMARK  1 active torsions:
REMARK  status: ('A' for Active; 'I' for Inactive)
REMARK    1  A    between atoms: C1_2  and  C2_3 
ROOT
ATOM      1  C2  UNL d   1       2.794  -1.614   0.717  0.00  0.00    -0.077 A 
ATOM      2  C3  UNL d   1       1.866  -0.564   0.696  0.00  0.00     0.002 A 
ATOM      3  C4  UNL d   1       2.231   0.710   1.137  0.00  0.00     0.002 A 
ATOM      4  C5  UNL d   1       3.524   0.945   1.598  0.00  0.00    -0.004 A 
ATOM      5  C6  UNL d   1       4.454  -0.094   1.625  0.00  0.00     0.002 A 
ATOM      6  C7  UNL d   1       4.091  -1.367   1.185  0.00  0.00     0.002 A 
ENDROOT
BRANCH   1   7
ATOM      7  C1  UNL d   1       2.417  -2.976   0.195  0.00  0.00     0.055 C 
ATOM      8  C   UNL d   1       3.644  -3.858   0.011  0.00  0.00     0.019 C 
ENDBRANCH   1   7
TORSDOF 1
ENDMDL
