MODEL 1
REMARK minimizedAffinity 11.6984873
REMARK minimizedRMSD -1
REMARK  1 active torsions:
REMARK  status: ('A' for Active; 'I' for Inactive)
REMARK    1  A    between atoms: C1_2  and  C2_3 
ROOT
ATOM      1  C2  UNL d   1       1.794  -4.955  -2.210  0.00  0.00    -0.077 A 
ATOM      2  C3  UNL d   1       1.945  -3.801  -1.428  0.00  0.00     0.002 A 
ATOM      3  C4  UNL d   1       3.001  -3.698  -0.520  0.00  0.00     0.002 A 
ATOM      4  C5  UNL d   1       3.914  -4.741  -0.389  0.00  0.00    -0.004 A 
ATOM      5  C6  UNL d   1       3.771  -5.893  -1.161  0.00  0.00     0.002 A 
ATOM      6  C7  UNL d   1       2.716  -5.999  -2.068  0.00  0.00     0.002 A 
ENDROOT
BRANCH   1   7
ATOM      7  C1  UNL d   1       0.685  -5.048  -3.225  0.00  0.00     0.055 C 
ATOM      8  C   UNL d   1       0.650  -3.819  -4.122  0.00  0.00     0.019 C 
ENDBRANCH   1   7
TORSDOF 1
ENDMDL
