MODEL 1
REMARK minimizedAffinity 10.5651083
REMARK minimizedRMSD -1
REMARK  1 active torsions:
REMARK  status: ('A' for Active; 'I' for Inactive)
REMARK    1  A    between atoms: C1_2  and  C2_3 
ROOT
ATOM      1  C2  UNL d   1      -2.531  -4.121  -4.322  0.00  0.00    -0.077 A 
ATOM      2  C3  UNL d   1      -3.014  -2.805  -4.331  0.00  0.00     0.002 A 
ATOM      3  C4  UNL d   1      -4.071  -2.446  -5.169  0.00  0.00     0.002 A 
ATOM      4  C5  UNL d   1      -4.658  -3.399  -6.000  0.00  0.00    -0.004 A 
ATOM      5  C6  UNL d   1      -4.183  -4.710  -6.000  0.00  0.00     0.002 A 
ATOM      6  C7  UNL d   1      -3.126  -5.070  -5.164  0.00  0.00     0.002 A 
ENDROOT
BRANCH   1   7
ATOM      7  C1  UNL d   1      -1.423  -4.521  -3.383  0.00  0.00     0.055 C 
ATOM      8  C   UNL d   1      -1.896  -5.566  -2.382  0.00  0.00     0.019 C 
ENDBRANCH   1   7
TORSDOF 1
ENDMDL
