MODEL 1
REMARK minimizedAffinity 17.7209167
REMARK minimizedRMSD -1
REMARK  1 active torsions:
REMARK  status: ('A' for Active; 'I' for Inactive)
REMARK    1  A    between atoms: C1_2  and  C2_3 
ROOT
ATOM      1  C2  UNL d   1      -1.426   0.651   2.280  0.00  0.00    -0.077 A 
ATOM      2  C3  UNL d   1      -0.555  -0.283   1.702  0.00  0.00     0.002 A 
ATOM      3  C4  UNL d   1       0.824  -0.178   1.898  0.00  0.00     0.002 A 
ATOM      4  C5  UNL d   1       1.342   0.856   2.674  0.00  0.00    -0.004 A 
ATOM      5  C6  UNL d   1       0.484   1.791   3.252  0.00  0.00     0.002 A 
ATOM      6  C7  UNL d   1      -0.894   1.688   3.056  0.00  0.00     0.002 A 
ENDROOT
BRANCH   1   7
ATOM      7  C1  UNL d   1      -2.916   0.511   2.111  0.00  0.00     0.055 C 
ATOM      8  C   UNL d   1      -3.493  -0.497   3.095  0.00  0.00     0.019 C 
ENDBRANCH   1   7
TORSDOF 1
ENDMDL
