MODEL 1
REMARK minimizedAffinity 15.1642284
REMARK minimizedRMSD -1
REMARK  1 active torsions:
REMARK  status: ('A' for Active; 'I' for Inactive)
REMARK    1  A    between atoms: C1_2  and  C2_3 
ROOT
ATOM      1  C2  UNL d   1       0.161   0.885   3.642  0.00  0.00    -0.077 A 
ATOM      2  C3  UNL d   1      -1.123   1.387   3.900  0.00  0.00     0.002 A 
ATOM      3  C4  UNL d   1      -2.171   1.131   3.014  0.00  0.00     0.002 A 
ATOM      4  C5  UNL d   1      -1.948   0.370   1.869  0.00  0.00    -0.004 A 
ATOM      5  C6  UNL d   1      -0.675  -0.132   1.603  0.00  0.00     0.002 A 
ATOM      6  C7  UNL d   1       0.375   0.124   2.486  0.00  0.00     0.002 A 
ENDROOT
BRANCH   1   7
ATOM      7  C1  UNL d   1       1.282   1.118   4.621  0.00  0.00     0.055 C 
ATOM      8  C   UNL d   1       0.748   1.478   6.000  0.00  0.00     0.019 C 
ENDBRANCH   1   7
TORSDOF 1
ENDMDL
