MODEL 1
REMARK minimizedAffinity 17.3800201
REMARK minimizedRMSD -1
REMARK  1 active torsions:
REMARK  status: ('A' for Active; 'I' for Inactive)
REMARK    1  A    between atoms: C1_2  and  C2_3 
ROOT
ATOM      1  C2  UNL d   1      -0.725  -2.481  -1.875  0.00  0.00    -0.077 A 
ATOM      2  C3  UNL d   1      -0.739  -1.793  -0.654  0.00  0.00     0.002 A 
ATOM      3  C4  UNL d   1      -0.587  -2.486   0.549  0.00  0.00     0.002 A 
ATOM      4  C5  UNL d   1      -0.417  -3.869   0.541  0.00  0.00    -0.004 A 
ATOM      5  C6  UNL d   1      -0.404  -4.562  -0.668  0.00  0.00     0.002 A 
ATOM      6  C7  UNL d   1      -0.557  -3.872  -1.871  0.00  0.00     0.002 A 
ENDROOT
BRANCH   1   7
ATOM      7  C1  UNL d   1      -0.840  -1.730  -3.176  0.00  0.00     0.055 C 
ATOM      8  C   UNL d   1      -1.706  -2.482  -4.176  0.00  0.00     0.019 C 
ENDBRANCH   1   7
TORSDOF 1
ENDMDL
