MODEL 1
REMARK minimizedAffinity 3.56474042
REMARK minimizedRMSD -1
REMARK  1 active torsions:
REMARK  status: ('A' for Active; 'I' for Inactive)
REMARK    1  A    between atoms: C1_2  and  C2_3 
ROOT
ATOM      1  C2  UNL d   1       3.827   1.736   3.480  0.00  0.00    -0.077 A 
ATOM      2  C3  UNL d   1       3.283   2.591   2.512  0.00  0.00     0.002 A 
ATOM      3  C4  UNL d   1       3.659   2.472   1.173  0.00  0.00     0.002 A 
ATOM      4  C5  UNL d   1       4.577   1.496   0.789  0.00  0.00    -0.004 A 
ATOM      5  C6  UNL d   1       5.126   0.642   1.745  0.00  0.00     0.002 A 
ATOM      6  C7  UNL d   1       4.752   0.761   3.085  0.00  0.00     0.002 A 
ENDROOT
BRANCH   1   7
ATOM      7  C1  UNL d   1       3.386   1.831   4.917  0.00  0.00     0.055 C 
ATOM      8  C   UNL d   1       3.981   3.054   5.600  0.00  0.00     0.019 C 
ENDBRANCH   1   7
TORSDOF 1
ENDMDL
