MODEL 1
REMARK minimizedAffinity 3.62394738
REMARK minimizedRMSD -1
REMARK  1 active torsions:
REMARK  status: ('A' for Active; 'I' for Inactive)
REMARK    1  A    between atoms: C1_2  and  C2_3 
ROOT
ATOM      1  C2  UNL d   1      -0.928  -3.994   1.547  0.00  0.00    -0.077 A 
ATOM      2  C3  UNL d   1      -1.700  -3.304   2.492  0.00  0.00     0.002 A 
ATOM      3  C4  UNL d   1      -2.371  -2.133   2.137  0.00  0.00     0.002 A 
ATOM      4  C5  UNL d   1      -2.282  -1.645   0.835  0.00  0.00    -0.004 A 
ATOM      5  C6  UNL d   1      -1.516  -2.323  -0.112  0.00  0.00     0.002 A 
ATOM      6  C7  UNL d   1      -0.843  -3.493   0.242  0.00  0.00     0.002 A 
ENDROOT
BRANCH   1   7
ATOM      7  C1  UNL d   1      -0.243  -5.284   1.916  0.00  0.00     0.055 C 
ATOM      8  C   UNL d   1      -0.978  -6.000   3.040  0.00  0.00     0.019 C 
ENDBRANCH   1   7
TORSDOF 1
ENDMDL
