MODEL 1
REMARK minimizedAffinity 7.65709352
REMARK minimizedRMSD -1
REMARK  1 active torsions:
REMARK  status: ('A' for Active; 'I' for Inactive)
REMARK    1  A    between atoms: C1_2  and  C2_3 
ROOT
ATOM      1  C2  UNL d   1       5.251   2.782   0.790  0.00  0.00    -0.077 A 
ATOM      2  C3  UNL d   1       4.708   3.765   1.629  0.00  0.00     0.002 A 
ATOM      3  C4  UNL d   1       4.811   5.116   1.293  0.00  0.00     0.002 A 
ATOM      4  C5  UNL d   1       5.453   5.496   0.116  0.00  0.00    -0.004 A 
ATOM      5  C6  UNL d   1       5.999   4.526  -0.724  0.00  0.00     0.002 A 
ATOM      6  C7  UNL d   1       5.898   3.175  -0.389  0.00  0.00     0.002 A 
ENDROOT
BRANCH   1   7
ATOM      7  C1  UNL d   1       5.098   1.322   1.126  0.00  0.00     0.055 C 
ATOM      8  C   UNL d   1       5.651   1.011   2.510  0.00  0.00     0.019 C 
ENDBRANCH   1   7
TORSDOF 1
ENDMDL
