MODEL 1
REMARK minimizedAffinity 10.7073097
REMARK minimizedRMSD -1
REMARK  1 active torsions:
REMARK  status: ('A' for Active; 'I' for Inactive)
REMARK    1  A    between atoms: C1_2  and  C2_3 
ROOT
ATOM      1  C2  UNL d   1       4.297   1.902   3.421  0.00  0.00    -0.077 A 
ATOM      2  C3  UNL d   1       3.669   2.616   2.390  0.00  0.00     0.002 A 
ATOM      3  C4  UNL d   1       4.204   2.610   1.101  0.00  0.00     0.002 A 
ATOM      4  C5  UNL d   1       5.365   1.889   0.829  0.00  0.00    -0.004 A 
ATOM      5  C6  UNL d   1       5.997   1.178   1.848  0.00  0.00     0.002 A 
ATOM      6  C7  UNL d   1       5.465   1.184   3.138  0.00  0.00     0.002 A 
ENDROOT
BRANCH   1   7
ATOM      7  C1  UNL d   1       3.695   1.867   4.802  0.00  0.00     0.055 C 
ATOM      8  C   UNL d   1       3.997   3.145   5.570  0.00  0.00     0.019 C 
ENDBRANCH   1   7
TORSDOF 1
ENDMDL
