MODEL 1
REMARK minimizedAffinity 11.7372808
REMARK minimizedRMSD -1
REMARK  1 active torsions:
REMARK  status: ('A' for Active; 'I' for Inactive)
REMARK    1  A    between atoms: C1_2  and  C2_3 
ROOT
ATOM      1  C2  UNL d   1       4.694   3.416   1.129  0.00  0.00    -0.077 A 
ATOM      2  C3  UNL d   1       5.467   3.135  -0.006  0.00  0.00     0.002 A 
ATOM      3  C4  UNL d   1       5.997   4.173  -0.774  0.00  0.00     0.002 A 
ATOM      4  C5  UNL d   1       5.764   5.498  -0.413  0.00  0.00    -0.004 A 
ATOM      5  C6  UNL d   1       4.994   5.788   0.713  0.00  0.00     0.002 A 
ATOM      6  C7  UNL d   1       4.463   4.752   1.481  0.00  0.00     0.002 A 
ENDROOT
BRANCH   1   7
ATOM      7  C1  UNL d   1       4.162   2.297   1.987  0.00  0.00     0.055 C 
ATOM      8  C   UNL d   1       5.291   1.533   2.662  0.00  0.00     0.019 C 
ENDBRANCH   1   7
TORSDOF 1
ENDMDL
