MODEL 1
REMARK minimizedAffinity 8.30808544
REMARK minimizedRMSD -1
REMARK  1 active torsions:
REMARK  status: ('A' for Active; 'I' for Inactive)
REMARK    1  A    between atoms: C1_2  and  C2_3 
ROOT
ATOM      1  C2  UNL d   1       4.869   2.805   1.041  0.00  0.00    -0.077 A 
ATOM      2  C3  UNL d   1       4.458   2.974   2.371  0.00  0.00     0.002 A 
ATOM      3  C4  UNL d   1       4.814   2.040   3.345  0.00  0.00     0.002 A 
ATOM      4  C5  UNL d   1       5.587   0.932   3.001  0.00  0.00    -0.004 A 
ATOM      5  C6  UNL d   1       5.999   0.754   1.681  0.00  0.00     0.002 A 
ATOM      6  C7  UNL d   1       5.642   1.686   0.705  0.00  0.00     0.002 A 
ENDROOT
BRANCH   1   7
ATOM      7  C1  UNL d   1       4.527   3.837  -0.001  0.00  0.00     0.055 C 
ATOM      8  C   UNL d   1       5.076   5.206   0.374  0.00  0.00     0.019 C 
ENDBRANCH   1   7
TORSDOF 1
ENDMDL
