MODEL 1
REMARK minimizedAffinity 9.40416813
REMARK minimizedRMSD -1
REMARK  1 active torsions:
REMARK  status: ('A' for Active; 'I' for Inactive)
REMARK    1  A    between atoms: C1_2  and  C2_3 
ROOT
ATOM      1  C2  UNL d   1      -2.970  -0.287   5.497  0.00  0.00    -0.077 A 
ATOM      2  C3  UNL d   1      -1.745  -0.747   6.000  0.00  0.00     0.002 A 
ATOM      3  C4  UNL d   1      -1.175  -1.923   5.506  0.00  0.00     0.002 A 
ATOM      4  C5  UNL d   1      -1.822  -2.645   4.506  0.00  0.00    -0.004 A 
ATOM      5  C6  UNL d   1      -3.042  -2.197   4.000  0.00  0.00     0.002 A 
ATOM      6  C7  UNL d   1      -3.613  -1.023   4.493  0.00  0.00     0.002 A 
ENDROOT
BRANCH   1   7
ATOM      7  C1  UNL d   1      -3.561   1.007   5.993  0.00  0.00     0.055 C 
ATOM      8  C   UNL d   1      -5.082   0.954   6.000  0.00  0.00     0.019 C 
ENDBRANCH   1   7
TORSDOF 1
ENDMDL
