MODEL 1
REMARK minimizedAffinity 5.62156105
REMARK minimizedRMSD -1
REMARK  1 active torsions:
REMARK  status: ('A' for Active; 'I' for Inactive)
REMARK    1  A    between atoms: C1_2  and  C2_3 
ROOT
ATOM      1  C2  UNL d   1      -0.898  -3.422   0.256  0.00  0.00    -0.077 A 
ATOM      2  C3  UNL d   1      -1.940  -3.057   1.120  0.00  0.00     0.002 A 
ATOM      3  C4  UNL d   1      -2.757  -1.966   0.819  0.00  0.00     0.002 A 
ATOM      4  C5  UNL d   1      -2.543  -1.233  -0.347  0.00  0.00    -0.004 A 
ATOM      5  C6  UNL d   1      -1.507  -1.587  -1.211  0.00  0.00     0.002 A 
ATOM      6  C7  UNL d   1      -0.689  -2.677  -0.911  0.00  0.00     0.002 A 
ENDROOT
BRANCH   1   7
ATOM      7  C1  UNL d   1      -0.047  -4.629   0.554  0.00  0.00     0.055 C 
ATOM      8  C   UNL d   1      -0.621  -5.883  -0.088  0.00  0.00     0.019 C 
ENDBRANCH   1   7
TORSDOF 1
ENDMDL
