MODEL 1
REMARK minimizedAffinity -5.26824284
REMARK minimizedRMSD -1
REMARK  0 active torsions:
REMARK  status: ('A' for Active; 'I' for Inactive)
ROOT
ATOM      1  C1  DEN d   1      -0.933   3.066   1.720  0.00  0.00     0.130 A 
ATOM      2  C2  DEN d   1      -1.656   3.427   0.504  0.00  0.00    -0.031 A 
ATOM      3  C3  DEN d   1      -1.387   2.390  -0.512  0.00  0.00     0.027 A 
ATOM      4  C4  DEN d   1       0.067   0.268  -0.320  0.00  0.00     0.027 A 
ATOM      5  C5  DEN d   1       0.889  -0.458   0.514  0.00  0.00    -0.003 A 
ATOM      6  C6  DEN d   1       1.185  -0.046   1.786  0.00  0.00     0.001 A 
ATOM      7  C7  DEN d   1       0.620   1.101   2.278  0.00  0.00     0.017 A 
ATOM      8  C8  DEN d   1      -0.203   1.842   1.440  0.00  0.00    -0.094 A 
ATOM      9  C9  DEN d   1      -0.501   1.403   0.161  0.00  0.00    -0.072 A 
ENDROOT
TORSDOF 0
ENDMDL
