MODEL 1
REMARK minimizedAffinity -5.01190042
REMARK minimizedRMSD -1
REMARK  0 active torsions:
REMARK  status: ('A' for Active; 'I' for Inactive)
ROOT
ATOM      1  C1  DEN d   1       0.314  -0.616   1.384  0.00  0.00     0.130 A 
ATOM      2  C2  DEN d   1       0.210  -1.309   0.102  0.00  0.00    -0.031 A 
ATOM      3  C3  DEN d   1      -0.345  -0.361  -0.885  0.00  0.00     0.027 A 
ATOM      4  C4  DEN d   1      -1.044   2.100  -0.557  0.00  0.00     0.027 A 
ATOM      5  C5  DEN d   1      -1.151   3.124   0.357  0.00  0.00    -0.003 A 
ATOM      6  C6  DEN d   1      -0.812   2.965   1.675  0.00  0.00     0.001 A 
ATOM      7  C7  DEN d   1      -0.306   1.767   2.106  0.00  0.00     0.017 A 
ATOM      8  C8  DEN d   1      -0.203   0.727   1.191  0.00  0.00    -0.094 A 
ATOM      9  C9  DEN d   1      -0.539   0.911  -0.139  0.00  0.00    -0.072 A 
ENDROOT
TORSDOF 0
ENDMDL
