MODEL 1
REMARK minimizedAffinity -6.97704363
REMARK minimizedRMSD -1
REMARK  0 active torsions:
REMARK  status: ('A' for Active; 'I' for Inactive)
ROOT
ATOM      1  C1  DEN d   1       0.361  -0.424  -1.230  0.00  0.00     0.130 A 
ATOM      2  C2  DEN d   1       0.853  -1.197  -0.093  0.00  0.00    -0.031 A 
ATOM      3  C3  DEN d   1       0.597  -0.416   1.134  0.00  0.00     0.027 A 
ATOM      4  C4  DEN d   1      -0.511   1.900   1.383  0.00  0.00     0.027 A 
ATOM      5  C5  DEN d   1      -1.080   2.951   0.698  0.00  0.00    -0.003 A 
ATOM      6  C6  DEN d   1      -1.177   2.966  -0.668  0.00  0.00     0.001 A 
ATOM      7  C7  DEN d   1      -0.738   1.889  -1.391  0.00  0.00     0.017 A 
ATOM      8  C8  DEN d   1      -0.157   0.828  -0.709  0.00  0.00    -0.094 A 
ATOM      9  C9  DEN d   1      -0.079   0.826   0.673  0.00  0.00    -0.072 A 
ENDROOT
TORSDOF 0
ENDMDL
