MODEL 1
REMARK minimizedAffinity -5.05381536
REMARK minimizedRMSD -1
REMARK  0 active torsions:
REMARK  status: ('A' for Active; 'I' for Inactive)
ROOT
ATOM      1  C1  DEN d   1       0.167  -0.179  -0.925  0.00  0.00     0.130 A 
ATOM      2  C2  DEN d   1       0.578  -0.963   0.236  0.00  0.00    -0.031 A 
ATOM      3  C3  DEN d   1       0.349  -0.146   1.444  0.00  0.00     0.027 A 
ATOM      4  C4  DEN d   1      -0.602   2.245   1.629  0.00  0.00     0.027 A 
ATOM      5  C5  DEN d   1      -1.081   3.321   0.915  0.00  0.00    -0.003 A 
ATOM      6  C6  DEN d   1      -1.146   3.318  -0.453  0.00  0.00     0.001 A 
ATOM      7  C7  DEN d   1      -0.766   2.201  -1.149  0.00  0.00     0.017 A 
ATOM      8  C8  DEN d   1      -0.275   1.115  -0.436  0.00  0.00    -0.094 A 
ATOM      9  C9  DEN d   1      -0.229   1.132   0.948  0.00  0.00    -0.072 A 
ENDROOT
TORSDOF 0
ENDMDL
