MODEL 1
REMARK minimizedAffinity -4.91418409
REMARK minimizedRMSD -1
REMARK  0 active torsions:
REMARK  status: ('A' for Active; 'I' for Inactive)
ROOT
ATOM      1  C1  DEN d   1      -0.515   3.403  -1.051  0.00  0.00     0.130 A 
ATOM      2  C2  DEN d   1      -0.010   2.608  -2.167  0.00  0.00    -0.031 A 
ATOM      3  C3  DEN d   1       0.272   1.247  -1.667  0.00  0.00     0.027 A 
ATOM      4  C4  DEN d   1      -0.028   0.298   0.712  0.00  0.00     0.027 A 
ATOM      5  C5  DEN d   1      -0.416   0.597   1.999  0.00  0.00    -0.003 A 
ATOM      6  C6  DEN d   1      -0.828   1.851   2.365  0.00  0.00     0.001 A 
ATOM      7  C7  DEN d   1      -0.906   2.842   1.422  0.00  0.00     0.017 A 
ATOM      8  C8  DEN d   1      -0.509   2.550   0.124  0.00  0.00    -0.094 A 
ATOM      9  C9  DEN d   1      -0.107   1.273  -0.229  0.00  0.00    -0.072 A 
ENDROOT
TORSDOF 0
ENDMDL
