MODEL 1
REMARK minimizedAffinity 7.44720125
REMARK minimizedRMSD -1
REMARK  0 active torsions:
REMARK  status: ('A' for Active; 'I' for Inactive)
ROOT
ATOM      1  C1  BNZ d   1      -2.356   2.189  -1.695  0.00  0.00     0.000 A 
ATOM      2  C2  BNZ d   1      -1.962   2.144  -0.384  0.00  0.00     0.000 A 
ATOM      3  C3  BNZ d   1      -0.638   2.200  -0.049  0.00  0.00     0.000 A 
ATOM      4  C4  BNZ d   1       0.291   2.258  -1.025  0.00  0.00     0.000 A 
ATOM      5  C5  BNZ d   1      -0.090   2.294  -2.352  0.00  0.00     0.000 A 
ATOM      6  C6  BNZ d   1      -1.426   2.278  -2.684  0.00  0.00     0.000 A 
ENDROOT
TORSDOF 0
ENDMDL
