MODEL 1
REMARK minimizedAffinity 4.56198454
REMARK minimizedRMSD -1
REMARK  0 active torsions:
REMARK  status: ('A' for Active; 'I' for Inactive)
ROOT
ATOM      1  C1  BNZ d   1      -1.130   1.575   0.162  0.00  0.00     0.000 A 
ATOM      2  C2  BNZ d   1      -2.192   2.142   0.814  0.00  0.00     0.000 A 
ATOM      3  C3  BNZ d   1      -2.066   2.589   2.100  0.00  0.00     0.000 A 
ATOM      4  C4  BNZ d   1      -0.892   2.432   2.744  0.00  0.00     0.000 A 
ATOM      5  C5  BNZ d   1       0.185   1.853   2.103  0.00  0.00     0.000 A 
ATOM      6  C6  BNZ d   1       0.066   1.440   0.796  0.00  0.00     0.000 A 
ENDROOT
TORSDOF 0
ENDMDL
