MODEL 1
REMARK minimizedAffinity 2.93931389
REMARK minimizedRMSD -1
REMARK  0 active torsions:
REMARK  status: ('A' for Active; 'I' for Inactive)
ROOT
ATOM      1  C1  BNZ d   1      -4.406  -5.821  -3.642  0.00  0.00     0.000 A 
ATOM      2  C2  BNZ d   1      -3.059  -5.578  -3.658  0.00  0.00     0.000 A 
ATOM      3  C3  BNZ d   1      -2.375  -5.500  -4.840  0.00  0.00     0.000 A 
ATOM      4  C4  BNZ d   1      -3.032  -5.706  -6.000  0.00  0.00     0.000 A 
ATOM      5  C5  BNZ d   1      -4.388  -5.961  -6.000  0.00  0.00     0.000 A 
ATOM      6  C6  BNZ d   1      -5.080  -6.000  -4.811  0.00  0.00     0.000 A 
ENDROOT
TORSDOF 0
ENDMDL
