MODEL 1
REMARK minimizedAffinity 9.6952343
REMARK minimizedRMSD -1
REMARK  0 active torsions:
REMARK  status: ('A' for Active; 'I' for Inactive)
ROOT
ATOM      1  C1  BNZ d   1       3.962  -3.756  -0.294  0.00  0.00     0.000 A 
ATOM      2  C2  BNZ d   1       2.748  -3.193  -0.002  0.00  0.00     0.000 A 
ATOM      3  C3  BNZ d   1       2.578  -1.837  -0.040  0.00  0.00     0.000 A 
ATOM      4  C4  BNZ d   1       3.630  -1.045  -0.330  0.00  0.00     0.000 A 
ATOM      5  C5  BNZ d   1       4.863  -1.596  -0.617  0.00  0.00     0.000 A 
ATOM      6  C6  BNZ d   1       5.020  -2.963  -0.616  0.00  0.00     0.000 A 
ENDROOT
TORSDOF 0
ENDMDL
