MODEL 1
REMARK minimizedAffinity 2.23849416
REMARK minimizedRMSD -1
REMARK  0 active torsions:
REMARK  status: ('A' for Active; 'I' for Inactive)
ROOT
ATOM      1  C1  BNZ d   1       0.128  -1.615  -1.829  0.00  0.00     0.000 A 
ATOM      2  C2  BNZ d   1      -1.213  -1.895  -1.821  0.00  0.00     0.000 A 
ATOM      3  C3  BNZ d   1      -2.126  -0.937  -1.481  0.00  0.00     0.000 A 
ATOM      4  C4  BNZ d   1      -1.697   0.287  -1.112  0.00  0.00     0.000 A 
ATOM      5  C5  BNZ d   1      -0.348   0.583  -1.106  0.00  0.00     0.000 A 
ATOM      6  C6  BNZ d   1       0.566  -0.373  -1.486  0.00  0.00     0.000 A 
ENDROOT
TORSDOF 0
ENDMDL
