MODEL 1
REMARK minimizedAffinity -3.52703309
REMARK minimizedRMSD -1
REMARK  0 active torsions:
REMARK  status: ('A' for Active; 'I' for Inactive)
ROOT
ATOM      1  C1  BNZ d   1       5.517  -3.365  -0.270  0.00  0.00     0.000 A 
ATOM      2  C2  BNZ d   1       5.193  -4.453  -1.035  0.00  0.00     0.000 A 
ATOM      3  C3  BNZ d   1       4.133  -4.412  -1.897  0.00  0.00     0.000 A 
ATOM      4  C4  BNZ d   1       3.375  -3.298  -1.964  0.00  0.00     0.000 A 
ATOM      5  C5  BNZ d   1       3.684  -2.195  -1.192  0.00  0.00     0.000 A 
ATOM      6  C6  BNZ d   1       4.775  -2.227  -0.354  0.00  0.00     0.000 A 
ENDROOT
TORSDOF 0
ENDMDL
