MODEL 1
REMARK minimizedAffinity 1.76276016
REMARK minimizedRMSD -1
REMARK  0 active torsions:
REMARK  status: ('A' for Active; 'I' for Inactive)
ROOT
ATOM      1  C1  BNZ d   1      -5.998  -2.417   5.950  0.00  0.00     0.000 A 
ATOM      2  C2  BNZ d   1      -5.968  -3.059   4.740  0.00  0.00     0.000 A 
ATOM      3  C3  BNZ d   1      -5.928  -2.350   3.572  0.00  0.00     0.000 A 
ATOM      4  C4  BNZ d   1      -5.959  -1.002   3.614  0.00  0.00     0.000 A 
ATOM      5  C5  BNZ d   1      -5.999  -0.341   4.825  0.00  0.00     0.000 A 
ATOM      6  C6  BNZ d   1      -6.000  -1.057   6.000  0.00  0.00     0.000 A 
ENDROOT
TORSDOF 0
ENDMDL
