MODEL 1
REMARK minimizedAffinity -4.8010273
REMARK minimizedRMSD -1
REMARK  1 active torsions:
REMARK  status: ('A' for Active; 'I' for Inactive)
REMARK    1  A    between atoms: C1_2  and  C2_3 
ROOT
ATOM      1  C2  UNL d   1       0.681  -0.304   1.101  0.00  0.00    -0.077 A 
ATOM      2  C3  UNL d   1      -0.357   0.285   1.836  0.00  0.00     0.002 A 
ATOM      3  C4  UNL d   1      -1.644   0.368   1.300  0.00  0.00     0.002 A 
ATOM      4  C5  UNL d   1      -1.905  -0.140   0.029  0.00  0.00    -0.004 A 
ATOM      5  C6  UNL d   1      -0.879  -0.726  -0.710  0.00  0.00     0.002 A 
ATOM      6  C7  UNL d   1       0.408  -0.809  -0.176  0.00  0.00     0.002 A 
ENDROOT
BRANCH   1   7
ATOM      7  C1  UNL d   1       2.058  -0.438   1.698  0.00  0.00     0.055 C 
ATOM      8  C   UNL d   1       1.989  -0.706   3.194  0.00  0.00     0.019 C 
ENDBRANCH   1   7
TORSDOF 1
ENDMDL
