MODEL 1
REMARK minimizedAffinity -6.01486444
REMARK minimizedRMSD -1
REMARK  1 active torsions:
REMARK  status: ('A' for Active; 'I' for Inactive)
REMARK    1  A    between atoms: C1_2  and  C2_3 
ROOT
ATOM      1  C2  UNL d   1       0.332   0.139   1.224  0.00  0.00    -0.077 A 
ATOM      2  C3  UNL d   1       1.373   0.092   2.162  0.00  0.00     0.002 A 
ATOM      3  C4  UNL d   1       1.189   0.608   3.447  0.00  0.00     0.002 A 
ATOM      4  C5  UNL d   1      -0.035   1.170   3.805  0.00  0.00    -0.004 A 
ATOM      5  C6  UNL d   1      -1.075   1.223   2.878  0.00  0.00     0.002 A 
ATOM      6  C7  UNL d   1      -0.892   0.709   1.594  0.00  0.00     0.002 A 
ENDROOT
BRANCH   1   7
ATOM      7  C1  UNL d   1       0.512  -0.461  -0.146  0.00  0.00     0.055 C 
ATOM      8  C   UNL d   1       1.627  -1.497  -0.154  0.00  0.00     0.019 C 
ENDBRANCH   1   7
TORSDOF 1
ENDMDL
