MODEL 1
REMARK minimizedAffinity -3.46938968
REMARK minimizedRMSD -1
REMARK  1 active torsions:
REMARK  status: ('A' for Active; 'I' for Inactive)
REMARK    1  A    between atoms: C1_2  and  C2_3 
ROOT
ATOM      1  C2  UNL d   1       0.617   0.171   0.217  0.00  0.00    -0.077 A 
ATOM      2  C3  UNL d   1       1.372   0.590   1.321  0.00  0.00     0.002 A 
ATOM      3  C4  UNL d   1       0.738   1.067   2.470  0.00  0.00     0.002 A 
ATOM      4  C5  UNL d   1      -0.653   1.124   2.528  0.00  0.00    -0.004 A 
ATOM      5  C6  UNL d   1      -1.412   0.711   1.434  0.00  0.00     0.002 A 
ATOM      6  C7  UNL d   1      -0.781   0.236   0.284  0.00  0.00     0.002 A 
ENDROOT
BRANCH   1   7
ATOM      7  C1  UNL d   1       1.297  -0.390  -1.004  0.00  0.00     0.055 C 
ATOM      8  C   UNL d   1       0.319  -0.549  -2.159  0.00  0.00     0.019 C 
ENDBRANCH   1   7
TORSDOF 1
ENDMDL
