MODEL 1
REMARK minimizedAffinity -1.33820009
REMARK minimizedRMSD -1
REMARK  1 active torsions:
REMARK  status: ('A' for Active; 'I' for Inactive)
REMARK    1  A    between atoms: C1_2  and  C2_3 
ROOT
ATOM      1  C2  UNL d   1       0.148  -0.639  -2.256  0.00  0.00    -0.077 A 
ATOM      2  C3  UNL d   1       1.337   0.036  -2.564  0.00  0.00     0.002 A 
ATOM      3  C4  UNL d   1       1.466   0.726  -3.771  0.00  0.00     0.002 A 
ATOM      4  C5  UNL d   1       0.409   0.752  -4.677  0.00  0.00    -0.004 A 
ATOM      5  C6  UNL d   1      -0.778   0.082  -4.381  0.00  0.00     0.002 A 
ATOM      6  C7  UNL d   1      -0.908  -0.609  -3.176  0.00  0.00     0.002 A 
ENDROOT
BRANCH   1   7
ATOM      7  C1  UNL d   1      -0.011  -1.342  -0.934  0.00  0.00     0.055 C 
ATOM      8  C   UNL d   1      -0.987  -0.605  -0.028  0.00  0.00     0.019 C 
ENDBRANCH   1   7
TORSDOF 1
ENDMDL
