MODEL 1
REMARK minimizedAffinity -4.30075598
REMARK minimizedRMSD -1
REMARK  1 active torsions:
REMARK  status: ('A' for Active; 'I' for Inactive)
REMARK    1  A    between atoms: C1_2  and  C2_3 
ROOT
ATOM      1  C2  UNL d   1      -0.405  -0.162  -4.072  0.00  0.00    -0.077 A 
ATOM      2  C3  UNL d   1       0.826   0.465  -4.309  0.00  0.00     0.002 A 
ATOM      3  C4  UNL d   1       1.819   0.469  -3.327  0.00  0.00     0.002 A 
ATOM      4  C5  UNL d   1       1.592  -0.157  -2.104  0.00  0.00    -0.004 A 
ATOM      5  C6  UNL d   1       0.371  -0.783  -1.857  0.00  0.00     0.002 A 
ATOM      6  C7  UNL d   1      -0.623  -0.786  -2.836  0.00  0.00     0.002 A 
ENDROOT
BRANCH   1   7
ATOM      7  C1  UNL d   1      -1.458  -0.210  -5.147  0.00  0.00     0.055 C 
ATOM      8  C   UNL d   1      -2.022  -1.614  -5.309  0.00  0.00     0.019 C 
ENDBRANCH   1   7
TORSDOF 1
ENDMDL
