MODEL 1
REMARK minimizedAffinity -2.82046461
REMARK minimizedRMSD -1
REMARK  1 active torsions:
REMARK  status: ('A' for Active; 'I' for Inactive)
REMARK    1  A    between atoms: C1_2  and  C2_3 
ROOT
ATOM      1  C2  UNL d   1      -0.424   0.139  -1.213  0.00  0.00    -0.077 A 
ATOM      2  C3  UNL d   1      -0.463   0.892  -2.396  0.00  0.00     0.002 A 
ATOM      3  C4  UNL d   1       0.499   0.698  -3.389  0.00  0.00     0.002 A 
ATOM      4  C5  UNL d   1       1.505  -0.250  -3.211  0.00  0.00    -0.004 A 
ATOM      5  C6  UNL d   1       1.554  -1.002  -2.038  0.00  0.00     0.002 A 
ATOM      6  C7  UNL d   1       0.594  -0.808  -1.044  0.00  0.00     0.002 A 
ENDROOT
BRANCH   1   7
ATOM      7  C1  UNL d   1      -1.489   0.312  -0.162  0.00  0.00     0.055 C 
ATOM      8  C   UNL d   1      -2.496  -0.828  -0.202  0.00  0.00     0.019 C 
ENDBRANCH   1   7
TORSDOF 1
ENDMDL
