MODEL 1
REMARK minimizedAffinity -5.00277233
REMARK minimizedRMSD -1
REMARK  1 active torsions:
REMARK  status: ('A' for Active; 'I' for Inactive)
REMARK    1  A    between atoms: C1_2  and  C2_3 
ROOT
ATOM      1  C2  UNL d   1       0.264   0.434   1.158  0.00  0.00    -0.077 A 
ATOM      2  C3  UNL d   1      -0.698  -0.476   0.696  0.00  0.00     0.002 A 
ATOM      3  C4  UNL d   1      -0.912  -0.641  -0.673  0.00  0.00     0.002 A 
ATOM      4  C5  UNL d   1      -0.167   0.096  -1.591  0.00  0.00    -0.004 A 
ATOM      5  C6  UNL d   1       0.791   1.004  -1.142  0.00  0.00     0.002 A 
ATOM      6  C7  UNL d   1       1.006   1.171   0.227  0.00  0.00     0.002 A 
ENDROOT
BRANCH   1   7
ATOM      7  C1  UNL d   1       0.532   0.578   2.634  0.00  0.00     0.055 C 
ATOM      8  C   UNL d   1      -0.746   0.427   3.446  0.00  0.00     0.019 C 
ENDBRANCH   1   7
TORSDOF 1
ENDMDL
