MODEL 1
REMARK minimizedAffinity -4.42367744
REMARK minimizedRMSD -1
REMARK  1 active torsions:
REMARK  status: ('A' for Active; 'I' for Inactive)
REMARK    1  A    between atoms: C1_2  and  C2_3 
ROOT
ATOM      1  C2  UNL d   1       0.127   0.149   1.443  0.00  0.00    -0.077 A 
ATOM      2  C3  UNL d   1      -1.152   0.258   2.006  0.00  0.00     0.002 A 
ATOM      3  C4  UNL d   1      -2.277  -0.150   1.286  0.00  0.00     0.002 A 
ATOM      4  C5  UNL d   1      -2.134  -0.673   0.003  0.00  0.00    -0.004 A 
ATOM      5  C6  UNL d   1      -0.865  -0.784  -0.566  0.00  0.00     0.002 A 
ATOM      6  C7  UNL d   1       0.260  -0.376   0.151  0.00  0.00     0.002 A 
ENDROOT
BRANCH   1   7
ATOM      7  C1  UNL d   1       1.346   0.543   2.236  0.00  0.00     0.055 C 
ATOM      8  C   UNL d   1       2.423  -0.530   2.165  0.00  0.00     0.019 C 
ENDBRANCH   1   7
TORSDOF 1
ENDMDL
