MODEL 1
REMARK minimizedAffinity -5.87695265
REMARK minimizedRMSD -1
REMARK  1 active torsions:
REMARK  status: ('A' for Active; 'I' for Inactive)
REMARK    1  A    between atoms: C1_2  and  C2_3 
ROOT
ATOM      1  C2  UNL d   1       0.155  -0.365   0.343  0.00  0.00    -0.077 A 
ATOM      2  C3  UNL d   1       0.924   0.310   1.302  0.00  0.00     0.002 A 
ATOM      3  C4  UNL d   1       0.309   1.121   2.257  0.00  0.00     0.002 A 
ATOM      4  C5  UNL d   1      -1.077   1.261   2.266  0.00  0.00    -0.004 A 
ATOM      5  C6  UNL d   1      -1.851   0.596   1.315  0.00  0.00     0.002 A 
ATOM      6  C7  UNL d   1      -1.237  -0.214   0.358  0.00  0.00     0.002 A 
ENDROOT
BRANCH   1   7
ATOM      7  C1  UNL d   1       0.813  -1.279  -0.658  0.00  0.00     0.055 C 
ATOM      8  C   UNL d   1       0.462  -0.882  -2.084  0.00  0.00     0.019 C 
ENDBRANCH   1   7
TORSDOF 1
ENDMDL
