MODEL 1
REMARK minimizedAffinity -4.05403185
REMARK minimizedRMSD -1
REMARK  0 active torsions:
REMARK  status: ('A' for Active; 'I' for Inactive)
ROOT
ATOM      1  N1  IND d   1      -1.650   1.092   2.281  0.00  0.00    -0.196 N 
ATOM      2  C2  IND d   1      -2.292   2.106   1.626  0.00  0.00     0.054 A 
ATOM      3  C3  IND d   1      -1.938   2.122   0.322  0.00  0.00    -0.031 A 
ATOM      4  C4  IND d   1      -0.398   0.518  -0.975  0.00  0.00     0.051 A 
ATOM      5  C5  IND d   1       0.446  -0.543  -0.800  0.00  0.00    -0.031 A 
ATOM      6  C6  IND d   1       0.637  -1.126   0.436  0.00  0.00     0.015 A 
ATOM      7  C7  IND d   1      -0.021  -0.675   1.546  0.00  0.00    -0.016 A 
ATOM      8  C8  IND d   1      -0.874   0.406   1.372  0.00  0.00    -0.047 A 
ATOM      9  C9  IND d   1      -1.039   1.028   0.128  0.00  0.00    -0.096 A 
ATOM     10  HN1 IND d   1      -1.718   0.913   3.119  0.00  0.00     0.298 HD
ENDROOT
TORSDOF 0
ENDMDL
