MODEL 1
REMARK minimizedAffinity -5.70800447
REMARK minimizedRMSD -1
REMARK  0 active torsions:
REMARK  status: ('A' for Active; 'I' for Inactive)
ROOT
ATOM      1  N1  IND d   1       0.911  -0.713  -1.255  0.00  0.00    -0.196 N 
ATOM      2  C2  IND d   1       0.770  -2.072  -1.205  0.00  0.00     0.054 A 
ATOM      3  C3  IND d   1      -0.130  -2.416  -0.256  0.00  0.00    -0.031 A 
ATOM      4  C4  IND d   1      -1.564  -0.910   1.261  0.00  0.00     0.051 A 
ATOM      5  C5  IND d   1      -1.760   0.398   1.605  0.00  0.00    -0.031 A 
ATOM      6  C6  IND d   1      -1.063   1.424   0.999  0.00  0.00     0.015 A 
ATOM      7  C7  IND d   1      -0.149   1.179   0.014  0.00  0.00    -0.016 A 
ATOM      8  C8  IND d   1       0.058  -0.149  -0.333  0.00  0.00    -0.047 A 
ATOM      9  C9  IND d   1      -0.616  -1.197   0.308  0.00  0.00    -0.096 A 
ATOM     10  HN1 IND d   1       1.444  -0.283  -1.776  0.00  0.00     0.298 HD
ENDROOT
TORSDOF 0
ENDMDL
