MODEL 1
REMARK minimizedAffinity -3.88926363
REMARK minimizedRMSD -1
REMARK  0 active torsions:
REMARK  status: ('A' for Active; 'I' for Inactive)
ROOT
ATOM      1  N1  IND d   1       1.138  -0.451  -0.094  0.00  0.00    -0.196 N 
ATOM      2  C2  IND d   1       1.421   0.192  -1.267  0.00  0.00     0.054 A 
ATOM      3  C3  IND d   1       0.477   1.122  -1.533  0.00  0.00    -0.031 A 
ATOM      4  C4  IND d   1      -1.563   1.830  -0.131  0.00  0.00     0.051 A 
ATOM      5  C5  IND d   1      -2.257   1.505   1.000  0.00  0.00    -0.031 A 
ATOM      6  C6  IND d   1      -1.845   0.494   1.844  0.00  0.00     0.015 A 
ATOM      7  C7  IND d   1      -0.712  -0.227   1.591  0.00  0.00    -0.016 A 
ATOM      8  C8  IND d   1      -0.009   0.095   0.439  0.00  0.00    -0.047 A 
ATOM      9  C9  IND d   1      -0.446   1.092  -0.443  0.00  0.00    -0.096 A 
ATOM     10  HN1 IND d   1       1.599  -1.088   0.252  0.00  0.00     0.298 HD
ENDROOT
TORSDOF 0
ENDMDL
