MODEL 1
REMARK minimizedAffinity -3.62379169
REMARK minimizedRMSD -1
REMARK  0 active torsions:
REMARK  status: ('A' for Active; 'I' for Inactive)
ROOT
ATOM      1  N1  IND d   1      -1.767   2.020  -0.155  0.00  0.00    -0.196 N 
ATOM      2  C2  IND d   1      -2.405   2.089   1.052  0.00  0.00     0.054 A 
ATOM      3  C3  IND d   1      -2.049   1.043   1.831  0.00  0.00    -0.031 A 
ATOM      4  C4  IND d   1      -0.360  -0.844   1.366  0.00  0.00     0.051 A 
ATOM      5  C5  IND d   1       0.446  -1.351   0.386  0.00  0.00    -0.031 A 
ATOM      6  C6  IND d   1       0.560  -0.746  -0.849  0.00  0.00     0.015 A 
ATOM      7  C7  IND d   1      -0.122   0.400  -1.147  0.00  0.00    -0.016 A 
ATOM      8  C8  IND d   1      -0.947   0.913  -0.156  0.00  0.00    -0.047 A 
ATOM      9  C9  IND d   1      -1.100   0.280   1.084  0.00  0.00    -0.096 A 
ATOM     10  HN1 IND d   1      -1.862   2.576  -0.805  0.00  0.00     0.298 HD
ENDROOT
TORSDOF 0
ENDMDL
