MODEL 1
REMARK minimizedAffinity -3.18571663
REMARK minimizedRMSD -1
REMARK  0 active torsions:
REMARK  status: ('A' for Active; 'I' for Inactive)
ROOT
ATOM      1  N1  IND d   1      -0.490   0.007  -1.730  0.00  0.00    -0.196 N 
ATOM      2  C2  IND d   1       0.567  -0.777  -1.360  0.00  0.00     0.054 A 
ATOM      3  C3  IND d   1       0.802  -0.655  -0.034  0.00  0.00    -0.031 A 
ATOM      4  C4  IND d   1      -0.487   0.698   1.738  0.00  0.00     0.051 A 
ATOM      5  C5  IND d   1      -1.504   1.600   1.874  0.00  0.00    -0.031 A 
ATOM      6  C6  IND d   1      -2.252   2.024   0.795  0.00  0.00     0.015 A 
ATOM      7  C7  IND d   1      -2.017   1.551  -0.465  0.00  0.00    -0.016 A 
ATOM      8  C8  IND d   1      -0.980   0.640  -0.608  0.00  0.00    -0.047 A 
ATOM      9  C9  IND d   1      -0.190   0.238   0.476  0.00  0.00    -0.096 A 
ATOM     10  HN1 IND d   1      -0.797   0.092  -2.529  0.00  0.00     0.298 HD
ENDROOT
TORSDOF 0
ENDMDL
