MODEL 1
REMARK minimizedAffinity -4.12386227
REMARK minimizedRMSD -1
REMARK  0 active torsions:
REMARK  status: ('A' for Active; 'I' for Inactive)
ROOT
ATOM      1  N1  IND d   1       0.887   0.000   1.260  0.00  0.00    -0.196 N 
ATOM      2  C2  IND d   1       1.202  -0.566   0.057  0.00  0.00     0.054 A 
ATOM      3  C3  IND d   1       0.214  -0.348  -0.839  0.00  0.00    -0.031 A 
ATOM      4  C4  IND d   1      -1.965   0.998  -0.576  0.00  0.00     0.051 A 
ATOM      5  C5  IND d   1      -2.710   1.671   0.351  0.00  0.00    -0.031 A 
ATOM      6  C6  IND d   1      -2.284   1.827   1.655  0.00  0.00     0.015 A 
ATOM      7  C7  IND d   1      -1.087   1.323   2.078  0.00  0.00    -0.016 A 
ATOM      8  C8  IND d   1      -0.331   0.633   1.141  0.00  0.00    -0.047 A 
ATOM      9  C9  IND d   1      -0.777   0.435  -0.172  0.00  0.00    -0.096 A 
ATOM     10  HN1 IND d   1       1.368  -0.033   1.972  0.00  0.00     0.298 HD
ENDROOT
TORSDOF 0
ENDMDL
