MODEL 1
REMARK minimizedAffinity -5.58951998
REMARK minimizedRMSD -1
REMARK  0 active torsions:
REMARK  status: ('A' for Active; 'I' for Inactive)
ROOT
ATOM      1  N1  IND d   1      -0.099  -1.049   0.721  0.00  0.00    -0.196 N 
ATOM      2  C2  IND d   1       0.876  -1.048  -0.237  0.00  0.00     0.054 A 
ATOM      3  C3  IND d   1       0.913   0.146  -0.870  0.00  0.00    -0.031 A 
ATOM      4  C4  IND d   1      -0.464   2.275  -0.426  0.00  0.00     0.051 A 
ATOM      5  C5  IND d   1      -1.503   2.749   0.325  0.00  0.00    -0.031 A 
ATOM      6  C6  IND d   1      -2.138   1.967   1.268  0.00  0.00     0.015 A 
ATOM      7  C7  IND d   1      -1.748   0.679   1.503  0.00  0.00    -0.016 A 
ATOM      8  C8  IND d   1      -0.699   0.192   0.737  0.00  0.00    -0.047 A 
ATOM      9  C9  IND d   1      -0.078   0.967  -0.251  0.00  0.00    -0.096 A 
ATOM     10  HN1 IND d   1      -0.303  -1.712   1.228  0.00  0.00     0.298 HD
ENDROOT
TORSDOF 0
ENDMDL
