MODEL 1
REMARK minimizedAffinity -1.14131439
REMARK minimizedRMSD -1
REMARK  0 active torsions:
REMARK  status: ('A' for Active; 'I' for Inactive)
ROOT
ATOM      1  N1  IND d   1      -0.427   0.525  -1.330  0.00  0.00    -0.196 N 
ATOM      2  C2  IND d   1       0.570  -0.410  -1.355  0.00  0.00     0.054 A 
ATOM      3  C3  IND d   1       0.834  -0.851  -0.105  0.00  0.00    -0.031 A 
ATOM      4  C4  IND d   1      -0.318  -0.249   2.118  0.00  0.00     0.051 A 
ATOM      5  C5  IND d   1      -1.259   0.586   2.652  0.00  0.00    -0.031 A 
ATOM      6  C6  IND d   1      -1.987   1.459   1.870  0.00  0.00     0.015 A 
ATOM      7  C7  IND d   1      -1.809   1.521   0.517  0.00  0.00    -0.016 A 
ATOM      8  C8  IND d   1      -0.849   0.680  -0.028  0.00  0.00    -0.047 A 
ATOM      9  C9  IND d   1      -0.077  -0.178   0.766  0.00  0.00    -0.096 A 
ATOM     10  HN1 IND d   1      -0.738   0.945  -2.012  0.00  0.00     0.298 HD
ENDROOT
TORSDOF 0
ENDMDL
