MODEL 1
REMARK minimizedAffinity -4.34048271
REMARK minimizedRMSD -1
REMARK  0 active torsions:
REMARK  status: ('A' for Active; 'I' for Inactive)
ROOT
ATOM      1  N1  IND d   1      -0.174  -1.220   1.342  0.00  0.00    -0.196 N 
ATOM      2  C2  IND d   1       0.481  -1.525   0.181  0.00  0.00     0.054 A 
ATOM      3  C3  IND d   1       0.308  -0.542  -0.730  0.00  0.00    -0.031 A 
ATOM      4  C4  IND d   1      -0.928   1.704  -0.496  0.00  0.00     0.051 A 
ATOM      5  C5  IND d   1      -1.715   2.416   0.365  0.00  0.00    -0.031 A 
ATOM      6  C6  IND d   1      -2.032   1.944   1.623  0.00  0.00     0.015 A 
ATOM      7  C7  IND d   1      -1.563   0.742   2.072  0.00  0.00    -0.016 A 
ATOM      8  C8  IND d   1      -0.770   0.013   1.197  0.00  0.00    -0.047 A 
ATOM      9  C9  IND d   1      -0.480   0.468  -0.096  0.00  0.00    -0.096 A 
ATOM     10  HN1 IND d   1      -0.208  -1.715   2.044  0.00  0.00     0.298 HD
ENDROOT
TORSDOF 0
ENDMDL
