MODEL 1
REMARK minimizedAffinity -5.40729189
REMARK minimizedRMSD -1
REMARK  0 active torsions:
REMARK  status: ('A' for Active; 'I' for Inactive)
ROOT
ATOM      1  N1  IND d   1      -1.838   0.829   2.188  0.00  0.00    -0.196 N 
ATOM      2  C2  IND d   1      -2.305   1.654   1.203  0.00  0.00     0.054 A 
ATOM      3  C3  IND d   1      -1.579   1.495   0.073  0.00  0.00    -0.031 A 
ATOM      4  C4  IND d   1       0.353  -0.135  -0.414  0.00  0.00     0.051 A 
ATOM      5  C5  IND d   1       1.157  -1.063   0.186  0.00  0.00    -0.031 A 
ATOM      6  C6  IND d   1       0.999  -1.417   1.511  0.00  0.00     0.015 A 
ATOM      7  C7  IND d   1       0.019  -0.861   2.284  0.00  0.00    -0.016 A 
ATOM      8  C8  IND d   1      -0.795   0.086   1.680  0.00  0.00    -0.047 A 
ATOM      9  C9  IND d   1      -0.612   0.480   0.348  0.00  0.00    -0.096 A 
ATOM     10  HN1 IND d   1      -2.145   0.782   2.990  0.00  0.00     0.298 HD
ENDROOT
TORSDOF 0
ENDMDL
