MODEL 1
REMARK minimizedAffinity -4.22044516
REMARK minimizedRMSD -1
REMARK  0 active torsions:
REMARK  status: ('A' for Active; 'I' for Inactive)
ROOT
ATOM      1  N1  IND d   1      -1.141  -0.384  -1.549  0.00  0.00    -0.196 N 
ATOM      2  C2  IND d   1      -0.048  -1.173  -1.318  0.00  0.00     0.054 A 
ATOM      3  C3  IND d   1       0.474  -0.909  -0.099  0.00  0.00    -0.031 A 
ATOM      4  C4  IND d   1      -0.363   0.704   1.724  0.00  0.00     0.051 A 
ATOM      5  C5  IND d   1      -1.303   1.667   1.961  0.00  0.00    -0.031 A 
ATOM      6  C6  IND d   1      -2.259   2.000   1.023  0.00  0.00     0.015 A 
ATOM      7  C7  IND d   1      -2.316   1.372  -0.189  0.00  0.00    -0.016 A 
ATOM      8  C8  IND d   1      -1.358   0.399  -0.436  0.00  0.00    -0.047 A 
ATOM      9  C9  IND d   1      -0.360   0.086   0.496  0.00  0.00    -0.096 A 
ATOM     10  HN1 IND d   1      -1.612  -0.377  -2.267  0.00  0.00     0.298 HD
ENDROOT
TORSDOF 0
ENDMDL
