MODEL 1
REMARK minimizedAffinity -4.7896452
REMARK minimizedRMSD -1
REMARK  0 active torsions:
REMARK  status: ('A' for Active; 'I' for Inactive)
ROOT
ATOM      1  N1  IND d   1       1.093   0.588  -1.046  0.00  0.00    -0.196 N 
ATOM      2  C2  IND d   1       0.864   1.771  -1.692  0.00  0.00     0.054 A 
ATOM      3  C3  IND d   1      -0.178   2.422  -1.127  0.00  0.00    -0.031 A 
ATOM      4  C4  IND d   1      -1.587   1.779   0.928  0.00  0.00     0.051 A 
ATOM      5  C5  IND d   1      -1.778   0.770   1.831  0.00  0.00    -0.031 A 
ATOM      6  C6  IND d   1      -1.004  -0.372   1.822  0.00  0.00     0.015 A 
ATOM      7  C7  IND d   1       0.001  -0.544   0.914  0.00  0.00    -0.016 A 
ATOM      8  C8  IND d   1       0.193   0.474  -0.009  0.00  0.00    -0.047 A 
ATOM      9  C9  IND d   1      -0.617   1.617  -0.032  0.00  0.00    -0.096 A 
ATOM     10  HN1 IND d   1       1.697   0.013  -1.253  0.00  0.00     0.298 HD
ENDROOT
TORSDOF 0
ENDMDL
