MODEL 1
REMARK minimizedAffinity -4.5655694
REMARK minimizedRMSD -1
REMARK  0 active torsions:
REMARK  status: ('A' for Active; 'I' for Inactive)
ROOT
ATOM      1  N1  IND d   1      -0.535   0.421  -1.211  0.00  0.00    -0.196 N 
ATOM      2  C2  IND d   1       0.482  -0.456  -0.953  0.00  0.00     0.054 A 
ATOM      3  C3  IND d   1       0.710  -0.534   0.377  0.00  0.00    -0.031 A 
ATOM      4  C4  IND d   1      -0.533   0.612   2.319  0.00  0.00     0.051 A 
ATOM      5  C5  IND d   1      -1.510   1.531   2.580  0.00  0.00    -0.031 A 
ATOM      6  C6  IND d   1      -2.228   2.138   1.570  0.00  0.00     0.015 A 
ATOM      7  C7  IND d   1      -2.003   1.838   0.256  0.00  0.00    -0.016 A 
ATOM      8  C8  IND d   1      -1.007   0.910  -0.012  0.00  0.00    -0.047 A 
ATOM      9  C9  IND d   1      -0.245   0.322   1.006  0.00  0.00    -0.096 A 
ATOM     10  HN1 IND d   1      -0.830   0.631  -1.990  0.00  0.00     0.298 HD
ENDROOT
TORSDOF 0
ENDMDL
