MODEL 1
REMARK minimizedAffinity -2.50485969
REMARK minimizedRMSD -1
REMARK  0 active torsions:
REMARK  status: ('A' for Active; 'I' for Inactive)
ROOT
ATOM      1  N1  IND d   1      -1.832  -0.382   1.125  0.00  0.00    -0.196 N 
ATOM      2  C2  IND d   1      -2.244   0.883   1.438  0.00  0.00     0.054 A 
ATOM      3  C3  IND d   1      -1.436   1.798   0.857  0.00  0.00    -0.031 A 
ATOM      4  C4  IND d   1       0.559   1.445  -0.732  0.00  0.00     0.051 A 
ATOM      5  C5  IND d   1       1.337   0.465  -1.283  0.00  0.00    -0.031 A 
ATOM      6  C6  IND d   1       1.092  -0.874  -1.057  0.00  0.00     0.015 A 
ATOM      7  C7  IND d   1       0.048  -1.285  -0.278  0.00  0.00    -0.016 A 
ATOM      8  C8  IND d   1      -0.740  -0.293   0.289  0.00  0.00    -0.047 A 
ATOM      9  C9  IND d   1      -0.470   1.068   0.098  0.00  0.00    -0.096 A 
ATOM     10  HN1 IND d   1      -2.194  -1.111   1.402  0.00  0.00     0.298 HD
ENDROOT
TORSDOF 0
ENDMDL
