MODEL 1
REMARK minimizedAffinity -2.78935027
REMARK minimizedRMSD -1
REMARK  0 active torsions:
REMARK  status: ('A' for Active; 'I' for Inactive)
ROOT
ATOM      1  N1  IND d   1      -0.924  -0.718   0.714  0.00  0.00    -0.196 N 
ATOM      2  C2  IND d   1      -0.688   0.493   1.304  0.00  0.00     0.054 A 
ATOM      3  C3  IND d   1       0.384   1.090   0.739  0.00  0.00    -0.031 A 
ATOM      4  C4  IND d   1       1.841   0.309  -1.235  0.00  0.00     0.051 A 
ATOM      5  C5  IND d   1       2.036  -0.749  -2.077  0.00  0.00    -0.031 A 
ATOM      6  C6  IND d   1       1.237  -1.873  -2.033  0.00  0.00     0.015 A 
ATOM      7  C7  IND d   1       0.201  -1.976  -1.148  0.00  0.00    -0.016 A 
ATOM      8  C8  IND d   1       0.004  -0.906  -0.287  0.00  0.00    -0.047 A 
ATOM      9  C9  IND d   1       0.838   0.219  -0.299  0.00  0.00    -0.096 A 
ATOM     10  HN1 IND d   1      -1.547  -1.270   0.932  0.00  0.00     0.298 HD
ENDROOT
TORSDOF 0
ENDMDL
