MODEL 1
REMARK minimizedAffinity -4.56296968
REMARK minimizedRMSD -1
REMARK  0 active torsions:
REMARK  status: ('A' for Active; 'I' for Inactive)
ROOT
ATOM      1  N1  IND d   1       0.470   1.683  -1.231  0.00  0.00    -0.196 N 
ATOM      2  C2  IND d   1       1.330   0.669  -1.551  0.00  0.00     0.054 A 
ATOM      3  C3  IND d   1       1.167  -0.370  -0.702  0.00  0.00    -0.031 A 
ATOM      4  C4  IND d   1      -0.521  -0.664   1.220  0.00  0.00     0.051 A 
ATOM      5  C5  IND d   1      -1.488   0.005   1.916  0.00  0.00    -0.031 A 
ATOM      6  C6  IND d   1      -1.861   1.293   1.590  0.00  0.00     0.015 A 
ATOM      7  C7  IND d   1      -1.287   1.959   0.544  0.00  0.00    -0.016 A 
ATOM      8  C8  IND d   1      -0.299   1.284  -0.160  0.00  0.00    -0.047 A 
ATOM      9  C9  IND d   1       0.113  -0.007   0.192  0.00  0.00    -0.096 A 
ATOM     10  HN1 IND d   1       0.418   2.442  -1.632  0.00  0.00     0.298 HD
ENDROOT
TORSDOF 0
ENDMDL
