MODEL 1
REMARK minimizedAffinity -0.703726113
REMARK minimizedRMSD -1
REMARK  0 active torsions:
REMARK  status: ('A' for Active; 'I' for Inactive)
ROOT
ATOM      1  N1  IND d   1       1.061   0.388  -0.399  0.00  0.00    -0.196 N 
ATOM      2  C2  IND d   1       1.186   1.408  -1.301  0.00  0.00     0.054 A 
ATOM      3  C3  IND d   1       0.131   2.248  -1.210  0.00  0.00    -0.031 A 
ATOM      4  C4  IND d   1      -1.863   2.199   0.418  0.00  0.00     0.051 A 
ATOM      5  C5  IND d   1      -2.432   1.440   1.401  0.00  0.00    -0.031 A 
ATOM      6  C6  IND d   1      -1.853   0.269   1.846  0.00  0.00     0.015 A 
ATOM      7  C7  IND d   1      -0.672  -0.182   1.329  0.00  0.00    -0.016 A 
ATOM      8  C8  IND d   1      -0.094   0.583   0.325  0.00  0.00    -0.047 A 
ATOM      9  C9  IND d   1      -0.699   1.749  -0.160  0.00  0.00    -0.096 A 
ATOM     10  HN1 IND d   1       1.612  -0.264  -0.300  0.00  0.00     0.298 HD
ENDROOT
TORSDOF 0
ENDMDL
