MODEL 1
REMARK minimizedAffinity -3.47580719
REMARK minimizedRMSD -1
REMARK  0 active torsions:
REMARK  status: ('A' for Active; 'I' for Inactive)
ROOT
ATOM      1  N1  IND d   1      -1.292  -0.370   1.501  0.00  0.00    -0.196 N 
ATOM      2  C2  IND d   1      -1.602   0.828   2.082  0.00  0.00     0.054 A 
ATOM      3  C3  IND d   1      -0.928   1.833   1.478  0.00  0.00    -0.031 A 
ATOM      4  C4  IND d   1       0.660   1.751  -0.547  0.00  0.00     0.051 A 
ATOM      5  C5  IND d   1       1.280   0.877  -1.395  0.00  0.00    -0.031 A 
ATOM      6  C6  IND d   1       1.068  -0.485  -1.321  0.00  0.00     0.015 A 
ATOM      7  C7  IND d   1       0.216  -1.024  -0.400  0.00  0.00    -0.016 A 
ATOM      8  C8  IND d   1      -0.410  -0.140   0.468  0.00  0.00    -0.047 A 
ATOM      9  C9  IND d   1      -0.167   1.239   0.426  0.00  0.00    -0.096 A 
ATOM     10  HN1 IND d   1      -1.595  -1.137   1.742  0.00  0.00     0.298 HD
ENDROOT
TORSDOF 0
ENDMDL
