MODEL 1
REMARK minimizedAffinity 2.17538357
REMARK minimizedRMSD -1
REMARK  1 active torsions:
REMARK  status: ('A' for Active; 'I' for Inactive)
REMARK    1  A    between atoms: C1_2  and  C2_3 
ROOT
ATOM      1  C2  UNL d   1      -1.148  -2.253   0.916  0.00  0.00    -0.081 A 
ATOM      2  C3  UNL d   1      -0.016  -2.509   0.133  0.00  0.00     0.006 A 
ATOM      3  C4  UNL d   1       0.937  -1.510  -0.081  0.00  0.00     0.002 A 
ATOM      4  C5  UNL d   1       0.779  -0.243   0.491  0.00  0.00    -0.080 A 
ATOM      5  C6  UNL d   1       1.810   0.828   0.294  0.00  0.00     0.076 C 
ATOM      6  C7  UNL d   1      -0.361   0.018   1.258  0.00  0.00     0.002 A 
ATOM      7  C8  UNL d   1      -1.315  -0.980   1.472  0.00  0.00     0.006 A 
ENDROOT
BRANCH   1   8
ATOM      8  C1  UNL d   1      -2.146  -3.347   1.202  0.00  0.00     0.054 C 
ATOM      9  C   UNL d   1      -3.065  -3.582   0.012  0.00  0.00     0.018 C 
ENDBRANCH   1   8
TORSDOF 1
ENDMDL
