MODEL 1
REMARK minimizedAffinity 10.4349928
REMARK minimizedRMSD -1
REMARK  1 active torsions:
REMARK  status: ('A' for Active; 'I' for Inactive)
REMARK    1  A    between atoms: C1_2  and  C2_3 
ROOT
ATOM      1  C2  UNL d   1       3.832   0.239   0.434  0.00  0.00    -0.081 A 
ATOM      2  C3  UNL d   1       2.892   0.655  -0.516  0.00  0.00     0.006 A 
ATOM      3  C4  UNL d   1       1.568   0.899  -0.144  0.00  0.00     0.002 A 
ATOM      4  C5  UNL d   1       1.164   0.738   1.186  0.00  0.00    -0.080 A 
ATOM      5  C6  UNL d   1      -0.248   1.025   1.605  0.00  0.00     0.076 C 
ATOM      6  C7  UNL d   1       2.098   0.305   2.132  0.00  0.00     0.002 A 
ATOM      7  C8  UNL d   1       3.422   0.060   1.760  0.00  0.00     0.006 A 
ENDROOT
BRANCH   1   8
ATOM      8  C1  UNL d   1       5.275   0.038   0.048  0.00  0.00     0.054 C 
ATOM      9  C   UNL d   1       5.911   1.341  -0.415  0.00  0.00     0.018 C 
ENDBRANCH   1   8
TORSDOF 1
ENDMDL
