MODEL 1
REMARK minimizedAffinity 16.7659645
REMARK minimizedRMSD -1
REMARK  1 active torsions:
REMARK  status: ('A' for Active; 'I' for Inactive)
REMARK    1  A    between atoms: C1_2  and  C2_3 
ROOT
ATOM      1  C2  UNL d   1      -0.009   0.742   0.338  0.00  0.00    -0.081 A 
ATOM      2  C3  UNL d   1       0.246  -0.051   1.463  0.00  0.00     0.006 A 
ATOM      3  C4  UNL d   1      -0.808  -0.624   2.180  0.00  0.00     0.002 A 
ATOM      4  C5  UNL d   1      -2.132  -0.420   1.778  0.00  0.00    -0.080 A 
ATOM      5  C6  UNL d   1      -3.271  -1.054   2.520  0.00  0.00     0.076 C 
ATOM      6  C7  UNL d   1      -2.388   0.387   0.664  0.00  0.00     0.002 A 
ATOM      7  C8  UNL d   1      -1.335   0.960  -0.052  0.00  0.00     0.006 A 
ENDROOT
BRANCH   1   8
ATOM      8  C1  UNL d   1       1.128   1.307  -0.475  0.00  0.00     0.054 C 
ATOM      9  C   UNL d   1       0.620   1.995  -1.734  0.00  0.00     0.018 C 
ENDBRANCH   1   8
TORSDOF 1
ENDMDL
