MODEL 1
REMARK minimizedAffinity 6.00644684
REMARK minimizedRMSD -1
REMARK  1 active torsions:
REMARK  status: ('A' for Active; 'I' for Inactive)
REMARK    1  A    between atoms: C1_2  and  C2_3 
ROOT
ATOM      1  C2  UNL d   1       0.194   1.297   1.668  0.00  0.00    -0.081 A 
ATOM      2  C3  UNL d   1       0.760   2.523   1.297  0.00  0.00     0.006 A 
ATOM      3  C4  UNL d   1       1.340   2.683   0.036  0.00  0.00     0.002 A 
ATOM      4  C5  UNL d   1       1.356   1.623  -0.877  0.00  0.00    -0.080 A 
ATOM      5  C6  UNL d   1       1.949   1.791  -2.245  0.00  0.00     0.076 C 
ATOM      6  C7  UNL d   1       0.806   0.394  -0.500  0.00  0.00     0.002 A 
ATOM      7  C8  UNL d   1       0.227   0.233   0.760  0.00  0.00     0.006 A 
ENDROOT
BRANCH   1   8
ATOM      8  C1  UNL d   1      -0.490   1.141   3.002  0.00  0.00     0.054 C 
ATOM      9  C   UNL d   1      -1.953   0.759   2.833  0.00  0.00     0.018 C 
ENDBRANCH   1   8
TORSDOF 1
ENDMDL
