MODEL 1
REMARK minimizedAffinity 7.32295656
REMARK minimizedRMSD -1
REMARK  1 active torsions:
REMARK  status: ('A' for Active; 'I' for Inactive)
REMARK    1  A    between atoms: C1_2  and  C2_3 
ROOT
ATOM      1  C2  UNL d   1      -1.103   5.094  -3.601  0.00  0.00    -0.081 A 
ATOM      2  C3  UNL d   1      -1.104   5.395  -2.233  0.00  0.00     0.006 A 
ATOM      3  C4  UNL d   1      -1.706   4.528  -1.318  0.00  0.00     0.002 A 
ATOM      4  C5  UNL d   1      -2.309   3.343  -1.754  0.00  0.00    -0.080 A 
ATOM      5  C6  UNL d   1      -2.931   2.389  -0.779  0.00  0.00     0.076 C 
ATOM      6  C7  UNL d   1      -2.323   3.051  -3.122  0.00  0.00     0.002 A 
ATOM      7  C8  UNL d   1      -1.722   3.918  -4.038  0.00  0.00     0.006 A 
ENDROOT
BRANCH   1   8
ATOM      8  C1  UNL d   1      -0.398   5.995  -4.583  0.00  0.00     0.054 C 
ATOM      9  C   UNL d   1       1.091   5.689  -4.645  0.00  0.00     0.018 C 
ENDBRANCH   1   8
TORSDOF 1
ENDMDL
