MODEL 1
REMARK minimizedAffinity -0.00626489008
REMARK minimizedRMSD -1
REMARK  1 active torsions:
REMARK  status: ('A' for Active; 'I' for Inactive)
REMARK    1  A    between atoms: C1_2  and  C2_3 
ROOT
ATOM      1  C2  UNL d   1      -2.699   5.940  -3.563  0.00  0.00    -0.081 A 
ATOM      2  C3  UNL d   1      -1.520   5.947  -2.808  0.00  0.00     0.006 A 
ATOM      3  C4  UNL d   1      -0.275   5.953  -3.439  0.00  0.00     0.002 A 
ATOM      4  C5  UNL d   1      -0.187   5.959  -4.836  0.00  0.00    -0.080 A 
ATOM      5  C6  UNL d   1       1.144   5.995  -5.526  0.00  0.00     0.076 C 
ATOM      6  C7  UNL d   1      -1.365   5.934  -5.590  0.00  0.00     0.002 A 
ATOM      7  C8  UNL d   1      -2.611   5.928  -4.959  0.00  0.00     0.006 A 
ENDROOT
BRANCH   1   8
ATOM      8  C1  UNL d   1      -4.044   6.000  -2.885  0.00  0.00     0.054 C 
ATOM      9  C   UNL d   1      -3.901   5.996  -1.370  0.00  0.00     0.018 C 
ENDBRANCH   1   8
TORSDOF 1
ENDMDL
