MODEL 1
REMARK minimizedAffinity 16.8745651
REMARK minimizedRMSD -1
REMARK  1 active torsions:
REMARK  status: ('A' for Active; 'I' for Inactive)
REMARK    1  A    between atoms: C1_2  and  C2_3 
ROOT
ATOM      1  C2  UNL d   1      -3.770   0.023  -0.561  0.00  0.00    -0.081 A 
ATOM      2  C3  UNL d   1      -3.228  -0.175   0.715  0.00  0.00     0.006 A 
ATOM      3  C4  UNL d   1      -3.337   0.817   1.693  0.00  0.00     0.002 A 
ATOM      4  C5  UNL d   1      -3.996   2.019   1.414  0.00  0.00    -0.080 A 
ATOM      5  C6  UNL d   1      -4.147   3.079   2.464  0.00  0.00     0.076 C 
ATOM      6  C7  UNL d   1      -4.523   2.224   0.134  0.00  0.00     0.002 A 
ATOM      7  C8  UNL d   1      -4.414   1.233  -0.844  0.00  0.00     0.006 A 
ENDROOT
BRANCH   1   8
ATOM      8  C1  UNL d   1      -3.711  -1.070  -1.597  0.00  0.00     0.054 C 
ATOM      9  C   UNL d   1      -4.800  -2.109  -1.368  0.00  0.00     0.018 C 
ENDBRANCH   1   8
TORSDOF 1
ENDMDL
