MODEL 1
REMARK minimizedAffinity 3.15347958
REMARK minimizedRMSD -1
REMARK  1 active torsions:
REMARK  status: ('A' for Active; 'I' for Inactive)
REMARK    1  A    between atoms: C1_2  and  C2_3 
ROOT
ATOM      1  C2  UNL d   1      -1.719  -2.430   1.315  0.00  0.00    -0.081 A 
ATOM      2  C3  UNL d   1      -0.871  -2.370   0.202  0.00  0.00     0.006 A 
ATOM      3  C4  UNL d   1      -0.023  -1.275   0.017  0.00  0.00     0.002 A 
ATOM      4  C5  UNL d   1      -0.003  -0.227   0.944  0.00  0.00    -0.080 A 
ATOM      5  C6  UNL d   1       0.924   0.939   0.773  0.00  0.00     0.076 C 
ATOM      6  C7  UNL d   1      -0.863  -0.280   2.046  0.00  0.00     0.002 A 
ATOM      7  C8  UNL d   1      -1.711  -1.374   2.232  0.00  0.00     0.006 A 
ENDROOT
BRANCH   1   8
ATOM      8  C1  UNL d   1      -2.587  -3.640   1.551  0.00  0.00     0.054 C 
ATOM      9  C   UNL d   1      -3.666  -3.763   0.485  0.00  0.00     0.018 C 
ENDBRANCH   1   8
TORSDOF 1
ENDMDL
