MODEL 1
REMARK minimizedAffinity 1.60823309
REMARK minimizedRMSD -1
REMARK  1 active torsions:
REMARK  status: ('A' for Active; 'I' for Inactive)
REMARK    1  A    between atoms: C1_2  and  C2_3 
ROOT
ATOM      1  C2  UNL d   1       1.472   5.877  -4.566  0.00  0.00    -0.081 A 
ATOM      2  C3  UNL d   1       0.879   5.947  -3.299  0.00  0.00     0.006 A 
ATOM      3  C4  UNL d   1      -0.510   5.998  -3.169  0.00  0.00     0.002 A 
ATOM      4  C5  UNL d   1      -1.331   5.972  -4.302  0.00  0.00    -0.080 A 
ATOM      5  C6  UNL d   1      -2.825   5.996  -4.175  0.00  0.00     0.076 C 
ATOM      6  C7  UNL d   1      -0.739   5.920  -5.569  0.00  0.00     0.002 A 
ATOM      7  C8  UNL d   1       0.651   5.870  -5.699  0.00  0.00     0.006 A 
ENDROOT
BRANCH   1   8
ATOM      8  C1  UNL d   1       2.968   5.756  -4.707  0.00  0.00     0.054 C 
ATOM      9  C   UNL d   1       3.350   4.516  -5.502  0.00  0.00     0.018 C 
ENDBRANCH   1   8
TORSDOF 1
ENDMDL
