MODEL 1
REMARK minimizedAffinity 3.89448524
REMARK minimizedRMSD -1
REMARK  1 active torsions:
REMARK  status: ('A' for Active; 'I' for Inactive)
REMARK    1  A    between atoms: C1_2  and  C2_3 
ROOT
ATOM      1  C2  UNL d   1      -0.707   5.906  -3.859  0.00  0.00    -0.081 A 
ATOM      2  C3  UNL d   1       0.505   5.839  -3.161  0.00  0.00     0.006 A 
ATOM      3  C4  UNL d   1       1.720   5.832  -3.851  0.00  0.00     0.002 A 
ATOM      4  C5  UNL d   1       1.744   5.898  -5.248  0.00  0.00    -0.080 A 
ATOM      5  C6  UNL d   1       3.042   5.921  -5.999  0.00  0.00     0.076 C 
ATOM      6  C7  UNL d   1       0.533   5.947  -5.946  0.00  0.00     0.002 A 
ATOM      7  C8  UNL d   1      -0.682   5.954  -5.258  0.00  0.00     0.006 A 
ENDROOT
BRANCH   1   8
ATOM      8  C1  UNL d   1      -2.016   5.979  -3.116  0.00  0.00     0.054 C 
ATOM      9  C   UNL d   1      -3.170   5.489  -3.979  0.00  0.00     0.018 C 
ENDBRANCH   1   8
TORSDOF 1
ENDMDL
