MODEL 1
REMARK minimizedAffinity 0.406053752
REMARK minimizedRMSD -1
REMARK  1 active torsions:
REMARK  status: ('A' for Active; 'I' for Inactive)
REMARK    1  A    between atoms: C1_2  and  C2_3 
ROOT
ATOM      1  C2  UNL d   1      -0.271   5.914  -4.090  0.00  0.00    -0.081 A 
ATOM      2  C3  UNL d   1      -1.355   5.899  -4.977  0.00  0.00     0.006 A 
ATOM      3  C4  UNL d   1      -2.666   5.914  -4.494  0.00  0.00     0.002 A 
ATOM      4  C5  UNL d   1      -2.915   5.953  -3.118  0.00  0.00    -0.080 A 
ATOM      5  C6  UNL d   1      -4.317   6.000  -2.588  0.00  0.00     0.076 C 
ATOM      6  C7  UNL d   1      -1.833   5.950  -2.231  0.00  0.00     0.002 A 
ATOM      7  C8  UNL d   1      -0.522   5.934  -2.713  0.00  0.00     0.006 A 
ENDROOT
BRANCH   1   8
ATOM      8  C1  UNL d   1       1.143   5.963  -4.608  0.00  0.00     0.054 C 
ATOM      9  C   UNL d   1       1.273   5.223  -5.932  0.00  0.00     0.018 C 
ENDBRANCH   1   8
TORSDOF 1
ENDMDL
