MODEL 1
REMARK minimizedAffinity 8.28671932
REMARK minimizedRMSD -1
REMARK  1 active torsions:
REMARK  status: ('A' for Active; 'I' for Inactive)
REMARK    1  A    between atoms: C1_2  and  C2_3 
ROOT
ATOM      1  C2  UNL d   1       0.969   0.977  -0.583  0.00  0.00    -0.081 A 
ATOM      2  C3  UNL d   1       1.522   2.068   0.099  0.00  0.00     0.006 A 
ATOM      3  C4  UNL d   1       1.408   2.165   1.488  0.00  0.00     0.002 A 
ATOM      4  C5  UNL d   1       0.749   1.170   2.218  0.00  0.00    -0.080 A 
ATOM      5  C6  UNL d   1       0.647   1.247   3.713  0.00  0.00     0.076 C 
ATOM      6  C7  UNL d   1       0.182   0.089   1.535  0.00  0.00     0.002 A 
ATOM      7  C8  UNL d   1       0.294  -0.008   0.146  0.00  0.00     0.006 A 
ENDROOT
BRANCH   1   8
ATOM      8  C1  UNL d   1       1.146   0.836  -2.073  0.00  0.00     0.054 C 
ATOM      9  C   UNL d   1       1.296  -0.623  -2.478  0.00  0.00     0.018 C 
ENDBRANCH   1   8
TORSDOF 1
ENDMDL
