MODEL 1
REMARK minimizedAffinity 6.58945513
REMARK minimizedRMSD -1
REMARK  1 active torsions:
REMARK  status: ('A' for Active; 'I' for Inactive)
REMARK    1  A    between atoms: C1_2  and  C2_3 
ROOT
ATOM      1  C2  UNL d   1       0.732   0.688   0.877  0.00  0.00    -0.081 A 
ATOM      2  C3  UNL d   1       0.068  -0.466   0.444  0.00  0.00     0.006 A 
ATOM      3  C4  UNL d   1      -0.920  -1.054   1.238  0.00  0.00     0.002 A 
ATOM      4  C5  UNL d   1      -1.264  -0.495   2.473  0.00  0.00    -0.080 A 
ATOM      5  C6  UNL d   1      -2.344  -1.099   3.321  0.00  0.00     0.076 C 
ATOM      6  C7  UNL d   1      -0.588   0.648   2.913  0.00  0.00     0.002 A 
ATOM      7  C8  UNL d   1       0.399   1.237   2.120  0.00  0.00     0.006 A 
ENDROOT
BRANCH   1   8
ATOM      8  C1  UNL d   1       1.751   1.362  -0.006  0.00  0.00     0.054 C 
ATOM      9  C   UNL d   1       1.625   2.877   0.060  0.00  0.00     0.018 C 
ENDBRANCH   1   8
TORSDOF 1
ENDMDL
