MODEL 1
REMARK minimizedAffinity 4.33204508
REMARK minimizedRMSD -1
REMARK  1 active torsions:
REMARK  status: ('A' for Active; 'I' for Inactive)
REMARK    1  A    between atoms: C1_2  and  C2_3 
ROOT
ATOM      1  C2  UNL d   1       0.112   1.360   2.418  0.00  0.00    -0.081 A 
ATOM      2  C3  UNL d   1      -0.422   0.401   1.549  0.00  0.00     0.006 A 
ATOM      3  C4  UNL d   1      -0.063   0.390   0.199  0.00  0.00     0.002 A 
ATOM      4  C5  UNL d   1       0.841   1.332  -0.303  0.00  0.00    -0.080 A 
ATOM      5  C6  UNL d   1       1.258   1.312  -1.743  0.00  0.00     0.076 C 
ATOM      6  C7  UNL d   1       1.361   2.301   0.561  0.00  0.00     0.002 A 
ATOM      7  C8  UNL d   1       1.002   2.313   1.911  0.00  0.00     0.006 A 
ENDROOT
BRANCH   1   8
ATOM      8  C1  UNL d   1      -0.223   1.335   3.887  0.00  0.00     0.054 C 
ATOM      9  C   UNL d   1       0.926   0.765   4.707  0.00  0.00     0.018 C 
ENDBRANCH   1   8
TORSDOF 1
ENDMDL
