MODEL 1
REMARK minimizedAffinity 7.5677619
REMARK minimizedRMSD -1
REMARK  1 active torsions:
REMARK  status: ('A' for Active; 'I' for Inactive)
REMARK    1  A    between atoms: C1_2  and  C2_3 
ROOT
ATOM      1  C2  UNL d   1      -0.051   1.209   2.569  0.00  0.00    -0.081 A 
ATOM      2  C3  UNL d   1      -0.807   0.398   1.713  0.00  0.00     0.006 A 
ATOM      3  C4  UNL d   1      -0.309   0.035   0.459  0.00  0.00     0.002 A 
ATOM      4  C5  UNL d   1       0.954   0.470   0.044  0.00  0.00    -0.080 A 
ATOM      5  C6  UNL d   1       1.513   0.063  -1.287  0.00  0.00     0.076 C 
ATOM      6  C7  UNL d   1       1.702   1.294   0.892  0.00  0.00     0.002 A 
ATOM      7  C8  UNL d   1       1.204   1.658   2.145  0.00  0.00     0.006 A 
ENDROOT
BRANCH   1   8
ATOM      8  C1  UNL d   1      -0.557   1.548   3.948  0.00  0.00     0.054 C 
ATOM      9  C   UNL d   1       0.472   1.205   5.015  0.00  0.00     0.018 C 
ENDBRANCH   1   8
TORSDOF 1
ENDMDL
