MODEL 1
REMARK minimizedAffinity 3.58616543
REMARK minimizedRMSD -1
REMARK  1 active torsions:
REMARK  status: ('A' for Active; 'I' for Inactive)
REMARK    1  A    between atoms: C1_2  and  C2_3 
ROOT
ATOM      1  C2  UNL d   1       0.628   1.213   2.757  0.00  0.00    -0.081 A 
ATOM      2  C3  UNL d   1       1.653   1.854   2.049  0.00  0.00     0.006 A 
ATOM      3  C4  UNL d   1       1.773   1.686   0.668  0.00  0.00     0.002 A 
ATOM      4  C5  UNL d   1       0.866   0.881  -0.030  0.00  0.00    -0.080 A 
ATOM      5  C6  UNL d   1       0.965   0.716  -1.518  0.00  0.00     0.076 C 
ATOM      6  C7  UNL d   1      -0.147   0.227   0.679  0.00  0.00     0.002 A 
ATOM      7  C8  UNL d   1      -0.267   0.394   2.060  0.00  0.00     0.006 A 
ENDROOT
BRANCH   1   8
ATOM      8  C1  UNL d   1       0.458   1.444   4.236  0.00  0.00     0.054 C 
ATOM      9  C   UNL d   1       1.672   0.960   5.015  0.00  0.00     0.018 C 
ENDBRANCH   1   8
TORSDOF 1
ENDMDL
