MODEL 1
REMARK minimizedAffinity -4.9060564
REMARK minimizedRMSD -1
REMARK  1 active torsions:
REMARK  status: ('A' for Active; 'I' for Inactive)
REMARK    1  A    between atoms: C1_2  and  C2_3 
ROOT
ATOM      1  C2  UNL d   1       0.131   1.172   0.077  0.00  0.00    -0.077 A 
ATOM      2  C3  UNL d   1       1.150   0.259  -0.229  0.00  0.00     0.002 A 
ATOM      3  C4  UNL d   1       1.119  -1.036   0.292  0.00  0.00     0.002 A 
ATOM      4  C5  UNL d   1       0.068  -1.431   1.118  0.00  0.00    -0.004 A 
ATOM      5  C6  UNL d   1      -0.950  -0.530   1.429  0.00  0.00     0.002 A 
ATOM      6  C7  UNL d   1      -0.919   0.765   0.910  0.00  0.00     0.002 A 
ENDROOT
BRANCH   1   7
ATOM      7  C1  UNL d   1       0.137   2.553  -0.524  0.00  0.00     0.055 C 
ATOM      8  C   UNL d   1       0.950   3.521   0.323  0.00  0.00     0.019 C 
ENDBRANCH   1   7
TORSDOF 1
ENDMDL
