MODEL 1
REMARK minimizedAffinity -3.78201461
REMARK minimizedRMSD -1
REMARK  1 active torsions:
REMARK  status: ('A' for Active; 'I' for Inactive)
REMARK    1  A    between atoms: C1_2  and  C2_3 
ROOT
ATOM      1  C2  UNL d   1      -0.694   0.671  -0.485  0.00  0.00    -0.077 A 
ATOM      2  C3  UNL d   1       0.500   0.000  -0.784  0.00  0.00     0.002 A 
ATOM      3  C4  UNL d   1       0.954  -1.034   0.037  0.00  0.00     0.002 A 
ATOM      4  C5  UNL d   1       0.218  -1.408   1.159  0.00  0.00    -0.004 A 
ATOM      5  C6  UNL d   1      -0.970  -0.746   1.466  0.00  0.00     0.002 A 
ATOM      6  C7  UNL d   1      -1.424   0.288   0.647  0.00  0.00     0.002 A 
ENDROOT
BRANCH   1   7
ATOM      7  C1  UNL d   1      -1.211   1.754  -1.397  0.00  0.00     0.055 C 
ATOM      8  C   UNL d   1      -2.357   1.249  -2.261  0.00  0.00     0.019 C 
ENDBRANCH   1   7
TORSDOF 1
ENDMDL
