MODEL 1
REMARK minimizedAffinity -3.09908009
REMARK minimizedRMSD -1
REMARK  1 active torsions:
REMARK  status: ('A' for Active; 'I' for Inactive)
REMARK    1  A    between atoms: C1_2  and  C2_3 
ROOT
ATOM      1  C2  UNL d   1       1.139  -0.278  -0.153  0.00  0.00    -0.077 A 
ATOM      2  C3  UNL d   1       0.382   0.884  -0.361  0.00  0.00     0.002 A 
ATOM      3  C4  UNL d   1      -0.883   1.016   0.215  0.00  0.00     0.002 A 
ATOM      4  C5  UNL d   1      -1.400  -0.007   1.005  0.00  0.00    -0.004 A 
ATOM      5  C6  UNL d   1      -0.657  -1.168   1.217  0.00  0.00     0.002 A 
ATOM      6  C7  UNL d   1       0.607  -1.302   0.641  0.00  0.00     0.002 A 
ENDROOT
BRANCH   1   7
ATOM      7  C1  UNL d   1       2.523  -0.402  -0.733  0.00  0.00     0.055 C 
ATOM      8  C   UNL d   1       2.485  -0.450  -2.254  0.00  0.00     0.019 C 
ENDBRANCH   1   7
TORSDOF 1
ENDMDL
