MODEL 1
REMARK minimizedAffinity -3.41865301
REMARK minimizedRMSD -1
REMARK  1 active torsions:
REMARK  status: ('A' for Active; 'I' for Inactive)
REMARK    1  A    between atoms: C1_2  and  C2_3 
ROOT
ATOM      1  C2  UNL d   1       0.449   2.944  -0.526  0.00  0.00    -0.077 A 
ATOM      2  C3  UNL d   1      -0.132   3.589  -1.626  0.00  0.00     0.002 A 
ATOM      3  C4  UNL d   1      -1.163   2.975  -2.342  0.00  0.00     0.002 A 
ATOM      4  C5  UNL d   1      -1.623   1.717  -1.962  0.00  0.00    -0.004 A 
ATOM      5  C6  UNL d   1      -1.051   1.066  -0.870  0.00  0.00     0.002 A 
ATOM      6  C7  UNL d   1      -0.020   1.677  -0.154  0.00  0.00     0.002 A 
ENDROOT
BRANCH   1   7
ATOM      7  C1  UNL d   1       1.526   3.624   0.277  0.00  0.00     0.055 C 
ATOM      8  C   UNL d   1       2.913   3.202  -0.187  0.00  0.00     0.019 C 
ENDBRANCH   1   7
TORSDOF 1
ENDMDL
