MODEL 1
REMARK minimizedAffinity -4.62791777
REMARK minimizedRMSD -1
REMARK  1 active torsions:
REMARK  status: ('A' for Active; 'I' for Inactive)
REMARK    1  A    between atoms: C1_2  and  C2_3 
ROOT
ATOM      1  C2  UNL d   1       0.162  -0.357   0.342  0.00  0.00    -0.077 A 
ATOM      2  C3  UNL d   1       1.428  -0.890   0.059  0.00  0.00     0.002 A 
ATOM      3  C4  UNL d   1       1.793  -2.144   0.553  0.00  0.00     0.002 A 
ATOM      4  C5  UNL d   1       0.898  -2.877   1.329  0.00  0.00    -0.004 A 
ATOM      5  C6  UNL d   1      -0.362  -2.355   1.617  0.00  0.00     0.002 A 
ATOM      6  C7  UNL d   1      -0.729  -1.102   1.126  0.00  0.00     0.002 A 
ENDROOT
BRANCH   1   7
ATOM      7  C1  UNL d   1      -0.252   0.973  -0.231  0.00  0.00     0.055 C 
ATOM      8  C   UNL d   1       0.851   2.010  -0.076  0.00  0.00     0.019 C 
ENDBRANCH   1   7
TORSDOF 1
ENDMDL
