MODEL 1
REMARK minimizedAffinity -1.59875393
REMARK minimizedRMSD -1
REMARK  1 active torsions:
REMARK  status: ('A' for Active; 'I' for Inactive)
REMARK    1  A    between atoms: C1_2  and  C2_3 
ROOT
ATOM      1  C2  UNL d   1      -0.717   0.270  -0.315  0.00  0.00    -0.077 A 
ATOM      2  C3  UNL d   1      -0.367  -1.042  -0.663  0.00  0.00     0.002 A 
ATOM      3  C4  UNL d   1      -0.393  -2.058   0.295  0.00  0.00     0.002 A 
ATOM      4  C5  UNL d   1      -0.772  -1.773   1.605  0.00  0.00    -0.004 A 
ATOM      5  C6  UNL d   1      -1.120  -0.471   1.962  0.00  0.00     0.002 A 
ATOM      6  C7  UNL d   1      -1.094   0.546   1.006  0.00  0.00     0.002 A 
ENDROOT
BRANCH   1   7
ATOM      7  C1  UNL d   1      -0.738   1.356  -1.357  0.00  0.00     0.055 C 
ATOM      8  C   UNL d   1      -1.958   1.236  -2.259  0.00  0.00     0.019 C 
ENDBRANCH   1   7
TORSDOF 1
ENDMDL
