MODEL 1
REMARK minimizedAffinity -3.12863207
REMARK minimizedRMSD -1
REMARK  1 active torsions:
REMARK  status: ('A' for Active; 'I' for Inactive)
REMARK    1  A    between atoms: C1_2  and  C2_3 
ROOT
ATOM      1  C2  UNL d   1       1.424   1.477   0.333  0.00  0.00    -0.077 A 
ATOM      2  C3  UNL d   1       0.705   2.670   0.486  0.00  0.00     0.002 A 
ATOM      3  C4  UNL d   1       1.359   3.902   0.422  0.00  0.00     0.002 A 
ATOM      4  C5  UNL d   1       2.733   3.952   0.201  0.00  0.00    -0.004 A 
ATOM      5  C6  UNL d   1       3.458   2.771   0.050  0.00  0.00     0.002 A 
ATOM      6  C7  UNL d   1       2.806   1.539   0.114  0.00  0.00     0.002 A 
ENDROOT
BRANCH   1   7
ATOM      7  C1  UNL d   1       0.713   0.149   0.352  0.00  0.00     0.055 C 
ATOM      8  C   UNL d   1       1.701  -1.008   0.372  0.00  0.00     0.019 C 
ENDBRANCH   1   7
TORSDOF 1
ENDMDL
