MODEL 1
REMARK minimizedAffinity -1.89266789
REMARK minimizedRMSD -1
REMARK  1 active torsions:
REMARK  status: ('A' for Active; 'I' for Inactive)
REMARK    1  A    between atoms: C1_2  and  C2_3 
ROOT
ATOM      1  C2  UNL d   1       0.997   2.318  -0.062  0.00  0.00    -0.077 A 
ATOM      2  C3  UNL d   1       2.374   2.092  -0.199  0.00  0.00     0.002 A 
ATOM      3  C4  UNL d   1       3.294   2.964   0.385  0.00  0.00     0.002 A 
ATOM      4  C5  UNL d   1       2.848   4.065   1.113  0.00  0.00    -0.004 A 
ATOM      5  C6  UNL d   1       1.481   4.300   1.253  0.00  0.00     0.002 A 
ATOM      6  C7  UNL d   1       0.560   3.430   0.669  0.00  0.00     0.002 A 
ENDROOT
BRANCH   1   7
ATOM      7  C1  UNL d   1       0.002   1.351  -0.649  0.00  0.00     0.055 C 
ATOM      8  C   UNL d   1      -0.074   0.070   0.169  0.00  0.00     0.019 C 
ENDBRANCH   1   7
TORSDOF 1
ENDMDL
