MODEL 1
REMARK minimizedAffinity 6.6624136
REMARK minimizedRMSD -1
REMARK  1 active torsions:
REMARK  status: ('A' for Active; 'I' for Inactive)
REMARK    1  A    between atoms: C1_2  and  C2_3 
ROOT
ATOM      1  C2  UNL d   1       1.483  -0.656   1.763  0.00  0.00    -0.081 A 
ATOM      2  C3  UNL d   1       1.791  -0.892   0.418  0.00  0.00     0.006 A 
ATOM      3  C4  UNL d   1       1.018  -0.320  -0.596  0.00  0.00     0.002 A 
ATOM      4  C5  UNL d   1      -0.069   0.503  -0.282  0.00  0.00    -0.080 A 
ATOM      5  C6  UNL d   1      -0.888   1.147  -1.361  0.00  0.00     0.076 C 
ATOM      6  C7  UNL d   1      -0.387   0.724   1.062  0.00  0.00     0.002 A 
ATOM      7  C8  UNL d   1       0.384   0.152   2.076  0.00  0.00     0.006 A 
ENDROOT
BRANCH   1   8
ATOM      8  C1  UNL d   1       2.352  -1.218   2.858  0.00  0.00     0.054 C 
ATOM      9  C   UNL d   1       3.793  -0.746   2.718  0.00  0.00     0.018 C 
ENDBRANCH   1   8
TORSDOF 1
ENDMDL
