MODEL 1
REMARK minimizedAffinity 9.58064365
REMARK minimizedRMSD -1
REMARK  1 active torsions:
REMARK  status: ('A' for Active; 'I' for Inactive)
REMARK    1  A    between atoms: C1_2  and  C2_3 
ROOT
ATOM      1  C2  UNL d   1       1.294  -2.971  -0.578  0.00  0.00    -0.081 A 
ATOM      2  C3  UNL d   1       1.833  -1.704  -0.836  0.00  0.00     0.006 A 
ATOM      3  C4  UNL d   1       1.432  -0.597  -0.085  0.00  0.00     0.002 A 
ATOM      4  C5  UNL d   1       0.493  -0.739   0.942  0.00  0.00    -0.080 A 
ATOM      5  C6  UNL d   1       0.076   0.436   1.776  0.00  0.00     0.076 C 
ATOM      6  C7  UNL d   1      -0.059  -2.001   1.188  0.00  0.00     0.002 A 
ATOM      7  C8  UNL d   1       0.341  -3.108   0.437  0.00  0.00     0.006 A 
ENDROOT
BRANCH   1   8
ATOM      8  C1  UNL d   1       1.773  -4.178  -1.344  0.00  0.00     0.054 C 
ATOM      9  C   UNL d   1       2.193  -5.299  -0.404  0.00  0.00     0.018 C 
ENDBRANCH   1   8
TORSDOF 1
ENDMDL
