MODEL 1
REMARK minimizedAffinity 0.236266494
REMARK minimizedRMSD -1
REMARK  1 active torsions:
REMARK  status: ('A' for Active; 'I' for Inactive)
REMARK    1  A    between atoms: C1_2  and  C2_3 
ROOT
ATOM      1  C2  UNL d   1       1.167  -0.425   2.005  0.00  0.00    -0.081 A 
ATOM      2  C3  UNL d   1       0.294   0.653   1.813  0.00  0.00     0.006 A 
ATOM      3  C4  UNL d   1      -0.156   0.979   0.531  0.00  0.00     0.002 A 
ATOM      4  C5  UNL d   1       0.253   0.229  -0.577  0.00  0.00    -0.080 A 
ATOM      5  C6  UNL d   1      -0.247   0.550  -1.954  0.00  0.00     0.076 C 
ATOM      6  C7  UNL d   1       1.139  -0.837  -0.387  0.00  0.00     0.002 A 
ATOM      7  C8  UNL d   1       1.589  -1.163   0.894  0.00  0.00     0.006 A 
ENDROOT
BRANCH   1   8
ATOM      8  C1  UNL d   1       1.603  -0.819   3.394  0.00  0.00     0.054 C 
ATOM      9  C   UNL d   1       2.974  -1.479   3.376  0.00  0.00     0.018 C 
ENDBRANCH   1   8
TORSDOF 1
ENDMDL
