MODEL 1
REMARK minimizedAffinity 11.3342094
REMARK minimizedRMSD -1
REMARK  1 active torsions:
REMARK  status: ('A' for Active; 'I' for Inactive)
REMARK    1  A    between atoms: C1_2  and  C2_3 
ROOT
ATOM      1  C2  UNL d   1      -1.537   2.611   0.770  0.00  0.00    -0.081 A 
ATOM      2  C3  UNL d   1      -2.190   2.430  -0.455  0.00  0.00     0.006 A 
ATOM      3  C4  UNL d   1      -1.518   1.861  -1.539  0.00  0.00     0.002 A 
ATOM      4  C5  UNL d   1      -0.184   1.458  -1.415  0.00  0.00    -0.080 A 
ATOM      5  C6  UNL d   1       0.541   0.819  -2.562  0.00  0.00     0.076 C 
ATOM      6  C7  UNL d   1       0.474   1.655  -0.196  0.00  0.00     0.002 A 
ATOM      7  C8  UNL d   1      -0.198   2.224   0.888  0.00  0.00     0.006 A 
ENDROOT
BRANCH   1   8
ATOM      8  C1  UNL d   1      -2.279   3.164   1.960  0.00  0.00     0.054 C 
ATOM      9  C   UNL d   1      -2.823   4.556   1.675  0.00  0.00     0.018 C 
ENDBRANCH   1   8
TORSDOF 1
ENDMDL
