MODEL 1
REMARK minimizedAffinity 8.32799816
REMARK minimizedRMSD -1
REMARK  1 active torsions:
REMARK  status: ('A' for Active; 'I' for Inactive)
REMARK    1  A    between atoms: C1_2  and  C2_3 
ROOT
ATOM      1  C2  UNL d   1       2.157  -3.644  -2.661  0.00  0.00    -0.081 A 
ATOM      2  C3  UNL d   1       1.841  -2.325  -3.012  0.00  0.00     0.006 A 
ATOM      3  C4  UNL d   1       1.985  -1.292  -2.083  0.00  0.00     0.002 A 
ATOM      4  C5  UNL d   1       2.455  -1.557  -0.793  0.00  0.00    -0.080 A 
ATOM      5  C6  UNL d   1       2.644  -0.452   0.204  0.00  0.00     0.076 C 
ATOM      6  C7  UNL d   1       2.755  -2.877  -0.437  0.00  0.00     0.002 A 
ATOM      7  C8  UNL d   1       2.610  -3.911  -1.364  0.00  0.00     0.006 A 
ENDROOT
BRANCH   1   8
ATOM      8  C1  UNL d   1       2.064  -4.751  -3.680  0.00  0.00     0.054 C 
ATOM      9  C   UNL d   1       1.741  -4.204  -5.063  0.00  0.00     0.018 C 
ENDBRANCH   1   8
TORSDOF 1
ENDMDL
