MODEL 1
REMARK minimizedAffinity 2.25320244
REMARK minimizedRMSD -1
REMARK  1 active torsions:
REMARK  status: ('A' for Active; 'I' for Inactive)
REMARK    1  A    between atoms: C1_2  and  C2_3 
ROOT
ATOM      1  C2  UNL d   1       1.657  -2.374  -1.614  0.00  0.00    -0.081 A 
ATOM      2  C3  UNL d   1       0.277  -2.289  -1.835  0.00  0.00     0.006 A 
ATOM      3  C4  UNL d   1      -0.344  -1.045  -1.967  0.00  0.00     0.002 A 
ATOM      4  C5  UNL d   1       0.405   0.134  -1.888  0.00  0.00    -0.080 A 
ATOM      5  C6  UNL d   1      -0.244   1.475  -2.058  0.00  0.00     0.076 C 
ATOM      6  C7  UNL d   1       1.781   0.050  -1.650  0.00  0.00     0.002 A 
ATOM      7  C8  UNL d   1       2.403  -1.194  -1.517  0.00  0.00     0.006 A 
ENDROOT
BRANCH   1   8
ATOM      8  C1  UNL d   1       2.340  -3.716  -1.535  0.00  0.00     0.054 C 
ATOM      9  C   UNL d   1       2.361  -4.406  -2.892  0.00  0.00     0.018 C 
ENDBRANCH   1   8
TORSDOF 1
ENDMDL
