MODEL 1
REMARK minimizedAffinity -2.70353246
REMARK minimizedRMSD -1
REMARK  1 active torsions:
REMARK  status: ('A' for Active; 'I' for Inactive)
REMARK    1  A    between atoms: C1_2  and  C2_3 
ROOT
ATOM      1  C2  UNL d   1      -0.008   2.321   0.232  0.00  0.00    -0.081 A 
ATOM      2  C3  UNL d   1      -0.453   1.913  -1.031  0.00  0.00     0.006 A 
ATOM      3  C4  UNL d   1      -0.573   0.555  -1.335  0.00  0.00     0.002 A 
ATOM      4  C5  UNL d   1      -0.257  -0.417  -0.380  0.00  0.00    -0.080 A 
ATOM      5  C6  UNL d   1      -0.411  -1.878  -0.683  0.00  0.00     0.076 C 
ATOM      6  C7  UNL d   1       0.204  -0.010   0.877  0.00  0.00     0.002 A 
ATOM      7  C8  UNL d   1       0.325   1.348   1.181  0.00  0.00     0.006 A 
ENDROOT
BRANCH   1   8
ATOM      8  C1  UNL d   1       0.061   3.785   0.584  0.00  0.00     0.054 C 
ATOM      9  C   UNL d   1      -1.072   4.183   1.520  0.00  0.00     0.018 C 
ENDBRANCH   1   8
TORSDOF 1
ENDMDL
