MODEL 1
REMARK minimizedAffinity 2.13786602
REMARK minimizedRMSD -1
REMARK  0 active torsions:
REMARK  status: ('A' for Active; 'I' for Inactive)
ROOT
ATOM      1  C   UNL d   1      -4.918  -5.886  -5.962  0.00  0.00     0.077 C 
ATOM      2  C1  UNL d   1      -3.570  -5.230  -5.965  0.00  0.00    -0.074 A 
ATOM      3  C2  UNL d   1      -2.399  -5.994  -5.972  0.00  0.00    -0.005 A 
ATOM      4  C3  UNL d   1      -1.151  -5.370  -5.985  0.00  0.00     0.006 A 
ATOM      5  C4  UNL d   1      -1.062  -3.978  -5.990  0.00  0.00    -0.005 A 
ATOM      6  C5  UNL d   1      -2.223  -3.197  -5.984  0.00  0.00    -0.074 A 
ATOM      7  C6  UNL d   1      -2.145  -1.699  -6.000  0.00  0.00     0.077 C 
ATOM      8  C7  UNL d   1      -3.472  -3.831  -5.978  0.00  0.00    -0.001 A 
ENDROOT
TORSDOF 0
ENDMDL
