MODEL 1
REMARK minimizedAffinity 9.65525723
REMARK minimizedRMSD -1
REMARK  0 active torsions:
REMARK  status: ('A' for Active; 'I' for Inactive)
ROOT
ATOM      1  C   UNL d   1       4.743  -1.741  -0.377  0.00  0.00     0.077 C 
ATOM      2  C1  UNL d   1       4.772  -3.224  -0.594  0.00  0.00    -0.074 A 
ATOM      3  C2  UNL d   1       5.960  -3.949  -0.448  0.00  0.00    -0.005 A 
ATOM      4  C3  UNL d   1       5.970  -5.330  -0.643  0.00  0.00     0.006 A 
ATOM      5  C4  UNL d   1       4.794  -5.999  -0.986  0.00  0.00    -0.005 A 
ATOM      6  C5  UNL d   1       3.597  -5.292  -1.135  0.00  0.00    -0.074 A 
ATOM      7  C6  UNL d   1       2.323  -5.998  -1.493  0.00  0.00     0.077 C 
ATOM      8  C7  UNL d   1       3.594  -3.906  -0.930  0.00  0.00    -0.001 A 
ENDROOT
TORSDOF 0
ENDMDL
