MODEL 1
REMARK minimizedAffinity 9.48068905
REMARK minimizedRMSD -1
REMARK  0 active torsions:
REMARK  status: ('A' for Active; 'I' for Inactive)
ROOT
ATOM      1  C   UNL d   1      -3.729   1.655  -2.202  0.00  0.00     0.077 C 
ATOM      2  C1  UNL d   1      -2.802   2.820  -2.384  0.00  0.00    -0.074 A 
ATOM      3  C2  UNL d   1      -3.133   3.873  -3.244  0.00  0.00    -0.005 A 
ATOM      4  C3  UNL d   1      -2.266   4.955  -3.396  0.00  0.00     0.006 A 
ATOM      5  C4  UNL d   1      -1.062   4.995  -2.691  0.00  0.00    -0.005 A 
ATOM      6  C5  UNL d   1      -0.715   3.952  -1.827  0.00  0.00    -0.074 A 
ATOM      7  C6  UNL d   1       0.570   3.984  -1.055  0.00  0.00     0.077 C 
ATOM      8  C7  UNL d   1      -1.595   2.872  -1.674  0.00  0.00    -0.001 A 
ENDROOT
TORSDOF 0
ENDMDL
