MODEL 1
REMARK minimizedAffinity 9.10001564
REMARK minimizedRMSD -1
REMARK  0 active torsions:
REMARK  status: ('A' for Active; 'I' for Inactive)
ROOT
ATOM      1  C   UNL d   1      -2.291   1.099   3.029  0.00  0.00     0.077 C 
ATOM      2  C1  UNL d   1      -3.590   0.367   3.190  0.00  0.00    -0.074 A 
ATOM      3  C2  UNL d   1      -4.800   0.957   2.813  0.00  0.00    -0.005 A 
ATOM      4  C3  UNL d   1      -5.999   0.260   2.960  0.00  0.00     0.006 A 
ATOM      5  C4  UNL d   1      -6.000  -1.033   3.486  0.00  0.00    -0.005 A 
ATOM      6  C5  UNL d   1      -4.799  -1.640   3.868  0.00  0.00    -0.074 A 
ATOM      7  C6  UNL d   1      -4.782  -3.032   4.425  0.00  0.00     0.077 C 
ATOM      8  C7  UNL d   1      -3.598  -0.935   3.710  0.00  0.00    -0.001 A 
ENDROOT
TORSDOF 0
ENDMDL
