MODEL 1
REMARK minimizedAffinity 5.36937666
REMARK minimizedRMSD -1
REMARK  0 active torsions:
REMARK  status: ('A' for Active; 'I' for Inactive)
ROOT
ATOM      1  C   UNL d   1       2.158  -2.421   0.187  0.00  0.00     0.077 C 
ATOM      2  C1  UNL d   1       3.496  -2.821  -0.360  0.00  0.00    -0.074 A 
ATOM      3  C2  UNL d   1       4.323  -1.886  -0.991  0.00  0.00    -0.005 A 
ATOM      4  C3  UNL d   1       5.569  -2.270  -1.487  0.00  0.00     0.006 A 
ATOM      5  C4  UNL d   1       6.000  -3.591  -1.357  0.00  0.00    -0.005 A 
ATOM      6  C5  UNL d   1       5.187  -4.540  -0.728  0.00  0.00    -0.074 A 
ATOM      7  C6  UNL d   1       5.639  -5.961  -0.571  0.00  0.00     0.077 C 
ATOM      8  C7  UNL d   1       3.940  -4.144  -0.226  0.00  0.00    -0.001 A 
ENDROOT
TORSDOF 0
ENDMDL
