MODEL 1
REMARK minimizedAffinity 3.92198896
REMARK minimizedRMSD -1
REMARK  0 active torsions:
REMARK  status: ('A' for Active; 'I' for Inactive)
ROOT
ATOM      1  C   UNL d   1      -5.997  -5.989  -5.884  0.00  0.00     0.077 C 
ATOM      2  C1  UNL d   1      -4.708  -5.285  -5.581  0.00  0.00    -0.074 A 
ATOM      3  C2  UNL d   1      -3.597  -5.992  -5.109  0.00  0.00    -0.005 A 
ATOM      4  C3  UNL d   1      -2.401  -5.325  -4.841  0.00  0.00     0.006 A 
ATOM      5  C4  UNL d   1      -2.305  -3.947  -5.042  0.00  0.00    -0.005 A 
ATOM      6  C5  UNL d   1      -3.405  -3.225  -5.514  0.00  0.00    -0.074 A 
ATOM      7  C6  UNL d   1      -3.315  -1.745  -5.745  0.00  0.00     0.077 C 
ATOM      8  C7  UNL d   1      -4.600  -3.903  -5.788  0.00  0.00    -0.001 A 
ENDROOT
TORSDOF 0
ENDMDL
