MODEL 1
REMARK minimizedAffinity 4.55780172
REMARK minimizedRMSD -1
REMARK  0 active torsions:
REMARK  status: ('A' for Active; 'I' for Inactive)
ROOT
ATOM      1  C   UNL d   1       5.968  -4.832  -0.939  0.00  0.00     0.077 C 
ATOM      2  C1  UNL d   1       4.471  -4.756  -0.985  0.00  0.00    -0.074 A 
ATOM      3  C2  UNL d   1       3.743  -5.494  -1.924  0.00  0.00    -0.005 A 
ATOM      4  C3  UNL d   1       2.350  -5.421  -1.949  0.00  0.00     0.006 A 
ATOM      5  C4  UNL d   1       1.673  -4.610  -1.037  0.00  0.00    -0.005 A 
ATOM      6  C5  UNL d   1       2.384  -3.865  -0.091  0.00  0.00    -0.074 A 
ATOM      7  C6  UNL d   1       1.671  -2.996   0.902  0.00  0.00     0.077 C 
ATOM      8  C7  UNL d   1       3.783  -3.950  -0.068  0.00  0.00    -0.001 A 
ENDROOT
TORSDOF 0
ENDMDL
