MODEL 1
REMARK minimizedAffinity 11.2307472
REMARK minimizedRMSD -1
REMARK  0 active torsions:
REMARK  status: ('A' for Active; 'I' for Inactive)
ROOT
ATOM      1  C   UNL d   1      -0.419  -3.198   4.723  0.00  0.00    -0.002 A 
ATOM      2  C1  UNL d   1       0.960  -3.168   4.571  0.00  0.00     0.010 A 
ATOM      3  C2  UNL d   1       1.541  -2.534   3.472  0.00  0.00     0.041 A 
ATOM      4  C3  UNL d   1       0.704  -1.921   2.518  0.00  0.00    -0.075 A 
ATOM      5  S   UNL d   1       1.191  -1.084   1.092  0.00  0.00     0.015 SA
ATOM      6  C4  UNL d   1      -0.420  -0.745   0.651  0.00  0.00     0.022 A 
ATOM      7  C5  UNL d   1      -1.320  -1.250   1.558  0.00  0.00     0.026 A 
ATOM      8  C6  UNL d   1      -0.688  -1.936   2.650  0.00  0.00    -0.082 A 
ATOM      9  C7  UNL d   1      -1.246  -2.589   3.776  0.00  0.00     0.045 A 
ENDROOT
TORSDOF 0
ENDMDL
