MODEL 1
REMARK minimizedAffinity 5.2466979
REMARK minimizedRMSD -1
REMARK  0 active torsions:
REMARK  status: ('A' for Active; 'I' for Inactive)
ROOT
ATOM      1  C   UNL d   1      -3.000   4.282  -2.759  0.00  0.00    -0.002 A 
ATOM      2  C1  UNL d   1      -2.007   4.447  -3.714  0.00  0.00     0.010 A 
ATOM      3  C2  UNL d   1      -0.786   3.782  -3.591  0.00  0.00     0.041 A 
ATOM      4  C3  UNL d   1      -0.578   2.937  -2.482  0.00  0.00    -0.075 A 
ATOM      5  S   UNL d   1       0.837   2.020  -2.125  0.00  0.00     0.015 SA
ATOM      6  C4  UNL d   1       0.156   1.387  -0.696  0.00  0.00     0.022 A 
ATOM      7  C5  UNL d   1      -1.119   1.853  -0.482  0.00  0.00     0.026 A 
ATOM      8  C6  UNL d   1      -1.564   2.754  -1.508  0.00  0.00    -0.082 A 
ATOM      9  C7  UNL d   1      -2.791   3.444  -1.660  0.00  0.00     0.045 A 
ENDROOT
TORSDOF 0
ENDMDL
