MODEL 1
REMARK minimizedAffinity 10.8098946
REMARK minimizedRMSD -1
REMARK  0 active torsions:
REMARK  status: ('A' for Active; 'I' for Inactive)
ROOT
ATOM      1  C   UNL d   1      -3.907  -5.878  -4.805  0.00  0.00    -0.002 A 
ATOM      2  C1  UNL d   1      -3.201  -5.872  -6.000  0.00  0.00     0.010 A 
ATOM      3  C2  UNL d   1      -1.804  -5.869  -5.999  0.00  0.00     0.041 A 
ATOM      4  C3  UNL d   1      -1.123  -5.873  -4.766  0.00  0.00    -0.075 A 
ATOM      5  S   UNL d   1       0.583  -5.871  -4.520  0.00  0.00     0.015 SA
ATOM      6  C4  UNL d   1       0.415  -5.878  -2.824  0.00  0.00     0.022 A 
ATOM      7  C5  UNL d   1      -0.905  -5.882  -2.437  0.00  0.00     0.026 A 
ATOM      8  C6  UNL d   1      -1.813  -5.880  -3.550  0.00  0.00    -0.082 A 
ATOM      9  C7  UNL d   1      -3.228  -5.882  -3.584  0.00  0.00     0.045 A 
ENDROOT
TORSDOF 0
ENDMDL
