MODEL 1
REMARK minimizedAffinity 16.8723011
REMARK minimizedRMSD -1
REMARK  0 active torsions:
REMARK  status: ('A' for Active; 'I' for Inactive)
ROOT
ATOM      1  C   UNL d   1       5.271  -1.120   1.874  0.00  0.00    -0.002 A 
ATOM      2  C1  UNL d   1       4.737  -2.333   1.462  0.00  0.00     0.010 A 
ATOM      3  C2  UNL d   1       3.444  -2.398   0.938  0.00  0.00     0.041 A 
ATOM      4  C3  UNL d   1       2.691  -1.213   0.833  0.00  0.00    -0.075 A 
ATOM      5  S   UNL d   1       1.087  -1.051   0.222  0.00  0.00     0.015 SA
ATOM      6  C4  UNL d   1       1.073   0.632   0.493  0.00  0.00     0.022 A 
ATOM      7  C5  UNL d   1       2.255   1.076   1.036  0.00  0.00     0.026 A 
ATOM      8  C6  UNL d   1       3.207   0.021   1.241  0.00  0.00    -0.082 A 
ATOM      9  C7  UNL d   1       4.521   0.054   1.768  0.00  0.00     0.045 A 
ENDROOT
TORSDOF 0
ENDMDL
