MODEL 1
REMARK minimizedAffinity 3.73302841
REMARK minimizedRMSD -1
REMARK  0 active torsions:
REMARK  status: ('A' for Active; 'I' for Inactive)
ROOT
ATOM      1  C   UNL d   1       0.862   1.161   0.399  0.00  0.00    -0.002 A 
ATOM      2  C1  UNL d   1       0.452  -0.047  -0.146  0.00  0.00     0.010 A 
ATOM      3  C2  UNL d   1       1.287  -1.166  -0.102  0.00  0.00     0.041 A 
ATOM      4  C3  UNL d   1       2.552  -1.048   0.506  0.00  0.00    -0.075 A 
ATOM      5  S   UNL d   1       3.742  -2.284   0.676  0.00  0.00     0.015 SA
ATOM      6  C4  UNL d   1       4.823  -1.237   1.477  0.00  0.00     0.022 A 
ATOM      7  C5  UNL d   1       4.304   0.029   1.619  0.00  0.00     0.026 A 
ATOM      8  C6  UNL d   1       2.987   0.158   1.062  0.00  0.00    -0.082 A 
ATOM      9  C7  UNL d   1       2.118   1.274   1.001  0.00  0.00     0.045 A 
ENDROOT
TORSDOF 0
ENDMDL
