MODEL 1
REMARK minimizedAffinity 0.924910069
REMARK minimizedRMSD -1
REMARK  0 active torsions:
REMARK  status: ('A' for Active; 'I' for Inactive)
ROOT
ATOM      1  C   UNL d   1      -5.881  -3.886  -5.991  0.00  0.00    -0.002 A 
ATOM      2  C1  UNL d   1      -5.915  -5.267  -5.863  0.00  0.00     0.010 A 
ATOM      3  C2  UNL d   1      -4.732  -5.998  -5.740  0.00  0.00     0.041 A 
ATOM      4  C3  UNL d   1      -3.502  -5.311  -5.747  0.00  0.00    -0.075 A 
ATOM      5  S   UNL d   1      -1.926  -5.997  -5.609  0.00  0.00     0.015 SA
ATOM      6  C4  UNL d   1      -1.172  -4.473  -5.717  0.00  0.00     0.022 A 
ATOM      7  C5  UNL d   1      -2.084  -3.454  -5.855  0.00  0.00     0.026 A 
ATOM      8  C6  UNL d   1      -3.442  -3.920  -5.874  0.00  0.00    -0.082 A 
ATOM      9  C7  UNL d   1      -4.659  -3.207  -5.998  0.00  0.00     0.045 A 
ENDROOT
TORSDOF 0
ENDMDL
