MODEL 1
REMARK minimizedAffinity 1.58555925
REMARK minimizedRMSD -1
REMARK  0 active torsions:
REMARK  status: ('A' for Active; 'I' for Inactive)
ROOT
ATOM      1  C   UNL d   1      -2.374  -4.040  -3.949  0.00  0.00    -0.002 A 
ATOM      2  C1  UNL d   1      -2.797  -3.928  -5.266  0.00  0.00     0.010 A 
ATOM      3  C2  UNL d   1      -3.898  -3.134  -5.593  0.00  0.00     0.041 A 
ATOM      4  C3  UNL d   1      -4.571  -2.446  -4.565  0.00  0.00    -0.075 A 
ATOM      5  S   UNL d   1      -5.943  -1.415  -4.729  0.00  0.00     0.015 SA
ATOM      6  C4  UNL d   1      -5.999  -1.098  -3.055  0.00  0.00     0.022 A 
ATOM      7  C5  UNL d   1      -5.003  -1.755  -2.373  0.00  0.00     0.026 A 
ATOM      8  C6  UNL d   1      -4.163  -2.542  -3.231  0.00  0.00    -0.082 A 
ATOM      9  C7  UNL d   1      -3.045  -3.357  -2.932  0.00  0.00     0.045 A 
ENDROOT
TORSDOF 0
ENDMDL
