MODEL 1
REMARK minimizedAffinity 20.8153324
REMARK minimizedRMSD -1
REMARK  0 active torsions:
REMARK  status: ('A' for Active; 'I' for Inactive)
ROOT
ATOM      1  C   UNL d   1       0.237  -3.540   4.455  0.00  0.00    -0.002 A 
ATOM      2  C1  UNL d   1       1.537  -3.781   4.033  0.00  0.00     0.010 A 
ATOM      3  C2  UNL d   1       1.984  -3.302   2.800  0.00  0.00     0.041 A 
ATOM      4  C3  UNL d   1       1.094  -2.567   1.991  0.00  0.00    -0.075 A 
ATOM      5  S   UNL d   1       1.421  -1.882   0.443  0.00  0.00     0.015 SA
ATOM      6  C4  UNL d   1      -0.157  -1.252   0.306  0.00  0.00     0.022 A 
ATOM      7  C5  UNL d   1      -0.928  -1.549   1.405  0.00  0.00     0.026 A 
ATOM      8  C6  UNL d   1      -0.220  -2.311   2.395  0.00  0.00    -0.082 A 
ATOM      9  C7  UNL d   1      -0.643  -2.811   3.650  0.00  0.00     0.045 A 
ENDROOT
TORSDOF 0
ENDMDL
