MODEL 1
REMARK minimizedAffinity 12.3746719
REMARK minimizedRMSD -1
REMARK  0 active torsions:
REMARK  status: ('A' for Active; 'I' for Inactive)
ROOT
ATOM      1  C   UNL d   1       1.005  -3.437   4.356  0.00  0.00    -0.002 A 
ATOM      2  C1  UNL d   1      -0.324  -3.050   4.262  0.00  0.00     0.010 A 
ATOM      3  C2  UNL d   1      -0.754  -2.235   3.214  0.00  0.00     0.041 A 
ATOM      4  C3  UNL d   1       0.183  -1.812   2.251  0.00  0.00    -0.075 A 
ATOM      5  S   UNL d   1      -0.116  -0.811   0.879  0.00  0.00     0.015 SA
ATOM      6  C4  UNL d   1       1.514  -0.873   0.385  0.00  0.00     0.022 A 
ATOM      7  C5  UNL d   1       2.281  -1.635   1.234  0.00  0.00     0.026 A 
ATOM      8  C6  UNL d   1       1.527  -2.189   2.323  0.00  0.00    -0.082 A 
ATOM      9  C7  UNL d   1       1.932  -3.015   3.399  0.00  0.00     0.045 A 
ENDROOT
TORSDOF 0
ENDMDL
