MODEL 1
REMARK minimizedAffinity 12.0302162
REMARK minimizedRMSD -1
REMARK  0 active torsions:
REMARK  status: ('A' for Active; 'I' for Inactive)
ROOT
ATOM      1  C   UNL d   1      -3.847  -5.225  -5.998  0.00  0.00    -0.002 A 
ATOM      2  C1  UNL d   1      -4.041  -3.939  -5.513  0.00  0.00     0.010 A 
ATOM      3  C2  UNL d   1      -3.136  -3.378  -4.609  0.00  0.00     0.041 A 
ATOM      4  C3  UNL d   1      -2.022  -4.137  -4.200  0.00  0.00    -0.075 A 
ATOM      5  S   UNL d   1      -0.782  -3.655  -3.103  0.00  0.00     0.015 SA
ATOM      6  C4  UNL d   1       0.033  -5.144  -3.253  0.00  0.00     0.022 A 
ATOM      7  C5  UNL d   1      -0.611  -5.999  -4.115  0.00  0.00     0.026 A 
ATOM      8  C6  UNL d   1      -1.805  -5.433  -4.676  0.00  0.00    -0.082 A 
ATOM      9  C7  UNL d   1      -2.741  -5.974  -5.590  0.00  0.00     0.045 A 
ENDROOT
TORSDOF 0
ENDMDL
