MODEL 1
REMARK minimizedAffinity 0.691086888
REMARK minimizedRMSD -1
REMARK  0 active torsions:
REMARK  status: ('A' for Active; 'I' for Inactive)
ROOT
ATOM      1  C   UNL d   1      -2.532  -3.761  -3.902  0.00  0.00    -0.002 A 
ATOM      2  C1  UNL d   1      -3.010  -3.445  -5.165  0.00  0.00     0.010 A 
ATOM      3  C2  UNL d   1      -4.062  -2.541  -5.321  0.00  0.00     0.041 A 
ATOM      4  C3  UNL d   1      -4.630  -1.952  -4.174  0.00  0.00    -0.075 A 
ATOM      5  S   UNL d   1      -5.926  -0.816  -4.122  0.00  0.00     0.015 SA
ATOM      6  C4  UNL d   1      -5.875  -0.722  -2.421  0.00  0.00     0.022 A 
ATOM      7  C5  UNL d   1      -4.899  -1.531  -1.890  0.00  0.00     0.026 A 
ATOM      8  C6  UNL d   1      -4.165  -2.253  -2.891  0.00  0.00    -0.082 A 
ATOM      9  C7  UNL d   1      -3.097  -3.174  -2.766  0.00  0.00     0.045 A 
ENDROOT
TORSDOF 0
ENDMDL
