MODEL 1
REMARK minimizedAffinity 6.22290611
REMARK minimizedRMSD -1
REMARK  0 active torsions:
REMARK  status: ('A' for Active; 'I' for Inactive)
ROOT
ATOM      1  C   UNL d   1       0.633  -2.469   0.832  0.00  0.00    -0.002 A 
ATOM      2  C1  UNL d   1       0.263  -1.205   0.396  0.00  0.00     0.010 A 
ATOM      3  C2  UNL d   1      -0.662  -0.447   1.117  0.00  0.00     0.041 A 
ATOM      4  C3  UNL d   1      -1.212  -0.985   2.297  0.00  0.00    -0.075 A 
ATOM      5  S   UNL d   1      -2.361  -0.238   3.343  0.00  0.00     0.015 SA
ATOM      6  C4  UNL d   1      -2.387  -1.579   4.395  0.00  0.00     0.022 A 
ATOM      7  C5  UNL d   1      -1.546  -2.581   3.973  0.00  0.00     0.026 A 
ATOM      8  C6  UNL d   1      -0.854  -2.255   2.757  0.00  0.00    -0.082 A 
ATOM      9  C7  UNL d   1       0.085  -2.999   2.003  0.00  0.00     0.045 A 
ENDROOT
TORSDOF 0
ENDMDL
