MODEL 1
REMARK minimizedAffinity -2.70493174
REMARK minimizedRMSD -1
REMARK  2 active torsions:
REMARK  status: ('A' for Active; 'I' for Inactive)
REMARK    1  A    between atoms: C2'_3  and  C1'_4 
REMARK    2  A    between atoms: C1'_4  and  C1_5 
ROOT
ATOM      1  C1  I4B d   1       1.104   0.840  -0.752  0.00  0.00    -0.075 A 
ATOM      2  C2  I4B d   1       1.004   1.136   0.584  0.00  0.00     0.003 A 
ATOM      3  C3  I4B d   1       0.842   2.477   1.008  0.00  0.00     0.002 A 
ATOM      4  C4  I4B d   1       0.836   3.490   0.070  0.00  0.00    -0.004 A 
ATOM      5  C5  I4B d   1       0.914   3.186  -1.286  0.00  0.00     0.002 A 
ATOM      6  C6  I4B d   1       1.037   1.852  -1.701  0.00  0.00     0.003 A 
ENDROOT
BRANCH   1   7
ATOM      7  C1' I4B d   1       1.307  -0.584  -1.163  0.00  0.00     0.060 C 
BRANCH   7   8
ATOM      8  C2' I4B d   1       0.314  -1.436  -0.399  0.00  0.00    -0.013 C 
ATOM      9  C4' I4B d   1      -0.574  -2.210  -1.336  0.00  0.00     0.013 C 
ATOM     10  C3' I4B d   1       1.087  -2.356   0.498  0.00  0.00     0.013 C 
ENDBRANCH   7   8
ENDBRANCH   1   7
TORSDOF 2
ENDMDL
