MODEL 1
REMARK minimizedAffinity 0.675117433
REMARK minimizedRMSD -1
REMARK  2 active torsions:
REMARK  status: ('A' for Active; 'I' for Inactive)
REMARK    1  A    between atoms: C2'_3  and  C1'_4 
REMARK    2  A    between atoms: C1'_4  and  C1_5 
ROOT
ATOM      1  C1  I4B d   1      -4.313  -0.648   2.939  0.00  0.00    -0.075 A 
ATOM      2  C2  I4B d   1      -3.150  -0.647   3.669  0.00  0.00     0.003 A 
ATOM      3  C3  I4B d   1      -2.526   0.577   4.013  0.00  0.00     0.002 A 
ATOM      4  C4  I4B d   1      -3.067   1.765   3.568  0.00  0.00    -0.004 A 
ATOM      5  C5  I4B d   1      -4.258   1.763   2.848  0.00  0.00     0.002 A 
ATOM      6  C6  I4B d   1      -4.892   0.550   2.542  0.00  0.00     0.003 A 
ENDROOT
BRANCH   1   7
ATOM      7  C1' I4B d   1      -4.927  -1.959   2.565  0.00  0.00     0.060 C 
BRANCH   7   8
ATOM      8  C2' I4B d   1      -4.714  -2.920   3.716  0.00  0.00    -0.013 C 
ATOM      9  C4' I4B d   1      -5.943  -3.754   3.966  0.00  0.00     0.013 C 
ATOM     10  C3' I4B d   1      -3.533  -3.784   3.385  0.00  0.00     0.013 C 
ENDBRANCH   7   8
ENDBRANCH   1   7
TORSDOF 2
ENDMDL
