MODEL 1
REMARK minimizedAffinity -2.43795943
REMARK minimizedRMSD -1
REMARK  2 active torsions:
REMARK  status: ('A' for Active; 'I' for Inactive)
REMARK    1  A    between atoms: C2'_3  and  C1'_4 
REMARK    2  A    between atoms: C1'_4  and  C1_5 
ROOT
ATOM      1  C1  I4B d   1       1.653   0.752  -0.877  0.00  0.00    -0.075 A 
ATOM      2  C2  I4B d   1       1.124   1.558  -1.855  0.00  0.00     0.003 A 
ATOM      3  C3  I4B d   1       0.828   2.915  -1.577  0.00  0.00     0.002 A 
ATOM      4  C4  I4B d   1       1.027   3.407  -0.303  0.00  0.00    -0.004 A 
ATOM      5  C5  I4B d   1       1.584   2.595   0.680  0.00  0.00     0.002 A 
ATOM      6  C6  I4B d   1       1.911   1.263   0.389  0.00  0.00     0.003 A 
ENDROOT
BRANCH   1   7
ATOM      7  C1' I4B d   1       1.924  -0.684  -1.195  0.00  0.00     0.060 C 
BRANCH   7   8
ATOM      8  C2' I4B d   1       1.912  -1.460   0.106  0.00  0.00    -0.013 C 
ATOM      9  C4' I4B d   1       0.668  -2.301   0.228  0.00  0.00     0.013 C 
ATOM     10  C3' I4B d   1       3.146  -2.311   0.148  0.00  0.00     0.013 C 
ENDBRANCH   7   8
ENDBRANCH   1   7
TORSDOF 2
ENDMDL
