MODEL 1
REMARK minimizedAffinity 6.23982716
REMARK minimizedRMSD -1
REMARK  2 active torsions:
REMARK  status: ('A' for Active; 'I' for Inactive)
REMARK    1  A    between atoms: C2'_3  and  C1'_4 
REMARK    2  A    between atoms: C1'_4  and  C1_5 
ROOT
ATOM      1  C1  I4B d   1       1.216   2.303  -1.693  0.00  0.00    -0.075 A 
ATOM      2  C2  I4B d   1       0.614   1.412  -2.547  0.00  0.00     0.003 A 
ATOM      3  C3  I4B d   1       0.877   0.026  -2.432  0.00  0.00     0.002 A 
ATOM      4  C4  I4B d   1       1.780  -0.419  -1.489  0.00  0.00    -0.004 A 
ATOM      5  C5  I4B d   1       2.372   0.483  -0.609  0.00  0.00     0.002 A 
ATOM      6  C6  I4B d   1       2.080   1.851  -0.704  0.00  0.00     0.003 A 
ENDROOT
BRANCH   1   7
ATOM      7  C1' I4B d   1       0.942   3.763  -1.864  0.00  0.00     0.060 C 
BRANCH   7   8
ATOM      8  C2' I4B d   1       1.804   4.519  -0.874  0.00  0.00    -0.013 C 
ATOM      9  C4' I4B d   1       1.934   5.969  -1.259  0.00  0.00     0.013 C 
ATOM     10  C3' I4B d   1       1.185   4.373   0.484  0.00  0.00     0.013 C 
ENDBRANCH   7   8
ENDBRANCH   1   7
TORSDOF 2
ENDMDL
