MODEL 1
REMARK minimizedAffinity 7.44219875
REMARK minimizedRMSD -1
REMARK  2 active torsions:
REMARK  status: ('A' for Active; 'I' for Inactive)
REMARK    1  A    between atoms: C2'_3  and  C1'_4 
REMARK    2  A    between atoms: C1'_4  and  C1_5 
ROOT
ATOM      1  C1  I4B d   1       0.756   2.527  -1.596  0.00  0.00    -0.075 A 
ATOM      2  C2  I4B d   1       0.887   3.334  -0.494  0.00  0.00     0.003 A 
ATOM      3  C3  I4B d   1       1.339   2.794   0.735  0.00  0.00     0.002 A 
ATOM      4  C4  I4B d   1       1.597   1.441   0.829  0.00  0.00    -0.004 A 
ATOM      5  C5  I4B d   1       1.485   0.629  -0.295  0.00  0.00     0.002 A 
ATOM      6  C6  I4B d   1       1.073   1.177  -1.519  0.00  0.00     0.003 A 
ENDROOT
BRANCH   1   7
ATOM      7  C1' I4B d   1       0.245   3.123  -2.869  0.00  0.00     0.060 C 
BRANCH   7   8
ATOM      8  C2' I4B d   1      -1.150   3.655  -2.609  0.00  0.00    -0.013 C 
ATOM      9  C4' I4B d   1      -1.834   4.042  -3.893  0.00  0.00     0.013 C 
ATOM     10  C3' I4B d   1      -1.922   2.595  -1.881  0.00  0.00     0.013 C 
ENDBRANCH   7   8
ENDBRANCH   1   7
TORSDOF 2
ENDMDL
