MODEL 1
REMARK minimizedAffinity 4.13122559
REMARK minimizedRMSD -1
REMARK  2 active torsions:
REMARK  status: ('A' for Active; 'I' for Inactive)
REMARK    1  A    between atoms: C2'_3  and  C1'_4 
REMARK    2  A    between atoms: C1'_4  and  C1_5 
ROOT
ATOM      1  C1  I4B d   1       0.699   2.500  -0.944  0.00  0.00    -0.075 A 
ATOM      2  C2  I4B d   1       0.857   3.695  -1.601  0.00  0.00     0.003 A 
ATOM      3  C3  I4B d   1       1.183   4.868  -0.878  0.00  0.00     0.002 A 
ATOM      4  C4  I4B d   1       1.291   4.812   0.496  0.00  0.00    -0.004 A 
ATOM      5  C5  I4B d   1       1.153   3.596   1.159  0.00  0.00     0.002 A 
ATOM      6  C6  I4B d   1       0.867   2.430   0.433  0.00  0.00     0.003 A 
ENDROOT
BRANCH   1   7
ATOM      7  C1' I4B d   1       0.323   1.287  -1.734  0.00  0.00     0.060 C 
BRANCH   7   8
ATOM      8  C2' I4B d   1       1.601   0.603  -2.175  0.00  0.00    -0.013 C 
ATOM      9  C4' I4B d   1       2.132  -0.306  -1.098  0.00  0.00     0.013 C 
ATOM     10  C3' I4B d   1       1.307  -0.161  -3.432  0.00  0.00     0.013 C 
ENDBRANCH   7   8
ENDBRANCH   1   7
TORSDOF 2
ENDMDL
