MODEL 1
REMARK minimizedAffinity 13.3884001
REMARK minimizedRMSD -1
REMARK  2 active torsions:
REMARK  status: ('A' for Active; 'I' for Inactive)
REMARK    1  A    between atoms: C2'_3  and  C1'_4 
REMARK    2  A    between atoms: C1'_4  and  C1_5 
ROOT
ATOM      1  C1  I4B d   1      -0.036   2.533  -1.931  0.00  0.00    -0.075 A 
ATOM      2  C2  I4B d   1      -0.181   3.657  -2.704  0.00  0.00     0.003 A 
ATOM      3  C3  I4B d   1      -1.455   4.255  -2.862  0.00  0.00     0.002 A 
ATOM      4  C4  I4B d   1      -2.558   3.669  -2.273  0.00  0.00    -0.004 A 
ATOM      5  C5  I4B d   1      -2.405   2.542  -1.471  0.00  0.00     0.002 A 
ATOM      6  C6  I4B d   1      -1.135   1.977  -1.288  0.00  0.00     0.003 A 
ENDROOT
BRANCH   1   7
ATOM      7  C1' I4B d   1       1.319   1.909  -1.813  0.00  0.00     0.060 C 
BRANCH   7   8
ATOM      8  C2' I4B d   1       1.177   0.636  -1.004  0.00  0.00    -0.013 C 
ATOM      9  C4' I4B d   1       1.293  -0.583  -1.881  0.00  0.00     0.013 C 
ATOM     10  C3' I4B d   1       2.237   0.641   0.057  0.00  0.00     0.013 C 
ENDBRANCH   7   8
ENDBRANCH   1   7
TORSDOF 2
ENDMDL
