MODEL 1
REMARK minimizedAffinity 6.98835564
REMARK minimizedRMSD -1
REMARK  2 active torsions:
REMARK  status: ('A' for Active; 'I' for Inactive)
REMARK    1  A    between atoms: C2'_3  and  C1'_4 
REMARK    2  A    between atoms: C1'_4  and  C1_5 
ROOT
ATOM      1  C1  I4B d   1       0.807   1.571  -1.131  0.00  0.00    -0.075 A 
ATOM      2  C2  I4B d   1       1.049   0.708  -0.091  0.00  0.00     0.003 A 
ATOM      3  C3  I4B d   1       1.668  -0.542  -0.333  0.00  0.00     0.002 A 
ATOM      4  C4  I4B d   1       1.980  -0.908  -1.626  0.00  0.00    -0.004 A 
ATOM      5  C5  I4B d   1       1.755  -0.022  -2.676  0.00  0.00     0.002 A 
ATOM      6  C6  I4B d   1       1.176   1.231  -2.426  0.00  0.00     0.003 A 
ENDROOT
BRANCH   1   7
ATOM      7  C1' I4B d   1       0.122   2.870  -0.845  0.00  0.00     0.060 C 
BRANCH   7   8
ATOM      8  C2' I4B d   1       1.076   3.736  -0.048  0.00  0.00    -0.013 C 
ATOM      9  C4' I4B d   1       1.050   5.162  -0.530  0.00  0.00     0.013 C 
ATOM     10  C3' I4B d   1       0.686   3.646   1.398  0.00  0.00     0.013 C 
ENDBRANCH   7   8
ENDBRANCH   1   7
TORSDOF 2
ENDMDL
