MODEL 1
REMARK minimizedAffinity 9.13751316
REMARK minimizedRMSD -1
REMARK  3 active torsions:
REMARK  status: ('A' for Active; 'I' for Inactive)
REMARK    1  A    between atoms: C3'_2  and  C2'_3 
REMARK    2  A    between atoms: C2'_3  and  C1'_4 
REMARK    3  A    between atoms: C1'_4  and  C1_5 
ROOT
ATOM      1  C1  N4B d   1       1.138   0.899  -0.385  0.00  0.00    -0.075 A 
ATOM      2  C2  N4B d   1       2.263   0.141   0.005  0.00  0.00     0.002 A 
ATOM      3  C3  N4B d   1       2.582  -1.012  -0.670  0.00  0.00     0.002 A 
ATOM      4  C4  N4B d   1       1.783  -1.434  -1.722  0.00  0.00    -0.004 A 
ATOM      5  C5  N4B d   1       0.712  -0.683  -2.109  0.00  0.00     0.002 A 
ATOM      6  C6  N4B d   1       0.382   0.480  -1.442  0.00  0.00     0.002 A 
ENDROOT
BRANCH   1   7
ATOM      7  C1' N4B d   1       0.700   2.120   0.377  0.00  0.00     0.057 C 
BRANCH   7   8
ATOM      8  C2' N4B d   1      -0.762   1.959   0.783  0.00  0.00     0.009 C 
BRANCH   8   9
ATOM      9  C3' N4B d   1      -0.924   1.844   2.289  0.00  0.00     0.004 C 
ATOM     10  C4' N4B d   1      -0.128   0.715   2.874  0.00  0.00     0.003 C 
ENDBRANCH   8   9
ENDBRANCH   7   8
ENDBRANCH   1   7
TORSDOF 3
ENDMDL
