MODEL 1
REMARK minimizedAffinity 7.12047672
REMARK minimizedRMSD -1
REMARK  3 active torsions:
REMARK  status: ('A' for Active; 'I' for Inactive)
REMARK    1  A    between atoms: C3'_2  and  C2'_3 
REMARK    2  A    between atoms: C2'_3  and  C1'_4 
REMARK    3  A    between atoms: C1'_4  and  C1_5 
ROOT
ATOM      1  C1  N4B d   1       1.871  -0.705  -0.018  0.00  0.00    -0.075 A 
ATOM      2  C2  N4B d   1       2.414  -1.719   0.802  0.00  0.00     0.002 A 
ATOM      3  C3  N4B d   1       1.880  -2.984   0.775  0.00  0.00     0.002 A 
ATOM      4  C4  N4B d   1       0.796  -3.253  -0.047  0.00  0.00    -0.004 A 
ATOM      5  C5  N4B d   1       0.294  -2.275  -0.855  0.00  0.00     0.002 A 
ATOM      6  C6  N4B d   1       0.822  -1.001  -0.840  0.00  0.00     0.002 A 
ENDROOT
BRANCH   1   7
ATOM      7  C1' N4B d   1       2.365   0.714   0.041  0.00  0.00     0.057 C 
BRANCH   7   8
ATOM      8  C2' N4B d   1       1.182   1.647   0.282  0.00  0.00     0.009 C 
BRANCH   8   9
ATOM      9  C3' N4B d   1       1.607   3.105   0.323  0.00  0.00     0.004 C 
ATOM     10  C4' N4B d   1       3.085   3.274   0.515  0.00  0.00     0.003 C 
ENDBRANCH   8   9
ENDBRANCH   7   8
ENDBRANCH   1   7
TORSDOF 3
ENDMDL
