MODEL 1
REMARK minimizedAffinity -0.813308179
REMARK minimizedRMSD -1
REMARK  0 active torsions:
REMARK  status: ('A' for Active; 'I' for Inactive)
ROOT
ATOM      1  C   UNL d   1       1.829  -0.052  -1.500  0.00  0.00     0.124 A 
ATOM      2  C1  UNL d   1       1.473  -1.146  -0.724  0.00  0.00     0.062 A 
ATOM      3  C2  UNL d   1       0.317  -1.108   0.051  0.00  0.00     0.162 A 
ATOM      4  C3  UNL d   1      -0.492   0.028   0.052  0.00  0.00    -0.034 A 
ATOM      5  C4  UNL d   1      -0.127   1.125  -0.730  0.00  0.00     0.162 A 
ATOM      6  C5  UNL d   1       1.029   1.082  -1.502  0.00  0.00     0.062 A 
ATOM      7  F   UNL d   1       1.372   2.141  -2.251  0.00  0.00    -0.097 F 
ATOM      8  F1  UNL d   1      -0.882   2.233  -0.752  0.00  0.00    -0.096 F 
ATOM      9  I   UNL d   1      -2.222   0.088   1.209  0.00  0.00    -0.060 I 
ATOM     10  F2  UNL d   1      -0.003  -2.180   0.791  0.00  0.00    -0.096 F 
ATOM     11  F3  UNL d   1       2.244  -2.242  -0.719  0.00  0.00    -0.097 F 
ATOM     12  F4  UNL d   1       2.942  -0.090  -2.243  0.00  0.00    -0.092 F 
ENDROOT
TORSDOF 0
ENDMDL
