MODEL 1
REMARK minimizedAffinity -0.0306386612
REMARK minimizedRMSD -1
REMARK  0 active torsions:
REMARK  status: ('A' for Active; 'I' for Inactive)
ROOT
ATOM      1  C   UNL d   1       2.668  -0.504  -1.730  0.00  0.00     0.124 A 
ATOM      2  C1  UNL d   1       2.211   0.804  -1.653  0.00  0.00     0.062 A 
ATOM      3  C2  UNL d   1       1.053   1.100  -0.940  0.00  0.00     0.162 A 
ATOM      4  C3  UNL d   1       0.343   0.085  -0.298  0.00  0.00    -0.034 A 
ATOM      5  C4  UNL d   1       0.809  -1.229  -0.382  0.00  0.00     0.162 A 
ATOM      6  C5  UNL d   1       1.967  -1.519  -1.095  0.00  0.00     0.062 A 
ATOM      7  F   UNL d   1       2.407  -2.783  -1.169  0.00  0.00    -0.097 F 
ATOM      8  F1  UNL d   1       0.151  -2.229   0.223  0.00  0.00    -0.096 F 
ATOM      9  I   UNL d   1      -1.390   0.523   0.768  0.00  0.00    -0.060 I 
ATOM     10  F2  UNL d   1       0.634   2.373  -0.882  0.00  0.00    -0.096 F 
ATOM     11  F3  UNL d   1       2.887   1.787  -2.266  0.00  0.00    -0.097 F 
ATOM     12  F4  UNL d   1       3.783  -0.785  -2.417  0.00  0.00    -0.092 F 
ENDROOT
TORSDOF 0
ENDMDL
