MODEL 1
REMARK minimizedAffinity 7.90058136
REMARK minimizedRMSD -1
REMARK  0 active torsions:
REMARK  status: ('A' for Active; 'I' for Inactive)
ROOT
ATOM      1  C   UNL d   1       0.981  -2.122  -0.058  0.00  0.00     0.124 A 
ATOM      2  C1  UNL d   1       0.815  -1.095   0.861  0.00  0.00     0.062 A 
ATOM      3  C2  UNL d   1       0.783   0.229   0.433  0.00  0.00     0.162 A 
ATOM      4  C3  UNL d   1       0.916   0.534  -0.921  0.00  0.00    -0.034 A 
ATOM      5  C4  UNL d   1       1.083  -0.504  -1.840  0.00  0.00     0.162 A 
ATOM      6  C5  UNL d   1       1.115  -1.826  -1.407  0.00  0.00     0.062 A 
ATOM      7  F   UNL d   1       1.275  -2.817  -2.296  0.00  0.00    -0.097 F 
ATOM      8  F1  UNL d   1       1.214  -0.246  -3.149  0.00  0.00    -0.096 F 
ATOM      9  I   UNL d   1       0.868   2.512  -1.565  0.00  0.00    -0.060 I 
ATOM     10  F2  UNL d   1       0.622   1.201   1.343  0.00  0.00    -0.096 F 
ATOM     11  F3  UNL d   1       0.687  -1.379   2.165  0.00  0.00    -0.097 F 
ATOM     12  F4  UNL d   1       1.013  -3.395   0.357  0.00  0.00    -0.092 F 
ENDROOT
TORSDOF 0
ENDMDL
