MODEL 1
REMARK minimizedAffinity -0.147076637
REMARK minimizedRMSD -1
REMARK  0 active torsions:
REMARK  status: ('A' for Active; 'I' for Inactive)
ROOT
ATOM      1  C   UNL d   1       1.543   0.474  -1.283  0.00  0.00     0.124 A 
ATOM      2  C1  UNL d   1       0.595   1.486  -1.220  0.00  0.00     0.062 A 
ATOM      3  C2  UNL d   1      -0.456   1.405  -0.312  0.00  0.00     0.162 A 
ATOM      4  C3  UNL d   1      -0.565   0.308   0.543  0.00  0.00    -0.034 A 
ATOM      5  C4  UNL d   1       0.392  -0.706   0.474  0.00  0.00     0.162 A 
ATOM      6  C5  UNL d   1       1.441  -0.621  -0.436  0.00  0.00     0.062 A 
ATOM      7  F   UNL d   1       2.356  -1.600  -0.495  0.00  0.00    -0.097 F 
ATOM      8  F1  UNL d   1       0.318  -1.775   1.281  0.00  0.00    -0.096 F 
ATOM      9  I   UNL d   1      -2.135   0.183   1.903  0.00  0.00    -0.060 I 
ATOM     10  F2  UNL d   1      -1.358   2.397  -0.273  0.00  0.00    -0.096 F 
ATOM     11  F3  UNL d   1       0.691   2.544  -2.038  0.00  0.00    -0.097 F 
ATOM     12  F4  UNL d   1       2.553   0.554  -2.159  0.00  0.00    -0.092 F 
ENDROOT
TORSDOF 0
ENDMDL
