MODEL 1
REMARK minimizedAffinity -1.1195153
REMARK minimizedRMSD -1
REMARK  0 active torsions:
REMARK  status: ('A' for Active; 'I' for Inactive)
ROOT
ATOM      1  C   UNL d   1       1.737   0.807  -0.951  0.00  0.00     0.124 A 
ATOM      2  C1  UNL d   1       1.878   0.182   0.280  0.00  0.00     0.062 A 
ATOM      3  C2  UNL d   1       0.756  -0.100   1.054  0.00  0.00     0.162 A 
ATOM      4  C3  UNL d   1      -0.518   0.243   0.599  0.00  0.00    -0.034 A 
ATOM      5  C4  UNL d   1      -0.651   0.872  -0.640  0.00  0.00     0.162 A 
ATOM      6  C5  UNL d   1       0.473   1.151  -1.410  0.00  0.00     0.062 A 
ATOM      7  F   UNL d   1       0.335   1.755  -2.599  0.00  0.00    -0.097 F 
ATOM      8  F1  UNL d   1      -1.860   1.215  -1.108  0.00  0.00    -0.096 F 
ATOM      9  I   UNL d   1      -2.198  -0.177   1.754  0.00  0.00    -0.060 I 
ATOM     10  F2  UNL d   1       0.921  -0.704   2.240  0.00  0.00    -0.096 F 
ATOM     11  F3  UNL d   1       3.097  -0.151   0.726  0.00  0.00    -0.097 F 
ATOM     12  F4  UNL d   1       2.818   1.078  -1.694  0.00  0.00    -0.092 F 
ENDROOT
TORSDOF 0
ENDMDL
