MODEL 1
REMARK minimizedAffinity -1.18421233
REMARK minimizedRMSD -1
REMARK  0 active torsions:
REMARK  status: ('A' for Active; 'I' for Inactive)
ROOT
ATOM      1  C   UNL d   1       1.906  -0.300  -1.288  0.00  0.00     0.124 A 
ATOM      2  C1  UNL d   1       1.487   0.919  -0.773  0.00  0.00     0.062 A 
ATOM      3  C2  UNL d   1       0.447   0.969   0.151  0.00  0.00     0.162 A 
ATOM      4  C3  UNL d   1      -0.181  -0.205   0.567  0.00  0.00    -0.034 A 
ATOM      5  C4  UNL d   1       0.245  -1.427   0.045  0.00  0.00     0.162 A 
ATOM      6  C5  UNL d   1       1.285  -1.472  -0.878  0.00  0.00     0.062 A 
ATOM      7  F   UNL d   1       1.689  -2.650  -1.374  0.00  0.00    -0.097 F 
ATOM      8  F1  UNL d   1      -0.336  -2.575   0.424  0.00  0.00    -0.096 F 
ATOM      9  I   UNL d   1      -1.736  -0.135   1.949  0.00  0.00    -0.060 I 
ATOM     10  F2  UNL d   1       0.063   2.161   0.631  0.00  0.00    -0.096 F 
ATOM     11  F3  UNL d   1       2.084   2.053  -1.168  0.00  0.00    -0.097 F 
ATOM     12  F4  UNL d   1       2.906  -0.345  -2.177  0.00  0.00    -0.092 F 
ENDROOT
TORSDOF 0
ENDMDL
