MODEL 1
REMARK minimizedAffinity -1.74243963
REMARK minimizedRMSD -1
REMARK  0 active torsions:
REMARK  status: ('A' for Active; 'I' for Inactive)
ROOT
ATOM      1  C   UNL d   1       1.415  -0.174  -1.694  0.00  0.00     0.124 A 
ATOM      2  C1  UNL d   1       1.332  -1.153  -0.714  0.00  0.00     0.062 A 
ATOM      3  C2  UNL d   1       0.391  -1.044   0.306  0.00  0.00     0.162 A 
ATOM      4  C3  UNL d   1      -0.475   0.048   0.350  0.00  0.00    -0.034 A 
ATOM      5  C4  UNL d   1      -0.385   1.029  -0.639  0.00  0.00     0.162 A 
ATOM      6  C5  UNL d   1       0.557   0.915  -1.656  0.00  0.00     0.062 A 
ATOM      7  F   UNL d   1       0.637   1.862  -2.602  0.00  0.00    -0.097 F 
ATOM      8  F1  UNL d   1      -1.202   2.092  -0.626  0.00  0.00    -0.096 F 
ATOM      9  I   UNL d   1      -1.884   0.215   1.874  0.00  0.00    -0.060 I 
ATOM     10  F2  UNL d   1       0.333  -2.005   1.240  0.00  0.00    -0.096 F 
ATOM     11  F3  UNL d   1       2.160  -2.207  -0.748  0.00  0.00    -0.097 F 
ATOM     12  F4  UNL d   1       2.322  -0.281  -2.674  0.00  0.00    -0.092 F 
ENDROOT
TORSDOF 0
ENDMDL
