MODEL 1
REMARK minimizedAffinity -0.576421618
REMARK minimizedRMSD -1
REMARK  0 active torsions:
REMARK  status: ('A' for Active; 'I' for Inactive)
ROOT
ATOM      1  C   UNL d   1       2.306   0.418  -1.689  0.00  0.00     0.124 A 
ATOM      2  C1  UNL d   1       2.317  -0.369  -0.546  0.00  0.00     0.062 A 
ATOM      3  C2  UNL d   1       1.209  -0.397   0.296  0.00  0.00     0.162 A 
ATOM      4  C3  UNL d   1       0.079   0.365  -0.003  0.00  0.00    -0.034 A 
ATOM      5  C4  UNL d   1       0.076   1.155  -1.154  0.00  0.00     0.162 A 
ATOM      6  C5  UNL d   1       1.186   1.180  -1.992  0.00  0.00     0.062 A 
ATOM      7  F   UNL d   1       1.173   1.941  -3.095  0.00  0.00    -0.097 F 
ATOM      8  F1  UNL d   1      -0.994   1.900  -1.470  0.00  0.00    -0.096 F 
ATOM      9  I   UNL d   1      -1.580   0.326   1.253  0.00  0.00    -0.060 I 
ATOM     10  F2  UNL d   1       1.248  -1.167   1.393  0.00  0.00    -0.096 F 
ATOM     11  F3  UNL d   1       3.399  -1.105  -0.251  0.00  0.00    -0.097 F 
ATOM     12  F4  UNL d   1       3.374   0.444  -2.497  0.00  0.00    -0.092 F 
ENDROOT
TORSDOF 0
ENDMDL
