MODEL 1
REMARK minimizedAffinity -0.486290783
REMARK minimizedRMSD -1
REMARK  0 active torsions:
REMARK  status: ('A' for Active; 'I' for Inactive)
ROOT
ATOM      1  C   UNL d   1      -2.055  -0.277   2.566  0.00  0.00     0.124 A 
ATOM      2  C1  UNL d   1      -0.819   0.345   2.673  0.00  0.00     0.062 A 
ATOM      3  C2  UNL d   1       0.133   0.187   1.669  0.00  0.00     0.162 A 
ATOM      4  C3  UNL d   1      -0.149  -0.595   0.549  0.00  0.00    -0.034 A 
ATOM      5  C4  UNL d   1      -1.394  -1.218   0.450  0.00  0.00     0.162 A 
ATOM      6  C5  UNL d   1      -2.342  -1.057   1.455  0.00  0.00     0.062 A 
ATOM      7  F   UNL d   1      -3.536  -1.659   1.351  0.00  0.00    -0.097 F 
ATOM      8  F1  UNL d   1      -1.697  -1.977  -0.614  0.00  0.00    -0.096 F 
ATOM      9  I   UNL d   1       1.272  -0.833  -0.953  0.00  0.00    -0.060 I 
ATOM     10  F2  UNL d   1       1.319   0.800   1.799  0.00  0.00    -0.096 F 
ATOM     11  F3  UNL d   1      -0.540   1.099   3.746  0.00  0.00    -0.097 F 
ATOM     12  F4  UNL d   1      -2.969  -0.124   3.534  0.00  0.00    -0.092 F 
ENDROOT
TORSDOF 0
ENDMDL
