MODEL 1
REMARK minimizedAffinity -0.774711132
REMARK minimizedRMSD -1
REMARK  0 active torsions:
REMARK  status: ('A' for Active; 'I' for Inactive)
ROOT
ATOM      1  C   UNL d   1       1.561  -0.233  -1.670  0.00  0.00     0.124 A 
ATOM      2  C1  UNL d   1       1.361  -1.308  -0.816  0.00  0.00     0.062 A 
ATOM      3  C2  UNL d   1       0.290  -1.306   0.074  0.00  0.00     0.162 A 
ATOM      4  C3  UNL d   1      -0.590  -0.225   0.113  0.00  0.00    -0.034 A 
ATOM      5  C4  UNL d   1      -0.382   0.853  -0.749  0.00  0.00     0.162 A 
ATOM      6  C5  UNL d   1       0.689   0.847  -1.636  0.00  0.00     0.062 A 
ATOM      7  F   UNL d   1       0.881   1.887  -2.461  0.00  0.00    -0.097 F 
ATOM      8  F1  UNL d   1      -1.209   1.909  -0.738  0.00  0.00    -0.096 F 
ATOM      9  I   UNL d   1      -2.192  -0.218   1.441  0.00  0.00    -0.060 I 
ATOM     10  F2  UNL d   1       0.121  -2.359   0.888  0.00  0.00    -0.096 F 
ATOM     11  F3  UNL d   1       2.202  -2.352  -0.846  0.00  0.00    -0.097 F 
ATOM     12  F4  UNL d   1       2.592  -0.237  -2.524  0.00  0.00    -0.092 F 
ENDROOT
TORSDOF 0
ENDMDL
