MODEL 1
REMARK minimizedAffinity -1.54099011
REMARK minimizedRMSD -1
REMARK  0 active torsions:
REMARK  status: ('A' for Active; 'I' for Inactive)
ROOT
ATOM      1  C   UNL d   1      -1.529   0.402  -0.575  0.00  0.00     0.124 A 
ATOM      2  C1  UNL d   1      -0.747   1.351  -1.218  0.00  0.00     0.062 A 
ATOM      3  C2  UNL d   1       0.622   1.145  -1.368  0.00  0.00     0.162 A 
ATOM      4  C3  UNL d   1       1.217  -0.015  -0.873  0.00  0.00    -0.034 A 
ATOM      5  C4  UNL d   1       0.424  -0.964  -0.226  0.00  0.00     0.162 A 
ATOM      6  C5  UNL d   1      -0.943  -0.754  -0.079  0.00  0.00     0.062 A 
ATOM      7  F   UNL d   1      -1.698  -1.672   0.543  0.00  0.00    -0.097 F 
ATOM      8  F1  UNL d   1       0.964  -2.091   0.262  0.00  0.00    -0.096 F 
ATOM      9  I   UNL d   1       3.263  -0.326  -1.094  0.00  0.00    -0.060 I 
ATOM     10  F2  UNL d   1       1.353   2.079  -1.994  0.00  0.00    -0.096 F 
ATOM     11  F3  UNL d   1      -1.310   2.470  -1.697  0.00  0.00    -0.097 F 
ATOM     12  F4  UNL d   1      -2.845   0.603  -0.431  0.00  0.00    -0.092 F 
ENDROOT
TORSDOF 0
ENDMDL
