MODEL 1
REMARK minimizedAffinity 0.256150305
REMARK minimizedRMSD -1
REMARK  0 active torsions:
REMARK  status: ('A' for Active; 'I' for Inactive)
ROOT
ATOM      1  C   UNL d   1       1.234  -0.390  -1.642  0.00  0.00     0.124 A 
ATOM      2  C1  UNL d   1       0.362   0.689  -1.641  0.00  0.00     0.062 A 
ATOM      3  C2  UNL d   1      -0.525   0.872  -0.585  0.00  0.00     0.162 A 
ATOM      4  C3  UNL d   1      -0.544  -0.027   0.482  0.00  0.00    -0.034 A 
ATOM      5  C4  UNL d   1       0.335  -1.111   0.474  0.00  0.00     0.162 A 
ATOM      6  C5  UNL d   1       1.220  -1.289  -0.585  0.00  0.00     0.062 A 
ATOM      7  F   UNL d   1       2.062  -2.333  -0.583  0.00  0.00    -0.097 F 
ATOM      8  F1  UNL d   1       0.343  -1.995   1.483  0.00  0.00    -0.096 F 
ATOM      9  I   UNL d   1      -1.870   0.242   2.064  0.00  0.00    -0.060 I 
ATOM     10  F2  UNL d   1      -1.357   1.924  -0.610  0.00  0.00    -0.096 F 
ATOM     11  F3  UNL d   1       0.373   1.559  -2.662  0.00  0.00    -0.097 F 
ATOM     12  F4  UNL d   1       2.086  -0.564  -2.660  0.00  0.00    -0.092 F 
ENDROOT
TORSDOF 0
ENDMDL
