MODEL 1
REMARK minimizedAffinity -2.3270967
REMARK minimizedRMSD -1
REMARK  0 active torsions:
REMARK  status: ('A' for Active; 'I' for Inactive)
ROOT
ATOM      1  C   UNL d   1       0.039  -1.441  -0.017  0.00  0.00     0.124 A 
ATOM      2  C1  UNL d   1      -0.809  -0.343  -0.057  0.00  0.00     0.062 A 
ATOM      3  C2  UNL d   1      -0.439   0.802  -0.758  0.00  0.00     0.162 A 
ATOM      4  C3  UNL d   1       0.785   0.854  -1.425  0.00  0.00    -0.034 A 
ATOM      5  C4  UNL d   1       1.633  -0.254  -1.379  0.00  0.00     0.162 A 
ATOM      6  C5  UNL d   1       1.259  -1.395  -0.677  0.00  0.00     0.062 A 
ATOM      7  F   UNL d   1       2.080  -2.455  -0.639  0.00  0.00    -0.097 F 
ATOM      8  F1  UNL d   1       2.817  -0.237  -2.009  0.00  0.00    -0.096 F 
ATOM      9  I   UNL d   1       1.341   2.564  -2.473  0.00  0.00    -0.060 I 
ATOM     10  F2  UNL d   1      -1.278   1.848  -0.780  0.00  0.00    -0.096 F 
ATOM     11  F3  UNL d   1      -1.987  -0.384   0.581  0.00  0.00    -0.097 F 
ATOM     12  F4  UNL d   1      -0.318  -2.541   0.659  0.00  0.00    -0.092 F 
ENDROOT
TORSDOF 0
ENDMDL
