MODEL 1
REMARK minimizedAffinity -2.17447758
REMARK minimizedRMSD -1
REMARK  0 active torsions:
REMARK  status: ('A' for Active; 'I' for Inactive)
ROOT
ATOM      1  C   UNL d   1       2.015  -0.589  -1.304  0.00  0.00     0.124 A 
ATOM      2  C1  UNL d   1       1.339  -1.749  -0.954  0.00  0.00     0.062 A 
ATOM      3  C2  UNL d   1       0.247  -1.691  -0.093  0.00  0.00     0.162 A 
ATOM      4  C3  UNL d   1      -0.178  -0.467   0.423  0.00  0.00    -0.034 A 
ATOM      5  C4  UNL d   1       0.507   0.696   0.067  0.00  0.00     0.162 A 
ATOM      6  C5  UNL d   1       1.599   0.633  -0.793  0.00  0.00     0.062 A 
ATOM      7  F   UNL d   1       2.250   1.755  -1.130  0.00  0.00    -0.097 F 
ATOM      8  F1  UNL d   1       0.126   1.890   0.545  0.00  0.00    -0.096 F 
ATOM      9  I   UNL d   1      -1.811  -0.375   1.710  0.00  0.00    -0.060 I 
ATOM     10  F2  UNL d   1      -0.388  -2.829   0.228  0.00  0.00    -0.096 F 
ATOM     11  F3  UNL d   1       1.740  -2.931  -1.445  0.00  0.00    -0.097 F 
ATOM     12  F4  UNL d   1       3.066  -0.648  -2.131  0.00  0.00    -0.092 F 
ENDROOT
TORSDOF 0
ENDMDL
