MODEL 1
REMARK minimizedAffinity -2.3414259
REMARK minimizedRMSD -1
REMARK  0 active torsions:
REMARK  status: ('A' for Active; 'I' for Inactive)
ROOT
ATOM      1  C   UNL d   1       2.370  -0.741  -1.616  0.00  0.00     0.124 A 
ATOM      2  C1  UNL d   1       2.157   0.557  -1.172  0.00  0.00     0.062 A 
ATOM      3  C2  UNL d   1       1.085   0.843  -0.332  0.00  0.00     0.162 A 
ATOM      4  C3  UNL d   1       0.217  -0.172   0.071  0.00  0.00    -0.034 A 
ATOM      5  C4  UNL d   1       0.436  -1.474  -0.380  0.00  0.00     0.162 A 
ATOM      6  C5  UNL d   1       1.509  -1.755  -1.220  0.00  0.00     0.062 A 
ATOM      7  F   UNL d   1       1.713  -3.009  -1.648  0.00  0.00    -0.097 F 
ATOM      8  F1  UNL d   1      -0.379  -2.474  -0.012  0.00  0.00    -0.096 F 
ATOM      9  I   UNL d   1      -1.388   0.251   1.327  0.00  0.00    -0.060 I 
ATOM     10  F2  UNL d   1       0.904   2.106   0.082  0.00  0.00    -0.096 F 
ATOM     11  F3  UNL d   1       2.986   1.539  -1.554  0.00  0.00    -0.097 F 
ATOM     12  F4  UNL d   1       3.401  -1.013  -2.425  0.00  0.00    -0.092 F 
ENDROOT
TORSDOF 0
ENDMDL
