MODEL 1
REMARK minimizedAffinity -4.70554352
REMARK minimizedRMSD -1
REMARK  0 active torsions:
REMARK  status: ('A' for Active; 'I' for Inactive)
ROOT
ATOM      1  C   UNL d   1       0.828  -0.032  -1.256  0.00  0.00     0.124 A 
ATOM      2  C1  UNL d   1      -0.011   1.052  -1.036  0.00  0.00     0.062 A 
ATOM      3  C2  UNL d   1      -0.764   1.129   0.132  0.00  0.00     0.162 A 
ATOM      4  C3  UNL d   1      -0.681   0.119   1.091  0.00  0.00    -0.034 A 
ATOM      5  C4  UNL d   1       0.164  -0.969   0.862  0.00  0.00     0.162 A 
ATOM      6  C5  UNL d   1       0.915  -1.041  -0.307  0.00  0.00     0.062 A 
ATOM      7  F   UNL d   1       1.725  -2.089  -0.517  0.00  0.00    -0.097 F 
ATOM      8  F1  UNL d   1       0.268  -1.957   1.763  0.00  0.00    -0.096 F 
ATOM      9  I   UNL d   1      -1.805   0.230   2.839  0.00  0.00    -0.060 I 
ATOM     10  F2  UNL d   1      -1.566   2.187   0.318  0.00  0.00    -0.096 F 
ATOM     11  F3  UNL d   1      -0.097   2.028  -1.951  0.00  0.00    -0.097 F 
ATOM     12  F4  UNL d   1       1.550  -0.104  -2.381  0.00  0.00    -0.092 F 
ENDROOT
TORSDOF 0
ENDMDL
