MODEL 1
REMARK minimizedAffinity 1.5495007
REMARK minimizedRMSD -1
REMARK  0 active torsions:
REMARK  status: ('A' for Active; 'I' for Inactive)
ROOT
ATOM      1  C   UNL d   1      -1.025  -0.059   0.090  0.00  0.00     0.124 A 
ATOM      2  C1  UNL d   1      -0.319  -1.223  -0.183  0.00  0.00     0.062 A 
ATOM      3  C2  UNL d   1       0.882  -1.164  -0.884  0.00  0.00     0.162 A 
ATOM      4  C3  UNL d   1       1.387   0.062  -1.315  0.00  0.00    -0.034 A 
ATOM      5  C4  UNL d   1       0.671   1.228  -1.037  0.00  0.00     0.162 A 
ATOM      6  C5  UNL d   1      -0.529   1.165  -0.337  0.00  0.00     0.062 A 
ATOM      7  F   UNL d   1      -1.210   2.290  -0.073  0.00  0.00    -0.097 F 
ATOM      8  F1  UNL d   1       1.127   2.424  -1.437  0.00  0.00    -0.096 F 
ATOM      9  I   UNL d   1       3.182   0.154  -2.363  0.00  0.00    -0.060 I 
ATOM     10  F2  UNL d   1       1.543  -2.305  -1.134  0.00  0.00    -0.096 F 
ATOM     11  F3  UNL d   1      -0.796  -2.407   0.228  0.00  0.00    -0.097 F 
ATOM     12  F4  UNL d   1      -2.181  -0.118   0.764  0.00  0.00    -0.092 F 
ENDROOT
TORSDOF 0
ENDMDL
