MODEL 1
REMARK minimizedAffinity 4.70859671
REMARK minimizedRMSD -1
REMARK  0 active torsions:
REMARK  status: ('A' for Active; 'I' for Inactive)
ROOT
ATOM      1  C1  BNZ d   1      -0.214  -0.874  -3.159  0.00  0.00     0.000 A 
ATOM      2  C2  BNZ d   1       1.112  -0.533  -3.119  0.00  0.00     0.000 A 
ATOM      3  C3  BNZ d   1       1.850  -0.456  -4.267  0.00  0.00     0.000 A 
ATOM      4  C4  BNZ d   1       1.272  -0.761  -5.448  0.00  0.00     0.000 A 
ATOM      5  C5  BNZ d   1      -0.061  -1.116  -5.503  0.00  0.00     0.000 A 
ATOM      6  C6  BNZ d   1      -0.810  -1.154  -4.349  0.00  0.00     0.000 A 
ENDROOT
TORSDOF 0
ENDMDL
