MODEL 1
REMARK minimizedAffinity 15.3347349
REMARK minimizedRMSD -1
REMARK  0 active torsions:
REMARK  status: ('A' for Active; 'I' for Inactive)
ROOT
ATOM      1  C1  BNZ d   1       0.106   1.671   3.378  0.00  0.00     0.000 A 
ATOM      2  C2  BNZ d   1       1.082   0.924   3.981  0.00  0.00     0.000 A 
ATOM      3  C3  BNZ d   1       1.447  -0.291   3.474  0.00  0.00     0.000 A 
ATOM      4  C4  BNZ d   1       0.809  -0.776   2.390  0.00  0.00     0.000 A 
ATOM      5  C5  BNZ d   1      -0.184  -0.039   1.775  0.00  0.00     0.000 A 
ATOM      6  C6  BNZ d   1      -0.522   1.202   2.266  0.00  0.00     0.000 A 
ENDROOT
TORSDOF 0
ENDMDL
