MODEL 1
REMARK minimizedAffinity 4.9630127
REMARK minimizedRMSD -1
REMARK  0 active torsions:
REMARK  status: ('A' for Active; 'I' for Inactive)
ROOT
ATOM      1  C1  BNZ d   1       0.790   0.075   3.042  0.00  0.00     0.000 A 
ATOM      2  C2  BNZ d   1       1.190   0.369   4.318  0.00  0.00     0.000 A 
ATOM      3  C3  BNZ d   1       0.626   1.407   5.007  0.00  0.00     0.000 A 
ATOM      4  C4  BNZ d   1      -0.307   2.172   4.405  0.00  0.00     0.000 A 
ATOM      5  C5  BNZ d   1      -0.714   1.894   3.116  0.00  0.00     0.000 A 
ATOM      6  C6  BNZ d   1      -0.173   0.825   2.439  0.00  0.00     0.000 A 
ENDROOT
TORSDOF 0
ENDMDL
