MODEL 1
REMARK minimizedAffinity 8.38529968
REMARK minimizedRMSD -1
REMARK  0 active torsions:
REMARK  status: ('A' for Active; 'I' for Inactive)
ROOT
ATOM      1  C1  BNZ d   1       1.114  -1.834   3.623  0.00  0.00     0.000 A 
ATOM      2  C2  BNZ d   1       0.412  -1.429   2.519  0.00  0.00     0.000 A 
ATOM      3  C3  BNZ d   1       0.082  -0.114   2.343  0.00  0.00     0.000 A 
ATOM      4  C4  BNZ d   1       0.419   0.786   3.289  0.00  0.00     0.000 A 
ATOM      5  C5  BNZ d   1       1.118   0.392   4.412  0.00  0.00     0.000 A 
ATOM      6  C6  BNZ d   1       1.483  -0.926   4.567  0.00  0.00     0.000 A 
ENDROOT
TORSDOF 0
ENDMDL
