MODEL 1
REMARK minimizedAffinity 12.3776693
REMARK minimizedRMSD -1
REMARK  0 active torsions:
REMARK  status: ('A' for Active; 'I' for Inactive)
ROOT
ATOM      1  C1  BNZ d   1       2.563   0.538   2.973  0.00  0.00     0.000 A 
ATOM      2  C2  BNZ d   1       2.813   0.588   4.319  0.00  0.00     0.000 A 
ATOM      3  C3  BNZ d   1       4.089   0.721   4.789  0.00  0.00     0.000 A 
ATOM      4  C4  BNZ d   1       5.116   0.765   3.916  0.00  0.00     0.000 A 
ATOM      5  C5  BNZ d   1       4.881   0.707   2.557  0.00  0.00     0.000 A 
ATOM      6  C6  BNZ d   1       3.592   0.611   2.086  0.00  0.00     0.000 A 
ENDROOT
TORSDOF 0
ENDMDL
