MODEL 1
REMARK minimizedAffinity 1.21197724
REMARK minimizedRMSD -1
REMARK  0 active torsions:
REMARK  status: ('A' for Active; 'I' for Inactive)
ROOT
ATOM      1  C1  BNZ d   1       5.116   1.114  -4.236  0.00  0.00     0.000 A 
ATOM      2  C2  BNZ d   1       5.991   2.116  -3.908  0.00  0.00     0.000 A 
ATOM      3  C3  BNZ d   1       6.000   3.292  -4.604  0.00  0.00     0.000 A 
ATOM      4  C4  BNZ d   1       5.164   3.451  -5.650  0.00  0.00     0.000 A 
ATOM      5  C5  BNZ d   1       4.283   2.447  -5.999  0.00  0.00     0.000 A 
ATOM      6  C6  BNZ d   1       4.249   1.279  -5.272  0.00  0.00     0.000 A 
ENDROOT
TORSDOF 0
ENDMDL
