MODEL 1
REMARK minimizedAffinity 7.30247402
REMARK minimizedRMSD -1
REMARK  0 active torsions:
REMARK  status: ('A' for Active; 'I' for Inactive)
ROOT
ATOM      1  C1  BNZ d   1      -5.170   0.231  -1.894  0.00  0.00     0.000 A 
ATOM      2  C2  BNZ d   1      -5.546   1.500  -1.542  0.00  0.00     0.000 A 
ATOM      3  C3  BNZ d   1      -5.023   2.102  -0.432  0.00  0.00     0.000 A 
ATOM      4  C4  BNZ d   1      -4.156   1.421   0.345  0.00  0.00     0.000 A 
ATOM      5  C5  BNZ d   1      -3.775   0.138   0.008  0.00  0.00     0.000 A 
ATOM      6  C6  BNZ d   1      -4.274  -0.451  -1.131  0.00  0.00     0.000 A 
ENDROOT
TORSDOF 0
ENDMDL
