MODEL 1
REMARK minimizedAffinity 8.28833294
REMARK minimizedRMSD -1
REMARK  0 active torsions:
REMARK  status: ('A' for Active; 'I' for Inactive)
ROOT
ATOM      1  C1  BNZ d   1       2.388  -2.102  -4.725  0.00  0.00     0.000 A 
ATOM      2  C2  BNZ d   1       2.112  -0.821  -4.328  0.00  0.00     0.000 A 
ATOM      3  C3  BNZ d   1       0.906  -0.244  -4.612  0.00  0.00     0.000 A 
ATOM      4  C4  BNZ d   1      -0.006  -0.933  -5.327  0.00  0.00     0.000 A 
ATOM      5  C5  BNZ d   1       0.261  -2.223  -5.743  0.00  0.00     0.000 A 
ATOM      6  C6  BNZ d   1       1.461  -2.814  -5.422  0.00  0.00     0.000 A 
ENDROOT
TORSDOF 0
ENDMDL
