MODEL 1
REMARK minimizedAffinity 7.87876129
REMARK minimizedRMSD -1
REMARK  0 active torsions:
REMARK  status: ('A' for Active; 'I' for Inactive)
ROOT
ATOM      1  C1  BNZ d   1       1.265  -0.726  -4.706  0.00  0.00     0.000 A 
ATOM      2  C2  BNZ d   1       0.405  -0.405  -3.689  0.00  0.00     0.000 A 
ATOM      3  C3  BNZ d   1      -0.757  -1.102  -3.509  0.00  0.00     0.000 A 
ATOM      4  C4  BNZ d   1      -1.076  -2.092  -4.368  0.00  0.00     0.000 A 
ATOM      5  C5  BNZ d   1      -0.224  -2.421  -5.403  0.00  0.00     0.000 A 
ATOM      6  C6  BNZ d   1       0.964  -1.743  -5.558  0.00  0.00     0.000 A 
ENDROOT
TORSDOF 0
ENDMDL
