MODEL 1
REMARK minimizedAffinity -2.58320069
REMARK minimizedRMSD -1
REMARK  0 active torsions:
REMARK  status: ('A' for Active; 'I' for Inactive)
ROOT
ATOM      1  C   UNL d   1      -1.391  -0.891   1.580  0.00  0.00     0.020 A 
ATOM      2  C1  UNL d   1      -1.029  -0.770   0.239  0.00  0.00     0.020 A 
ATOM      3  C2  UNL d   1       0.320  -0.757  -0.121  0.00  0.00     0.034 A 
ATOM      4  C3  UNL d   1       1.312  -0.865   0.860  0.00  0.00     0.017 A 
ATOM      5  C4  UNL d   1       0.948  -0.987   2.206  0.00  0.00     0.017 A 
ATOM      6  C5  UNL d   1      -0.405  -0.999   2.562  0.00  0.00     0.034 A 
ATOM      7 Cl   UNL d   1       2.115  -1.125   3.473  0.00  0.00    -0.070 Cl
ATOM      8 Cl1  UNL d   1       2.960  -0.842   0.342  0.00  0.00    -0.070 Cl
ENDROOT
TORSDOF 0
ENDMDL
