MODEL 1
REMARK minimizedAffinity 2.5099299
REMARK minimizedRMSD -1
REMARK  0 active torsions:
REMARK  status: ('A' for Active; 'I' for Inactive)
ROOT
ATOM      1  C   UNL d   1       0.525  -1.571   2.891  0.00  0.00     0.020 A 
ATOM      2  C1  UNL d   1       1.861  -1.175   2.861  0.00  0.00     0.020 A 
ATOM      3  C2  UNL d   1       2.334  -0.394   1.804  0.00  0.00     0.034 A 
ATOM      4  C3  UNL d   1       1.470  -0.007   0.773  0.00  0.00     0.017 A 
ATOM      5  C4  UNL d   1       0.128  -0.405   0.804  0.00  0.00     0.017 A 
ATOM      6  C5  UNL d   1      -0.340  -1.187   1.865  0.00  0.00     0.034 A 
ATOM      7 Cl   UNL d   1      -0.998   0.033  -0.431  0.00  0.00    -0.070 Cl
ATOM      8 Cl1  UNL d   1       2.122   0.959  -0.502  0.00  0.00    -0.070 Cl
ENDROOT
TORSDOF 0
ENDMDL
