MODEL 1
REMARK minimizedAffinity -1.8570044
REMARK minimizedRMSD -1
REMARK  0 active torsions:
REMARK  status: ('A' for Active; 'I' for Inactive)
ROOT
ATOM      1  C   UNL d   1      -1.374  -0.830   1.792  0.00  0.00     0.020 A 
ATOM      2  C1  UNL d   1      -1.128  -0.391   0.491  0.00  0.00     0.020 A 
ATOM      3  C2  UNL d   1       0.186  -0.220   0.049  0.00  0.00     0.034 A 
ATOM      4  C3  UNL d   1       1.258  -0.489   0.908  0.00  0.00     0.017 A 
ATOM      5  C4  UNL d   1       1.010  -0.929   2.213  0.00  0.00     0.017 A 
ATOM      6  C5  UNL d   1      -0.308  -1.099   2.650  0.00  0.00     0.034 A 
ATOM      7 Cl   UNL d   1       2.281  -1.281   3.330  0.00  0.00    -0.070 Cl
ATOM      8 Cl1  UNL d   1       2.856  -0.256   0.294  0.00  0.00    -0.070 Cl
ENDROOT
TORSDOF 0
ENDMDL
