MODEL 1
REMARK minimizedAffinity -3.5083499
REMARK minimizedRMSD -1
REMARK  0 active torsions:
REMARK  status: ('A' for Active; 'I' for Inactive)
ROOT
ATOM      1  C   UNL d   1       2.159  -0.524   1.639  0.00  0.00     0.020 A 
ATOM      2  C1  UNL d   1       1.313  -0.935   2.669  0.00  0.00     0.020 A 
ATOM      3  C2  UNL d   1      -0.071  -0.822   2.522  0.00  0.00     0.034 A 
ATOM      4  C3  UNL d   1      -0.614  -0.299   1.343  0.00  0.00     0.017 A 
ATOM      5  C4  UNL d   1       0.236   0.113   0.310  0.00  0.00     0.017 A 
ATOM      6  C5  UNL d   1       1.621  -0.002   0.462  0.00  0.00     0.034 A 
ATOM      7 Cl   UNL d   1      -0.360   0.769  -1.174  0.00  0.00    -0.070 Cl
ATOM      8 Cl1  UNL d   1      -2.335  -0.189   1.230  0.00  0.00    -0.070 Cl
ENDROOT
TORSDOF 0
ENDMDL
