MODEL 1
REMARK minimizedAffinity -3.74122071
REMARK minimizedRMSD -1
REMARK  0 active torsions:
REMARK  status: ('A' for Active; 'I' for Inactive)
ROOT
ATOM      1  C   UNL d   1       2.237  -1.898   1.971  0.00  0.00     0.020 A 
ATOM      2  C1  UNL d   1       2.647  -1.846   0.640  0.00  0.00     0.020 A 
ATOM      3  C2  UNL d   1       1.877  -1.161  -0.302  0.00  0.00     0.034 A 
ATOM      4  C3  UNL d   1       0.692  -0.525   0.086  0.00  0.00     0.017 A 
ATOM      5  C4  UNL d   1       0.281  -0.578   1.422  0.00  0.00     0.017 A 
ATOM      6  C5  UNL d   1       1.056  -1.265   2.362  0.00  0.00     0.034 A 
ATOM      7 Cl   UNL d   1      -1.169   0.183   1.976  0.00  0.00    -0.070 Cl
ATOM      8 Cl1  UNL d   1      -0.211   0.304  -1.132  0.00  0.00    -0.070 Cl
ENDROOT
TORSDOF 0
ENDMDL
