MODEL 1
REMARK minimizedAffinity 0.687424779
REMARK minimizedRMSD -1
REMARK  0 active torsions:
REMARK  status: ('A' for Active; 'I' for Inactive)
ROOT
ATOM      1  C   UNL d   1      -0.946  -0.279   2.246  0.00  0.00     0.020 A 
ATOM      2  C1  UNL d   1      -1.016   0.320   0.988  0.00  0.00     0.020 A 
ATOM      3  C2  UNL d   1      -0.108  -0.043  -0.009  0.00  0.00     0.034 A 
ATOM      4  C3  UNL d   1       0.874  -1.006   0.250  0.00  0.00     0.017 A 
ATOM      5  C4  UNL d   1       0.944  -1.606   1.512  0.00  0.00     0.017 A 
ATOM      6  C5  UNL d   1       0.032  -1.239   2.507  0.00  0.00     0.034 A 
ATOM      7 Cl   UNL d   1       2.128  -2.801   1.906  0.00  0.00    -0.070 Cl
ATOM      8 Cl1  UNL d   1       1.964  -1.406  -1.030  0.00  0.00    -0.070 Cl
ENDROOT
TORSDOF 0
ENDMDL
