MODEL 1
REMARK minimizedAffinity -3.24418354
REMARK minimizedRMSD -1
REMARK  0 active torsions:
REMARK  status: ('A' for Active; 'I' for Inactive)
ROOT
ATOM      1  C   UNL d   1       0.422  -0.994   2.967  0.00  0.00     0.020 A 
ATOM      2  C1  UNL d   1      -0.687  -0.393   2.372  0.00  0.00     0.020 A 
ATOM      3  C2  UNL d   1      -0.733  -0.232   0.986  0.00  0.00     0.034 A 
ATOM      4  C3  UNL d   1       0.331  -0.671   0.190  0.00  0.00     0.017 A 
ATOM      5  C4  UNL d   1       1.444  -1.273   0.789  0.00  0.00     0.017 A 
ATOM      6  C5  UNL d   1       1.485  -1.433   2.177  0.00  0.00     0.034 A 
ATOM      7 Cl   UNL d   1       2.795  -1.841  -0.127  0.00  0.00    -0.070 Cl
ATOM      8 Cl1  UNL d   1       0.207  -0.439  -1.518  0.00  0.00    -0.070 Cl
ENDROOT
TORSDOF 0
ENDMDL
