MODEL 1
REMARK minimizedAffinity -0.558555782
REMARK minimizedRMSD -1
REMARK  0 active torsions:
REMARK  status: ('A' for Active; 'I' for Inactive)
ROOT
ATOM      1  C   UNL d   1      -1.120  -1.116   0.502  0.00  0.00     0.020 A 
ATOM      2  C1  UNL d   1      -1.375  -1.268   1.864  0.00  0.00     0.020 A 
ATOM      3  C2  UNL d   1      -0.315  -1.297   2.774  0.00  0.00     0.034 A 
ATOM      4  C3  UNL d   1       1.004  -1.173   2.322  0.00  0.00     0.017 A 
ATOM      5  C4  UNL d   1       1.259  -1.021   0.955  0.00  0.00     0.017 A 
ATOM      6  C5  UNL d   1       0.194  -0.993   0.048  0.00  0.00     0.034 A 
ATOM      7 Cl   UNL d   1       2.859  -0.862   0.322  0.00  0.00    -0.070 Cl
ATOM      8 Cl1  UNL d   1       2.264  -1.217   3.503  0.00  0.00    -0.070 Cl
ENDROOT
TORSDOF 0
ENDMDL
