MODEL 1
REMARK minimizedAffinity 5.32028389
REMARK minimizedRMSD -1
REMARK  1 active torsions:
REMARK  status: ('A' for Active; 'I' for Inactive)
REMARK    1  A    between atoms: C1_2  and  C2_3 
ROOT
ATOM      1  C2  UNL d   1       1.911  -2.258   3.249  0.00  0.00    -0.076 A 
ATOM      2  C3  UNL d   1       0.634  -1.938   3.742  0.00  0.00     0.004 A 
ATOM      3  C4  UNL d   1       0.356  -1.999   5.106  0.00  0.00    -0.003 A 
ATOM      4  C5  UNL d   1       1.350  -2.381   6.000  0.00  0.00     0.000 A 
ATOM      5  C6  UNL d   1       2.628  -2.684   5.530  0.00  0.00     0.000 A 
ATOM      6  C7  UNL d   1       2.929  -2.612   4.159  0.00  0.00    -0.073 A 
ATOM      7  C8  UNL d   1       4.322  -2.956   3.708  0.00  0.00     0.078 C 
ENDROOT
BRANCH   1   8
ATOM      8  C1  UNL d   1       2.147  -2.200   1.756  0.00  0.00     0.053 C 
ATOM      9  C   UNL d   1       2.152  -0.776   1.222  0.00  0.00     0.018 C 
ENDBRANCH   1   8
TORSDOF 1
ENDMDL
