MODEL 1
REMARK minimizedAffinity 5.33236265
REMARK minimizedRMSD -1
REMARK  1 active torsions:
REMARK  status: ('A' for Active; 'I' for Inactive)
REMARK    1  A    between atoms: C1_2  and  C2_3 
ROOT
ATOM      1  C2  UNL d   1      -3.003  -1.739  -0.638  0.00  0.00    -0.076 A 
ATOM      2  C3  UNL d   1      -4.347  -2.148  -0.700  0.00  0.00     0.004 A 
ATOM      3  C4  UNL d   1      -5.276  -1.443  -1.462  0.00  0.00    -0.003 A 
ATOM      4  C5  UNL d   1      -4.878  -0.318  -2.176  0.00  0.00     0.000 A 
ATOM      5  C6  UNL d   1      -3.545   0.092  -2.140  0.00  0.00     0.000 A 
ATOM      6  C7  UNL d   1      -2.592  -0.617  -1.389  0.00  0.00    -0.073 A 
ATOM      7  C8  UNL d   1      -1.170  -0.127  -1.381  0.00  0.00     0.078 C 
ENDROOT
BRANCH   1   8
ATOM      8  C1  UNL d   1      -2.045  -2.526   0.228  0.00  0.00     0.053 C 
ATOM      9  C   UNL d   1      -1.318  -3.614  -0.548  0.00  0.00     0.018 C 
ENDBRANCH   1   8
TORSDOF 1
ENDMDL
