MODEL 1
REMARK minimizedAffinity 8.39808273
REMARK minimizedRMSD -1
REMARK  1 active torsions:
REMARK  status: ('A' for Active; 'I' for Inactive)
REMARK    1  A    between atoms: C1_2  and  C2_3 
ROOT
ATOM      1  C2  UNL d   1       2.385  -2.141   4.211  0.00  0.00    -0.076 A 
ATOM      2  C3  UNL d   1       3.238  -2.662   5.199  0.00  0.00     0.004 A 
ATOM      3  C4  UNL d   1       4.598  -2.842   4.950  0.00  0.00    -0.003 A 
ATOM      4  C5  UNL d   1       5.127  -2.503   3.710  0.00  0.00     0.000 A 
ATOM      5  C6  UNL d   1       4.298  -1.968   2.724  0.00  0.00     0.000 A 
ATOM      6  C7  UNL d   1       2.928  -1.766   2.963  0.00  0.00    -0.073 A 
ATOM      7  C8  UNL d   1       2.080  -1.191   1.862  0.00  0.00     0.078 C 
ENDROOT
BRANCH   1   8
ATOM      8  C1  UNL d   1       0.914  -1.995   4.528  0.00  0.00     0.053 C 
ATOM      9  C   UNL d   1       0.666  -1.621   5.982  0.00  0.00     0.018 C 
ENDBRANCH   1   8
TORSDOF 1
ENDMDL
