MODEL 1
REMARK minimizedAffinity 6.0188179
REMARK minimizedRMSD -1
REMARK  1 active torsions:
REMARK  status: ('A' for Active; 'I' for Inactive)
REMARK    1  A    between atoms: C1_2  and  C2_3 
ROOT
ATOM      1  C2  UNL d   1      -2.656  -2.682   0.025  0.00  0.00    -0.076 A 
ATOM      2  C3  UNL d   1      -2.578  -3.841   0.816  0.00  0.00     0.004 A 
ATOM      3  C4  UNL d   1      -1.433  -4.636   0.814  0.00  0.00    -0.003 A 
ATOM      4  C5  UNL d   1      -0.347  -4.284   0.021  0.00  0.00     0.000 A 
ATOM      5  C6  UNL d   1      -0.400  -3.128  -0.757  0.00  0.00     0.000 A 
ATOM      6  C7  UNL d   1      -1.540  -2.307  -0.754  0.00  0.00    -0.073 A 
ATOM      7  C8  UNL d   1      -1.545  -1.075  -1.617  0.00  0.00     0.078 C 
ENDROOT
BRANCH   1   8
ATOM      8  C1  UNL d   1      -3.934  -1.874   0.047  0.00  0.00     0.053 C 
ATOM      9  C   UNL d   1      -5.175  -2.749   0.132  0.00  0.00     0.018 C 
ENDBRANCH   1   8
TORSDOF 1
ENDMDL
