MODEL 1
REMARK minimizedAffinity 4.09702969
REMARK minimizedRMSD -1
REMARK  1 active torsions:
REMARK  status: ('A' for Active; 'I' for Inactive)
REMARK    1  A    between atoms: C1_2  and  C2_3 
ROOT
ATOM      1  C2  UNL d   1      -3.150   0.270  -1.797  0.00  0.00    -0.076 A 
ATOM      2  C3  UNL d   1      -4.048  -0.508  -2.548  0.00  0.00     0.004 A 
ATOM      3  C4  UNL d   1      -3.590  -1.394  -3.521  0.00  0.00    -0.003 A 
ATOM      4  C5  UNL d   1      -2.225  -1.517  -3.759  0.00  0.00     0.000 A 
ATOM      5  C6  UNL d   1      -1.319  -0.767  -3.011  0.00  0.00     0.000 A 
ATOM      6  C7  UNL d   1      -1.763   0.119  -2.015  0.00  0.00    -0.073 A 
ATOM      7  C8  UNL d   1      -0.742   0.909  -1.243  0.00  0.00     0.078 C 
ENDROOT
BRANCH   1   8
ATOM      8  C1  UNL d   1      -3.706   1.234  -0.774  0.00  0.00     0.053 C 
ATOM      9  C   UNL d   1      -4.926   0.680  -0.054  0.00  0.00     0.018 C 
ENDBRANCH   1   8
TORSDOF 1
ENDMDL
