MODEL 1
REMARK minimizedAffinity -0.532764435
REMARK minimizedRMSD -1
REMARK  1 active torsions:
REMARK  status: ('A' for Active; 'I' for Inactive)
REMARK    1  A    between atoms: C1_2  and  C2_3 
ROOT
ATOM      1  C2  UNL d   1       0.760   0.364   1.635  0.00  0.00    -0.076 A 
ATOM      2  C3  UNL d   1      -0.196   1.251   2.160  0.00  0.00     0.004 A 
ATOM      3  C4  UNL d   1      -0.976   2.044   1.320  0.00  0.00    -0.003 A 
ATOM      4  C5  UNL d   1      -0.814   1.962  -0.058  0.00  0.00     0.000 A 
ATOM      5  C6  UNL d   1       0.117   1.075  -0.597  0.00  0.00     0.000 A 
ATOM      6  C7  UNL d   1       0.900   0.256   0.235  0.00  0.00    -0.073 A 
ATOM      7  C8  UNL d   1       1.893  -0.678  -0.400  0.00  0.00     0.078 C 
ENDROOT
BRANCH   1   8
ATOM      8  C1  UNL d   1       1.596  -0.451   2.596  0.00  0.00     0.053 C 
ATOM      9  C   UNL d   1       0.802  -0.924   3.803  0.00  0.00     0.018 C 
ENDBRANCH   1   8
TORSDOF 1
ENDMDL
