MODEL 1
REMARK minimizedAffinity 7.95922804
REMARK minimizedRMSD -1
REMARK  1 active torsions:
REMARK  status: ('A' for Active; 'I' for Inactive)
REMARK    1  A    between atoms: C1_2  and  C2_3 
ROOT
ATOM      1  C2  UNL d   1      -2.042   2.299  -1.392  0.00  0.00    -0.076 A 
ATOM      2  C3  UNL d   1      -0.772   1.791  -1.066  0.00  0.00     0.004 A 
ATOM      3  C4  UNL d   1       0.317   2.643  -0.889  0.00  0.00    -0.003 A 
ATOM      4  C5  UNL d   1       0.155   4.016  -1.034  0.00  0.00     0.000 A 
ATOM      5  C6  UNL d   1      -1.101   4.539  -1.340  0.00  0.00     0.000 A 
ATOM      6  C7  UNL d   1      -2.214   3.696  -1.506  0.00  0.00    -0.073 A 
ATOM      7  C8  UNL d   1      -3.544   4.313  -1.842  0.00  0.00     0.078 C 
ENDROOT
BRANCH   1   8
ATOM      8  C1  UNL d   1      -3.180   1.326  -1.599  0.00  0.00     0.053 C 
ATOM      9  C   UNL d   1      -3.057   0.554  -2.904  0.00  0.00     0.018 C 
ENDBRANCH   1   8
TORSDOF 1
ENDMDL
