MODEL 1
REMARK minimizedAffinity -1.05994439
REMARK minimizedRMSD -1
REMARK  0 active torsions:
REMARK  status: ('A' for Active; 'I' for Inactive)
ROOT
ATOM      1  C   UNL d   1       0.175   2.954   0.177  0.00  0.00     0.023 A 
ATOM      2  C1  UNL d   1      -0.933   2.230   0.619  0.00  0.00     0.003 A 
ATOM      3  C2  UNL d   1      -0.947   0.838   0.510  0.00  0.00     0.048 A 
ATOM      4  C3  UNL d   1       0.149   0.176  -0.041  0.00  0.00     0.023 A 
ATOM      5  C4  UNL d   1       1.260   0.897  -0.485  0.00  0.00     0.048 A 
ATOM      6  C5  UNL d   1       1.269   2.288  -0.375  0.00  0.00     0.003 A 
ATOM      7  I   UNL d   1       0.130  -1.896  -0.204  0.00  0.00    -0.146 I 
ENDROOT
TORSDOF 0
ENDMDL
