MODEL 1
REMARK minimizedAffinity -3.11655569
REMARK minimizedRMSD -1
REMARK  0 active torsions:
REMARK  status: ('A' for Active; 'I' for Inactive)
ROOT
ATOM      1  C   UNL d   1      -0.455   2.826  -0.023  0.00  0.00     0.023 A 
ATOM      2  C1  UNL d   1       0.461   2.182  -0.856  0.00  0.00     0.003 A 
ATOM      3  C2  UNL d   1       0.530   0.788  -0.874  0.00  0.00     0.048 A 
ATOM      4  C3  UNL d   1      -0.319   0.043  -0.057  0.00  0.00     0.023 A 
ATOM      5  C4  UNL d   1      -1.238   0.682   0.777  0.00  0.00     0.048 A 
ATOM      6  C5  UNL d   1      -1.303   2.076   0.793  0.00  0.00     0.003 A 
ATOM      7  I   UNL d   1      -0.218  -2.033  -0.082  0.00  0.00    -0.146 I 
ENDROOT
TORSDOF 0
ENDMDL
