MODEL 1
REMARK minimizedAffinity -1.86062312
REMARK minimizedRMSD -1
REMARK  0 active torsions:
REMARK  status: ('A' for Active; 'I' for Inactive)
ROOT
ATOM      1  C   UNL d   1       0.315   2.815  -0.620  0.00  0.00     0.023 A 
ATOM      2  C1  UNL d   1       1.098   1.767  -1.105  0.00  0.00     0.003 A 
ATOM      3  C2  UNL d   1       0.763   0.446  -0.802  0.00  0.00     0.048 A 
ATOM      4  C3  UNL d   1      -0.357   0.179  -0.015  0.00  0.00     0.023 A 
ATOM      5  C4  UNL d   1      -1.143   1.224   0.472  0.00  0.00     0.048 A 
ATOM      6  C5  UNL d   1      -0.804   2.544   0.167  0.00  0.00     0.003 A 
ATOM      7  I   UNL d   1      -0.857  -1.787   0.437  0.00  0.00    -0.146 I 
ENDROOT
TORSDOF 0
ENDMDL
