MODEL 1
REMARK minimizedAffinity -4.40871477
REMARK minimizedRMSD -1
REMARK  0 active torsions:
REMARK  status: ('A' for Active; 'I' for Inactive)
ROOT
ATOM      1  C   UNL d   1      -0.231   3.364   0.078  0.00  0.00     0.023 A 
ATOM      2  C1  UNL d   1      -1.228   2.614   0.703  0.00  0.00     0.003 A 
ATOM      3  C2  UNL d   1      -1.143   1.220   0.728  0.00  0.00     0.048 A 
ATOM      4  C3  UNL d   1      -0.058   0.583   0.128  0.00  0.00     0.023 A 
ATOM      5  C4  UNL d   1       0.943   1.329  -0.498  0.00  0.00     0.048 A 
ATOM      6  C5  UNL d   1       0.853   2.722  -0.521  0.00  0.00     0.003 A 
ATOM      7  I   UNL d   1       0.071  -1.491   0.164  0.00  0.00    -0.146 I 
ENDROOT
TORSDOF 0
ENDMDL
