MODEL 1
REMARK minimizedAffinity -3.42239165
REMARK minimizedRMSD -1
REMARK  0 active torsions:
REMARK  status: ('A' for Active; 'I' for Inactive)
ROOT
ATOM      1  C   UNL d   1      -0.097   2.734   0.161  0.00  0.00     0.023 A 
ATOM      2  C1  UNL d   1      -0.974   2.002   0.962  0.00  0.00     0.003 A 
ATOM      3  C2  UNL d   1      -1.096   0.622   0.786  0.00  0.00     0.048 A 
ATOM      4  C3  UNL d   1      -0.337  -0.020  -0.192  0.00  0.00     0.023 A 
ATOM      5  C4  UNL d   1       0.542   0.708  -0.995  0.00  0.00     0.048 A 
ATOM      6  C5  UNL d   1       0.660   2.088  -0.816  0.00  0.00     0.003 A 
ATOM      7  I   UNL d   1      -0.517  -2.074  -0.456  0.00  0.00    -0.146 I 
ENDROOT
TORSDOF 0
ENDMDL
