MODEL 1
REMARK minimizedAffinity -4.36379194
REMARK minimizedRMSD -1
REMARK  0 active torsions:
REMARK  status: ('A' for Active; 'I' for Inactive)
ROOT
ATOM      1  C   UNL d   1       2.201   3.457   0.170  0.00  0.00     0.023 A 
ATOM      2  C1  UNL d   1       0.811   3.355   0.213  0.00  0.00     0.003 A 
ATOM      3  C2  UNL d   1       0.205   2.107   0.373  0.00  0.00     0.048 A 
ATOM      4  C3  UNL d   1       0.996   0.965   0.491  0.00  0.00     0.023 A 
ATOM      5  C4  UNL d   1       2.388   1.062   0.450  0.00  0.00     0.048 A 
ATOM      6  C5  UNL d   1       2.989   2.312   0.288  0.00  0.00     0.003 A 
ATOM      7  I   UNL d   1       0.098  -0.894   0.730  0.00  0.00    -0.146 I 
ENDROOT
TORSDOF 0
ENDMDL
