MODEL 1
REMARK minimizedAffinity -3.05707216
REMARK minimizedRMSD -1
REMARK  0 active torsions:
REMARK  status: ('A' for Active; 'I' for Inactive)
ROOT
ATOM      1  C   UNL d   1      -1.673   0.884   0.123  0.00  0.00     0.023 A 
ATOM      2  C1  UNL d   1      -1.259   2.213   0.223  0.00  0.00     0.003 A 
ATOM      3  C2  UNL d   1       0.067   2.510   0.544  0.00  0.00     0.048 A 
ATOM      4  C3  UNL d   1       0.975   1.474   0.762  0.00  0.00     0.023 A 
ATOM      5  C4  UNL d   1       0.565   0.143   0.662  0.00  0.00     0.048 A 
ATOM      6  C5  UNL d   1      -0.762  -0.149   0.342  0.00  0.00     0.003 A 
ATOM      7  I   UNL d   1       2.949   1.913   1.240  0.00  0.00    -0.146 I 
ENDROOT
TORSDOF 0
ENDMDL
