MODEL 1
REMARK minimizedAffinity -1.25397551
REMARK minimizedRMSD -1
REMARK  0 active torsions:
REMARK  status: ('A' for Active; 'I' for Inactive)
ROOT
ATOM      1  C   UNL d   1      -0.867  -3.467  -2.744  0.00  0.00     0.023 A 
ATOM      2  C1  UNL d   1       0.357  -2.818  -2.897  0.00  0.00     0.003 A 
ATOM      3  C2  UNL d   1       0.761  -1.856  -1.969  0.00  0.00     0.048 A 
ATOM      4  C3  UNL d   1      -0.065  -1.550  -0.888  0.00  0.00     0.023 A 
ATOM      5  C4  UNL d   1      -1.292  -2.198  -0.729  0.00  0.00     0.048 A 
ATOM      6  C5  UNL d   1      -1.691  -3.158  -1.661  0.00  0.00     0.003 A 
ATOM      7  I   UNL d   1       0.533  -0.120   0.496  0.00  0.00    -0.146 I 
ENDROOT
TORSDOF 0
ENDMDL
