MODEL 1
REMARK minimizedAffinity -2.15243292
REMARK minimizedRMSD -1
REMARK  0 active torsions:
REMARK  status: ('A' for Active; 'I' for Inactive)
ROOT
ATOM      1  C   UNL d   1       1.616   3.034  -0.430  0.00  0.00     0.023 A 
ATOM      2  C1  UNL d   1       1.766   1.669  -0.673  0.00  0.00     0.003 A 
ATOM      3  C2  UNL d   1       0.865   0.757  -0.118  0.00  0.00     0.048 A 
ATOM      4  C3  UNL d   1      -0.183   1.217   0.678  0.00  0.00     0.023 A 
ATOM      5  C4  UNL d   1      -0.337   2.583   0.923  0.00  0.00     0.048 A 
ATOM      6  C5  UNL d   1       0.567   3.491   0.367  0.00  0.00     0.003 A 
ATOM      7  I   UNL d   1      -1.525  -0.138   1.505  0.00  0.00    -0.146 I 
ENDROOT
TORSDOF 0
ENDMDL
