MODEL 1
REMARK minimizedAffinity -2.94126368
REMARK minimizedRMSD -1
REMARK  0 active torsions:
REMARK  status: ('A' for Active; 'I' for Inactive)
ROOT
ATOM      1  C   UNL d   1       0.065   3.000   0.094  0.00  0.00     0.023 A 
ATOM      2  C1  UNL d   1      -0.558   2.207   1.057  0.00  0.00     0.003 A 
ATOM      3  C2  UNL d   1      -0.669   0.828   0.862  0.00  0.00     0.048 A 
ATOM      4  C3  UNL d   1      -0.153   0.250  -0.297  0.00  0.00     0.023 A 
ATOM      5  C4  UNL d   1       0.472   1.040  -1.263  0.00  0.00     0.048 A 
ATOM      6  C5  UNL d   1       0.580   2.418  -1.065  0.00  0.00     0.003 A 
ATOM      7  I   UNL d   1      -0.317  -1.801  -0.588  0.00  0.00    -0.146 I 
ENDROOT
TORSDOF 0
ENDMDL
