MODEL 1
REMARK minimizedAffinity -3.9403584
REMARK minimizedRMSD -1
REMARK  0 active torsions:
REMARK  status: ('A' for Active; 'I' for Inactive)
ROOT
ATOM      1  C   UNL d   1      -0.532   3.284  -0.384  0.00  0.00     0.023 A 
ATOM      2  C1  UNL d   1      -0.966   2.730   0.821  0.00  0.00     0.003 A 
ATOM      3  C2  UNL d   1      -0.680   1.397   1.122  0.00  0.00     0.048 A 
ATOM      4  C3  UNL d   1       0.041   0.623   0.213  0.00  0.00     0.023 A 
ATOM      5  C4  UNL d   1       0.478   1.172  -0.993  0.00  0.00     0.048 A 
ATOM      6  C5  UNL d   1       0.189   2.506  -1.290  0.00  0.00     0.003 A 
ATOM      7  I   UNL d   1       0.468  -1.362   0.659  0.00  0.00    -0.146 I 
ENDROOT
TORSDOF 0
ENDMDL
