MODEL 1
REMARK minimizedAffinity -4.1276722
REMARK minimizedRMSD -1
REMARK  0 active torsions:
REMARK  status: ('A' for Active; 'I' for Inactive)
ROOT
ATOM      1  C   UNL d   1      -0.007   3.480   0.235  0.00  0.00     0.023 A 
ATOM      2  C1  UNL d   1      -1.140   2.750   0.596  0.00  0.00     0.003 A 
ATOM      3  C2  UNL d   1      -1.135   1.357   0.498  0.00  0.00     0.048 A 
ATOM      4  C3  UNL d   1       0.006   0.700   0.040  0.00  0.00     0.023 A 
ATOM      5  C4  UNL d   1       1.142   1.426  -0.321  0.00  0.00     0.048 A 
ATOM      6  C5  UNL d   1       1.132   2.818  -0.223  0.00  0.00     0.003 A 
ATOM      7  I   UNL d   1       0.016  -1.373  -0.106  0.00  0.00    -0.146 I 
ENDROOT
TORSDOF 0
ENDMDL
