MODEL 1
REMARK minimizedAffinity -1.23228991
REMARK minimizedRMSD -1
REMARK  0 active torsions:
REMARK  status: ('A' for Active; 'I' for Inactive)
ROOT
ATOM      1  C   UNL d   1       0.318  -1.642   0.142  0.00  0.00     0.023 A 
ATOM      2  C1  UNL d   1       1.432  -0.808   0.044  0.00  0.00     0.003 A 
ATOM      3  C2  UNL d   1       1.296   0.568   0.245  0.00  0.00     0.048 A 
ATOM      4  C3  UNL d   1       0.043   1.102   0.544  0.00  0.00     0.023 A 
ATOM      5  C4  UNL d   1      -1.074   0.271   0.644  0.00  0.00     0.048 A 
ATOM      6  C5  UNL d   1      -0.934  -1.103   0.441  0.00  0.00     0.003 A 
ATOM      7  I   UNL d   1      -0.162   3.149   0.843  0.00  0.00    -0.146 I 
ENDROOT
TORSDOF 0
ENDMDL
