MODEL 1
REMARK minimizedAffinity -0.826334059
REMARK minimizedRMSD -1
REMARK  0 active torsions:
REMARK  status: ('A' for Active; 'I' for Inactive)
ROOT
ATOM      1  C   UNL d   1      -2.081   0.994   0.532  0.00  0.00     0.023 A 
ATOM      2  C1  UNL d   1      -1.508  -0.251   0.270  0.00  0.00     0.003 A 
ATOM      3  C2  UNL d   1      -0.121  -0.405   0.315  0.00  0.00     0.048 A 
ATOM      4  C3  UNL d   1       0.687   0.689   0.624  0.00  0.00     0.023 A 
ATOM      5  C4  UNL d   1       0.118   1.936   0.887  0.00  0.00     0.048 A 
ATOM      6  C5  UNL d   1      -1.269   2.086   0.840  0.00  0.00     0.003 A 
ATOM      7  I   UNL d   1       2.752   0.461   0.691  0.00  0.00    -0.146 I 
ENDROOT
TORSDOF 0
ENDMDL
