MODEL 1
REMARK minimizedAffinity -2.55301094
REMARK minimizedRMSD -1
REMARK  0 active torsions:
REMARK  status: ('A' for Active; 'I' for Inactive)
ROOT
ATOM      1  C   UNL d   1       1.819   1.141  -0.036  0.00  0.00     0.023 A 
ATOM      2  C1  UNL d   1       2.104  -0.030   0.667  0.00  0.00     0.003 A 
ATOM      3  C2  UNL d   1       1.262  -1.138   0.551  0.00  0.00     0.048 A 
ATOM      4  C3  UNL d   1       0.138  -1.069  -0.270  0.00  0.00     0.023 A 
ATOM      5  C4  UNL d   1      -0.151   0.100  -0.976  0.00  0.00     0.048 A 
ATOM      6  C5  UNL d   1       0.693   1.206  -0.857  0.00  0.00     0.003 A 
ATOM      7  I   UNL d   1      -1.117  -2.717  -0.445  0.00  0.00    -0.146 I 
ENDROOT
TORSDOF 0
ENDMDL
