MODEL 1
REMARK minimizedAffinity -3.70265079
REMARK minimizedRMSD -1
REMARK  0 active torsions:
REMARK  status: ('A' for Active; 'I' for Inactive)
ROOT
ATOM      1  C   UNL d   1      -0.300   3.023   0.123  0.00  0.00     0.023 A 
ATOM      2  C1  UNL d   1      -0.708   2.177   1.154  0.00  0.00     0.003 A 
ATOM      3  C2  UNL d   1      -0.740   0.795   0.953  0.00  0.00     0.048 A 
ATOM      4  C3  UNL d   1      -0.361   0.267  -0.280  0.00  0.00     0.023 A 
ATOM      5  C4  UNL d   1       0.049   1.110  -1.314  0.00  0.00     0.048 A 
ATOM      6  C5  UNL d   1       0.078   2.490  -1.109  0.00  0.00     0.003 A 
ATOM      7  I   UNL d   1      -0.408  -1.789  -0.581  0.00  0.00    -0.146 I 
ENDROOT
TORSDOF 0
ENDMDL
