MODEL 1
REMARK minimizedAffinity -4.2915616
REMARK minimizedRMSD -1
REMARK  0 active torsions:
REMARK  status: ('A' for Active; 'I' for Inactive)
ROOT
ATOM      1  C   UNL d   1       0.344   2.518   0.428  0.00  0.00     0.023 A 
ATOM      2  C1  UNL d   1       1.373   1.731  -0.087  0.00  0.00     0.003 A 
ATOM      3  C2  UNL d   1       1.111   0.427  -0.512  0.00  0.00     0.048 A 
ATOM      4  C3  UNL d   1      -0.184  -0.083  -0.419  0.00  0.00     0.023 A 
ATOM      5  C4  UNL d   1      -1.217   0.702   0.096  0.00  0.00     0.048 A 
ATOM      6  C5  UNL d   1      -0.950   2.005   0.520  0.00  0.00     0.003 A 
ATOM      7  I   UNL d   1      -0.577  -2.024  -1.050  0.00  0.00    -0.146 I 
ENDROOT
TORSDOF 0
ENDMDL
