MODEL 1
REMARK minimizedAffinity -5.04813147
REMARK minimizedRMSD -1
REMARK  1 active torsions:
REMARK  status: ('A' for Active; 'I' for Inactive)
REMARK    1  A    between atoms: C1_2  and  C2_3 
ROOT
ATOM      1  C2  UNL d   1      -0.464   0.123   0.305  0.00  0.00    -0.073 A 
ATOM      2  C3  UNL d   1      -1.430   1.101   0.566  0.00  0.00    -0.002 A 
ATOM      3  C4  UNL d   1      -2.603   0.769   1.245  0.00  0.00     0.004 A 
ATOM      4  C5  UNL d   1      -2.820  -0.540   1.674  0.00  0.00    -0.004 A 
ATOM      5  C6  UNL d   1      -1.860  -1.529   1.433  0.00  0.00    -0.075 A 
ATOM      6  C7  UNL d   1      -2.079  -2.943   1.887  0.00  0.00     0.076 C 
ATOM      7  C8  UNL d   1      -0.686  -1.189   0.749  0.00  0.00     0.001 A 
ENDROOT
BRANCH   1   8
ATOM      8  C1  UNL d   1       0.808   0.478  -0.421  0.00  0.00     0.053 C 
ATOM      9  C   UNL d   1       0.680   1.783  -1.190  0.00  0.00     0.018 C 
ENDBRANCH   1   8
TORSDOF 1
ENDMDL
