MODEL 1
REMARK minimizedAffinity -4.46714401
REMARK minimizedRMSD -1
REMARK  1 active torsions:
REMARK  status: ('A' for Active; 'I' for Inactive)
REMARK    1  A    between atoms: C1_2  and  C2_3 
ROOT
ATOM      1  C2  UNL d   1      -0.479   0.079   0.542  0.00  0.00    -0.073 A 
ATOM      2  C3  UNL d   1      -1.355   1.121   0.865  0.00  0.00    -0.002 A 
ATOM      3  C4  UNL d   1      -2.611   0.845   1.406  0.00  0.00     0.004 A 
ATOM      4  C5  UNL d   1      -3.001  -0.474   1.637  0.00  0.00    -0.004 A 
ATOM      5  C6  UNL d   1      -2.135  -1.529   1.333  0.00  0.00    -0.075 A 
ATOM      6  C7  UNL d   1      -2.540  -2.954   1.574  0.00  0.00     0.076 C 
ATOM      7  C8  UNL d   1      -0.876  -1.244   0.787  0.00  0.00     0.001 A 
ENDROOT
BRANCH   1   8
ATOM      8  C1  UNL d   1       0.881   0.373  -0.037  0.00  0.00     0.053 C 
ATOM      9  C   UNL d   1       1.974  -0.443   0.634  0.00  0.00     0.018 C 
ENDBRANCH   1   8
TORSDOF 1
ENDMDL
