MODEL 1
REMARK minimizedAffinity -5.2636342
REMARK minimizedRMSD -1
REMARK  1 active torsions:
REMARK  status: ('A' for Active; 'I' for Inactive)
REMARK    1  A    between atoms: C1_2  and  C2_3 
ROOT
ATOM      1  C2  UNL d   1      -1.523  -1.263   1.092  0.00  0.00    -0.073 A 
ATOM      2  C3  UNL d   1      -0.566  -2.028   1.769  0.00  0.00    -0.002 A 
ATOM      3  C4  UNL d   1       0.790  -1.714   1.664  0.00  0.00     0.004 A 
ATOM      4  C5  UNL d   1       1.202  -0.631   0.889  0.00  0.00    -0.004 A 
ATOM      5  C6  UNL d   1       0.260   0.153   0.214  0.00  0.00    -0.075 A 
ATOM      6  C7  UNL d   1       0.688   1.321  -0.625  0.00  0.00     0.076 C 
ATOM      7  C8  UNL d   1      -1.099  -0.170   0.322  0.00  0.00     0.001 A 
ENDROOT
BRANCH   1   8
ATOM      8  C1  UNL d   1      -2.988  -1.593   1.207  0.00  0.00     0.053 C 
ATOM      9  C   UNL d   1      -3.224  -2.873   1.993  0.00  0.00     0.018 C 
ENDBRANCH   1   8
TORSDOF 1
ENDMDL
