MODEL 1
REMARK minimizedAffinity -4.87315035
REMARK minimizedRMSD -1
REMARK  1 active torsions:
REMARK  status: ('A' for Active; 'I' for Inactive)
REMARK    1  A    between atoms: C1_2  and  C2_3 
ROOT
ATOM      1  C2  UNL d   1      -0.191   0.083   0.497  0.00  0.00    -0.073 A 
ATOM      2  C3  UNL d   1       0.950  -0.727   0.486  0.00  0.00    -0.002 A 
ATOM      3  C4  UNL d   1       0.876  -2.055   0.906  0.00  0.00     0.004 A 
ATOM      4  C5  UNL d   1      -0.339  -2.589   1.336  0.00  0.00    -0.004 A 
ATOM      5  C6  UNL d   1      -1.493  -1.799   1.344  0.00  0.00    -0.075 A 
ATOM      6  C7  UNL d   1      -2.807  -2.357   1.805  0.00  0.00     0.076 C 
ATOM      7  C8  UNL d   1      -1.410  -0.465   0.922  0.00  0.00     0.001 A 
ENDROOT
BRANCH   1   8
ATOM      8  C1  UNL d   1      -0.117   1.516   0.038  0.00  0.00     0.053 C 
ATOM      9  C   UNL d   1       0.789   1.681  -1.172  0.00  0.00     0.018 C 
ENDBRANCH   1   8
TORSDOF 1
ENDMDL
