MODEL 1
REMARK minimizedAffinity -5.79460621
REMARK minimizedRMSD -1
REMARK  1 active torsions:
REMARK  status: ('A' for Active; 'I' for Inactive)
REMARK    1  A    between atoms: C1_2  and  C2_3 
ROOT
ATOM      1  C2  UNL d   1      -0.986  -0.674   0.639  0.00  0.00    -0.073 A 
ATOM      2  C3  UNL d   1      -1.192  -2.049   0.477  0.00  0.00    -0.002 A 
ATOM      3  C4  UNL d   1      -1.990  -2.753   1.380  0.00  0.00     0.004 A 
ATOM      4  C5  UNL d   1      -2.594  -2.091   2.448  0.00  0.00    -0.004 A 
ATOM      5  C6  UNL d   1      -2.409  -0.715   2.620  0.00  0.00    -0.075 A 
ATOM      6  C7  UNL d   1      -3.050   0.012   3.765  0.00  0.00     0.076 C 
ATOM      7  C8  UNL d   1      -1.605  -0.015   1.711  0.00  0.00     0.001 A 
ENDROOT
BRANCH   1   8
ATOM      8  C1  UNL d   1      -0.131   0.091  -0.338  0.00  0.00     0.053 C 
ATOM      9  C   UNL d   1       0.487   1.329   0.294  0.00  0.00     0.018 C 
ENDBRANCH   1   8
TORSDOF 1
ENDMDL
