MODEL 1
REMARK minimizedAffinity 3.75766659
REMARK minimizedRMSD -1
REMARK  0 active torsions:
REMARK  status: ('A' for Active; 'I' for Inactive)
ROOT
ATOM      1  C4' PXY d   1      -5.999  -3.888   3.641  0.00  0.00     0.077 C 
ATOM      2  C1' PXY d   1      -4.807   1.312   1.415  0.00  0.00     0.077 C 
ATOM      3  C1  PXY d   1      -5.129  -0.053   1.990  0.00  0.00    -0.082 A 
ATOM      4  C2  PXY d   1      -4.848  -0.313   3.257  0.00  0.00     0.003 A 
ATOM      5  C3  PXY d   1      -5.103  -1.552   3.784  0.00  0.00     0.003 A 
ATOM      6  C4  PXY d   1      -5.701  -2.520   3.021  0.00  0.00    -0.082 A 
ATOM      7  C5  PXY d   1      -6.000  -2.260   1.731  0.00  0.00     0.003 A 
ATOM      8  C6  PXY d   1      -5.695  -1.008   1.203  0.00  0.00     0.003 A 
ENDROOT
TORSDOF 0
ENDMDL
