MODEL 1
REMARK minimizedAffinity -5.92102528
REMARK minimizedRMSD -1
REMARK  0 active torsions:
REMARK  status: ('A' for Active; 'I' for Inactive)
ROOT
ATOM      1  C4' PXY d   1       0.600  -1.433  -1.633  0.00  0.00     0.077 C 
ATOM      2  C1' PXY d   1      -0.845   2.801   2.028  0.00  0.00     0.077 C 
ATOM      3  C1  PXY d   1      -0.457   1.687   1.076  0.00  0.00    -0.082 A 
ATOM      4  C2  PXY d   1      -0.719   1.809  -0.215  0.00  0.00     0.003 A 
ATOM      5  C3  PXY d   1      -0.403   0.797  -1.085  0.00  0.00     0.003 A 
ATOM      6  C4  PXY d   1       0.234  -0.329  -0.637  0.00  0.00    -0.082 A 
ATOM      7  C5  PXY d   1       0.514  -0.456   0.677  0.00  0.00     0.003 A 
ATOM      8  C6  PXY d   1       0.149   0.565   1.550  0.00  0.00     0.003 A 
ENDROOT
TORSDOF 0
ENDMDL
