MODEL 1
REMARK minimizedAffinity -3.84230971
REMARK minimizedRMSD -1
REMARK  0 active torsions:
REMARK  status: ('A' for Active; 'I' for Inactive)
ROOT
ATOM      1  C4' PXY d   1      -1.208   2.555   1.755  0.00  0.00     0.077 C 
ATOM      2  C1' PXY d   1       0.580  -2.018  -1.296  0.00  0.00     0.077 C 
ATOM      3  C1  PXY d   1       0.113  -0.811  -0.507  0.00  0.00    -0.082 A 
ATOM      4  C2  PXY d   1       0.211  -0.815   0.813  0.00  0.00     0.003 A 
ATOM      5  C3  PXY d   1      -0.237   0.255   1.545  0.00  0.00     0.003 A 
ATOM      6  C4  PXY d   1      -0.740   1.362   0.916  0.00  0.00    -0.082 A 
ATOM      7  C5  PXY d   1      -0.834   1.378  -0.430  0.00  0.00     0.003 A 
ATOM      8  C6  PXY d   1      -0.412   0.265  -1.152  0.00  0.00     0.003 A 
ENDROOT
TORSDOF 0
ENDMDL
