MODEL 1
REMARK minimizedAffinity -4.0895524
REMARK minimizedRMSD -1
REMARK  0 active torsions:
REMARK  status: ('A' for Active; 'I' for Inactive)
ROOT
ATOM      1  C4' PXY d   1      -1.424   2.821   2.174  0.00  0.00     0.077 C 
ATOM      2  C1' PXY d   1       0.323  -2.006  -0.484  0.00  0.00     0.077 C 
ATOM      3  C1  PXY d   1      -0.133  -0.745   0.224  0.00  0.00    -0.082 A 
ATOM      4  C2  PXY d   1      -0.943   0.097  -0.396  0.00  0.00     0.003 A 
ATOM      5  C3  PXY d   1      -1.340   1.257   0.219  0.00  0.00     0.003 A 
ATOM      6  C4  PXY d   1      -0.946   1.532   1.501  0.00  0.00    -0.082 A 
ATOM      7  C5  PXY d   1      -0.128   0.672   2.144  0.00  0.00     0.003 A 
ATOM      8  C6  PXY d   1       0.297  -0.480   1.488  0.00  0.00     0.003 A 
ENDROOT
TORSDOF 0
ENDMDL
