MODEL 1
REMARK minimizedAffinity -3.44353437
REMARK minimizedRMSD -1
REMARK  0 active torsions:
REMARK  status: ('A' for Active; 'I' for Inactive)
ROOT
ATOM      1  C4' PXY d   1      -1.952   1.987   1.900  0.00  0.00     0.077 C 
ATOM      2  C1' PXY d   1       1.846  -0.714  -1.520  0.00  0.00     0.077 C 
ATOM      3  C1  PXY d   1       0.851  -0.015  -0.614  0.00  0.00    -0.082 A 
ATOM      4  C2  PXY d   1      -0.021   0.833  -1.133  0.00  0.00     0.003 A 
ATOM      5  C3  PXY d   1      -0.907   1.498  -0.324  0.00  0.00     0.003 A 
ATOM      6  C4  PXY d   1      -0.935   1.251   1.022  0.00  0.00    -0.082 A 
ATOM      7  C5  PXY d   1      -0.055   0.379   1.558  0.00  0.00     0.003 A 
ATOM      8  C6  PXY d   1       0.863  -0.255   0.725  0.00  0.00     0.003 A 
ENDROOT
TORSDOF 0
ENDMDL
