MODEL 1
REMARK minimizedAffinity -3.05583334
REMARK minimizedRMSD -1
REMARK  0 active torsions:
REMARK  status: ('A' for Active; 'I' for Inactive)
ROOT
ATOM      1  C4' PXY d   1      -0.456  -3.828  -1.532  0.00  0.00     0.077 C 
ATOM      2  C1' PXY d   1       0.183   1.192   1.261  0.00  0.00     0.077 C 
ATOM      3  C1  PXY d   1       0.016  -0.118   0.517  0.00  0.00    -0.082 A 
ATOM      4  C2  PXY d   1      -0.583  -1.137   1.113  0.00  0.00     0.003 A 
ATOM      5  C3  PXY d   1      -0.713  -2.339   0.466  0.00  0.00     0.003 A 
ATOM      6  C4  PXY d   1      -0.274  -2.483  -0.823  0.00  0.00    -0.082 A 
ATOM      7  C5  PXY d   1       0.329  -1.446  -1.441  0.00  0.00     0.003 A 
ATOM      8  C6  PXY d   1       0.489  -0.247  -0.752  0.00  0.00     0.003 A 
ENDROOT
TORSDOF 0
ENDMDL
