MODEL 1
REMARK minimizedAffinity -3.50213671
REMARK minimizedRMSD -1
REMARK  0 active torsions:
REMARK  status: ('A' for Active; 'I' for Inactive)
ROOT
ATOM      1  C4' PXY d   1      -1.830   2.886   1.683  0.00  0.00     0.077 C 
ATOM      2  C1' PXY d   1       1.190  -1.658  -0.227  0.00  0.00     0.077 C 
ATOM      3  C1  PXY d   1       0.398  -0.471   0.286  0.00  0.00    -0.082 A 
ATOM      4  C2  PXY d   1      -0.338   0.237  -0.555  0.00  0.00     0.003 A 
ATOM      5  C3  PXY d   1      -1.035   1.332  -0.114  0.00  0.00     0.003 A 
ATOM      6  C4  PXY d   1      -1.022   1.675   1.211  0.00  0.00    -0.082 A 
ATOM      7  C5  PXY d   1      -0.282   0.951   2.078  0.00  0.00     0.003 A 
ATOM      8  C6  PXY d   1       0.451  -0.133   1.603  0.00  0.00     0.003 A 
ENDROOT
TORSDOF 0
ENDMDL
