MODEL 1
REMARK minimizedAffinity -2.68574739
REMARK minimizedRMSD -1
REMARK  0 active torsions:
REMARK  status: ('A' for Active; 'I' for Inactive)
ROOT
ATOM      1  C4' PXY d   1       0.214   2.452   2.181  0.00  0.00     0.077 C 
ATOM      2  C1' PXY d   1      -0.806  -2.146  -1.171  0.00  0.00     0.077 C 
ATOM      3  C1  PXY d   1      -0.544  -0.933  -0.301  0.00  0.00    -0.082 A 
ATOM      4  C2  PXY d   1       0.412  -0.977   0.613  0.00  0.00     0.003 A 
ATOM      5  C3  PXY d   1       0.642   0.100   1.429  0.00  0.00     0.003 A 
ATOM      6  C4  PXY d   1      -0.080   1.254   1.274  0.00  0.00    -0.082 A 
ATOM      7  C5  PXY d   1      -1.050   1.310   0.337  0.00  0.00     0.003 A 
ATOM      8  C6  PXY d   1      -1.295   0.192  -0.454  0.00  0.00     0.003 A 
ENDROOT
TORSDOF 0
ENDMDL
