MODEL 1
REMARK minimizedAffinity -5.28626013
REMARK minimizedRMSD -1
REMARK  0 active torsions:
REMARK  status: ('A' for Active; 'I' for Inactive)
ROOT
ATOM      1  C4' PXY d   1      -1.020   2.094  -1.870  0.00  0.00     0.077 C 
ATOM      2  C1' PXY d   1       1.202  -0.598   2.738  0.00  0.00     0.077 C 
ATOM      3  C1  PXY d   1       0.610   0.113   1.537  0.00  0.00    -0.082 A 
ATOM      4  C2  PXY d   1       0.862  -0.339   0.319  0.00  0.00     0.003 A 
ATOM      5  C3  PXY d   1       0.361   0.310  -0.779  0.00  0.00     0.003 A 
ATOM      6  C4  PXY d   1      -0.451   1.402  -0.628  0.00  0.00    -0.082 A 
ATOM      7  C5  PXY d   1      -0.722   1.863   0.611  0.00  0.00     0.003 A 
ATOM      8  C6  PXY d   1      -0.170   1.215   1.712  0.00  0.00     0.003 A 
ENDROOT
TORSDOF 0
ENDMDL
