MODEL 1
REMARK minimizedAffinity -4.33786058
REMARK minimizedRMSD -1
REMARK  1 active torsions:
REMARK  status: ('A' for Active; 'I' for Inactive)
REMARK    1  A    between atoms: C1_2  and  C2_3 
ROOT
ATOM      1  C2  UNL d   1      -0.538  -1.175  -0.040  0.00  0.00    -0.076 A 
ATOM      2  C3  UNL d   1       0.095  -1.007  -1.284  0.00  0.00     0.004 A 
ATOM      3  C4  UNL d   1       0.119   0.236  -1.915  0.00  0.00    -0.003 A 
ATOM      4  C5  UNL d   1      -0.488   1.332  -1.311  0.00  0.00     0.000 A 
ATOM      5  C6  UNL d   1      -1.105   1.187  -0.069  0.00  0.00     0.000 A 
ATOM      6  C7  UNL d   1      -1.124  -0.055   0.588  0.00  0.00    -0.073 A 
ATOM      7  C8  UNL d   1      -1.809  -0.155   1.923  0.00  0.00     0.078 C 
ENDROOT
BRANCH   1   8
ATOM      8  C1  UNL d   1      -0.556  -2.552   0.583  0.00  0.00     0.053 C 
ATOM      9  C   UNL d   1       0.781  -3.266   0.458  0.00  0.00     0.018 C 
ENDBRANCH   1   8
TORSDOF 1
ENDMDL
