MODEL 1
REMARK minimizedAffinity -3.46922779
REMARK minimizedRMSD -1
REMARK  1 active torsions:
REMARK  status: ('A' for Active; 'I' for Inactive)
REMARK    1  A    between atoms: C1_2  and  C2_3 
ROOT
ATOM      1  C2  UNL d   1      -0.387  -1.056   0.003  0.00  0.00    -0.076 A 
ATOM      2  C3  UNL d   1      -1.016  -0.241   0.960  0.00  0.00     0.004 A 
ATOM      3  C4  UNL d   1      -0.999   1.148   0.841  0.00  0.00    -0.003 A 
ATOM      4  C5  UNL d   1      -0.353   1.744  -0.237  0.00  0.00     0.000 A 
ATOM      5  C6  UNL d   1       0.261   0.949  -1.205  0.00  0.00     0.000 A 
ATOM      6  C7  UNL d   1       0.239  -0.453  -1.108  0.00  0.00    -0.073 A 
ATOM      7  C8  UNL d   1       0.922  -1.261  -2.178  0.00  0.00     0.078 C 
ENDROOT
BRANCH   1   8
ATOM      8  C1  UNL d   1      -0.415  -2.555   0.199  0.00  0.00     0.053 C 
ATOM      9  C   UNL d   1      -1.830  -3.103   0.304  0.00  0.00     0.018 C 
ENDBRANCH   1   8
TORSDOF 1
ENDMDL
