MODEL 1
REMARK minimizedAffinity -3.57065654
REMARK minimizedRMSD -1
REMARK  1 active torsions:
REMARK  status: ('A' for Active; 'I' for Inactive)
REMARK    1  A    between atoms: C1_2  and  C2_3 
ROOT
ATOM      1  C2  UNL d   1      -0.267  -0.560   0.406  0.00  0.00    -0.076 A 
ATOM      2  C3  UNL d   1      -0.267   0.688  -0.239  0.00  0.00     0.004 A 
ATOM      3  C4  UNL d   1       0.215   0.824  -1.540  0.00  0.00    -0.003 A 
ATOM      4  C5  UNL d   1       0.702  -0.289  -2.218  0.00  0.00     0.000 A 
ATOM      5  C6  UNL d   1       0.693  -1.538  -1.600  0.00  0.00     0.000 A 
ATOM      6  C7  UNL d   1       0.196  -1.695  -0.294  0.00  0.00    -0.073 A 
ATOM      7  C8  UNL d   1       0.215  -3.065   0.326  0.00  0.00     0.078 C 
ENDROOT
BRANCH   1   8
ATOM      8  C1  UNL d   1      -0.777  -0.641   1.827  0.00  0.00     0.053 C 
ATOM      9  C   UNL d   1      -2.020  -1.507   1.953  0.00  0.00     0.018 C 
ENDBRANCH   1   8
TORSDOF 1
ENDMDL
