MODEL 1
REMARK minimizedAffinity -5.4479475
REMARK minimizedRMSD -1
REMARK  1 active torsions:
REMARK  status: ('A' for Active; 'I' for Inactive)
REMARK    1  A    between atoms: C1_2  and  C2_3 
ROOT
ATOM      1  C2  UNL d   1       0.158   0.121   0.739  0.00  0.00    -0.076 A 
ATOM      2  C3  UNL d   1       0.506  -0.450  -0.498  0.00  0.00     0.004 A 
ATOM      3  C4  UNL d   1       0.381  -1.821  -0.716  0.00  0.00    -0.003 A 
ATOM      4  C5  UNL d   1      -0.095  -2.644   0.299  0.00  0.00     0.000 A 
ATOM      5  C6  UNL d   1      -0.461  -2.092   1.526  0.00  0.00     0.000 A 
ATOM      6  C7  UNL d   1      -0.357  -0.710   1.757  0.00  0.00    -0.073 A 
ATOM      7  C8  UNL d   1      -0.761  -0.170   3.101  0.00  0.00     0.078 C 
ENDROOT
BRANCH   1   8
ATOM      8  C1  UNL d   1       0.341   1.610   0.926  0.00  0.00     0.053 C 
ATOM      9  C   UNL d   1       1.461   2.173   0.065  0.00  0.00     0.018 C 
ENDBRANCH   1   8
TORSDOF 1
ENDMDL
