MODEL 1
REMARK minimizedAffinity -5.52194023
REMARK minimizedRMSD -1
REMARK  1 active torsions:
REMARK  status: ('A' for Active; 'I' for Inactive)
REMARK    1  A    between atoms: C1_2  and  C2_3 
ROOT
ATOM      1  C2  UNL d   1      -0.230  -0.136   0.451  0.00  0.00    -0.076 A 
ATOM      2  C3  UNL d   1       0.186  -0.899  -0.654  0.00  0.00     0.004 A 
ATOM      3  C4  UNL d   1       0.110  -2.291  -0.634  0.00  0.00    -0.003 A 
ATOM      4  C5  UNL d   1      -0.383  -2.942   0.491  0.00  0.00     0.000 A 
ATOM      5  C6  UNL d   1      -0.816  -2.200   1.590  0.00  0.00     0.000 A 
ATOM      6  C7  UNL d   1      -0.762  -0.796   1.580  0.00  0.00    -0.073 A 
ATOM      7  C8  UNL d   1      -1.238  -0.047   2.794  0.00  0.00     0.078 C 
ENDROOT
BRANCH   1   8
ATOM      8  C1  UNL d   1      -0.099   1.369   0.383  0.00  0.00     0.053 C 
ATOM      9  C   UNL d   1       1.348   1.824   0.277  0.00  0.00     0.018 C 
ENDBRANCH   1   8
TORSDOF 1
ENDMDL
