MODEL 1
REMARK minimizedAffinity -2.62248254
REMARK minimizedRMSD -1
REMARK  1 active torsions:
REMARK  status: ('A' for Active; 'I' for Inactive)
REMARK    1  A    between atoms: C1_2  and  C2_3 
ROOT
ATOM      1  C2  UNL d   1      -0.118  -1.558   0.666  0.00  0.00    -0.076 A 
ATOM      2  C3  UNL d   1      -0.643  -0.865   1.771  0.00  0.00     0.004 A 
ATOM      3  C4  UNL d   1      -0.431   0.504   1.926  0.00  0.00    -0.003 A 
ATOM      4  C5  UNL d   1       0.309   1.203   0.978  0.00  0.00     0.000 A 
ATOM      5  C6  UNL d   1       0.822   0.535  -0.134  0.00  0.00     0.000 A 
ATOM      6  C7  UNL d   1       0.604  -0.842  -0.313  0.00  0.00    -0.073 A 
ATOM      7  C8  UNL d   1       1.185  -1.513  -1.527  0.00  0.00     0.078 C 
ENDROOT
BRANCH   1   8
ATOM      8  C1  UNL d   1      -0.357  -3.047   0.565  0.00  0.00     0.053 C 
ATOM      9  C   UNL d   1      -1.804  -3.384   0.238  0.00  0.00     0.018 C 
ENDBRANCH   1   8
TORSDOF 1
ENDMDL
