MODEL 1
REMARK minimizedAffinity -4.24881697
REMARK minimizedRMSD -1
REMARK  1 active torsions:
REMARK  status: ('A' for Active; 'I' for Inactive)
REMARK    1  A    between atoms: C1_2  and  C2_3 
ROOT
ATOM      1  C2  UNL d   1      -0.067   0.170  -0.249  0.00  0.00    -0.076 A 
ATOM      2  C3  UNL d   1      -0.440   0.132   1.106  0.00  0.00     0.004 A 
ATOM      3  C4  UNL d   1      -0.641  -1.081   1.762  0.00  0.00    -0.003 A 
ATOM      4  C5  UNL d   1      -0.471  -2.277   1.073  0.00  0.00     0.000 A 
ATOM      5  C6  UNL d   1      -0.084  -2.259  -0.267  0.00  0.00     0.000 A 
ATOM      6  C7  UNL d   1       0.138  -1.045  -0.938  0.00  0.00    -0.073 A 
ATOM      7  C8  UNL d   1       0.548  -1.084  -2.384  0.00  0.00     0.078 C 
ENDROOT
BRANCH   1   8
ATOM      8  C1  UNL d   1       0.109   1.516  -0.914  0.00  0.00     0.053 C 
ATOM      9  C   UNL d   1       0.705   2.556   0.023  0.00  0.00     0.018 C 
ENDBRANCH   1   8
TORSDOF 1
ENDMDL
