MODEL 1
REMARK minimizedAffinity -5.86952305
REMARK minimizedRMSD -1
REMARK  1 active torsions:
REMARK  status: ('A' for Active; 'I' for Inactive)
REMARK    1  A    between atoms: C1_2  and  C2_3 
ROOT
ATOM      1  C2  UNL d   1       0.157  -0.138  -0.226  0.00  0.00    -0.076 A 
ATOM      2  C3  UNL d   1       0.631  -0.958  -1.265  0.00  0.00     0.004 A 
ATOM      3  C4  UNL d   1       0.543  -2.347  -1.180  0.00  0.00    -0.003 A 
ATOM      4  C5  UNL d   1      -0.020  -2.938  -0.055  0.00  0.00     0.000 A 
ATOM      5  C6  UNL d   1      -0.512  -2.139   0.978  0.00  0.00     0.000 A 
ATOM      6  C7  UNL d   1      -0.446  -0.738   0.900  0.00  0.00    -0.073 A 
ATOM      7  C8  UNL d   1      -0.986   0.075   2.045  0.00  0.00     0.078 C 
ENDROOT
BRANCH   1   8
ATOM      8  C1  UNL d   1       0.303   1.361  -0.362  0.00  0.00     0.053 C 
ATOM      9  C   UNL d   1      -0.006   1.851  -1.769  0.00  0.00     0.018 C 
ENDBRANCH   1   8
TORSDOF 1
ENDMDL
