MODEL 1
REMARK minimizedAffinity -5.22315454
REMARK minimizedRMSD -1
REMARK  1 active torsions:
REMARK  status: ('A' for Active; 'I' for Inactive)
REMARK    1  A    between atoms: C1_2  and  C2_3 
ROOT
ATOM      1  C2  UNL d   1       0.475   1.316  -0.087  0.00  0.00    -0.076 A 
ATOM      2  C3  UNL d   1       0.296   1.151  -1.472  0.00  0.00     0.004 A 
ATOM      3  C4  UNL d   1       0.248  -0.120  -2.042  0.00  0.00    -0.003 A 
ATOM      4  C5  UNL d   1       0.378  -1.246  -1.238  0.00  0.00     0.000 A 
ATOM      5  C6  UNL d   1       0.539  -1.102   0.140  0.00  0.00     0.000 A 
ATOM      6  C7  UNL d   1       0.573   0.172   0.733  0.00  0.00    -0.073 A 
ATOM      7  C8  UNL d   1       0.755   0.269   2.223  0.00  0.00     0.078 C 
ENDROOT
BRANCH   1   8
ATOM      8  C1  UNL d   1       0.546   2.719   0.472  0.00  0.00     0.053 C 
ATOM      9  C   UNL d   1       1.973   3.239   0.563  0.00  0.00     0.018 C 
ENDBRANCH   1   8
TORSDOF 1
ENDMDL
