MODEL 1
REMARK minimizedAffinity -3.73984265
REMARK minimizedRMSD -1
REMARK  1 active torsions:
REMARK  status: ('A' for Active; 'I' for Inactive)
REMARK    1  A    between atoms: C1_2  and  C2_3 
ROOT
ATOM      1  C2  UNL d   1       0.254   0.303   0.244  0.00  0.00    -0.076 A 
ATOM      2  C3  UNL d   1      -0.026   0.249   1.621  0.00  0.00     0.004 A 
ATOM      3  C4  UNL d   1      -0.343  -0.958   2.241  0.00  0.00    -0.003 A 
ATOM      4  C5  UNL d   1      -0.385  -2.131   1.496  0.00  0.00     0.000 A 
ATOM      5  C6  UNL d   1      -0.093  -2.099   0.132  0.00  0.00     0.000 A 
ATOM      6  C7  UNL d   1       0.244  -0.893  -0.506  0.00  0.00    -0.073 A 
ATOM      7  C8  UNL d   1       0.544  -0.915  -1.979  0.00  0.00     0.078 C 
ENDROOT
BRANCH   1   8
ATOM      8  C1  UNL d   1       0.566   1.645  -0.380  0.00  0.00     0.053 C 
ATOM      9  C   UNL d   1       1.674   2.384   0.353  0.00  0.00     0.018 C 
ENDBRANCH   1   8
TORSDOF 1
ENDMDL
