MODEL 1
REMARK minimizedAffinity -3.35818982
REMARK minimizedRMSD -1
REMARK  1 active torsions:
REMARK  status: ('A' for Active; 'I' for Inactive)
REMARK    1  A    between atoms: C1_2  and  C2_3 
ROOT
ATOM      1  C2  UNL d   1       0.007   0.209  -0.227  0.00  0.00    -0.076 A 
ATOM      2  C3  UNL d   1      -0.528   0.117   1.070  0.00  0.00     0.004 A 
ATOM      3  C4  UNL d   1      -0.860  -1.118   1.623  0.00  0.00    -0.003 A 
ATOM      4  C5  UNL d   1      -0.662  -2.282   0.889  0.00  0.00     0.000 A 
ATOM      5  C6  UNL d   1      -0.116  -2.212  -0.392  0.00  0.00     0.000 A 
ATOM      6  C7  UNL d   1       0.240  -0.976  -0.958  0.00  0.00    -0.073 A 
ATOM      7  C8  UNL d   1       0.820  -0.957  -2.346  0.00  0.00     0.078 C 
ENDROOT
BRANCH   1   8
ATOM      8  C1  UNL d   1       0.323   1.578  -0.785  0.00  0.00     0.053 C 
ATOM      9  C   UNL d   1       0.948   2.499   0.251  0.00  0.00     0.018 C 
ENDBRANCH   1   8
TORSDOF 1
ENDMDL
