MODEL 1
REMARK minimizedAffinity -4.44665432
REMARK minimizedRMSD -1
REMARK  2 active torsions:
REMARK  status: ('A' for Active; 'I' for Inactive)
REMARK    1  A    between atoms: C2'_3  and  C1'_4 
REMARK    2  A    between atoms: C1'_4  and  C1_5 
ROOT
ATOM      1  C1  I4B d   1       1.211   0.010   0.101  0.00  0.00    -0.075 A 
ATOM      2  C2  I4B d   1       1.813   0.654   1.152  0.00  0.00     0.003 A 
ATOM      3  C3  I4B d   1       3.051   0.189   1.658  0.00  0.00     0.002 A 
ATOM      4  C4  I4B d   1       3.622  -0.946   1.120  0.00  0.00    -0.004 A 
ATOM      5  C5  I4B d   1       3.021  -1.584   0.039  0.00  0.00     0.002 A 
ATOM      6  C6  I4B d   1       1.814  -1.096  -0.483  0.00  0.00     0.003 A 
ENDROOT
BRANCH   1   7
ATOM      7  C1' I4B d   1      -0.112   0.509  -0.388  0.00  0.00     0.060 C 
BRANCH   7   8
ATOM      8  C2' I4B d   1      -1.012  -0.691  -0.606  0.00  0.00    -0.013 C 
ATOM      9  C4' I4B d   1      -1.506  -1.247   0.704  0.00  0.00     0.013 C 
ATOM     10  C3' I4B d   1      -2.154  -0.260  -1.477  0.00  0.00     0.013 C 
ENDBRANCH   7   8
ENDBRANCH   1   7
TORSDOF 2
ENDMDL
