MODEL 1
REMARK minimizedAffinity -4.97344589
REMARK minimizedRMSD -1
REMARK  2 active torsions:
REMARK  status: ('A' for Active; 'I' for Inactive)
REMARK    1  A    between atoms: C2'_3  and  C1'_4 
REMARK    2  A    between atoms: C1'_4  and  C1_5 
ROOT
ATOM      1  C1  I4B d   1       0.404   1.885   0.531  0.00  0.00    -0.075 A 
ATOM      2  C2  I4B d   1      -0.092   0.636   0.252  0.00  0.00     0.003 A 
ATOM      3  C3  I4B d   1       0.703  -0.514   0.477  0.00  0.00     0.002 A 
ATOM      4  C4  I4B d   1       1.997  -0.367   0.931  0.00  0.00    -0.004 A 
ATOM      5  C5  I4B d   1       2.491   0.898   1.235  0.00  0.00     0.002 A 
ATOM      6  C6  I4B d   1       1.686   2.030   1.046  0.00  0.00     0.003 A 
ENDROOT
BRANCH   1   7
ATOM      7  C1' I4B d   1      -0.451   3.079   0.251  0.00  0.00     0.060 C 
BRANCH   7   8
ATOM      8  C2' I4B d   1      -0.763   3.751   1.573  0.00  0.00    -0.013 C 
ATOM      9  C4' I4B d   1      -0.881   5.244   1.412  0.00  0.00     0.013 C 
ATOM     10  C3' I4B d   1      -2.035   3.161   2.103  0.00  0.00     0.013 C 
ENDBRANCH   7   8
ENDBRANCH   1   7
TORSDOF 2
ENDMDL
