MODEL 1
REMARK minimizedAffinity -2.96953082
REMARK minimizedRMSD -1
REMARK  0 active torsions:
REMARK  status: ('A' for Active; 'I' for Inactive)
ROOT
ATOM      1  C   UNL d   1       1.720   4.562   1.378  0.00  0.00     0.020 A 
ATOM      2  C1  UNL d   1       1.541   3.229   1.745  0.00  0.00     0.020 A 
ATOM      3  C2  UNL d   1       0.797   2.374   0.929  0.00  0.00     0.034 A 
ATOM      4  C3  UNL d   1       0.230   2.851  -0.259  0.00  0.00     0.017 A 
ATOM      5  C4  UNL d   1       0.411   4.189  -0.627  0.00  0.00     0.017 A 
ATOM      6  C5  UNL d   1       1.157   5.041   0.194  0.00  0.00     0.034 A 
ATOM      7 Cl   UNL d   1      -0.258   4.850  -2.077  0.00  0.00    -0.070 Cl
ATOM      8 Cl1  UNL d   1      -0.677   1.737  -1.220  0.00  0.00    -0.070 Cl
ENDROOT
TORSDOF 0
ENDMDL
