MODEL 1
REMARK minimizedAffinity 14.7572823
REMARK minimizedRMSD -1
REMARK  0 active torsions:
REMARK  status: ('A' for Active; 'I' for Inactive)
ROOT
ATOM      1  C   UNL d   1      -3.804  -3.047   2.967  0.00  0.00     0.020 A 
ATOM      2  C1  UNL d   1      -3.827  -2.054   1.988  0.00  0.00     0.020 A 
ATOM      3  C2  UNL d   1      -4.511  -0.859   2.222  0.00  0.00     0.034 A 
ATOM      4  C3  UNL d   1      -5.175  -0.654   3.437  0.00  0.00     0.017 A 
ATOM      5  C4  UNL d   1      -5.151  -1.651   4.418  0.00  0.00     0.017 A 
ATOM      6  C5  UNL d   1      -4.465  -2.845   4.179  0.00  0.00     0.034 A 
ATOM      7 Cl   UNL d   1      -5.947  -1.470   5.942  0.00  0.00    -0.070 Cl
ATOM      8 Cl1  UNL d   1      -6.000   0.848   3.657  0.00  0.00    -0.070 Cl
ENDROOT
TORSDOF 0
ENDMDL
