MODEL 1
REMARK minimizedAffinity -2.63417482
REMARK minimizedRMSD -1
REMARK  0 active torsions:
REMARK  status: ('A' for Active; 'I' for Inactive)
ROOT
ATOM      1  C   UNL d   1      -0.514   3.091  -1.516  0.00  0.00     0.020 A 
ATOM      2  C1  UNL d   1       0.543   4.000  -1.485  0.00  0.00     0.020 A 
ATOM      3  C2  UNL d   1       1.479   3.948  -0.449  0.00  0.00     0.034 A 
ATOM      4  C3  UNL d   1       1.359   2.985   0.559  0.00  0.00     0.017 A 
ATOM      5  C4  UNL d   1       0.298   2.073   0.527  0.00  0.00     0.017 A 
ATOM      6  C5  UNL d   1      -0.636   2.130  -0.512  0.00  0.00     0.034 A 
ATOM      7 Cl   UNL d   1       0.085   0.857   1.736  0.00  0.00    -0.070 Cl
ATOM      8 Cl1  UNL d   1       2.553   2.979   1.809  0.00  0.00    -0.070 Cl
ENDROOT
TORSDOF 0
ENDMDL
