MODEL 1
REMARK minimizedAffinity -1.21562743
REMARK minimizedRMSD -1
REMARK  0 active torsions:
REMARK  status: ('A' for Active; 'I' for Inactive)
ROOT
ATOM      1  C   UNL d   1      -0.941   1.774  -0.363  0.00  0.00     0.020 A 
ATOM      2  C1  UNL d   1      -0.482   1.330   0.877  0.00  0.00     0.020 A 
ATOM      3  C2  UNL d   1       0.612   1.953   1.480  0.00  0.00     0.034 A 
ATOM      4  C3  UNL d   1       1.252   3.024   0.845  0.00  0.00     0.017 A 
ATOM      5  C4  UNL d   1       0.790   3.469  -0.399  0.00  0.00     0.017 A 
ATOM      6  C5  UNL d   1      -0.306   2.842  -0.999  0.00  0.00     0.034 A 
ATOM      7 Cl   UNL d   1       1.528   4.784  -1.245  0.00  0.00    -0.070 Cl
ATOM      8 Cl1  UNL d   1       2.599   3.747   1.649  0.00  0.00    -0.070 Cl
ENDROOT
TORSDOF 0
ENDMDL
