MODEL 1
REMARK minimizedAffinity 5.36125422
REMARK minimizedRMSD -1
REMARK  0 active torsions:
REMARK  status: ('A' for Active; 'I' for Inactive)
ROOT
ATOM      1  C   UNL d   1       1.391  -0.127   1.951  0.00  0.00     0.020 A 
ATOM      2  C1  UNL d   1       0.388  -0.954   2.455  0.00  0.00     0.020 A 
ATOM      3  C2  UNL d   1      -0.954  -0.635   2.240  0.00  0.00     0.034 A 
ATOM      4  C3  UNL d   1      -1.298   0.514   1.518  0.00  0.00     0.017 A 
ATOM      5  C4  UNL d   1      -0.290   1.344   1.012  0.00  0.00     0.017 A 
ATOM      6  C5  UNL d   1       1.052   1.019   1.230  0.00  0.00     0.034 A 
ATOM      7 Cl   UNL d   1      -0.635   2.778   0.112  0.00  0.00    -0.070 Cl
ATOM      8 Cl1  UNL d   1      -2.977   0.848   1.290  0.00  0.00    -0.070 Cl
ENDROOT
TORSDOF 0
ENDMDL
