MODEL 1
REMARK minimizedAffinity 6.25227261
REMARK minimizedRMSD -1
REMARK  0 active torsions:
REMARK  status: ('A' for Active; 'I' for Inactive)
ROOT
ATOM      1  C   UNL d   1       5.241  -1.611  -3.090  0.00  0.00     0.020 A 
ATOM      2  C1  UNL d   1       4.845  -1.582  -4.426  0.00  0.00     0.020 A 
ATOM      3  C2  UNL d   1       4.799  -2.765  -5.167  0.00  0.00     0.034 A 
ATOM      4  C3  UNL d   1       5.150  -3.982  -4.571  0.00  0.00     0.017 A 
ATOM      5  C4  UNL d   1       5.548  -4.011  -3.230  0.00  0.00     0.017 A 
ATOM      6  C5  UNL d   1       5.592  -2.823  -2.493  0.00  0.00     0.034 A 
ATOM      7 Cl   UNL d   1       5.995  -5.474  -2.426  0.00  0.00    -0.070 Cl
ATOM      8 Cl1  UNL d   1       5.070  -5.407  -5.547  0.00  0.00    -0.070 Cl
ENDROOT
TORSDOF 0
ENDMDL
