MODEL 1
REMARK minimizedAffinity 1.92587018
REMARK minimizedRMSD -1
REMARK  0 active torsions:
REMARK  status: ('A' for Active; 'I' for Inactive)
ROOT
ATOM      1  C   UNL d   1       0.223   3.820  -1.106  0.00  0.00     0.020 A 
ATOM      2  C1  UNL d   1      -0.642   2.736  -1.253  0.00  0.00     0.020 A 
ATOM      3  C2  UNL d   1      -0.541   1.641  -0.394  0.00  0.00     0.034 A 
ATOM      4  C3  UNL d   1       0.427   1.626   0.617  0.00  0.00     0.017 A 
ATOM      5  C4  UNL d   1       1.295   2.714   0.764  0.00  0.00     0.017 A 
ATOM      6  C5  UNL d   1       1.189   3.808  -0.100  0.00  0.00     0.034 A 
ATOM      7 Cl   UNL d   1       2.515   2.768   1.987  0.00  0.00    -0.070 Cl
ATOM      8 Cl1  UNL d   1       0.494   0.238   1.644  0.00  0.00    -0.070 Cl
ENDROOT
TORSDOF 0
ENDMDL
