MODEL 1
REMARK minimizedAffinity -1.06747413
REMARK minimizedRMSD -1
REMARK  0 active torsions:
REMARK  status: ('A' for Active; 'I' for Inactive)
ROOT
ATOM      1  C   UNL d   1      -0.698   0.812   0.315  0.00  0.00     0.020 A 
ATOM      2  C1  UNL d   1      -0.944   1.376  -0.936  0.00  0.00     0.020 A 
ATOM      3  C2  UNL d   1      -0.299   2.557  -1.309  0.00  0.00     0.034 A 
ATOM      4  C3  UNL d   1       0.596   3.178  -0.431  0.00  0.00     0.017 A 
ATOM      5  C4  UNL d   1       0.843   2.611   0.825  0.00  0.00     0.017 A 
ATOM      6  C5  UNL d   1       0.194   1.429   1.193  0.00  0.00     0.034 A 
ATOM      7 Cl   UNL d   1       1.934   3.319   1.963  0.00  0.00    -0.070 Cl
ATOM      8 Cl1  UNL d   1       1.358   4.636  -0.958  0.00  0.00    -0.070 Cl
ENDROOT
TORSDOF 0
ENDMDL
