MODEL 1
REMARK minimizedAffinity -2.75859261
REMARK minimizedRMSD -1
REMARK  1 active torsions:
REMARK  status: ('A' for Active; 'I' for Inactive)
REMARK    1  A    between atoms: C1_2  and  C2_3 
ROOT
ATOM      1  C2  UNL d   1       0.182  -0.019  -0.551  0.00  0.00    -0.073 A 
ATOM      2  C3  UNL d   1      -1.054   0.521  -0.923  0.00  0.00    -0.002 A 
ATOM      3  C4  UNL d   1      -2.081   0.643   0.014  0.00  0.00     0.004 A 
ATOM      4  C5  UNL d   1      -1.880   0.234   1.333  0.00  0.00    -0.004 A 
ATOM      5  C6  UNL d   1      -0.648  -0.297   1.727  0.00  0.00    -0.075 A 
ATOM      6  C7  UNL d   1      -0.417  -0.744   3.140  0.00  0.00     0.076 C 
ATOM      7  C8  UNL d   1       0.377  -0.419   0.779  0.00  0.00     0.001 A 
ENDROOT
BRANCH   1   8
ATOM      8  C1  UNL d   1       1.296  -0.148  -1.558  0.00  0.00     0.053 C 
ATOM      9  C   UNL d   1       0.770  -0.434  -2.955  0.00  0.00     0.018 C 
ENDBRANCH   1   8
TORSDOF 1
ENDMDL
