MODEL 1
REMARK minimizedAffinity -2.22100163
REMARK minimizedRMSD -1
REMARK  1 active torsions:
REMARK  status: ('A' for Active; 'I' for Inactive)
REMARK    1  A    between atoms: C1_2  and  C2_3 
ROOT
ATOM      1  C2  UNL d   1       0.312   0.302  -1.355  0.00  0.00    -0.073 A 
ATOM      2  C3  UNL d   1      -1.017   0.742  -1.350  0.00  0.00    -0.002 A 
ATOM      3  C4  UNL d   1      -1.727   0.825  -0.152  0.00  0.00     0.004 A 
ATOM      4  C5  UNL d   1      -1.116   0.476   1.052  0.00  0.00    -0.004 A 
ATOM      5  C6  UNL d   1       0.214   0.046   1.069  0.00  0.00    -0.075 A 
ATOM      6  C7  UNL d   1       0.885  -0.335   2.356  0.00  0.00     0.076 C 
ATOM      7  C8  UNL d   1       0.920  -0.038  -0.138  0.00  0.00     0.001 A 
ENDROOT
BRANCH   1   8
ATOM      8  C1  UNL d   1       1.086   0.216  -2.645  0.00  0.00     0.053 C 
ATOM      9  C   UNL d   1       0.592  -0.916  -3.532  0.00  0.00     0.018 C 
ENDBRANCH   1   8
TORSDOF 1
ENDMDL
