MODEL 1
REMARK minimizedAffinity -4.67209911
REMARK minimizedRMSD -1
REMARK  1 active torsions:
REMARK  status: ('A' for Active; 'I' for Inactive)
REMARK    1  A    between atoms: C1_2  and  C2_3 
ROOT
ATOM      1  C2  UNL d   1      -0.126  -0.844  -1.523  0.00  0.00    -0.073 A 
ATOM      2  C3  UNL d   1       0.371   0.464  -1.511  0.00  0.00    -0.002 A 
ATOM      3  C4  UNL d   1       0.368   1.208  -0.331  0.00  0.00     0.004 A 
ATOM      4  C5  UNL d   1      -0.123   0.651   0.849  0.00  0.00    -0.004 A 
ATOM      5  C6  UNL d   1      -0.613  -0.659   0.860  0.00  0.00    -0.075 A 
ATOM      6  C7  UNL d   1      -1.147  -1.273   2.121  0.00  0.00     0.076 C 
ATOM      7  C8  UNL d   1      -0.610  -1.399  -0.330  0.00  0.00     0.001 A 
ENDROOT
BRANCH   1   8
ATOM      8  C1  UNL d   1      -0.120  -1.654  -2.794  0.00  0.00     0.053 C 
ATOM      9  C   UNL d   1       1.284  -2.082  -3.190  0.00  0.00     0.018 C 
ENDBRANCH   1   8
TORSDOF 1
ENDMDL
