MODEL 1
REMARK minimizedAffinity -4.45931625
REMARK minimizedRMSD -1
REMARK  1 active torsions:
REMARK  status: ('A' for Active; 'I' for Inactive)
REMARK    1  A    between atoms: C1_2  and  C2_3 
ROOT
ATOM      1  C2  UNL d   1       0.097   0.296   0.304  0.00  0.00    -0.073 A 
ATOM      2  C3  UNL d   1       1.382   0.031   0.792  0.00  0.00    -0.002 A 
ATOM      3  C4  UNL d   1       1.557  -0.437   2.095  0.00  0.00     0.004 A 
ATOM      4  C5  UNL d   1       0.453  -0.652   2.919  0.00  0.00    -0.004 A 
ATOM      5  C6  UNL d   1      -0.840  -0.405   2.445  0.00  0.00    -0.075 A 
ATOM      6  C7  UNL d   1      -2.038  -0.628   3.319  0.00  0.00     0.076 C 
ATOM      7  C8  UNL d   1      -1.008   0.068   1.136  0.00  0.00     0.001 A 
ENDROOT
BRANCH   1   8
ATOM      8  C1  UNL d   1      -0.098   0.796  -1.104  0.00  0.00     0.053 C 
ATOM      9  C   UNL d   1       0.795   0.067  -2.097  0.00  0.00     0.018 C 
ENDBRANCH   1   8
TORSDOF 1
ENDMDL
