MODEL 1
REMARK minimizedAffinity -1.80697131
REMARK minimizedRMSD -1
REMARK  1 active torsions:
REMARK  status: ('A' for Active; 'I' for Inactive)
REMARK    1  A    between atoms: C1_2  and  C2_3 
ROOT
ATOM      1  C2  UNL d   1       0.357  -0.160  -1.561  0.00  0.00    -0.073 A 
ATOM      2  C3  UNL d   1      -0.883   0.375  -1.925  0.00  0.00    -0.002 A 
ATOM      3  C4  UNL d   1      -1.742   0.889  -0.953  0.00  0.00     0.004 A 
ATOM      4  C5  UNL d   1      -1.367   0.880   0.391  0.00  0.00    -0.004 A 
ATOM      5  C6  UNL d   1      -0.127   0.360   0.773  0.00  0.00    -0.075 A 
ATOM      6  C7  UNL d   1       0.291   0.340   2.214  0.00  0.00     0.076 C 
ATOM      7  C8  UNL d   1       0.729  -0.157  -0.209  0.00  0.00     0.001 A 
ENDROOT
BRANCH   1   8
ATOM      8  C1  UNL d   1       1.291  -0.711  -2.608  0.00  0.00     0.053 C 
ATOM      9  C   UNL d   1       0.549  -1.141  -3.863  0.00  0.00     0.018 C 
ENDBRANCH   1   8
TORSDOF 1
ENDMDL
