MODEL 1
REMARK minimizedAffinity -4.29515409
REMARK minimizedRMSD -1
REMARK  1 active torsions:
REMARK  status: ('A' for Active; 'I' for Inactive)
REMARK    1  A    between atoms: C1_2  and  C2_3 
ROOT
ATOM      1  C2  UNL d   1       0.331  -0.040  -0.758  0.00  0.00    -0.073 A 
ATOM      2  C3  UNL d   1      -1.031   0.116  -1.041  0.00  0.00    -0.002 A 
ATOM      3  C4  UNL d   1      -1.974   0.072  -0.013  0.00  0.00     0.004 A 
ATOM      4  C5  UNL d   1      -1.566  -0.121   1.307  0.00  0.00    -0.004 A 
ATOM      5  C6  UNL d   1      -0.208  -0.267   1.611  0.00  0.00    -0.075 A 
ATOM      6  C7  UNL d   1       0.247  -0.477   3.025  0.00  0.00     0.076 C 
ATOM      7  C8  UNL d   1       0.732  -0.224   0.573  0.00  0.00     0.001 A 
ENDROOT
BRANCH   1   8
ATOM      8  C1  UNL d   1       1.353   0.013  -1.864  0.00  0.00     0.053 C 
ATOM      9  C   UNL d   1       1.045  -0.980  -2.973  0.00  0.00     0.018 C 
ENDBRANCH   1   8
TORSDOF 1
ENDMDL
