MODEL 1
REMARK minimizedAffinity -2.01949906
REMARK minimizedRMSD -1
REMARK  1 active torsions:
REMARK  status: ('A' for Active; 'I' for Inactive)
REMARK    1  A    between atoms: C1_2  and  C2_3 
ROOT
ATOM      1  C2  UNL d   1      -1.526  -0.519   1.204  0.00  0.00    -0.073 A 
ATOM      2  C3  UNL d   1      -1.261  -0.774   2.555  0.00  0.00    -0.002 A 
ATOM      3  C4  UNL d   1       0.029  -0.615   3.062  0.00  0.00     0.004 A 
ATOM      4  C5  UNL d   1       1.065  -0.194   2.228  0.00  0.00    -0.004 A 
ATOM      5  C6  UNL d   1       0.818   0.078   0.878  0.00  0.00    -0.075 A 
ATOM      6  C7  UNL d   1       1.921   0.529  -0.032  0.00  0.00     0.076 C 
ATOM      7  C8  UNL d   1      -0.480  -0.087   0.376  0.00  0.00     0.001 A 
ENDROOT
BRANCH   1   8
ATOM      8  C1  UNL d   1      -2.919  -0.682   0.653  0.00  0.00     0.053 C 
ATOM      9  C   UNL d   1      -3.332   0.498  -0.211  0.00  0.00     0.018 C 
ENDBRANCH   1   8
TORSDOF 1
ENDMDL
