MODEL 1
REMARK minimizedAffinity -2.45326304
REMARK minimizedRMSD -1
REMARK  1 active torsions:
REMARK  status: ('A' for Active; 'I' for Inactive)
REMARK    1  A    between atoms: C1_2  and  C2_3 
ROOT
ATOM      1  C2  UNL d   1       0.416   0.132  -1.349  0.00  0.00    -0.073 A 
ATOM      2  C3  UNL d   1       1.291   0.073  -0.259  0.00  0.00    -0.002 A 
ATOM      3  C4  UNL d   1       0.793  -0.067   1.038  0.00  0.00     0.004 A 
ATOM      4  C5  UNL d   1      -0.582  -0.157   1.256  0.00  0.00    -0.004 A 
ATOM      5  C6  UNL d   1      -1.471  -0.113   0.178  0.00  0.00    -0.075 A 
ATOM      6  C7  UNL d   1      -2.953  -0.206   0.396  0.00  0.00     0.076 C 
ATOM      7  C8  UNL d   1      -0.964   0.031  -1.121  0.00  0.00     0.001 A 
ENDROOT
BRANCH   1   8
ATOM      8  C1  UNL d   1       0.949   0.276  -2.751  0.00  0.00     0.053 C 
ATOM      9  C   UNL d   1       1.345  -1.063  -3.351  0.00  0.00     0.018 C 
ENDBRANCH   1   8
TORSDOF 1
ENDMDL
