MODEL 1
REMARK minimizedAffinity -1.35135734
REMARK minimizedRMSD -1
REMARK  1 active torsions:
REMARK  status: ('A' for Active; 'I' for Inactive)
REMARK    1  A    between atoms: C1_2  and  C2_3 
ROOT
ATOM      1  C2  UNL d   1       0.775   0.073   0.148  0.00  0.00    -0.073 A 
ATOM      2  C3  UNL d   1      -0.610   0.237   0.033  0.00  0.00    -0.002 A 
ATOM      3  C4  UNL d   1      -1.232   0.130  -1.212  0.00  0.00     0.004 A 
ATOM      4  C5  UNL d   1      -0.478  -0.148  -2.351  0.00  0.00    -0.004 A 
ATOM      5  C6  UNL d   1       0.906  -0.327  -2.255  0.00  0.00    -0.075 A 
ATOM      6  C7  UNL d   1       1.732  -0.625  -3.472  0.00  0.00     0.076 C 
ATOM      7  C8  UNL d   1       1.523  -0.216  -1.002  0.00  0.00     0.001 A 
ENDROOT
BRANCH   1   8
ATOM      8  C1  UNL d   1       1.450   0.181   1.491  0.00  0.00     0.053 C 
ATOM      9  C   UNL d   1       0.464   0.516   2.599  0.00  0.00     0.018 C 
ENDBRANCH   1   8
TORSDOF 1
ENDMDL
