MODEL 1
REMARK minimizedAffinity -4.76549673
REMARK minimizedRMSD -1
REMARK  1 active torsions:
REMARK  status: ('A' for Active; 'I' for Inactive)
REMARK    1  A    between atoms: C1_2  and  C2_3 
ROOT
ATOM      1  C2  UNL d   1      -0.220  -0.389   0.038  0.00  0.00    -0.073 A 
ATOM      2  C3  UNL d   1      -0.653   0.893  -0.320  0.00  0.00    -0.002 A 
ATOM      3  C4  UNL d   1      -0.547   1.329  -1.642  0.00  0.00     0.004 A 
ATOM      4  C5  UNL d   1      -0.014   0.488  -2.618  0.00  0.00    -0.004 A 
ATOM      5  C6  UNL d   1       0.413  -0.801  -2.282  0.00  0.00    -0.075 A 
ATOM      6  C7  UNL d   1       0.990  -1.718  -3.320  0.00  0.00     0.076 C 
ATOM      7  C8  UNL d   1       0.305  -1.231  -0.953  0.00  0.00     0.001 A 
ENDROOT
BRANCH   1   8
ATOM      8  C1  UNL d   1      -0.339  -0.867   1.462  0.00  0.00     0.053 C 
ATOM      9  C   UNL d   1       0.153   0.174   2.455  0.00  0.00     0.018 C 
ENDBRANCH   1   8
TORSDOF 1
ENDMDL
