MODEL 1
REMARK minimizedAffinity -4.97022724
REMARK minimizedRMSD -1
REMARK  1 active torsions:
REMARK  status: ('A' for Active; 'I' for Inactive)
REMARK    1  A    between atoms: C1_2  and  C2_3 
ROOT
ATOM      1  C2  UNL d   1      -2.467  -3.994  -5.259  0.00  0.00    -0.077 A 
ATOM      2  C3  UNL d   1      -2.731  -2.617  -5.264  0.00  0.00     0.002 A 
ATOM      3  C4  UNL d   1      -3.989  -2.140  -5.635  0.00  0.00     0.002 A 
ATOM      4  C5  UNL d   1      -4.995  -3.033  -6.000  0.00  0.00    -0.004 A 
ATOM      5  C6  UNL d   1      -4.742  -4.404  -6.000  0.00  0.00     0.002 A 
ATOM      6  C7  UNL d   1      -3.484  -4.883  -5.630  0.00  0.00     0.002 A 
ENDROOT
BRANCH   1   7
ATOM      7  C1  UNL d   1      -1.126  -4.513  -4.811  0.00  0.00     0.055 C 
ATOM      8  C   UNL d   1      -0.722  -5.752  -5.597  0.00  0.00     0.019 C 
ENDBRANCH   1   7
TORSDOF 1
ENDMDL
