MODEL 1
REMARK minimizedAffinity -3.17949915
REMARK minimizedRMSD -1
REMARK  1 active torsions:
REMARK  status: ('A' for Active; 'I' for Inactive)
REMARK    1  A    between atoms: C1_2  and  C2_3 
ROOT
ATOM      1  C2  UNL d   1      -4.360  -2.488  -5.761  0.00  0.00    -0.077 A 
ATOM      2  C3  UNL d   1      -4.797  -3.799  -5.996  0.00  0.00     0.002 A 
ATOM      3  C4  UNL d   1      -3.956  -4.882  -5.731  0.00  0.00     0.002 A 
ATOM      4  C5  UNL d   1      -2.676  -4.665  -5.225  0.00  0.00    -0.004 A 
ATOM      5  C6  UNL d   1      -2.232  -3.364  -4.989  0.00  0.00     0.002 A 
ATOM      6  C7  UNL d   1      -3.070  -2.281  -5.255  0.00  0.00     0.002 A 
ENDROOT
BRANCH   1   7
ATOM      7  C1  UNL d   1      -5.283  -1.321  -6.000  0.00  0.00     0.055 C 
ATOM      8  C   UNL d   1      -4.521  -0.004  -6.000  0.00  0.00     0.019 C 
ENDBRANCH   1   7
TORSDOF 1
ENDMDL
