MODEL 1
REMARK minimizedAffinity -2.98318124
REMARK minimizedRMSD -1
REMARK  1 active torsions:
REMARK  status: ('A' for Active; 'I' for Inactive)
REMARK    1  A    between atoms: C1_2  and  C2_3 
ROOT
ATOM      1  C2  UNL d   1      -2.956  -3.118  -4.499  0.00  0.00    -0.077 A 
ATOM      2  C3  UNL d   1      -3.981  -2.245  -4.891  0.00  0.00     0.002 A 
ATOM      3  C4  UNL d   1      -5.061  -2.714  -5.640  0.00  0.00     0.002 A 
ATOM      4  C5  UNL d   1      -5.130  -4.058  -6.000  0.00  0.00    -0.004 A 
ATOM      5  C6  UNL d   1      -4.116  -4.935  -5.617  0.00  0.00     0.002 A 
ATOM      6  C7  UNL d   1      -3.034  -4.467  -4.869  0.00  0.00     0.002 A 
ENDROOT
BRANCH   1   7
ATOM      7  C1  UNL d   1      -1.815  -2.624  -3.649  0.00  0.00     0.055 C 
ATOM      8  C   UNL d   1      -2.289  -2.239  -2.255  0.00  0.00     0.019 C 
ENDBRANCH   1   7
TORSDOF 1
ENDMDL
