MODEL 1
REMARK minimizedAffinity 4.89711714
REMARK minimizedRMSD -1
REMARK  1 active torsions:
REMARK  status: ('A' for Active; 'I' for Inactive)
REMARK    1  A    between atoms: C1_2  and  C2_3 
ROOT
ATOM      1  C2  UNL d   1       0.452   0.755  -1.218  0.00  0.00    -0.077 A 
ATOM      2  C3  UNL d   1       0.464   0.073   0.007  0.00  0.00     0.002 A 
ATOM      3  C4  UNL d   1       1.182   0.581   1.091  0.00  0.00     0.002 A 
ATOM      4  C5  UNL d   1       1.890   1.774   0.963  0.00  0.00    -0.004 A 
ATOM      5  C6  UNL d   1       1.886   2.459  -0.252  0.00  0.00     0.002 A 
ATOM      6  C7  UNL d   1       1.170   1.952  -1.337  0.00  0.00     0.002 A 
ENDROOT
BRANCH   1   7
ATOM      7  C1  UNL d   1      -0.362   0.234  -2.373  0.00  0.00     0.055 C 
ATOM      8  C   UNL d   1      -0.858  -1.180  -2.108  0.00  0.00     0.019 C 
ENDBRANCH   1   7
TORSDOF 1
ENDMDL
