MODEL 1
REMARK minimizedAffinity 3.32770109
REMARK minimizedRMSD -1
REMARK  1 active torsions:
REMARK  status: ('A' for Active; 'I' for Inactive)
REMARK    1  A    between atoms: C1_2  and  C2_3 
ROOT
ATOM      1  C2  UNL d   1       4.951  -1.775  -2.962  0.00  0.00    -0.077 A 
ATOM      2  C3  UNL d   1       5.149  -3.162  -3.005  0.00  0.00     0.002 A 
ATOM      3  C4  UNL d   1       5.109  -3.844  -4.223  0.00  0.00     0.002 A 
ATOM      4  C5  UNL d   1       4.875  -3.147  -5.406  0.00  0.00    -0.004 A 
ATOM      5  C6  UNL d   1       4.674  -1.767  -5.374  0.00  0.00     0.002 A 
ATOM      6  C7  UNL d   1       4.713  -1.084  -4.158  0.00  0.00     0.002 A 
ENDROOT
BRANCH   1   7
ATOM      7  C1  UNL d   1       5.043  -1.031  -1.656  0.00  0.00     0.055 C 
ATOM      8  C   UNL d   1       4.109   0.171  -1.636  0.00  0.00     0.019 C 
ENDBRANCH   1   7
TORSDOF 1
ENDMDL
