MODEL 1
REMARK minimizedAffinity 0.627349019
REMARK minimizedRMSD -1
REMARK  1 active torsions:
REMARK  status: ('A' for Active; 'I' for Inactive)
REMARK    1  A    between atoms: C1_2  and  C2_3 
ROOT
ATOM      1  C2  UNL d   1      -3.800   3.892  -5.729  0.00  0.00    -0.077 A 
ATOM      2  C3  UNL d   1      -3.243   5.169  -5.577  0.00  0.00     0.002 A 
ATOM      3  C4  UNL d   1      -1.858   5.332  -5.515  0.00  0.00     0.002 A 
ATOM      4  C5  UNL d   1      -1.019   4.224  -5.608  0.00  0.00    -0.004 A 
ATOM      5  C6  UNL d   1      -1.564   2.949  -5.757  0.00  0.00     0.002 A 
ATOM      6  C7  UNL d   1      -2.948   2.784  -5.818  0.00  0.00     0.002 A 
ENDROOT
BRANCH   1   7
ATOM      7  C1  UNL d   1      -5.292   3.719  -5.845  0.00  0.00     0.055 C 
ATOM      8  C   UNL d   1      -5.997   5.062  -5.967  0.00  0.00     0.019 C 
ENDBRANCH   1   7
TORSDOF 1
ENDMDL
