MODEL 1
REMARK minimizedAffinity -2.74890375
REMARK minimizedRMSD -1
REMARK  1 active torsions:
REMARK  status: ('A' for Active; 'I' for Inactive)
REMARK    1  A    between atoms: C1_2  and  C2_3 
ROOT
ATOM      1  C2  UNL d   1      -3.131  -3.477  -4.841  0.00  0.00    -0.077 A 
ATOM      2  C3  UNL d   1      -4.194  -2.564  -4.864  0.00  0.00     0.002 A 
ATOM      3  C4  UNL d   1      -5.415  -2.916  -5.443  0.00  0.00     0.002 A 
ATOM      4  C5  UNL d   1      -5.585  -4.182  -6.000  0.00  0.00    -0.004 A 
ATOM      5  C6  UNL d   1      -4.532  -5.096  -5.984  0.00  0.00     0.002 A 
ATOM      6  C7  UNL d   1      -3.311  -4.745  -5.406  0.00  0.00     0.002 A 
ENDROOT
BRANCH   1   7
ATOM      7  C1  UNL d   1      -1.830  -3.116  -4.173  0.00  0.00     0.055 C 
ATOM      8  C   UNL d   1      -2.065  -2.338  -2.886  0.00  0.00     0.019 C 
ENDBRANCH   1   7
TORSDOF 1
ENDMDL
