MODEL 1
REMARK minimizedAffinity -2.19303727
REMARK minimizedRMSD -1
REMARK  1 active torsions:
REMARK  status: ('A' for Active; 'I' for Inactive)
REMARK    1  A    between atoms: C1_2  and  C2_3 
ROOT
ATOM      1  C2  UNL d   1      -5.054   3.542  -5.954  0.00  0.00    -0.077 A 
ATOM      2  C3  UNL d   1      -3.654   3.523  -5.899  0.00  0.00     0.002 A 
ATOM      3  C4  UNL d   1      -2.934   4.716  -5.811  0.00  0.00     0.002 A 
ATOM      4  C5  UNL d   1      -3.606   5.936  -5.773  0.00  0.00    -0.004 A 
ATOM      5  C6  UNL d   1      -4.999   5.966  -5.829  0.00  0.00     0.002 A 
ATOM      6  C7  UNL d   1      -5.720   4.774  -5.918  0.00  0.00     0.002 A 
ENDROOT
BRANCH   1   7
ATOM      7  C1  UNL d   1      -5.834   2.254  -6.000  0.00  0.00     0.055 C 
ATOM      8  C   UNL d   1      -5.085   1.128  -5.301  0.00  0.00     0.019 C 
ENDBRANCH   1   7
TORSDOF 1
ENDMDL
