MODEL 1
REMARK minimizedAffinity 3.90333986
REMARK minimizedRMSD -1
REMARK  1 active torsions:
REMARK  status: ('A' for Active; 'I' for Inactive)
REMARK    1  A    between atoms: C1_2  and  C2_3 
ROOT
ATOM      1  C2  UNL d   1      -3.367  -2.608  -4.692  0.00  0.00    -0.077 A 
ATOM      2  C3  UNL d   1      -4.418  -1.690  -4.551  0.00  0.00     0.002 A 
ATOM      3  C4  UNL d   1      -5.671  -1.961  -5.104  0.00  0.00     0.002 A 
ATOM      4  C5  UNL d   1      -5.887  -3.150  -5.797  0.00  0.00    -0.004 A 
ATOM      5  C6  UNL d   1      -4.848  -4.068  -5.944  0.00  0.00     0.002 A 
ATOM      6  C7  UNL d   1      -3.594  -3.799  -5.394  0.00  0.00     0.002 A 
ENDROOT
BRANCH   1   7
ATOM      7  C1  UNL d   1      -2.029  -2.340  -4.055  0.00  0.00     0.055 C 
ATOM      8  C   UNL d   1      -1.144  -3.578  -4.086  0.00  0.00     0.019 C 
ENDBRANCH   1   7
TORSDOF 1
ENDMDL
