MODEL 1
REMARK minimizedAffinity 2.17167687
REMARK minimizedRMSD -1
REMARK  1 active torsions:
REMARK  status: ('A' for Active; 'I' for Inactive)
REMARK    1  A    between atoms: C1_2  and  C2_3 
ROOT
ATOM      1  C2  UNL d   1      -3.623   3.573  -5.932  0.00  0.00    -0.077 A 
ATOM      2  C3  UNL d   1      -2.232   3.583  -5.754  0.00  0.00     0.002 A 
ATOM      3  C4  UNL d   1      -1.542   4.792  -5.645  0.00  0.00     0.002 A 
ATOM      4  C5  UNL d   1      -2.235   5.999  -5.709  0.00  0.00    -0.004 A 
ATOM      5  C6  UNL d   1      -3.617   6.000  -5.887  0.00  0.00     0.002 A 
ATOM      6  C7  UNL d   1      -4.309   4.793  -5.997  0.00  0.00     0.002 A 
ENDROOT
BRANCH   1   7
ATOM      7  C1  UNL d   1      -4.375   2.270  -6.000  0.00  0.00     0.055 C 
ATOM      8  C   UNL d   1      -3.950   1.327  -4.883  0.00  0.00     0.019 C 
ENDBRANCH   1   7
TORSDOF 1
ENDMDL
