MODEL 1
REMARK minimizedAffinity 13.0792875
REMARK minimizedRMSD -1
REMARK  0 active torsions:
REMARK  status: ('A' for Active; 'I' for Inactive)
ROOT
ATOM      1  C   UNL d   1       1.353  -3.032   0.688  0.00  0.00    -0.002 A 
ATOM      2  C1  UNL d   1       2.025  -1.886   1.091  0.00  0.00     0.010 A 
ATOM      3  C2  UNL d   1       3.421  -1.846   1.096  0.00  0.00     0.041 A 
ATOM      4  C3  UNL d   1       4.137  -2.987   0.684  0.00  0.00    -0.075 A 
ATOM      5  S   UNL d   1       5.850  -3.168   0.608  0.00  0.00     0.015 SA
ATOM      6  C4  UNL d   1       5.730  -4.770   0.038  0.00  0.00     0.022 A 
ATOM      7  C5  UNL d   1       4.423  -5.173  -0.096  0.00  0.00     0.026 A 
ATOM      8  C6  UNL d   1       3.483  -4.152   0.274  0.00  0.00    -0.082 A 
ATOM      9  C7  UNL d   1       2.067  -4.162   0.281  0.00  0.00     0.045 A 
ENDROOT
TORSDOF 0
ENDMDL
