MODEL 1
REMARK minimizedAffinity 19.9681702
REMARK minimizedRMSD -1
REMARK  0 active torsions:
REMARK  status: ('A' for Active; 'I' for Inactive)
ROOT
ATOM      1  C   UNL d   1       0.252  -1.144   1.235  0.00  0.00    -0.002 A 
ATOM      2  C1  UNL d   1       1.530  -0.673   1.503  0.00  0.00     0.010 A 
ATOM      3  C2  UNL d   1       2.645  -1.485   1.292  0.00  0.00     0.041 A 
ATOM      4  C3  UNL d   1       2.454  -2.792   0.801  0.00  0.00    -0.075 A 
ATOM      5  S   UNL d   1       3.672  -3.965   0.465  0.00  0.00     0.015 SA
ATOM      6  C4  UNL d   1       2.526  -5.119  -0.043  0.00  0.00     0.022 A 
ATOM      7  C5  UNL d   1       1.240  -4.638   0.036  0.00  0.00     0.026 A 
ATOM      8  C6  UNL d   1       1.178  -3.289   0.523  0.00  0.00    -0.082 A 
ATOM      9  C7  UNL d   1       0.067  -2.441   0.748  0.00  0.00     0.045 A 
ENDROOT
TORSDOF 0
ENDMDL
