MODEL 1
REMARK minimizedAffinity 12.098937
REMARK minimizedRMSD -1
REMARK  0 active torsions:
REMARK  status: ('A' for Active; 'I' for Inactive)
ROOT
ATOM      1  C   UNL d   1       1.830  -3.084   0.294  0.00  0.00    -0.002 A 
ATOM      2  C1  UNL d   1       2.781  -2.206   0.793  0.00  0.00     0.010 A 
ATOM      3  C2  UNL d   1       2.447  -1.292   1.795  0.00  0.00     0.041 A 
ATOM      4  C3  UNL d   1       1.129  -1.277   2.292  0.00  0.00    -0.075 A 
ATOM      5  S   UNL d   1       0.492  -0.246   3.518  0.00  0.00     0.015 SA
ATOM      6  C4  UNL d   1      -1.057  -0.948   3.408  0.00  0.00     0.022 A 
ATOM      7  C5  UNL d   1      -1.105  -1.946   2.464  0.00  0.00     0.026 A 
ATOM      8  C6  UNL d   1       0.154  -2.152   1.805  0.00  0.00    -0.082 A 
ATOM      9  C7  UNL d   1       0.523  -3.066   0.789  0.00  0.00     0.045 A 
ENDROOT
TORSDOF 0
ENDMDL
