MODEL 1
REMARK minimizedAffinity 14.6449471
REMARK minimizedRMSD -1
REMARK  0 active torsions:
REMARK  status: ('A' for Active; 'I' for Inactive)
ROOT
ATOM      1  C   UNL d   1       3.326  -3.102   0.385  0.00  0.00    -0.002 A 
ATOM      2  C1  UNL d   1       2.557  -4.255   0.320  0.00  0.00     0.010 A 
ATOM      3  C2  UNL d   1       1.208  -4.230   0.681  0.00  0.00     0.041 A 
ATOM      4  C3  UNL d   1       0.640  -3.015   1.112  0.00  0.00    -0.075 A 
ATOM      5  S   UNL d   1      -0.991  -2.747   1.603  0.00  0.00     0.015 SA
ATOM      6  C4  UNL d   1      -0.705  -1.095   1.910  0.00  0.00     0.022 A 
ATOM      7  C5  UNL d   1       0.598  -0.740   1.650  0.00  0.00     0.026 A 
ATOM      8  C6  UNL d   1       1.394  -1.841   1.185  0.00  0.00    -0.082 A 
ATOM      9  C7  UNL d   1       2.759  -1.898   0.813  0.00  0.00     0.045 A 
ENDROOT
TORSDOF 0
ENDMDL
