MODEL 1
REMARK minimizedAffinity -4.12048817
REMARK minimizedRMSD -1
REMARK  0 active torsions:
REMARK  status: ('A' for Active; 'I' for Inactive)
ROOT
ATOM      1  O1  BZF d   1       0.767  -0.035  -0.773  0.00  0.00    -0.204 OA
ATOM      2  C2  BZF d   1       0.065   0.646  -1.749  0.00  0.00     0.174 A 
ATOM      3  C3  BZF d   1      -0.850   1.467  -1.194  0.00  0.00    -0.012 A 
ATOM      4  C3A BZF d   1      -0.649   1.356   0.218  0.00  0.00    -0.107 A 
ATOM      5  C4  BZF d   1      -1.243   1.940   1.300  0.00  0.00     0.055 A 
ATOM      6  C5  BZF d   1      -0.863   1.560   2.548  0.00  0.00    -0.016 A 
ATOM      7  C6  BZF d   1       0.103   0.596   2.750  0.00  0.00     0.022 A 
ATOM      8  C7  BZF d   1       0.724  -0.008   1.708  0.00  0.00     0.029 A 
ATOM      9  C7A BZF d   1       0.365   0.398   0.446  0.00  0.00     0.058 A 
ENDROOT
TORSDOF 0
ENDMDL
