MODEL 1
REMARK minimizedAffinity -5.32198858
REMARK minimizedRMSD -1
REMARK  0 active torsions:
REMARK  status: ('A' for Active; 'I' for Inactive)
ROOT
ATOM      1  O1  BZF d   1      -0.880  -1.354  -0.224  0.00  0.00    -0.204 OA
ATOM      2  C2  BZF d   1      -0.670  -1.752  -1.530  0.00  0.00     0.174 A 
ATOM      3  C3  BZF d   1      -0.638  -0.686  -2.356  0.00  0.00    -0.012 A 
ATOM      4  C3A BZF d   1      -0.749   0.456  -1.501  0.00  0.00    -0.107 A 
ATOM      5  C4  BZF d   1      -0.762   1.802  -1.729  0.00  0.00     0.055 A 
ATOM      6  C5  BZF d   1      -0.958   2.648  -0.684  0.00  0.00    -0.016 A 
ATOM      7  C6  BZF d   1      -1.150   2.182   0.601  0.00  0.00     0.022 A 
ATOM      8  C7  BZF d   1      -1.140   0.855   0.877  0.00  0.00     0.029 A 
ATOM      9  C7A BZF d   1      -0.909  -0.000  -0.172  0.00  0.00     0.058 A 
ENDROOT
TORSDOF 0
ENDMDL
