MODEL 1
REMARK minimizedAffinity -4.89041042
REMARK minimizedRMSD -1
REMARK  0 active torsions:
REMARK  status: ('A' for Active; 'I' for Inactive)
ROOT
ATOM      1  O1  BZF d   1       0.209   0.500  -1.620  0.00  0.00    -0.204 OA
ATOM      2  C2  BZF d   1       0.589  -0.504  -0.751  0.00  0.00     0.174 A 
ATOM      3  C3  BZF d   1       0.473  -0.098   0.529  0.00  0.00    -0.012 A 
ATOM      4  C3A BZF d   1      -0.098   1.212   0.459  0.00  0.00    -0.107 A 
ATOM      5  C4  BZF d   1      -0.467   2.127   1.402  0.00  0.00     0.055 A 
ATOM      6  C5  BZF d   1      -0.925   3.342   1.000  0.00  0.00    -0.016 A 
ATOM      7  C6  BZF d   1      -1.022   3.676  -0.335  0.00  0.00     0.022 A 
ATOM      8  C7  BZF d   1      -0.673   2.799  -1.307  0.00  0.00     0.029 A 
ATOM      9  C7A BZF d   1      -0.241   1.559  -0.905  0.00  0.00     0.058 A 
ENDROOT
TORSDOF 0
ENDMDL
