MODEL 1
REMARK minimizedAffinity -5.01251984
REMARK minimizedRMSD -1
REMARK  0 active torsions:
REMARK  status: ('A' for Active; 'I' for Inactive)
ROOT
ATOM      1  O1  BZF d   1      -1.142   3.113   1.848  0.00  0.00    -0.204 OA
ATOM      2  C2  BZF d   1      -1.574   3.467   0.585  0.00  0.00     0.174 A 
ATOM      3  C3  BZF d   1      -1.275   2.504  -0.311  0.00  0.00    -0.012 A 
ATOM      4  C3A BZF d   1      -0.696   1.443   0.456  0.00  0.00    -0.107 A 
ATOM      5  C4  BZF d   1      -0.211   0.208   0.134  0.00  0.00     0.055 A 
ATOM      6  C5  BZF d   1       0.353  -0.554   1.108  0.00  0.00    -0.016 A 
ATOM      7  C6  BZF d   1       0.453  -0.112   2.410  0.00  0.00     0.022 A 
ATOM      8  C7  BZF d   1      -0.019   1.104   2.779  0.00  0.00     0.029 A 
ATOM      9  C7A BZF d   1      -0.619   1.864   1.804  0.00  0.00     0.058 A 
ENDROOT
TORSDOF 0
ENDMDL
