MODEL 1
REMARK minimizedAffinity -4.44033957
REMARK minimizedRMSD -1
REMARK  0 active torsions:
REMARK  status: ('A' for Active; 'I' for Inactive)
ROOT
ATOM      1  O1  BZF d   1      -1.342  -0.606  -0.465  0.00  0.00    -0.204 OA
ATOM      2  C2  BZF d   1      -0.361  -1.564  -0.633  0.00  0.00     0.174 A 
ATOM      3  C3  BZF d   1       0.734  -1.259   0.093  0.00  0.00    -0.012 A 
ATOM      4  C3A BZF d   1       0.384  -0.083   0.827  0.00  0.00    -0.107 A 
ATOM      5  C4  BZF d   1       1.050   0.691   1.734  0.00  0.00     0.055 A 
ATOM      6  C5  BZF d   1       0.451   1.814   2.210  0.00  0.00    -0.016 A 
ATOM      7  C6  BZF d   1      -0.809   2.196   1.797  0.00  0.00     0.022 A 
ATOM      8  C7  BZF d   1      -1.511   1.458   0.903  0.00  0.00     0.029 A 
ATOM      9  C7A BZF d   1      -0.922   0.305   0.445  0.00  0.00     0.058 A 
ENDROOT
TORSDOF 0
ENDMDL
