MODEL 1
REMARK minimizedAffinity -3.3738904
REMARK minimizedRMSD -1
REMARK  0 active torsions:
REMARK  status: ('A' for Active; 'I' for Inactive)
ROOT
ATOM      1  O1  BZF d   1       0.173   2.344  -1.656  0.00  0.00    -0.204 OA
ATOM      2  C2  BZF d   1       0.344   1.121  -2.276  0.00  0.00     0.174 A 
ATOM      3  C3  BZF d   1       0.650   0.166  -1.375  0.00  0.00    -0.012 A 
ATOM      4  C3A BZF d   1       0.582   0.815  -0.101  0.00  0.00    -0.107 A 
ATOM      5  C4  BZF d   1       0.769   0.386   1.182  0.00  0.00     0.055 A 
ATOM      6  C5  BZF d   1       0.699   1.288   2.196  0.00  0.00    -0.016 A 
ATOM      7  C6  BZF d   1       0.451   2.625   1.963  0.00  0.00     0.022 A 
ATOM      8  C7  BZF d   1       0.253   3.096   0.708  0.00  0.00     0.029 A 
ATOM      9  C7A BZF d   1       0.290   2.182  -0.316  0.00  0.00     0.058 A 
ENDROOT
TORSDOF 0
ENDMDL
