MODEL 1
REMARK minimizedAffinity -4.88622904
REMARK minimizedRMSD -1
REMARK  0 active torsions:
REMARK  status: ('A' for Active; 'I' for Inactive)
ROOT
ATOM      1  O1  BZF d   1       0.105   0.570  -1.349  0.00  0.00    -0.204 OA
ATOM      2  C2  BZF d   1       0.534  -0.739  -1.458  0.00  0.00     0.174 A 
ATOM      3  C3  BZF d   1       0.787  -1.262  -0.241  0.00  0.00    -0.012 A 
ATOM      4  C3A BZF d   1       0.410  -0.245   0.692  0.00  0.00    -0.107 A 
ATOM      5  C4  BZF d   1       0.413  -0.174   2.056  0.00  0.00     0.055 A 
ATOM      6  C5  BZF d   1       0.051   0.989   2.658  0.00  0.00    -0.016 A 
ATOM      7  C6  BZF d   1      -0.314   2.101   1.927  0.00  0.00     0.022 A 
ATOM      8  C7  BZF d   1      -0.337   2.078   0.573  0.00  0.00     0.029 A 
ATOM      9  C7A BZF d   1      -0.004   0.893  -0.038  0.00  0.00     0.058 A 
ENDROOT
TORSDOF 0
ENDMDL
