MODEL 1
REMARK minimizedAffinity -5.0014801
REMARK minimizedRMSD -1
REMARK  0 active torsions:
REMARK  status: ('A' for Active; 'I' for Inactive)
ROOT
ATOM      1  O1  BZF d   1       0.086   0.322   2.250  0.00  0.00    -0.204 OA
ATOM      2  C2  BZF d   1      -0.507   1.463   2.755  0.00  0.00     0.174 A 
ATOM      3  C3  BZF d   1      -0.735   2.358   1.772  0.00  0.00    -0.012 A 
ATOM      4  C3A BZF d   1      -0.339   1.701   0.565  0.00  0.00    -0.107 A 
ATOM      5  C4  BZF d   1      -0.341   2.070  -0.750  0.00  0.00     0.055 A 
ATOM      6  C5  BZF d   1       0.181   1.223  -1.675  0.00  0.00    -0.016 A 
ATOM      7  C6  BZF d   1       0.717   0.002  -1.321  0.00  0.00     0.022 A 
ATOM      8  C7  BZF d   1       0.737  -0.410  -0.030  0.00  0.00     0.029 A 
ATOM      9  C7A BZF d   1       0.180   0.430   0.903  0.00  0.00     0.058 A 
ENDROOT
TORSDOF 0
ENDMDL
