MODEL 1
REMARK minimizedAffinity -2.77718401
REMARK minimizedRMSD -1
REMARK  0 active torsions:
REMARK  status: ('A' for Active; 'I' for Inactive)
ROOT
ATOM      1  O1  BZF d   1       0.442   2.472   1.056  0.00  0.00    -0.204 OA
ATOM      2  C2  BZF d   1       0.164   3.134   2.237  0.00  0.00     0.174 A 
ATOM      3  C3  BZF d   1       0.414   2.341   3.300  0.00  0.00    -0.012 A 
ATOM      4  C3A BZF d   1       0.965   1.140   2.751  0.00  0.00    -0.107 A 
ATOM      5  C4  BZF d   1       1.427  -0.019   3.306  0.00  0.00     0.055 A 
ATOM      6  C5  BZF d   1       1.831  -1.027   2.489  0.00  0.00    -0.016 A 
ATOM      7  C6  BZF d   1       1.782  -0.912   1.115  0.00  0.00     0.022 A 
ATOM      8  C7  BZF d   1       1.336   0.221   0.519  0.00  0.00     0.029 A 
ATOM      9  C7A BZF d   1       0.958   1.253   1.342  0.00  0.00     0.058 A 
ENDROOT
TORSDOF 0
ENDMDL
