MODEL 1
REMARK minimizedAffinity -4.13387871
REMARK minimizedRMSD -1
REMARK  0 active torsions:
REMARK  status: ('A' for Active; 'I' for Inactive)
ROOT
ATOM      1  C   UNL d   1      -4.844  -3.724  -0.126  0.00  0.00     0.078 C 
ATOM      2  C1  UNL d   1      -3.741  -3.118  -0.941  0.00  0.00    -0.077 A 
ATOM      3  C2  UNL d   1      -3.593  -3.426  -2.298  0.00  0.00    -0.001 A 
ATOM      4  C3  UNL d   1      -2.556  -2.862  -3.042  0.00  0.00     0.003 A 
ATOM      5  C4  UNL d   1      -1.657  -1.987  -2.437  0.00  0.00    -0.005 A 
ATOM      6  C5  UNL d   1      -1.794  -1.675  -1.085  0.00  0.00     0.003 A 
ATOM      7  C6  UNL d   1      -2.831  -2.239  -0.340  0.00  0.00    -0.001 A 
ENDROOT
TORSDOF 0
ENDMDL
