MODEL 1
REMARK minimizedAffinity -4.51785755
REMARK minimizedRMSD -1
REMARK  0 active torsions:
REMARK  status: ('A' for Active; 'I' for Inactive)
ROOT
ATOM      1  C   UNL d   1      -0.048  -0.397  -0.712  0.00  0.00     0.078 C 
ATOM      2  C1  UNL d   1      -1.148  -1.408  -0.833  0.00  0.00    -0.077 A 
ATOM      3  C2  UNL d   1      -1.534  -1.907  -2.084  0.00  0.00    -0.001 A 
ATOM      4  C3  UNL d   1      -2.566  -2.841  -2.183  0.00  0.00     0.003 A 
ATOM      5  C4  UNL d   1      -3.222  -3.284  -1.036  0.00  0.00    -0.005 A 
ATOM      6  C5  UNL d   1      -2.846  -2.792   0.212  0.00  0.00     0.003 A 
ATOM      7  C6  UNL d   1      -1.814  -1.858   0.314  0.00  0.00    -0.001 A 
ENDROOT
TORSDOF 0
ENDMDL
