MODEL 1
REMARK minimizedAffinity -2.86459637
REMARK minimizedRMSD -1
REMARK  0 active torsions:
REMARK  status: ('A' for Active; 'I' for Inactive)
ROOT
ATOM      1  C   UNL d   1      -3.041  -3.407  -2.662  0.00  0.00     0.078 C 
ATOM      2  C1  UNL d   1      -2.269  -2.437  -1.818  0.00  0.00    -0.077 A 
ATOM      3  C2  UNL d   1      -2.047  -1.124  -2.250  0.00  0.00    -0.001 A 
ATOM      4  C3  UNL d   1      -1.319  -0.234  -1.458  0.00  0.00     0.003 A 
ATOM      5  C4  UNL d   1      -0.806  -0.648  -0.231  0.00  0.00    -0.005 A 
ATOM      6  C5  UNL d   1      -1.020  -1.954   0.206  0.00  0.00     0.003 A 
ATOM      7  C6  UNL d   1      -1.748  -2.845  -0.584  0.00  0.00    -0.001 A 
ENDROOT
TORSDOF 0
ENDMDL
