MODEL 1
REMARK minimizedAffinity -2.92120361
REMARK minimizedRMSD -1
REMARK  0 active torsions:
REMARK  status: ('A' for Active; 'I' for Inactive)
ROOT
ATOM      1  C   UNL d   1      -0.632  -0.215   1.537  0.00  0.00     0.078 C 
ATOM      2  C1  UNL d   1      -1.080  -0.554   0.147  0.00  0.00    -0.077 A 
ATOM      3  C2  UNL d   1      -0.566   0.128  -0.963  0.00  0.00    -0.001 A 
ATOM      4  C3  UNL d   1      -1.000  -0.192  -2.251  0.00  0.00     0.003 A 
ATOM      5  C4  UNL d   1      -1.949  -1.195  -2.440  0.00  0.00    -0.005 A 
ATOM      6  C5  UNL d   1      -2.467  -1.877  -1.342  0.00  0.00     0.003 A 
ATOM      7  C6  UNL d   1      -2.035  -1.559  -0.054  0.00  0.00    -0.001 A 
ENDROOT
TORSDOF 0
ENDMDL
