MODEL 1
REMARK minimizedAffinity -0.86035645
REMARK minimizedRMSD -1
REMARK  0 active torsions:
REMARK  status: ('A' for Active; 'I' for Inactive)
ROOT
ATOM      1  C   UNL d   1      -5.384   5.986   3.975  0.00  0.00     0.078 C 
ATOM      2  C1  UNL d   1      -5.229   5.459   2.580  0.00  0.00    -0.077 A 
ATOM      3  C2  UNL d   1      -4.312   4.441   2.291  0.00  0.00    -0.001 A 
ATOM      4  C3  UNL d   1      -4.171   3.967   0.986  0.00  0.00     0.003 A 
ATOM      5  C4  UNL d   1      -4.943   4.505  -0.041  0.00  0.00    -0.005 A 
ATOM      6  C5  UNL d   1      -5.857   5.519   0.236  0.00  0.00     0.003 A 
ATOM      7  C6  UNL d   1      -6.000   5.995   1.541  0.00  0.00    -0.001 A 
ENDROOT
TORSDOF 0
ENDMDL
