MODEL 1
REMARK minimizedAffinity 1.09904993
REMARK minimizedRMSD -1
REMARK  0 active torsions:
REMARK  status: ('A' for Active; 'I' for Inactive)
ROOT
ATOM      1  C   UNL d   1      -4.993   5.652  -0.385  0.00  0.00     0.078 C 
ATOM      2  C1  UNL d   1      -4.981   5.443   1.100  0.00  0.00    -0.077 A 
ATOM      3  C2  UNL d   1      -3.976   4.685   1.714  0.00  0.00    -0.001 A 
ATOM      4  C3  UNL d   1      -3.983   4.491   3.096  0.00  0.00     0.003 A 
ATOM      5  C4  UNL d   1      -4.994   5.049   3.876  0.00  0.00    -0.005 A 
ATOM      6  C5  UNL d   1      -6.000   5.802   3.274  0.00  0.00     0.003 A 
ATOM      7  C6  UNL d   1      -5.994   5.998   1.892  0.00  0.00    -0.001 A 
ENDROOT
TORSDOF 0
ENDMDL
