MODEL 1
REMARK minimizedAffinity 0.959190845
REMARK minimizedRMSD -1
REMARK  0 active torsions:
REMARK  status: ('A' for Active; 'I' for Inactive)
ROOT
ATOM      1  C   UNL d   1      -5.355  -4.878  -0.945  0.00  0.00     0.078 C 
ATOM      2  C1  UNL d   1      -4.412  -4.051  -1.767  0.00  0.00    -0.077 A 
ATOM      3  C2  UNL d   1      -4.216  -2.692  -1.490  0.00  0.00    -0.001 A 
ATOM      4  C3  UNL d   1      -3.342  -1.932  -2.270  0.00  0.00     0.003 A 
ATOM      5  C4  UNL d   1      -2.659  -2.522  -3.331  0.00  0.00    -0.005 A 
ATOM      6  C5  UNL d   1      -2.849  -3.873  -3.615  0.00  0.00     0.003 A 
ATOM      7  C6  UNL d   1      -3.722  -4.634  -2.837  0.00  0.00    -0.001 A 
ENDROOT
TORSDOF 0
ENDMDL
