MODEL 1
REMARK minimizedAffinity 2.17369819
REMARK minimizedRMSD -1
REMARK  0 active torsions:
REMARK  status: ('A' for Active; 'I' for Inactive)
ROOT
ATOM      1  C   UNL d   1      -0.428  -0.981   0.527  0.00  0.00     0.078 C 
ATOM      2  C1  UNL d   1      -1.239  -1.172  -0.720  0.00  0.00    -0.077 A 
ATOM      3  C2  UNL d   1      -1.459  -0.111  -1.607  0.00  0.00    -0.001 A 
ATOM      4  C3  UNL d   1      -2.224  -0.302  -2.759  0.00  0.00     0.003 A 
ATOM      5  C4  UNL d   1      -2.776  -1.552  -3.033  0.00  0.00    -0.005 A 
ATOM      6  C5  UNL d   1      -2.563  -2.613  -2.156  0.00  0.00     0.003 A 
ATOM      7  C6  UNL d   1      -1.799  -2.424  -1.003  0.00  0.00    -0.001 A 
ENDROOT
TORSDOF 0
ENDMDL
