MODEL 1
REMARK minimizedAffinity -0.684688568
REMARK minimizedRMSD -1
REMARK  0 active torsions:
REMARK  status: ('A' for Active; 'I' for Inactive)
ROOT
ATOM      1  C   UNL d   1      -4.826   5.797   0.049  0.00  0.00     0.078 C 
ATOM      2  C1  UNL d   1      -4.799   5.875   1.547  0.00  0.00    -0.077 A 
ATOM      3  C2  UNL d   1      -3.586   5.878   2.247  0.00  0.00    -0.001 A 
ATOM      4  C3  UNL d   1      -3.576   5.941   3.641  0.00  0.00     0.003 A 
ATOM      5  C4  UNL d   1      -4.776   6.000   4.347  0.00  0.00    -0.005 A 
ATOM      6  C5  UNL d   1      -5.988   5.994   3.659  0.00  0.00     0.003 A 
ATOM      7  C6  UNL d   1      -6.000   5.932   2.265  0.00  0.00    -0.001 A 
ENDROOT
TORSDOF 0
ENDMDL
