MODEL 1
REMARK minimizedAffinity 8.92989349
REMARK minimizedRMSD -1
REMARK  0 active torsions:
REMARK  status: ('A' for Active; 'I' for Inactive)
ROOT
ATOM      1  C   UNL d   1      -3.880  -4.520  -1.485  0.00  0.00     0.078 C 
ATOM      2  C1  UNL d   1      -3.288  -3.592  -2.503  0.00  0.00    -0.077 A 
ATOM      3  C2  UNL d   1      -2.681  -2.391  -2.118  0.00  0.00    -0.001 A 
ATOM      4  C3  UNL d   1      -2.143  -1.532  -3.077  0.00  0.00     0.003 A 
ATOM      5  C4  UNL d   1      -2.208  -1.864  -4.429  0.00  0.00    -0.005 A 
ATOM      6  C5  UNL d   1      -2.812  -3.056  -4.823  0.00  0.00     0.003 A 
ATOM      7  C6  UNL d   1      -3.351  -3.917  -3.864  0.00  0.00    -0.001 A 
ENDROOT
TORSDOF 0
ENDMDL
