MODEL 1
REMARK minimizedAffinity -2.00349879
REMARK minimizedRMSD -1
REMARK  0 active torsions:
REMARK  status: ('A' for Active; 'I' for Inactive)
ROOT
ATOM      1  C   UNL d   1      -5.455   5.234   1.796  0.00  0.00     0.078 C 
ATOM      2  C1  UNL d   1      -5.196   4.973   3.249  0.00  0.00    -0.077 A 
ATOM      3  C2  UNL d   1      -4.785   3.711   3.694  0.00  0.00    -0.001 A 
ATOM      4  C3  UNL d   1      -4.557   3.480   5.051  0.00  0.00     0.003 A 
ATOM      5  C4  UNL d   1      -4.737   4.506   5.976  0.00  0.00    -0.005 A 
ATOM      6  C5  UNL d   1      -5.148   5.766   5.543  0.00  0.00     0.003 A 
ATOM      7  C6  UNL d   1      -5.377   5.999   4.186  0.00  0.00    -0.001 A 
ENDROOT
TORSDOF 0
ENDMDL
