MODEL 1
REMARK minimizedAffinity 3.52978015
REMARK minimizedRMSD -1
REMARK  0 active torsions:
REMARK  status: ('A' for Active; 'I' for Inactive)
ROOT
ATOM      1  C   UNL d   1       0.231   3.168   4.287  0.00  0.00     0.078 C 
ATOM      2  C1  UNL d   1       1.120   1.963   4.375  0.00  0.00    -0.077 A 
ATOM      3  C2  UNL d   1       0.804   0.782   3.692  0.00  0.00    -0.001 A 
ATOM      4  C3  UNL d   1       1.635  -0.335   3.791  0.00  0.00     0.003 A 
ATOM      5  C4  UNL d   1       2.788  -0.282   4.573  0.00  0.00    -0.005 A 
ATOM      6  C5  UNL d   1       3.109   0.888   5.258  0.00  0.00     0.003 A 
ATOM      7  C6  UNL d   1       2.279   2.006   5.160  0.00  0.00    -0.001 A 
ENDROOT
TORSDOF 0
ENDMDL
