MODEL 1
REMARK minimizedAffinity -4.09360027
REMARK minimizedRMSD -1
REMARK  0 active torsions:
REMARK  status: ('A' for Active; 'I' for Inactive)
ROOT
ATOM      1  C   UNL d   1      -5.220   2.348   4.896  0.00  0.00     0.078 C 
ATOM      2  C1  UNL d   1      -4.964   0.871   4.910  0.00  0.00    -0.077 A 
ATOM      3  C2  UNL d   1      -3.891   0.318   4.201  0.00  0.00    -0.001 A 
ATOM      4  C3  UNL d   1      -3.670  -1.060   4.215  0.00  0.00     0.003 A 
ATOM      5  C4  UNL d   1      -4.518  -1.897   4.937  0.00  0.00    -0.005 A 
ATOM      6  C5  UNL d   1      -5.590  -1.356   5.645  0.00  0.00     0.003 A 
ATOM      7  C6  UNL d   1      -5.812   0.022   5.631  0.00  0.00    -0.001 A 
ENDROOT
TORSDOF 0
ENDMDL
