MODEL 1
REMARK minimizedAffinity -1.75548637
REMARK minimizedRMSD -1
REMARK  0 active torsions:
REMARK  status: ('A' for Active; 'I' for Inactive)
ROOT
ATOM      1  C   UNL d   1      -5.748   5.070   1.166  0.00  0.00     0.078 C 
ATOM      2  C1  UNL d   1      -5.401   5.069   2.624  0.00  0.00    -0.077 A 
ATOM      3  C2  UNL d   1      -4.492   4.141   3.148  0.00  0.00    -0.001 A 
ATOM      4  C3  UNL d   1      -4.186   4.145   4.510  0.00  0.00     0.003 A 
ATOM      5  C4  UNL d   1      -4.785   5.073   5.360  0.00  0.00    -0.005 A 
ATOM      6  C5  UNL d   1      -5.692   5.999   4.848  0.00  0.00     0.003 A 
ATOM      7  C6  UNL d   1      -6.000   5.996   3.486  0.00  0.00    -0.001 A 
ENDROOT
TORSDOF 0
ENDMDL
