MODEL 1
REMARK minimizedAffinity -3.82010555
REMARK minimizedRMSD -1
REMARK  0 active torsions:
REMARK  status: ('A' for Active; 'I' for Inactive)
ROOT
ATOM      1  C   UNL d   1      -4.802   2.511   5.993  0.00  0.00     0.078 C 
ATOM      2  C1  UNL d   1      -4.577   1.044   5.778  0.00  0.00    -0.077 A 
ATOM      3  C2  UNL d   1      -5.622   0.206   5.370  0.00  0.00    -0.001 A 
ATOM      4  C3  UNL d   1      -5.401  -1.159   5.184  0.00  0.00     0.003 A 
ATOM      5  C4  UNL d   1      -4.136  -1.700   5.405  0.00  0.00    -0.005 A 
ATOM      6  C5  UNL d   1      -3.090  -0.874   5.813  0.00  0.00     0.003 A 
ATOM      7  C6  UNL d   1      -3.309   0.491   6.000  0.00  0.00    -0.001 A 
ENDROOT
TORSDOF 0
ENDMDL
