MODEL 1
REMARK minimizedAffinity -2.54550171
REMARK minimizedRMSD -1
REMARK  0 active torsions:
REMARK  status: ('A' for Active; 'I' for Inactive)
ROOT
ATOM      1  C   UNL d   1      -4.886   5.669   1.102  0.00  0.00     0.078 C 
ATOM      2  C1  UNL d   1      -4.859   5.637   2.601  0.00  0.00    -0.077 A 
ATOM      3  C2  UNL d   1      -3.710   5.237   3.293  0.00  0.00    -0.001 A 
ATOM      4  C3  UNL d   1      -3.702   5.203   4.689  0.00  0.00     0.003 A 
ATOM      5  C4  UNL d   1      -4.842   5.567   5.403  0.00  0.00    -0.005 A 
ATOM      6  C5  UNL d   1      -5.991   5.965   4.723  0.00  0.00     0.003 A 
ATOM      7  C6  UNL d   1      -6.000   5.999   3.328  0.00  0.00    -0.001 A 
ENDROOT
TORSDOF 0
ENDMDL
