MODEL 1
REMARK minimizedAffinity -4.13659
REMARK minimizedRMSD -1
REMARK  0 active torsions:
REMARK  status: ('A' for Active; 'I' for Inactive)
ROOT
ATOM      1  C   UNL d   1      -1.197   3.367   0.302  0.00  0.00     0.124 A 
ATOM      2  C1  UNL d   1      -0.984   2.606   1.444  0.00  0.00     0.062 A 
ATOM      3  C2  UNL d   1      -0.250   1.426   1.371  0.00  0.00     0.162 A 
ATOM      4  C3  UNL d   1       0.278   0.999   0.153  0.00  0.00    -0.034 A 
ATOM      5  C4  UNL d   1       0.060   1.769  -0.991  0.00  0.00     0.162 A 
ATOM      6  C5  UNL d   1      -0.675   2.948  -0.913  0.00  0.00     0.062 A 
ATOM      7  F   UNL d   1      -0.879   3.681  -2.017  0.00  0.00    -0.097 F 
ATOM      8  F1  UNL d   1       0.553   1.388  -2.178  0.00  0.00    -0.096 F 
ATOM      9  I   UNL d   1       1.377  -0.765   0.041  0.00  0.00    -0.060 I 
ATOM     10  F2  UNL d   1      -0.060   0.711   2.490  0.00  0.00    -0.096 F 
ATOM     11  F3  UNL d   1      -1.488   3.008   2.619  0.00  0.00    -0.097 F 
ATOM     12  F4  UNL d   1      -1.904   4.502   0.374  0.00  0.00    -0.092 F 
ENDROOT
TORSDOF 0
ENDMDL
