MODEL 1
REMARK minimizedAffinity -0.303701043
REMARK minimizedRMSD -1
REMARK  0 active torsions:
REMARK  status: ('A' for Active; 'I' for Inactive)
ROOT
ATOM      1  C   UNL d   1      -0.094   1.392  -1.319  0.00  0.00     0.124 A 
ATOM      2  C1  UNL d   1      -0.103   0.786  -0.071  0.00  0.00     0.062 A 
ATOM      3  C2  UNL d   1      -0.323  -0.584   0.041  0.00  0.00     0.162 A 
ATOM      4  C3  UNL d   1      -0.536  -1.358  -1.101  0.00  0.00    -0.034 A 
ATOM      5  C4  UNL d   1      -0.527  -0.740  -2.353  0.00  0.00     0.162 A 
ATOM      6  C5  UNL d   1      -0.306   0.629  -2.459  0.00  0.00     0.062 A 
ATOM      7  F   UNL d   1      -0.298   1.213  -3.666  0.00  0.00    -0.097 F 
ATOM      8  F1  UNL d   1      -0.728  -1.454  -3.470  0.00  0.00    -0.096 F 
ATOM      9  I   UNL d   1      -0.866  -3.406  -0.939  0.00  0.00    -0.060 I 
ATOM     10  F2  UNL d   1      -0.327  -1.144   1.260  0.00  0.00    -0.096 F 
ATOM     11  F3  UNL d   1       0.101   1.521   1.032  0.00  0.00    -0.097 F 
ATOM     12  F4  UNL d   1       0.118   2.710  -1.423  0.00  0.00    -0.092 F 
ENDROOT
TORSDOF 0
ENDMDL
