MODEL 1
REMARK minimizedAffinity -0.0267027542
REMARK minimizedRMSD -1
REMARK  0 active torsions:
REMARK  status: ('A' for Active; 'I' for Inactive)
ROOT
ATOM      1  C   UNL d   1      -0.132   1.031  -1.145  0.00  0.00     0.124 A 
ATOM      2  C1  UNL d   1      -0.124   0.238  -2.283  0.00  0.00     0.062 A 
ATOM      3  C2  UNL d   1      -0.174  -1.149  -2.170  0.00  0.00     0.162 A 
ATOM      4  C3  UNL d   1      -0.235  -1.751  -0.913  0.00  0.00    -0.034 A 
ATOM      5  C4  UNL d   1      -0.242  -0.946   0.227  0.00  0.00     0.162 A 
ATOM      6  C5  UNL d   1      -0.191   0.439   0.109  0.00  0.00     0.062 A 
ATOM      7  F   UNL d   1      -0.199   1.204   1.210  0.00  0.00    -0.097 F 
ATOM      8  F1  UNL d   1      -0.299  -1.492   1.451  0.00  0.00    -0.096 F 
ATOM      9  I   UNL d   1      -0.310  -3.824  -0.740  0.00  0.00    -0.060 I 
ATOM     10  F2  UNL d   1      -0.165  -1.891  -3.287  0.00  0.00    -0.096 F 
ATOM     11  F3  UNL d   1      -0.066   0.807  -3.496  0.00  0.00    -0.097 F 
ATOM     12  F4  UNL d   1      -0.083   2.365  -1.256  0.00  0.00    -0.092 F 
ENDROOT
TORSDOF 0
ENDMDL
