MODEL 1
REMARK minimizedAffinity 5.42245007
REMARK minimizedRMSD -1
REMARK  0 active torsions:
REMARK  status: ('A' for Active; 'I' for Inactive)
ROOT
ATOM      1  C   UNL d   1      -0.380  -0.069  -0.024  0.00  0.00     0.124 A 
ATOM      2  C1  UNL d   1       0.438  -1.146  -0.338  0.00  0.00     0.062 A 
ATOM      3  C2  UNL d   1       1.698  -1.260   0.242  0.00  0.00     0.162 A 
ATOM      4  C3  UNL d   1       2.149  -0.295   1.142  0.00  0.00    -0.034 A 
ATOM      5  C4  UNL d   1       1.321   0.786   1.452  0.00  0.00     0.162 A 
ATOM      6  C5  UNL d   1       0.062   0.896   0.870  0.00  0.00     0.062 A 
ATOM      7  F   UNL d   1      -0.726   1.937   1.175  0.00  0.00    -0.097 F 
ATOM      8  F1  UNL d   1       1.723   1.732   2.314  0.00  0.00    -0.096 F 
ATOM      9  I   UNL d   1       4.033  -0.462   2.011  0.00  0.00    -0.060 I 
ATOM     10  F2  UNL d   1       2.467  -2.311  -0.080  0.00  0.00    -0.096 F 
ATOM     11  F3  UNL d   1       0.013  -2.079  -1.202  0.00  0.00    -0.097 F 
ATOM     12  F4  UNL d   1      -1.592   0.039  -0.584  0.00  0.00    -0.092 F 
ENDROOT
TORSDOF 0
ENDMDL
