MODEL 1
REMARK minimizedAffinity 0.269128591
REMARK minimizedRMSD -1
REMARK  0 active torsions:
REMARK  status: ('A' for Active; 'I' for Inactive)
ROOT
ATOM      1  C   UNL d   1      -0.176  -4.521  -1.062  0.00  0.00     0.124 A 
ATOM      2  C1  UNL d   1      -0.645  -3.222  -1.207  0.00  0.00     0.062 A 
ATOM      3  C2  UNL d   1       0.113  -2.149  -0.750  0.00  0.00     0.162 A 
ATOM      4  C3  UNL d   1       1.350  -2.368  -0.144  0.00  0.00    -0.034 A 
ATOM      5  C4  UNL d   1       1.815  -3.677  -0.001  0.00  0.00     0.162 A 
ATOM      6  C5  UNL d   1       1.053  -4.746  -0.459  0.00  0.00     0.062 A 
ATOM      7  F   UNL d   1       1.508  -6.000  -0.318  0.00  0.00    -0.097 F 
ATOM      8  F1  UNL d   1       3.000  -3.923   0.577  0.00  0.00    -0.096 F 
ATOM      9  I   UNL d   1       2.487  -0.765   0.541  0.00  0.00    -0.060 I 
ATOM     10  F2  UNL d   1      -0.365  -0.905  -0.903  0.00  0.00    -0.096 F 
ATOM     11  F3  UNL d   1      -1.833  -3.002  -1.788  0.00  0.00    -0.097 F 
ATOM     12  F4  UNL d   1      -0.908  -5.552  -1.502  0.00  0.00    -0.092 F 
ENDROOT
TORSDOF 0
ENDMDL
