MODEL 1
REMARK minimizedAffinity -2.01090074
REMARK minimizedRMSD -1
REMARK  0 active torsions:
REMARK  status: ('A' for Active; 'I' for Inactive)
ROOT
ATOM      1  C   UNL d   1      -1.180   1.802   1.064  0.00  0.00     0.124 A 
ATOM      2  C1  UNL d   1      -0.689   1.492  -0.196  0.00  0.00     0.062 A 
ATOM      3  C2  UNL d   1       0.402   0.639  -0.332  0.00  0.00     0.162 A 
ATOM      4  C3  UNL d   1       1.010   0.089   0.797  0.00  0.00    -0.034 A 
ATOM      5  C4  UNL d   1       0.512   0.407   2.061  0.00  0.00     0.162 A 
ATOM      6  C5  UNL d   1      -0.580   1.260   2.191  0.00  0.00     0.062 A 
ATOM      7  F   UNL d   1      -1.052   1.559   3.410  0.00  0.00    -0.097 F 
ATOM      8  F1  UNL d   1       1.072  -0.104   3.168  0.00  0.00    -0.096 F 
ATOM      9  I   UNL d   1       2.643  -1.187   0.599  0.00  0.00    -0.060 I 
ATOM     10  F2  UNL d   1       0.855   0.356  -1.562  0.00  0.00    -0.096 F 
ATOM     11  F3  UNL d   1      -1.267   2.015  -1.287  0.00  0.00    -0.097 F 
ATOM     12  F4  UNL d   1      -2.230   2.624   1.192  0.00  0.00    -0.092 F 
ENDROOT
TORSDOF 0
ENDMDL
