MODEL 1
REMARK minimizedAffinity 3.90320134
REMARK minimizedRMSD -1
REMARK  0 active torsions:
REMARK  status: ('A' for Active; 'I' for Inactive)
ROOT
ATOM      1  O1  BZF d   1      -1.671  -1.172  -2.702  0.00  0.00    -0.204 OA
ATOM      2  C2  BZF d   1      -2.396  -0.113  -3.212  0.00  0.00     0.174 A 
ATOM      3  C3  BZF d   1      -2.344   0.947  -2.379  0.00  0.00    -0.012 A 
ATOM      4  C3A BZF d   1      -1.460   0.555  -1.325  0.00  0.00    -0.107 A 
ATOM      5  C4  BZF d   1      -0.997   1.185  -0.206  0.00  0.00     0.055 A 
ATOM      6  C5  BZF d   1      -0.203   0.498   0.658  0.00  0.00    -0.016 A 
ATOM      7  C6  BZF d   1       0.142  -0.819   0.436  0.00  0.00     0.022 A 
ATOM      8  C7  BZF d   1      -0.290  -1.485  -0.663  0.00  0.00     0.029 A 
ATOM      9  C7A BZF d   1      -1.065  -0.783  -1.554  0.00  0.00     0.058 A 
ENDROOT
TORSDOF 0
ENDMDL
