MODEL 1
REMARK minimizedAffinity -4.18350458
REMARK minimizedRMSD -1
REMARK  0 active torsions:
REMARK  status: ('A' for Active; 'I' for Inactive)
ROOT
ATOM      1  O1  BZF d   1      -0.364   0.760  -0.098  0.00  0.00    -0.204 OA
ATOM      2  C2  BZF d   1       0.057   1.982  -0.587  0.00  0.00     0.174 A 
ATOM      3  C3  BZF d   1       1.386   2.135  -0.413  0.00  0.00    -0.012 A 
ATOM      4  C3A BZF d   1       1.838   0.896   0.141  0.00  0.00    -0.107 A 
ATOM      5  C4  BZF d   1       3.064   0.428   0.518  0.00  0.00     0.055 A 
ATOM      6  C5  BZF d   1       3.154  -0.801   1.091  0.00  0.00    -0.016 A 
ATOM      7  C6  BZF d   1       2.040  -1.586   1.306  0.00  0.00     0.022 A 
ATOM      8  C7  BZF d   1       0.803  -1.167   0.944  0.00  0.00     0.029 A 
ATOM      9  C7A BZF d   1       0.713   0.061   0.334  0.00  0.00     0.058 A 
ENDROOT
TORSDOF 0
ENDMDL
