MODEL 1
REMARK minimizedAffinity -5.5857873
REMARK minimizedRMSD -1
REMARK  0 active torsions:
REMARK  status: ('A' for Active; 'I' for Inactive)
ROOT
ATOM      1  O1  BZF d   1      -0.382  -1.488   0.311  0.00  0.00    -0.204 OA
ATOM      2  C2  BZF d   1      -1.494  -0.731  -0.005  0.00  0.00     0.174 A 
ATOM      3  C3  BZF d   1      -1.221   0.586   0.095  0.00  0.00    -0.012 A 
ATOM      4  C3A BZF d   1       0.173   0.658   0.411  0.00  0.00    -0.107 A 
ATOM      5  C4  BZF d   1       1.035   1.696   0.621  0.00  0.00     0.055 A 
ATOM      6  C5  BZF d   1       2.317   1.427   0.982  0.00  0.00    -0.016 A 
ATOM      7  C6  BZF d   1       2.768   0.134   1.148  0.00  0.00     0.022 A 
ATOM      8  C7  BZF d   1       1.951  -0.929   0.946  0.00  0.00     0.029 A 
ATOM      9  C7A BZF d   1       0.664  -0.661   0.548  0.00  0.00     0.058 A 
ENDROOT
TORSDOF 0
ENDMDL
