MODEL 1
REMARK minimizedAffinity 1.60555148
REMARK minimizedRMSD -1
REMARK  0 active torsions:
REMARK  status: ('A' for Active; 'I' for Inactive)
ROOT
ATOM      1  C1  DEN d   1       1.187   1.764   0.429  0.00  0.00     0.130 A 
ATOM      2  C2  DEN d   1       1.471   2.669  -0.681  0.00  0.00    -0.031 A 
ATOM      3  C3  DEN d   1       2.310   1.945  -1.657  0.00  0.00     0.027 A 
ATOM      4  C4  DEN d   1       3.189  -0.478  -1.560  0.00  0.00     0.027 A 
ATOM      5  C5  DEN d   1       3.219  -1.632  -0.808  0.00  0.00    -0.003 A 
ATOM      6  C6  DEN d   1       2.608  -1.723   0.414  0.00  0.00     0.001 A 
ATOM      7  C7  DEN d   1       1.902  -0.655   0.901  0.00  0.00     0.017 A 
ATOM      8  C8  DEN d   1       1.873   0.514   0.152  0.00  0.00    -0.094 A 
ATOM      9  C9  DEN d   1       2.486   0.582  -1.087  0.00  0.00    -0.072 A 
ENDROOT
TORSDOF 0
ENDMDL
