MODEL 1
REMARK minimizedAffinity 2.05796099
REMARK minimizedRMSD -1
REMARK  0 active torsions:
REMARK  status: ('A' for Active; 'I' for Inactive)
ROOT
ATOM      1  C1  DEN d   1       1.002  -1.813   1.643  0.00  0.00     0.130 A 
ATOM      2  C2  DEN d   1       2.037  -1.183   0.827  0.00  0.00    -0.031 A 
ATOM      3  C3  DEN d   1       1.529   0.128   0.377  0.00  0.00     0.027 A 
ATOM      4  C4  DEN d   1      -0.747   1.240   0.864  0.00  0.00     0.027 A 
ATOM      5  C5  DEN d   1      -1.959   1.085   1.500  0.00  0.00    -0.003 A 
ATOM      6  C6  DEN d   1      -2.279  -0.051   2.194  0.00  0.00     0.001 A 
ATOM      7  C7  DEN d   1      -1.359  -1.060   2.307  0.00  0.00     0.017 A 
ATOM      8  C8  DEN d   1      -0.138  -0.914   1.662  0.00  0.00    -0.094 A 
ATOM      9  C9  DEN d   1       0.172   0.248   0.976  0.00  0.00    -0.072 A 
ENDROOT
TORSDOF 0
ENDMDL
