MODEL 1
REMARK minimizedAffinity 11.2203054
REMARK minimizedRMSD -1
REMARK  0 active torsions:
REMARK  status: ('A' for Active; 'I' for Inactive)
ROOT
ATOM      1  C1  DEN d   1       0.525   1.626   1.096  0.00  0.00     0.130 A 
ATOM      2  C2  DEN d   1      -0.374   0.492   1.291  0.00  0.00    -0.031 A 
ATOM      3  C3  DEN d   1       0.247  -0.694   0.668  0.00  0.00     0.027 A 
ATOM      4  C4  DEN d   1       2.502  -0.885  -0.569  0.00  0.00     0.027 A 
ATOM      5  C5  DEN d   1       3.610  -0.188  -0.996  0.00  0.00    -0.003 A 
ATOM      6  C6  DEN d   1       3.751   1.159  -0.788  0.00  0.00     0.001 A 
ATOM      7  C7  DEN d   1       2.788   1.842  -0.094  0.00  0.00     0.017 A 
ATOM      8  C8  DEN d   1       1.664   1.148   0.333  0.00  0.00    -0.094 A 
ATOM      9  C9  DEN d   1       1.546  -0.216   0.123  0.00  0.00    -0.072 A 
ENDROOT
TORSDOF 0
ENDMDL
