MODEL 1
REMARK minimizedAffinity 1.09816325
REMARK minimizedRMSD -1
REMARK  0 active torsions:
REMARK  status: ('A' for Active; 'I' for Inactive)
ROOT
ATOM      1  C1  DEN d   1      -5.243  -5.342   1.563  0.00  0.00     0.130 A 
ATOM      2  C2  DEN d   1      -3.955  -4.918   2.106  0.00  0.00    -0.031 A 
ATOM      3  C3  DEN d   1      -3.000  -4.813   0.985  0.00  0.00     0.027 A 
ATOM      4  C4  DEN d   1      -3.389  -5.260  -1.526  0.00  0.00     0.027 A 
ATOM      5  C5  DEN d   1      -4.316  -5.653  -2.466  0.00  0.00    -0.003 A 
ATOM      6  C6  DEN d   1      -5.597  -5.999  -2.127  0.00  0.00     0.001 A 
ATOM      7  C7  DEN d   1      -6.000  -5.917  -0.820  0.00  0.00     0.017 A 
ATOM      8  C8  DEN d   1      -5.069  -5.529   0.134  0.00  0.00    -0.094 A 
ATOM      9  C9  DEN d   1      -3.782  -5.170  -0.230  0.00  0.00    -0.072 A 
ENDROOT
TORSDOF 0
ENDMDL
