MODEL 1
REMARK minimizedAffinity -2.96264195
REMARK minimizedRMSD -1
REMARK  0 active torsions:
REMARK  status: ('A' for Active; 'I' for Inactive)
ROOT
ATOM      1  C1  DEN d   1      -2.887  -5.983   1.647  0.00  0.00     0.130 A 
ATOM      2  C2  DEN d   1      -4.158  -5.958   2.366  0.00  0.00    -0.031 A 
ATOM      3  C3  DEN d   1      -5.247  -5.954   1.368  0.00  0.00     0.027 A 
ATOM      4  C4  DEN d   1      -5.089  -5.987  -1.206  0.00  0.00     0.027 A 
ATOM      5  C5  DEN d   1      -4.223  -5.999  -2.277  0.00  0.00    -0.003 A 
ATOM      6  C6  DEN d   1      -2.863  -5.972  -2.118  0.00  0.00     0.001 A 
ATOM      7  C7  DEN d   1      -2.328  -5.978  -0.857  0.00  0.00     0.017 A 
ATOM      8  C8  DEN d   1      -3.194  -5.958   0.228  0.00  0.00    -0.094 A 
ATOM      9  C9  DEN d   1      -4.566  -5.998   0.046  0.00  0.00    -0.072 A 
ENDROOT
TORSDOF 0
ENDMDL
