MODEL 1
REMARK minimizedAffinity 2.62838149
REMARK minimizedRMSD -1
REMARK  0 active torsions:
REMARK  status: ('A' for Active; 'I' for Inactive)
ROOT
ATOM      1  C1  DEN d   1      -5.617  -6.000  -0.640  0.00  0.00     0.130 A 
ATOM      2  C2  DEN d   1      -5.244  -5.922  -2.050  0.00  0.00    -0.031 A 
ATOM      3  C3  DEN d   1      -3.930  -5.255  -2.139  0.00  0.00     0.027 A 
ATOM      4  C4  DEN d   1      -2.441  -4.343  -0.241  0.00  0.00     0.027 A 
ATOM      5  C5  DEN d   1      -2.341  -4.169   1.122  0.00  0.00    -0.003 A 
ATOM      6  C6  DEN d   1      -3.332  -4.559   1.983  0.00  0.00     0.001 A 
ATOM      7  C7  DEN d   1      -4.449  -5.185   1.494  0.00  0.00     0.017 A 
ATOM      8  C8  DEN d   1      -4.561  -5.357   0.121  0.00  0.00    -0.094 A 
ATOM      9  C9  DEN d   1      -3.542  -4.967  -0.732  0.00  0.00    -0.072 A 
ENDROOT
TORSDOF 0
ENDMDL
