MODEL 1
REMARK minimizedAffinity 7.91573
REMARK minimizedRMSD -1
REMARK  0 active torsions:
REMARK  status: ('A' for Active; 'I' for Inactive)
ROOT
ATOM      1  C1  DEN d   1      -4.734  -5.032   3.121  0.00  0.00     0.130 A 
ATOM      2  C2  DEN d   1      -3.634  -4.487   3.913  0.00  0.00    -0.031 A 
ATOM      3  C3  DEN d   1      -2.576  -4.046   2.982  0.00  0.00     0.027 A 
ATOM      4  C4  DEN d   1      -2.535  -4.151   0.405  0.00  0.00     0.027 A 
ATOM      5  C5  DEN d   1      -3.237  -4.541  -0.714  0.00  0.00    -0.003 A 
ATOM      6  C6  DEN d   1      -4.462  -5.149  -0.632  0.00  0.00     0.001 A 
ATOM      7  C7  DEN d   1      -5.043  -5.342   0.593  0.00  0.00     0.017 A 
ATOM      8  C8  DEN d   1      -4.338  -4.958   1.726  0.00  0.00    -0.094 A 
ATOM      9  C9  DEN d   1      -3.106  -4.334   1.622  0.00  0.00    -0.072 A 
ENDROOT
TORSDOF 0
ENDMDL
