MODEL 1
REMARK minimizedAffinity 9.08501244
REMARK minimizedRMSD -1
REMARK  0 active torsions:
REMARK  status: ('A' for Active; 'I' for Inactive)
ROOT
ATOM      1  C1  DEN d   1       0.595  -3.184  -0.437  0.00  0.00     0.130 A 
ATOM      2  C2  DEN d   1      -0.679  -3.469   0.218  0.00  0.00    -0.031 A 
ATOM      3  C3  DEN d   1      -1.316  -2.180   0.555  0.00  0.00     0.027 A 
ATOM      4  C4  DEN d   1      -0.460   0.215   0.127  0.00  0.00     0.027 A 
ATOM      5  C5  DEN d   1       0.576   0.961  -0.389  0.00  0.00    -0.003 A 
ATOM      6  C6  DEN d   1       1.698   0.383  -0.922  0.00  0.00     0.001 A 
ATOM      7  C7  DEN d   1       1.789  -0.982  -0.992  0.00  0.00     0.017 A 
ATOM      8  C8  DEN d   1       0.752  -1.741  -0.467  0.00  0.00    -0.094 A 
ATOM      9  C9  DEN d   1      -0.379  -1.138   0.056  0.00  0.00    -0.072 A 
ENDROOT
TORSDOF 0
ENDMDL
