MODEL 1
REMARK minimizedAffinity 10.1880436
REMARK minimizedRMSD -1
REMARK  0 active torsions:
REMARK  status: ('A' for Active; 'I' for Inactive)
ROOT
ATOM      1  C1  DEN d   1       1.770  -0.331   0.292  0.00  0.00     0.130 A 
ATOM      2  C2  DEN d   1       0.703   0.473  -0.298  0.00  0.00    -0.031 A 
ATOM      3  C3  DEN d   1       1.286   1.756  -0.737  0.00  0.00     0.027 A 
ATOM      4  C4  DEN d   1       3.727   2.571  -0.565  0.00  0.00     0.027 A 
ATOM      5  C5  DEN d   1       4.992   2.244  -0.129  0.00  0.00    -0.003 A 
ATOM      6  C6  DEN d   1       5.263   1.059   0.503  0.00  0.00     0.001 A 
ATOM      7  C7  DEN d   1       4.263   0.139   0.676  0.00  0.00     0.017 A 
ATOM      8  C8  DEN d   1       2.983   0.465   0.246  0.00  0.00    -0.094 A 
ATOM      9  C9  DEN d   1       2.733   1.663  -0.401  0.00  0.00    -0.072 A 
ENDROOT
TORSDOF 0
ENDMDL
