MODEL 1
REMARK minimizedAffinity 4.73000765
REMARK minimizedRMSD -1
REMARK  0 active torsions:
REMARK  status: ('A' for Active; 'I' for Inactive)
ROOT
ATOM      1  C1  DEN d   1      -2.053  -5.999  -4.401  0.00  0.00     0.130 A 
ATOM      2  C2  DEN d   1      -2.399  -5.957  -2.983  0.00  0.00    -0.031 A 
ATOM      3  C3  DEN d   1      -1.237  -5.423  -2.245  0.00  0.00     0.027 A 
ATOM      4  C4  DEN d   1       1.051  -4.657  -3.156  0.00  0.00     0.027 A 
ATOM      5  C5  DEN d   1       1.817  -4.515  -4.292  0.00  0.00    -0.003 A 
ATOM      6  C6  DEN d   1       1.362  -4.887  -5.530  0.00  0.00     0.001 A 
ATOM      7  C7  DEN d   1       0.090  -5.377  -5.667  0.00  0.00     0.017 A 
ATOM      8  C8  DEN d   1      -0.685  -5.529  -4.525  0.00  0.00    -0.094 A 
ATOM      9  C9  DEN d   1      -0.212  -5.136  -3.284  0.00  0.00    -0.072 A 
ENDROOT
TORSDOF 0
ENDMDL
