MODEL 1
REMARK minimizedAffinity 6.31681299
REMARK minimizedRMSD -1
REMARK  0 active torsions:
REMARK  status: ('A' for Active; 'I' for Inactive)
ROOT
ATOM      1  C1  DEN d   1       3.807  -0.595  -0.309  0.00  0.00     0.130 A 
ATOM      2  C2  DEN d   1       3.742  -0.749   1.142  0.00  0.00    -0.031 A 
ATOM      3  C3  DEN d   1       2.366  -0.433   1.573  0.00  0.00     0.027 A 
ATOM      4  C4  DEN d   1       0.339   0.273   0.142  0.00  0.00     0.027 A 
ATOM      5  C5  DEN d   1      -0.090   0.551  -1.137  0.00  0.00    -0.003 A 
ATOM      6  C6  DEN d   1       0.751   0.499  -2.216  0.00  0.00     0.001 A 
ATOM      7  C7  DEN d   1       2.056   0.119  -2.043  0.00  0.00     0.017 A 
ATOM      8  C8  DEN d   1       2.497  -0.156  -0.755  0.00  0.00    -0.094 A 
ATOM      9  C9  DEN d   1       1.628  -0.110   0.322  0.00  0.00    -0.072 A 
ENDROOT
TORSDOF 0
ENDMDL
