MODEL 1
REMARK minimizedAffinity -3.12954164
REMARK minimizedRMSD -1
REMARK  1 active torsions:
REMARK  status: ('A' for Active; 'I' for Inactive)
REMARK    1  A    between atoms: C1_2  and  C2_3 
ROOT
ATOM      1  C2  UNL d   1      -0.117   0.698   0.538  0.00  0.00    -0.073 A 
ATOM      2  C3  UNL d   1      -0.536  -0.472  -0.105  0.00  0.00    -0.002 A 
ATOM      3  C4  UNL d   1      -0.901  -0.444  -1.452  0.00  0.00     0.004 A 
ATOM      4  C5  UNL d   1      -0.843   0.750  -2.170  0.00  0.00    -0.004 A 
ATOM      5  C6  UNL d   1      -0.415   1.927  -1.548  0.00  0.00    -0.075 A 
ATOM      6  C7  UNL d   1      -0.349   3.220  -2.306  0.00  0.00     0.076 C 
ATOM      7  C8  UNL d   1      -0.054   1.891  -0.194  0.00  0.00     0.001 A 
ENDROOT
BRANCH   1   8
ATOM      8  C1  UNL d   1       0.283   0.671   1.991  0.00  0.00     0.053 C 
ATOM      9  C   UNL d   1      -0.060  -0.654   2.653  0.00  0.00     0.018 C 
ENDBRANCH   1   8
TORSDOF 1
ENDMDL
