MODEL 1
REMARK minimizedAffinity -4.8453598
REMARK minimizedRMSD -1
REMARK  1 active torsions:
REMARK  status: ('A' for Active; 'I' for Inactive)
REMARK    1  A    between atoms: C1_2  and  C2_3 
ROOT
ATOM      1  C2  UNL d   1      -0.785   0.188  -0.669  0.00  0.00    -0.073 A 
ATOM      2  C3  UNL d   1      -1.297   0.215   0.633  0.00  0.00    -0.002 A 
ATOM      3  C4  UNL d   1      -0.569  -0.334   1.689  0.00  0.00     0.004 A 
ATOM      4  C5  UNL d   1       0.680  -0.910   1.455  0.00  0.00    -0.004 A 
ATOM      5  C6  UNL d   1       1.214  -0.936   0.163  0.00  0.00    -0.075 A 
ATOM      6  C7  UNL d   1       2.555  -1.554  -0.105  0.00  0.00     0.076 C 
ATOM      7  C8  UNL d   1       0.476  -0.385  -0.892  0.00  0.00     0.001 A 
ENDROOT
BRANCH   1   8
ATOM      8  C1  UNL d   1      -1.565   0.786  -1.812  0.00  0.00     0.053 C 
ATOM      9  C   UNL d   1      -1.142   2.217  -2.103  0.00  0.00     0.018 C 
ENDBRANCH   1   8
TORSDOF 1
ENDMDL
