MODEL 1
REMARK minimizedAffinity -5.98954153
REMARK minimizedRMSD -1
REMARK  1 active torsions:
REMARK  status: ('A' for Active; 'I' for Inactive)
REMARK    1  A    between atoms: C1_2  and  C2_3 
ROOT
ATOM      1  C2  UNL d   1       0.285  -0.505  -0.278  0.00  0.00    -0.073 A 
ATOM      2  C3  UNL d   1      -0.695  -0.008   0.588  0.00  0.00    -0.002 A 
ATOM      3  C4  UNL d   1      -0.546  -0.136   1.969  0.00  0.00     0.004 A 
ATOM      4  C5  UNL d   1       0.585  -0.756   2.499  0.00  0.00    -0.004 A 
ATOM      5  C6  UNL d   1       1.582  -1.249   1.650  0.00  0.00    -0.075 A 
ATOM      6  C7  UNL d   1       2.804  -1.921   2.203  0.00  0.00     0.076 C 
ATOM      7  C8  UNL d   1       1.424  -1.119   0.263  0.00  0.00     0.001 A 
ENDROOT
BRANCH   1   8
ATOM      8  C1  UNL d   1       0.132  -0.363  -1.771  0.00  0.00     0.053 C 
ATOM      9  C   UNL d   1      -0.782   0.794  -2.142  0.00  0.00     0.018 C 
ENDBRANCH   1   8
TORSDOF 1
ENDMDL
