MODEL 1
REMARK minimizedAffinity -3.22934246
REMARK minimizedRMSD -1
REMARK  1 active torsions:
REMARK  status: ('A' for Active; 'I' for Inactive)
REMARK    1  A    between atoms: C1_2  and  C2_3 
ROOT
ATOM      1  C2  UNL d   1      -0.101  -0.369  -0.495  0.00  0.00    -0.073 A 
ATOM      2  C3  UNL d   1      -0.701   0.047   0.699  0.00  0.00    -0.002 A 
ATOM      3  C4  UNL d   1      -0.332  -0.533   1.913  0.00  0.00     0.004 A 
ATOM      4  C5  UNL d   1       0.645  -1.528   1.947  0.00  0.00    -0.004 A 
ATOM      5  C6  UNL d   1       1.265  -1.949   0.766  0.00  0.00    -0.075 A 
ATOM      6  C7  UNL d   1       2.316  -3.020   0.786  0.00  0.00     0.076 C 
ATOM      7  C8  UNL d   1       0.886  -1.364  -0.449  0.00  0.00     0.001 A 
ENDROOT
BRANCH   1   8
ATOM      8  C1  UNL d   1      -0.492   0.259  -1.808  0.00  0.00     0.053 C 
ATOM      9  C   UNL d   1      -0.293   1.767  -1.800  0.00  0.00     0.018 C 
ENDBRANCH   1   8
TORSDOF 1
ENDMDL
