MODEL 1
REMARK minimizedAffinity -5.05576563
REMARK minimizedRMSD -1
REMARK  1 active torsions:
REMARK  status: ('A' for Active; 'I' for Inactive)
REMARK    1  A    between atoms: C1_2  and  C2_3 
ROOT
ATOM      1  C2  UNL d   1       0.352  -0.143  -0.519  0.00  0.00    -0.073 A 
ATOM      2  C3  UNL d   1       0.796   0.818   0.396  0.00  0.00    -0.002 A 
ATOM      3  C4  UNL d   1       1.658   0.460   1.433  0.00  0.00     0.004 A 
ATOM      4  C5  UNL d   1       2.091  -0.859   1.561  0.00  0.00    -0.004 A 
ATOM      5  C6  UNL d   1       1.668  -1.833   0.650  0.00  0.00    -0.075 A 
ATOM      6  C7  UNL d   1       2.123  -3.257   0.776  0.00  0.00     0.076 C 
ATOM      7  C8  UNL d   1       0.800  -1.466  -0.386  0.00  0.00     0.001 A 
ENDROOT
BRANCH   1   8
ATOM      8  C1  UNL d   1      -0.575   0.240  -1.643  0.00  0.00     0.053 C 
ATOM      9  C   UNL d   1      -0.086   1.471  -2.390  0.00  0.00     0.018 C 
ENDBRANCH   1   8
TORSDOF 1
ENDMDL
