MODEL 1
REMARK minimizedAffinity -2.59431314
REMARK minimizedRMSD -1
REMARK  1 active torsions:
REMARK  status: ('A' for Active; 'I' for Inactive)
REMARK    1  A    between atoms: C1_2  and  C2_3 
ROOT
ATOM      1  C2  UNL d   1      -0.258  -0.071   0.022  0.00  0.00    -0.077 A 
ATOM      2  C3  UNL d   1      -1.484   0.312  -0.541  0.00  0.00     0.002 A 
ATOM      3  C4  UNL d   1      -1.887   1.649  -0.512  0.00  0.00     0.002 A 
ATOM      4  C5  UNL d   1      -1.069   2.613   0.074  0.00  0.00    -0.004 A 
ATOM      5  C6  UNL d   1       0.151   2.241   0.638  0.00  0.00     0.002 A 
ATOM      6  C7  UNL d   1       0.555   0.906   0.611  0.00  0.00     0.002 A 
ENDROOT
BRANCH   1   7
ATOM      7  C1  UNL d   1       0.201  -1.504  -0.052  0.00  0.00     0.055 C 
ATOM      8  C   UNL d   1      -0.543  -2.268  -1.137  0.00  0.00     0.019 C 
ENDBRANCH   1   7
TORSDOF 1
ENDMDL
