MODEL 1
REMARK minimizedAffinity -5.2461338
REMARK minimizedRMSD -1
REMARK  1 active torsions:
REMARK  status: ('A' for Active; 'I' for Inactive)
REMARK    1  A    between atoms: C1_2  and  C2_3 
ROOT
ATOM      1  C2  UNL d   1      -0.465   0.518  -0.025  0.00  0.00    -0.077 A 
ATOM      2  C3  UNL d   1      -1.109   0.352  -1.260  0.00  0.00     0.002 A 
ATOM      3  C4  UNL d   1      -1.053  -0.874  -1.926  0.00  0.00     0.002 A 
ATOM      4  C5  UNL d   1      -0.359  -1.943  -1.364  0.00  0.00    -0.004 A 
ATOM      5  C6  UNL d   1       0.287  -1.787  -0.138  0.00  0.00     0.002 A 
ATOM      6  C7  UNL d   1       0.233  -0.563   0.529  0.00  0.00     0.002 A 
ENDROOT
BRANCH   1   7
ATOM      7  C1  UNL d   1      -0.565   1.824   0.718  0.00  0.00     0.055 C 
ATOM      8  C   UNL d   1       0.075   2.959  -0.068  0.00  0.00     0.019 C 
ENDBRANCH   1   7
TORSDOF 1
ENDMDL
