MODEL 1
REMARK minimizedAffinity -3.86154151
REMARK minimizedRMSD -1
REMARK  1 active torsions:
REMARK  status: ('A' for Active; 'I' for Inactive)
REMARK    1  A    between atoms: C1_2  and  C2_3 
ROOT
ATOM      1  C2  UNL d   1      -0.671  -1.270  -1.122  0.00  0.00    -0.077 A 
ATOM      2  C3  UNL d   1      -0.345  -1.017  -2.462  0.00  0.00     0.002 A 
ATOM      3  C4  UNL d   1      -0.410  -2.039  -3.410  0.00  0.00     0.002 A 
ATOM      4  C5  UNL d   1      -0.803  -3.321  -3.030  0.00  0.00    -0.004 A 
ATOM      5  C6  UNL d   1      -1.126  -3.584  -1.699  0.00  0.00     0.002 A 
ATOM      6  C7  UNL d   1      -1.061  -2.563  -0.750  0.00  0.00     0.002 A 
ENDROOT
BRANCH   1   7
ATOM      7  C1  UNL d   1      -0.649  -0.157  -0.107  0.00  0.00     0.055 C 
ATOM      8  C   UNL d   1      -0.067   1.119  -0.698  0.00  0.00     0.019 C 
ENDBRANCH   1   7
TORSDOF 1
ENDMDL
