MODEL 1
REMARK minimizedAffinity -5.06060266
REMARK minimizedRMSD -1
REMARK  1 active torsions:
REMARK  status: ('A' for Active; 'I' for Inactive)
REMARK    1  A    between atoms: C1_2  and  C2_3 
ROOT
ATOM      1  C2  UNL d   1      -0.647  -0.157  -0.083  0.00  0.00    -0.077 A 
ATOM      2  C3  UNL d   1      -0.343   0.541  -1.260  0.00  0.00     0.002 A 
ATOM      3  C4  UNL d   1      -0.505   1.927  -1.321  0.00  0.00     0.002 A 
ATOM      4  C5  UNL d   1      -0.967   2.625  -0.208  0.00  0.00    -0.004 A 
ATOM      5  C6  UNL d   1      -1.274   1.939   0.967  0.00  0.00     0.002 A 
ATOM      6  C7  UNL d   1      -1.114   0.554   1.029  0.00  0.00     0.002 A 
ENDROOT
BRANCH   1   7
ATOM      7  C1  UNL d   1      -0.426  -1.645   0.000  0.00  0.00     0.055 C 
ATOM      8  C   UNL d   1      -0.541  -2.299  -1.369  0.00  0.00     0.019 C 
ENDBRANCH   1   7
TORSDOF 1
ENDMDL
