MODEL 1
REMARK minimizedAffinity 2.86514091
REMARK minimizedRMSD -1
REMARK  1 active torsions:
REMARK  status: ('A' for Active; 'I' for Inactive)
REMARK    1  A    between atoms: C1_2  and  C2_3 
ROOT
ATOM      1  C2  UNL d   1       1.497   2.143   0.052  0.00  0.00    -0.077 A 
ATOM      2  C3  UNL d   1       0.598   1.875   1.094  0.00  0.00     0.002 A 
ATOM      3  C4  UNL d   1      -0.531   2.676   1.276  0.00  0.00     0.002 A 
ATOM      4  C5  UNL d   1      -0.773   3.746   0.418  0.00  0.00    -0.004 A 
ATOM      5  C6  UNL d   1       0.116   4.022  -0.621  0.00  0.00     0.002 A 
ATOM      6  C7  UNL d   1       1.246   3.223  -0.803  0.00  0.00     0.002 A 
ENDROOT
BRANCH   1   7
ATOM      7  C1  UNL d   1       2.689   1.250  -0.176  0.00  0.00     0.055 C 
ATOM      8  C   UNL d   1       2.392  -0.186   0.232  0.00  0.00     0.019 C 
ENDBRANCH   1   7
TORSDOF 1
ENDMDL
