MODEL 1
REMARK minimizedAffinity -2.17193627
REMARK minimizedRMSD -1
REMARK  1 active torsions:
REMARK  status: ('A' for Active; 'I' for Inactive)
REMARK    1  A    between atoms: C1_2  and  C2_3 
ROOT
ATOM      1  C2  UNL d   1      -0.165   0.176   0.199  0.00  0.00    -0.077 A 
ATOM      2  C3  UNL d   1       0.160   1.234   1.060  0.00  0.00     0.002 A 
ATOM      3  C4  UNL d   1      -0.430   2.488   0.893  0.00  0.00     0.002 A 
ATOM      4  C5  UNL d   1      -1.352   2.695  -0.131  0.00  0.00    -0.004 A 
ATOM      5  C6  UNL d   1      -1.681   1.650  -0.994  0.00  0.00     0.002 A 
ATOM      6  C7  UNL d   1      -1.090   0.396  -0.829  0.00  0.00     0.002 A 
ENDROOT
BRANCH   1   7
ATOM      7  C1  UNL d   1       0.434  -1.190   0.408  0.00  0.00     0.055 C 
ATOM      8  C   UNL d   1      -0.336  -2.255  -0.360  0.00  0.00     0.019 C 
ENDBRANCH   1   7
TORSDOF 1
ENDMDL
