MODEL 1
REMARK minimizedAffinity 8.93397617
REMARK minimizedRMSD -1
REMARK  1 active torsions:
REMARK  status: ('A' for Active; 'I' for Inactive)
REMARK    1  A    between atoms: C1_2  and  C2_3 
ROOT
ATOM      1  C2  UNL d   1       4.834   0.912  -2.403  0.00  0.00    -0.073 A 
ATOM      2  C3  UNL d   1       4.087   0.012  -3.172  0.00  0.00    -0.002 A 
ATOM      3  C4  UNL d   1       3.005  -0.666  -2.611  0.00  0.00     0.004 A 
ATOM      4  C5  UNL d   1       2.654  -0.447  -1.279  0.00  0.00    -0.004 A 
ATOM      5  C6  UNL d   1       3.380   0.457  -0.497  0.00  0.00    -0.075 A 
ATOM      6  C7  UNL d   1       3.016   0.702   0.938  0.00  0.00     0.076 C 
ATOM      7  C8  UNL d   1       4.468   1.132  -1.068  0.00  0.00     0.001 A 
ENDROOT
BRANCH   1   8
ATOM      8  C1  UNL d   1       6.000   1.652  -3.007  0.00  0.00     0.053 C 
ATOM      9  C   UNL d   1       5.778   3.156  -3.016  0.00  0.00     0.018 C 
ENDBRANCH   1   8
TORSDOF 1
ENDMDL
