MODEL 1
REMARK minimizedAffinity 11.2163229
REMARK minimizedRMSD -1
REMARK  1 active torsions:
REMARK  status: ('A' for Active; 'I' for Inactive)
REMARK    1  A    between atoms: C1_2  and  C2_3 
ROOT
ATOM      1  C2  UNL d   1       4.953   1.119  -1.993  0.00  0.00    -0.073 A 
ATOM      2  C3  UNL d   1       4.369   0.388  -3.034  0.00  0.00    -0.002 A 
ATOM      3  C4  UNL d   1       3.396  -0.574  -2.760  0.00  0.00     0.004 A 
ATOM      4  C5  UNL d   1       2.992  -0.809  -1.446  0.00  0.00    -0.004 A 
ATOM      5  C6  UNL d   1       3.556  -0.081  -0.393  0.00  0.00    -0.075 A 
ATOM      6  C7  UNL d   1       3.134  -0.324   1.026  0.00  0.00     0.076 C 
ATOM      7  C8  UNL d   1       4.534   0.882  -0.676  0.00  0.00     0.001 A 
ENDROOT
BRANCH   1   8
ATOM      8  C1  UNL d   1       6.000   2.164  -2.284  0.00  0.00     0.053 C 
ATOM      9  C   UNL d   1       5.382   3.495  -2.681  0.00  0.00     0.018 C 
ENDBRANCH   1   8
TORSDOF 1
ENDMDL
