MODEL 1
REMARK minimizedAffinity 13.5493507
REMARK minimizedRMSD -1
REMARK  1 active torsions:
REMARK  status: ('A' for Active; 'I' for Inactive)
REMARK    1  A    between atoms: C1_2  and  C2_3 
ROOT
ATOM      1  C2  UNL d   1      -5.107   2.039  -3.462  0.00  0.00    -0.073 A 
ATOM      2  C3  UNL d   1      -4.199   2.399  -4.465  0.00  0.00    -0.002 A 
ATOM      3  C4  UNL d   1      -3.870   1.495  -5.476  0.00  0.00     0.004 A 
ATOM      4  C5  UNL d   1      -4.450   0.226  -5.499  0.00  0.00    -0.004 A 
ATOM      5  C6  UNL d   1      -5.369  -0.147  -4.513  0.00  0.00    -0.075 A 
ATOM      6  C7  UNL d   1      -6.000  -1.509  -4.522  0.00  0.00     0.076 C 
ATOM      7  C8  UNL d   1      -5.691   0.765  -3.499  0.00  0.00     0.001 A 
ENDROOT
BRANCH   1   8
ATOM      8  C1  UNL d   1      -5.469   3.014  -2.372  0.00  0.00     0.053 C 
ATOM      9  C   UNL d   1      -5.998   2.312  -1.132  0.00  0.00     0.018 C 
ENDBRANCH   1   8
TORSDOF 1
ENDMDL
