MODEL 1
REMARK minimizedAffinity 5.12013149
REMARK minimizedRMSD -1
REMARK  1 active torsions:
REMARK  status: ('A' for Active; 'I' for Inactive)
REMARK    1  A    between atoms: C1_2  and  C2_3 
ROOT
ATOM      1  C2  UNL d   1      -5.605  -4.635  -3.264  0.00  0.00    -0.073 A 
ATOM      2  C3  UNL d   1      -5.950  -5.801  -3.957  0.00  0.00    -0.002 A 
ATOM      3  C4  UNL d   1      -5.601  -5.952  -5.300  0.00  0.00     0.004 A 
ATOM      4  C5  UNL d   1      -4.899  -4.944  -5.960  0.00  0.00    -0.004 A 
ATOM      5  C6  UNL d   1      -4.535  -3.776  -5.282  0.00  0.00    -0.075 A 
ATOM      6  C7  UNL d   1      -3.782  -2.681  -5.979  0.00  0.00     0.076 C 
ATOM      7  C8  UNL d   1      -4.892  -3.631  -3.934  0.00  0.00     0.001 A 
ENDROOT
BRANCH   1   8
ATOM      8  C1  UNL d   1      -5.974  -4.470  -1.812  0.00  0.00     0.053 C 
ATOM      9  C   UNL d   1      -5.939  -3.013  -1.377  0.00  0.00     0.018 C 
ENDBRANCH   1   8
TORSDOF 1
ENDMDL
