MODEL 1
REMARK minimizedAffinity 4.01057243
REMARK minimizedRMSD -1
REMARK  1 active torsions:
REMARK  status: ('A' for Active; 'I' for Inactive)
REMARK    1  A    between atoms: C1_2  and  C2_3 
ROOT
ATOM      1  C2  UNL d   1      -5.184  -4.780  -3.165  0.00  0.00    -0.073 A 
ATOM      2  C3  UNL d   1      -5.390  -5.984  -3.848  0.00  0.00    -0.002 A 
ATOM      3  C4  UNL d   1      -5.797  -5.976  -5.182  0.00  0.00     0.004 A 
ATOM      4  C5  UNL d   1      -5.994  -4.767  -5.849  0.00  0.00    -0.004 A 
ATOM      5  C6  UNL d   1      -5.781  -3.554  -5.188  0.00  0.00    -0.075 A 
ATOM      6  C7  UNL d   1      -5.991  -2.245  -5.890  0.00  0.00     0.076 C 
ATOM      7  C8  UNL d   1      -5.376  -3.570  -3.846  0.00  0.00     0.001 A 
ENDROOT
BRANCH   1   8
ATOM      8  C1  UNL d   1      -4.738  -4.783  -1.725  0.00  0.00     0.053 C 
ATOM      9  C   UNL d   1      -5.602  -5.690  -0.863  0.00  0.00     0.018 C 
ENDBRANCH   1   8
TORSDOF 1
ENDMDL
