MODEL 1
REMARK minimizedAffinity 2.77435136
REMARK minimizedRMSD -1
REMARK  1 active torsions:
REMARK  status: ('A' for Active; 'I' for Inactive)
REMARK    1  A    between atoms: C1_2  and  C2_3 
ROOT
ATOM      1  C2  UNL d   1       2.314  -3.260   3.780  0.00  0.00    -0.073 A 
ATOM      2  C3  UNL d   1       1.360  -4.190   3.351  0.00  0.00    -0.002 A 
ATOM      3  C4  UNL d   1       0.429  -3.844   2.372  0.00  0.00     0.004 A 
ATOM      4  C5  UNL d   1       0.445  -2.569   1.806  0.00  0.00    -0.004 A 
ATOM      5  C6  UNL d   1       1.398  -1.630   2.213  0.00  0.00    -0.075 A 
ATOM      6  C7  UNL d   1       1.428  -0.253   1.617  0.00  0.00     0.076 C 
ATOM      7  C8  UNL d   1       2.329  -1.984   3.199  0.00  0.00     0.001 A 
ENDROOT
BRANCH   1   8
ATOM      8  C1  UNL d   1       3.326  -3.632   4.833  0.00  0.00     0.053 C 
ATOM      9  C   UNL d   1       4.733  -3.202   4.449  0.00  0.00     0.018 C 
ENDBRANCH   1   8
TORSDOF 1
ENDMDL
