MODEL 1
REMARK minimizedAffinity -1.79591358
REMARK minimizedRMSD -1
REMARK  0 active torsions:
REMARK  status: ('A' for Active; 'I' for Inactive)
ROOT
ATOM      1  C   UNL d   1      -0.047   2.128  -0.061  0.00  0.00    -0.002 A 
ATOM      2  C1  UNL d   1      -0.986   1.162   0.272  0.00  0.00     0.010 A 
ATOM      3  C2  UNL d   1      -0.599  -0.011   0.922  0.00  0.00     0.041 A 
ATOM      4  C3  UNL d   1       0.761  -0.198   1.238  0.00  0.00    -0.075 A 
ATOM      5  S   UNL d   1       1.467  -1.555   2.034  0.00  0.00     0.015 SA
ATOM      6  C4  UNL d   1       3.031  -0.884   1.952  0.00  0.00     0.022 A 
ATOM      7  C5  UNL d   1       3.034   0.345   1.336  0.00  0.00     0.026 A 
ATOM      8  C6  UNL d   1       1.726   0.761   0.914  0.00  0.00    -0.082 A 
ATOM      9  C7  UNL d   1       1.301   1.939   0.254  0.00  0.00     0.045 A 
ENDROOT
TORSDOF 0
ENDMDL
