MODEL 1
REMARK minimizedAffinity 7.66751003
REMARK minimizedRMSD -1
REMARK  0 active torsions:
REMARK  status: ('A' for Active; 'I' for Inactive)
ROOT
ATOM      1  C   UNL d   1       3.335   1.261   0.512  0.00  0.00    -0.002 A 
ATOM      2  C1  UNL d   1       2.149   1.764  -0.004  0.00  0.00     0.010 A 
ATOM      3  C2  UNL d   1       0.978   1.004   0.035  0.00  0.00     0.041 A 
ATOM      4  C3  UNL d   1       1.020  -0.282   0.609  0.00  0.00    -0.075 A 
ATOM      5  S   UNL d   1      -0.289  -1.393   0.767  0.00  0.00     0.015 SA
ATOM      6  C4  UNL d   1       0.694  -2.560   1.524  0.00  0.00     0.022 A 
ATOM      7  C5  UNL d   1       1.993  -2.130   1.660  0.00  0.00     0.026 A 
ATOM      8  C6  UNL d   1       2.202  -0.810   1.136  0.00  0.00    -0.082 A 
ATOM      9  C7  UNL d   1       3.372  -0.015   1.080  0.00  0.00     0.045 A 
ENDROOT
TORSDOF 0
ENDMDL
