MODEL 1
REMARK minimizedAffinity 9.05887699
REMARK minimizedRMSD -1
REMARK  0 active torsions:
REMARK  status: ('A' for Active; 'I' for Inactive)
ROOT
ATOM      1  C   UNL d   1      -1.620  -2.472  -2.794  0.00  0.00    -0.002 A 
ATOM      2  C1  UNL d   1      -0.340  -2.105  -3.184  0.00  0.00     0.010 A 
ATOM      3  C2  UNL d   1       0.648  -1.853  -2.231  0.00  0.00     0.041 A 
ATOM      4  C3  UNL d   1       0.326  -1.980  -0.865  0.00  0.00    -0.075 A 
ATOM      5  S   UNL d   1       1.375  -1.723   0.479  0.00  0.00     0.015 SA
ATOM      6  C4  UNL d   1       0.149  -2.096   1.603  0.00  0.00     0.022 A 
ATOM      7  C5  UNL d   1      -1.038  -2.411   0.985  0.00  0.00     0.026 A 
ATOM      8  C6  UNL d   1      -0.955  -2.350  -0.447  0.00  0.00    -0.082 A 
ATOM      9  C7  UNL d   1      -1.936  -2.597  -1.438  0.00  0.00     0.045 A 
ENDROOT
TORSDOF 0
ENDMDL
