MODEL 1
REMARK minimizedAffinity 9.74637127
REMARK minimizedRMSD -1
REMARK  0 active torsions:
REMARK  status: ('A' for Active; 'I' for Inactive)
ROOT
ATOM      1  C   UNL d   1       5.945   0.364  -5.944  0.00  0.00    -0.002 A 
ATOM      2  C1  UNL d   1       4.722   1.015  -5.853  0.00  0.00     0.010 A 
ATOM      3  C2  UNL d   1       3.532   0.286  -5.805  0.00  0.00     0.041 A 
ATOM      4  C3  UNL d   1       3.592  -1.121  -5.848  0.00  0.00    -0.075 A 
ATOM      5  S   UNL d   1       2.264  -2.219  -5.802  0.00  0.00     0.015 SA
ATOM      6  C4  UNL d   1       3.288  -3.578  -5.901  0.00  0.00     0.022 A 
ATOM      7  C5  UNL d   1       4.614  -3.221  -5.968  0.00  0.00     0.026 A 
ATOM      8  C6  UNL d   1       4.811  -1.798  -5.939  0.00  0.00    -0.082 A 
ATOM      9  C7  UNL d   1       6.000  -1.032  -5.987  0.00  0.00     0.045 A 
ENDROOT
TORSDOF 0
ENDMDL
