MODEL 1
REMARK minimizedAffinity 6.94921684
REMARK minimizedRMSD -1
REMARK  0 active torsions:
REMARK  status: ('A' for Active; 'I' for Inactive)
ROOT
ATOM      1  C   UNL d   1       2.853   0.451   3.266  0.00  0.00    -0.002 A 
ATOM      2  C1  UNL d   1       2.175  -0.718   3.579  0.00  0.00     0.010 A 
ATOM      3  C2  UNL d   1       1.209  -1.233   2.713  0.00  0.00     0.041 A 
ATOM      4  C3  UNL d   1       0.933  -0.547   1.514  0.00  0.00    -0.075 A 
ATOM      5  S   UNL d   1      -0.209  -0.990   0.301  0.00  0.00     0.015 SA
ATOM      6  C4  UNL d   1       0.177   0.362  -0.662  0.00  0.00     0.022 A 
ATOM      7  C5  UNL d   1       1.151   1.143  -0.088  0.00  0.00     0.026 A 
ATOM      8  C6  UNL d   1       1.603   0.632   1.176  0.00  0.00    -0.082 A 
ATOM      9  C7  UNL d   1       2.577   1.129   2.075  0.00  0.00     0.045 A 
ENDROOT
TORSDOF 0
ENDMDL
