MODEL 1
REMARK minimizedAffinity 9.27608109
REMARK minimizedRMSD -1
REMARK  0 active torsions:
REMARK  status: ('A' for Active; 'I' for Inactive)
ROOT
ATOM      1  C   UNL d   1       4.532   0.171  -4.540  0.00  0.00    -0.002 A 
ATOM      2  C1  UNL d   1       4.518  -0.386  -5.810  0.00  0.00     0.010 A 
ATOM      3  C2  UNL d   1       4.125  -1.712  -6.000  0.00  0.00     0.041 A 
ATOM      4  C3  UNL d   1       3.740  -2.476  -4.880  0.00  0.00    -0.075 A 
ATOM      5  S   UNL d   1       3.221  -4.120  -4.872  0.00  0.00     0.015 SA
ATOM      6  C4  UNL d   1       3.004  -4.121  -3.181  0.00  0.00     0.022 A 
ATOM      7  C5  UNL d   1       3.316  -2.905  -2.621  0.00  0.00     0.026 A 
ATOM      8  C6  UNL d   1       3.745  -1.937  -3.591  0.00  0.00    -0.082 A 
ATOM      9  C7  UNL d   1       4.149  -0.589  -3.431  0.00  0.00     0.045 A 
ENDROOT
TORSDOF 0
ENDMDL
