MODEL 1
REMARK minimizedAffinity 1.41653681
REMARK minimizedRMSD -1
REMARK  0 active torsions:
REMARK  status: ('A' for Active; 'I' for Inactive)
ROOT
ATOM      1  C   UNL d   1       0.965   1.763   0.101  0.00  0.00    -0.002 A 
ATOM      2  C1  UNL d   1       0.014   0.755   0.187  0.00  0.00     0.010 A 
ATOM      3  C2  UNL d   1       0.120  -0.240   1.161  0.00  0.00     0.041 A 
ATOM      4  C3  UNL d   1       1.207  -0.204   2.056  0.00  0.00    -0.075 A 
ATOM      5  S   UNL d   1       1.541  -1.317   3.330  0.00  0.00     0.015 SA
ATOM      6  C4  UNL d   1       2.953  -0.481   3.791  0.00  0.00     0.022 A 
ATOM      7  C5  UNL d   1       3.179   0.623   3.003  0.00  0.00     0.026 A 
ATOM      8  C6  UNL d   1       2.176   0.801   1.990  0.00  0.00    -0.082 A 
ATOM      9  C7  UNL d   1       2.041   1.795   0.992  0.00  0.00     0.045 A 
ENDROOT
TORSDOF 0
ENDMDL
