MODEL 1
REMARK minimizedAffinity 2.09506869
REMARK minimizedRMSD -1
REMARK  0 active torsions:
REMARK  status: ('A' for Active; 'I' for Inactive)
ROOT
ATOM      1  C   UNL d   1       2.803   2.173   1.847  0.00  0.00    -0.002 A 
ATOM      2  C1  UNL d   1       1.893   3.065   1.297  0.00  0.00     0.010 A 
ATOM      3  C2  UNL d   1       0.651   2.621   0.840  0.00  0.00     0.041 A 
ATOM      4  C3  UNL d   1       0.334   1.253   0.948  0.00  0.00    -0.075 A 
ATOM      5  S   UNL d   1      -1.128   0.482   0.455  0.00  0.00     0.015 SA
ATOM      6  C4  UNL d   1      -0.580  -1.049   0.964  0.00  0.00     0.022 A 
ATOM      7  C5  UNL d   1       0.686  -0.993   1.499  0.00  0.00     0.026 A 
ATOM      8  C6  UNL d   1       1.233   0.335   1.498  0.00  0.00    -0.082 A 
ATOM      9  C7  UNL d   1       2.485   0.816   1.952  0.00  0.00     0.045 A 
ENDROOT
TORSDOF 0
ENDMDL
