MODEL 1
REMARK minimizedAffinity 18.8758564
REMARK minimizedRMSD -1
REMARK  0 active torsions:
REMARK  status: ('A' for Active; 'I' for Inactive)
ROOT
ATOM      1  O1  BZF d   1       5.605  -3.397  -1.494  0.00  0.00    -0.204 OA
ATOM      2  C2  BZF d   1       5.388  -2.215  -0.812  0.00  0.00     0.174 A 
ATOM      3  C3  BZF d   1       4.157  -2.200  -0.261  0.00  0.00    -0.012 A 
ATOM      4  C3A BZF d   1       3.603  -3.489  -0.544  0.00  0.00    -0.107 A 
ATOM      5  C4  BZF d   1       2.411  -4.085  -0.243  0.00  0.00     0.055 A 
ATOM      6  C5  BZF d   1       2.153  -5.327  -0.730  0.00  0.00    -0.016 A 
ATOM      7  C6  BZF d   1       3.060  -5.999  -1.524  0.00  0.00     0.022 A 
ATOM      8  C7  BZF d   1       4.257  -5.450  -1.844  0.00  0.00     0.029 A 
ATOM      9  C7A BZF d   1       4.534  -4.209  -1.327  0.00  0.00     0.058 A 
ENDROOT
TORSDOF 0
ENDMDL
