MODEL 1
REMARK minimizedAffinity 12.2250309
REMARK minimizedRMSD -1
REMARK  0 active torsions:
REMARK  status: ('A' for Active; 'I' for Inactive)
ROOT
ATOM      1  O1  BZF d   1      -2.133  -3.355   1.304  0.00  0.00    -0.204 OA
ATOM      2  C2  BZF d   1      -3.344  -3.829   1.769  0.00  0.00     0.174 A 
ATOM      3  C3  BZF d   1      -3.974  -2.891   2.505  0.00  0.00    -0.012 A 
ATOM      4  C3A BZF d   1      -3.144  -1.729   2.423  0.00  0.00    -0.107 A 
ATOM      5  C4  BZF d   1      -3.244  -0.466   2.934  0.00  0.00     0.055 A 
ATOM      6  C5  BZF d   1      -2.227   0.412   2.728  0.00  0.00    -0.016 A 
ATOM      7  C6  BZF d   1      -1.096   0.060   2.022  0.00  0.00     0.022 A 
ATOM      8  C7  BZF d   1      -0.953  -1.179   1.492  0.00  0.00     0.029 A 
ATOM      9  C7A BZF d   1      -1.994  -2.058   1.670  0.00  0.00     0.058 A 
ENDROOT
TORSDOF 0
ENDMDL
