MODEL 1
REMARK minimizedAffinity 3.51155281
REMARK minimizedRMSD -1
REMARK  0 active torsions:
REMARK  status: ('A' for Active; 'I' for Inactive)
ROOT
ATOM      1  O1  BZF d   1      -1.807   4.573  -3.906  0.00  0.00    -0.204 OA
ATOM      2  C2  BZF d   1      -1.002   4.856  -4.992  0.00  0.00     0.174 A 
ATOM      3  C3  BZF d   1      -1.726   5.384  -6.000  0.00  0.00    -0.012 A 
ATOM      4  C3A BZF d   1      -3.052   5.520  -5.479  0.00  0.00    -0.107 A 
ATOM      5  C4  BZF d   1      -4.220   6.000  -5.999  0.00  0.00     0.055 A 
ATOM      6  C5  BZF d   1      -5.355   5.924  -5.254  0.00  0.00    -0.016 A 
ATOM      7  C6  BZF d   1      -5.358   5.372  -3.990  0.00  0.00     0.022 A 
ATOM      8  C7  BZF d   1      -4.223   4.888  -3.430  0.00  0.00     0.029 A 
ATOM      9  C7A BZF d   1      -3.069   4.992  -4.167  0.00  0.00     0.058 A 
ENDROOT
TORSDOF 0
ENDMDL
