MODEL 1
REMARK minimizedAffinity 9.08937454
REMARK minimizedRMSD -1
REMARK  0 active torsions:
REMARK  status: ('A' for Active; 'I' for Inactive)
ROOT
ATOM      1  O1  BZF d   1      -1.612  -0.124   5.163  0.00  0.00    -0.204 OA
ATOM      2  C2  BZF d   1      -2.742   0.379   5.779  0.00  0.00     0.174 A 
ATOM      3  C3  BZF d   1      -3.732   0.565   4.882  0.00  0.00    -0.012 A 
ATOM      4  C3A BZF d   1      -3.217   0.066   3.644  0.00  0.00    -0.107 A 
ATOM      5  C4  BZF d   1      -3.736  -0.039   2.385  0.00  0.00     0.055 A 
ATOM      6  C5  BZF d   1      -2.947  -0.505   1.382  0.00  0.00    -0.016 A 
ATOM      7  C6  BZF d   1      -1.635  -0.870   1.600  0.00  0.00     0.022 A 
ATOM      8  C7  BZF d   1      -1.077  -0.788   2.832  0.00  0.00     0.029 A 
ATOM      9  C7A BZF d   1      -1.882  -0.349   3.855  0.00  0.00     0.058 A 
ENDROOT
TORSDOF 0
ENDMDL
