MODEL 1
REMARK minimizedAffinity 11.1648865
REMARK minimizedRMSD -1
REMARK  0 active torsions:
REMARK  status: ('A' for Active; 'I' for Inactive)
ROOT
ATOM      1  O1  BZF d   1       3.401   0.018   1.667  0.00  0.00    -0.204 OA
ATOM      2  C2  BZF d   1       4.370   0.949   1.345  0.00  0.00     0.174 A 
ATOM      3  C3  BZF d   1       5.197   0.468   0.394  0.00  0.00    -0.012 A 
ATOM      4  C3A BZF d   1       4.659  -0.810   0.039  0.00  0.00    -0.107 A 
ATOM      5  C4  BZF d   1       5.030  -1.767  -0.862  0.00  0.00     0.055 A 
ATOM      6  C5  BZF d   1       4.335  -2.933  -0.911  0.00  0.00    -0.016 A 
ATOM      7  C6  BZF d   1       3.267  -3.178  -0.071  0.00  0.00     0.022 A 
ATOM      8  C7  BZF d   1       2.859  -2.256   0.835  0.00  0.00     0.029 A 
ATOM      9  C7A BZF d   1       3.540  -1.064   0.864  0.00  0.00     0.058 A 
ENDROOT
TORSDOF 0
ENDMDL
