MODEL 1
REMARK minimizedAffinity 5.88514137
REMARK minimizedRMSD -1
REMARK  0 active torsions:
REMARK  status: ('A' for Active; 'I' for Inactive)
ROOT
ATOM      1  O1  BZF d   1      -1.566  -2.726   0.666  0.00  0.00    -0.204 OA
ATOM      2  C2  BZF d   1      -0.187  -2.697   0.587  0.00  0.00     0.174 A 
ATOM      3  C3  BZF d   1       0.317  -1.718   1.365  0.00  0.00    -0.012 A 
ATOM      4  C3A BZF d   1      -0.813  -1.155   2.039  0.00  0.00    -0.107 A 
ATOM      5  C4  BZF d   1      -0.954  -0.154   2.958  0.00  0.00     0.055 A 
ATOM      6  C5  BZF d   1      -2.203   0.200   3.362  0.00  0.00    -0.016 A 
ATOM      7  C6  BZF d   1      -3.330  -0.421   2.864  0.00  0.00     0.022 A 
ATOM      8  C7  BZF d   1      -3.239  -1.421   1.955  0.00  0.00     0.029 A 
ATOM      9  C7A BZF d   1      -1.978  -1.804   1.569  0.00  0.00     0.058 A 
ENDROOT
TORSDOF 0
ENDMDL
