MODEL 1
REMARK minimizedAffinity -1.97691023
REMARK minimizedRMSD -1
REMARK  0 active torsions:
REMARK  status: ('A' for Active; 'I' for Inactive)
ROOT
ATOM      1  O1  BZF d   1      -2.599   1.160   3.894  0.00  0.00    -0.204 OA
ATOM      2  C2  BZF d   1      -2.488   1.717   5.153  0.00  0.00     0.174 A 
ATOM      3  C3  BZF d   1      -3.397   1.184   5.994  0.00  0.00    -0.012 A 
ATOM      4  C3A BZF d   1      -4.060   0.167   5.236  0.00  0.00    -0.107 A 
ATOM      5  C4  BZF d   1      -5.052  -0.724   5.528  0.00  0.00     0.055 A 
ATOM      6  C5  BZF d   1      -5.525  -1.533   4.543  0.00  0.00    -0.016 A 
ATOM      7  C6  BZF d   1      -5.032  -1.473   3.256  0.00  0.00     0.022 A 
ATOM      8  C7  BZF d   1      -4.044  -0.608   2.920  0.00  0.00     0.029 A 
ATOM      9  C7A BZF d   1      -3.542   0.187   3.921  0.00  0.00     0.058 A 
ENDROOT
TORSDOF 0
ENDMDL
