MODEL 1
REMARK minimizedAffinity 11.3681269
REMARK minimizedRMSD -1
REMARK  0 active torsions:
REMARK  status: ('A' for Active; 'I' for Inactive)
ROOT
ATOM      1  O1  BZF d   1      -4.261  -0.856   2.786  0.00  0.00    -0.204 OA
ATOM      2  C2  BZF d   1      -5.438  -1.415   3.246  0.00  0.00     0.174 A 
ATOM      3  C3  BZF d   1      -5.674  -1.049   4.522  0.00  0.00    -0.012 A 
ATOM      4  C3A BZF d   1      -4.624  -0.135   4.853  0.00  0.00    -0.107 A 
ATOM      5  C4  BZF d   1      -4.322   0.581   5.975  0.00  0.00     0.055 A 
ATOM      6  C5  BZF d   1      -3.185   1.325   5.998  0.00  0.00    -0.016 A 
ATOM      7  C6  BZF d   1      -2.326   1.371   4.920  0.00  0.00     0.022 A 
ATOM      8  C7  BZF d   1      -2.586   0.681   3.783  0.00  0.00     0.029 A 
ATOM      9  C7A BZF d   1      -3.751  -0.045   3.745  0.00  0.00     0.058 A 
ENDROOT
TORSDOF 0
ENDMDL
