MODEL 1
REMARK minimizedAffinity 3.66135406
REMARK minimizedRMSD -1
REMARK  0 active torsions:
REMARK  status: ('A' for Active; 'I' for Inactive)
ROOT
ATOM      1  O1  BZF d   1      -4.650   0.386   4.612  0.00  0.00    -0.204 OA
ATOM      2  C2  BZF d   1      -5.657  -0.361   4.033  0.00  0.00     0.174 A 
ATOM      3  C3  BZF d   1      -5.203  -1.013   2.943  0.00  0.00    -0.012 A 
ATOM      4  C3A BZF d   1      -3.802  -0.724   2.888  0.00  0.00    -0.107 A 
ATOM      5  C4  BZF d   1      -2.799  -1.098   2.041  0.00  0.00     0.055 A 
ATOM      6  C5  BZF d   1      -1.555  -0.582   2.222  0.00  0.00    -0.016 A 
ATOM      7  C6  BZF d   1      -1.280   0.312   3.236  0.00  0.00     0.022 A 
ATOM      8  C7  BZF d   1      -2.242   0.709   4.105  0.00  0.00     0.029 A 
ATOM      9  C7A BZF d   1      -3.492   0.164   3.944  0.00  0.00     0.058 A 
ENDROOT
TORSDOF 0
ENDMDL
