MODEL 1
REMARK minimizedAffinity 3.12043977
REMARK minimizedRMSD -1
REMARK  0 active torsions:
REMARK  status: ('A' for Active; 'I' for Inactive)
ROOT
ATOM      1  O1  BZF d   1      -1.895   0.697   3.898  0.00  0.00    -0.204 OA
ATOM      2  C2  BZF d   1      -1.508   1.186   5.131  0.00  0.00     0.174 A 
ATOM      3  C3  BZF d   1      -2.539   1.163   5.999  0.00  0.00    -0.012 A 
ATOM      4  C3A BZF d   1      -3.615   0.541   5.291  0.00  0.00    -0.107 A 
ATOM      5  C4  BZF d   1      -4.899   0.219   5.627  0.00  0.00     0.055 A 
ATOM      6  C5  BZF d   1      -5.715  -0.316   4.680  0.00  0.00    -0.016 A 
ATOM      7  C6  BZF d   1      -5.283  -0.537   3.389  0.00  0.00     0.022 A 
ATOM      8  C7  BZF d   1      -4.016  -0.239   3.010  0.00  0.00     0.029 A 
ATOM      9  C7A BZF d   1      -3.179   0.271   3.973  0.00  0.00     0.058 A 
ENDROOT
TORSDOF 0
ENDMDL
