MODEL 1
REMARK minimizedAffinity 2.87786198
REMARK minimizedRMSD -1
REMARK  0 active torsions:
REMARK  status: ('A' for Active; 'I' for Inactive)
ROOT
ATOM      1  O1  BZF d   1      -2.107   4.706  -4.082  0.00  0.00    -0.204 OA
ATOM      2  C2  BZF d   1      -1.587   5.250  -5.241  0.00  0.00     0.174 A 
ATOM      3  C3  BZF d   1      -2.565   5.785  -5.999  0.00  0.00    -0.012 A 
ATOM      4  C3A BZF d   1      -3.760   5.644  -5.225  0.00  0.00    -0.107 A 
ATOM      5  C4  BZF d   1      -5.062   6.000  -5.436  0.00  0.00     0.055 A 
ATOM      6  C5  BZF d   1      -5.998   5.653  -4.514  0.00  0.00    -0.016 A 
ATOM      7  C6  BZF d   1      -5.670   4.948  -3.375  0.00  0.00     0.022 A 
ATOM      8  C7  BZF d   1      -4.391   4.577  -3.120  0.00  0.00     0.029 A 
ATOM      9  C7A BZF d   1      -3.437   4.955  -4.034  0.00  0.00     0.058 A 
ENDROOT
TORSDOF 0
ENDMDL
