MODEL 1
REMARK minimizedAffinity -2.85945487
REMARK minimizedRMSD -1
REMARK  0 active torsions:
REMARK  status: ('A' for Active; 'I' for Inactive)
ROOT
ATOM      1  O1  BZF d   1      -3.305   0.503   5.980  0.00  0.00    -0.204 OA
ATOM      2  C2  BZF d   1      -2.281   1.233   5.408  0.00  0.00     0.174 A 
ATOM      3  C3  BZF d   1      -2.056   0.831   4.141  0.00  0.00    -0.012 A 
ATOM      4  C3A BZF d   1      -3.060  -0.153   3.875  0.00  0.00    -0.107 A 
ATOM      5  C4  BZF d   1      -3.367  -0.910   2.780  0.00  0.00     0.055 A 
ATOM      6  C5  BZF d   1      -4.363  -1.830   2.871  0.00  0.00    -0.016 A 
ATOM      7  C6  BZF d   1      -5.067  -2.025   4.041  0.00  0.00     0.022 A 
ATOM      8  C7  BZF d   1      -4.802  -1.295   5.152  0.00  0.00     0.029 A 
ATOM      9  C7A BZF d   1      -3.819  -0.341   5.054  0.00  0.00     0.058 A 
ENDROOT
TORSDOF 0
ENDMDL
