MODEL 1
REMARK minimizedAffinity 6.53795052
REMARK minimizedRMSD -1
REMARK  0 active torsions:
REMARK  status: ('A' for Active; 'I' for Inactive)
ROOT
ATOM      1  O1  BZF d   1      -2.220   4.867  -4.026  0.00  0.00    -0.204 OA
ATOM      2  C2  BZF d   1      -1.492   5.464  -5.038  0.00  0.00     0.174 A 
ATOM      3  C3  BZF d   1      -2.310   5.950  -5.993  0.00  0.00    -0.012 A 
ATOM      4  C3A BZF d   1      -3.636   5.720  -5.506  0.00  0.00    -0.107 A 
ATOM      5  C4  BZF d   1      -4.879   5.996  -6.000  0.00  0.00     0.055 A 
ATOM      6  C5  BZF d   1      -5.972   5.573  -5.312  0.00  0.00    -0.016 A 
ATOM      7  C6  BZF d   1      -5.859   4.868  -4.131  0.00  0.00     0.022 A 
ATOM      8  C7  BZF d   1      -4.647   4.575  -3.599  0.00  0.00     0.029 A 
ATOM      9  C7A BZF d   1      -3.541   5.030  -4.275  0.00  0.00     0.058 A 
ENDROOT
TORSDOF 0
ENDMDL
