MODEL 1
REMARK minimizedAffinity 0.486024171
REMARK minimizedRMSD -1
REMARK  0 active torsions:
REMARK  status: ('A' for Active; 'I' for Inactive)
ROOT
ATOM      1  O1  BZF d   1       4.829   3.352   2.289  0.00  0.00    -0.204 OA
ATOM      2  C2  BZF d   1       6.000   3.767   1.685  0.00  0.00     0.174 A 
ATOM      3  C3  BZF d   1       5.985   3.484   0.367  0.00  0.00    -0.012 A 
ATOM      4  C3A BZF d   1       4.687   2.936   0.114  0.00  0.00    -0.107 A 
ATOM      5  C4  BZF d   1       4.064   2.478  -1.012  0.00  0.00     0.055 A 
ATOM      6  C5  BZF d   1       2.821   1.940  -0.906  0.00  0.00    -0.016 A 
ATOM      7  C6  BZF d   1       2.175   1.839   0.309  0.00  0.00     0.022 A 
ATOM      8  C7  BZF d   1       2.750   2.284   1.452  0.00  0.00     0.029 A 
ATOM      9  C7A BZF d   1       3.993   2.859   1.344  0.00  0.00     0.058 A 
ENDROOT
TORSDOF 0
ENDMDL
