MODEL 1
REMARK minimizedAffinity 8.79414368
REMARK minimizedRMSD -1
REMARK  0 active torsions:
REMARK  status: ('A' for Active; 'I' for Inactive)
ROOT
ATOM      1  O1  BZF d   1      -1.463   0.863   5.114  0.00  0.00    -0.204 OA
ATOM      2  C2  BZF d   1      -2.697   0.887   5.735  0.00  0.00     0.174 A 
ATOM      3  C3  BZF d   1      -3.636   0.316   4.954  0.00  0.00    -0.012 A 
ATOM      4  C3A BZF d   1      -2.929  -0.173   3.811  0.00  0.00    -0.107 A 
ATOM      5  C4  BZF d   1      -3.313  -0.850   2.688  0.00  0.00     0.055 A 
ATOM      6  C5  BZF d   1      -2.389  -1.114   1.728  0.00  0.00    -0.016 A 
ATOM      7  C6  BZF d   1      -1.075  -0.713   1.855  0.00  0.00     0.022 A 
ATOM      8  C7  BZF d   1      -0.646  -0.044   2.953  0.00  0.00     0.029 A 
ATOM      9  C7A BZF d   1      -1.571   0.196   3.939  0.00  0.00     0.058 A 
ENDROOT
TORSDOF 0
ENDMDL
