MODEL 1
REMARK minimizedAffinity 7.6136179
REMARK minimizedRMSD -1
REMARK  0 active torsions:
REMARK  status: ('A' for Active; 'I' for Inactive)
ROOT
ATOM      1  O1  BZF d   1      -1.467   0.007   5.352  0.00  0.00    -0.204 OA
ATOM      2  C2  BZF d   1      -2.618   0.410   6.000  0.00  0.00     0.174 A 
ATOM      3  C3  BZF d   1      -3.632   0.562   5.124  0.00  0.00    -0.012 A 
ATOM      4  C3A BZF d   1      -3.104   0.144   3.861  0.00  0.00    -0.107 A 
ATOM      5  C4  BZF d   1      -3.635   0.051   2.607  0.00  0.00     0.055 A 
ATOM      6  C5  BZF d   1      -2.832  -0.325   1.576  0.00  0.00    -0.016 A 
ATOM      7  C6  BZF d   1      -1.496  -0.609   1.764  0.00  0.00     0.022 A 
ATOM      8  C7  BZF d   1      -0.925  -0.535   2.991  0.00  0.00     0.029 A 
ATOM      9  C7A BZF d   1      -1.741  -0.188   4.040  0.00  0.00     0.058 A 
ENDROOT
TORSDOF 0
ENDMDL
