MODEL 1
REMARK minimizedAffinity 10.2194443
REMARK minimizedRMSD -1
REMARK  0 active torsions:
REMARK  status: ('A' for Active; 'I' for Inactive)
ROOT
ATOM      1  O1  BZF d   1       6.000   4.283  -2.510  0.00  0.00    -0.204 OA
ATOM      2  C2  BZF d   1       5.988   4.416  -1.135  0.00  0.00     0.174 A 
ATOM      3  C3  BZF d   1       4.812   3.999  -0.624  0.00  0.00    -0.012 A 
ATOM      4  C3A BZF d   1       4.075   3.492  -1.741  0.00  0.00    -0.107 A 
ATOM      5  C4  BZF d   1       2.840   2.924  -1.871  0.00  0.00     0.055 A 
ATOM      6  C5  BZF d   1       2.387   2.606  -3.112  0.00  0.00    -0.016 A 
ATOM      7  C6  BZF d   1       3.139   2.846  -4.243  0.00  0.00     0.022 A 
ATOM      8  C7  BZF d   1       4.372   3.403  -4.164  0.00  0.00     0.029 A 
ATOM      9  C7A BZF d   1       4.846   3.696  -2.909  0.00  0.00     0.058 A 
ENDROOT
TORSDOF 0
ENDMDL
