MODEL 1
REMARK minimizedAffinity 8.85320473
REMARK minimizedRMSD -1
REMARK  0 active torsions:
REMARK  status: ('A' for Active; 'I' for Inactive)
ROOT
ATOM      1  O1  BZF d   1      -1.560   5.237  -3.617  0.00  0.00    -0.204 OA
ATOM      2  C2  BZF d   1      -0.780   5.347  -4.753  0.00  0.00     0.174 A 
ATOM      3  C3  BZF d   1      -1.545   5.593  -5.836  0.00  0.00    -0.012 A 
ATOM      4  C3A BZF d   1      -2.878   5.730  -5.332  0.00  0.00    -0.107 A 
ATOM      5  C4  BZF d   1      -4.081   5.995  -5.921  0.00  0.00     0.055 A 
ATOM      6  C5  BZF d   1      -5.205   5.989  -5.157  0.00  0.00    -0.016 A 
ATOM      7  C6  BZF d   1      -5.164   5.717  -3.806  0.00  0.00     0.022 A 
ATOM      8  C7  BZF d   1      -3.993   5.452  -3.176  0.00  0.00     0.029 A 
ATOM      9  C7A BZF d   1      -2.851   5.490  -3.939  0.00  0.00     0.058 A 
ENDROOT
TORSDOF 0
ENDMDL
