MODEL 1
REMARK minimizedAffinity 5.20284796
REMARK minimizedRMSD -1
REMARK  0 active torsions:
REMARK  status: ('A' for Active; 'I' for Inactive)
ROOT
ATOM      1  O1  BZF d   1      -2.092   5.632  -3.760  0.00  0.00    -0.204 OA
ATOM      2  C2  BZF d   1      -1.369   5.702  -4.935  0.00  0.00     0.174 A 
ATOM      3  C3  BZF d   1      -2.194   5.796  -5.999  0.00  0.00    -0.012 A 
ATOM      4  C3A BZF d   1      -3.511   5.876  -5.448  0.00  0.00    -0.107 A 
ATOM      5  C4  BZF d   1      -4.754   6.000  -6.000  0.00  0.00     0.055 A 
ATOM      6  C5  BZF d   1      -5.843   5.976  -5.188  0.00  0.00    -0.016 A 
ATOM      7  C6  BZF d   1      -5.727   5.825  -3.821  0.00  0.00     0.022 A 
ATOM      8  C7  BZF d   1      -4.515   5.703  -3.227  0.00  0.00     0.029 A 
ATOM      9  C7A BZF d   1      -3.411   5.761  -4.042  0.00  0.00     0.058 A 
ENDROOT
TORSDOF 0
ENDMDL
