MODEL 1
REMARK minimizedAffinity 6.4269104
REMARK minimizedRMSD -1
REMARK  0 active torsions:
REMARK  status: ('A' for Active; 'I' for Inactive)
ROOT
ATOM      1  O1  BZF d   1      -5.951  -0.524   3.034  0.00  0.00    -0.204 OA
ATOM      2  C2  BZF d   1      -5.658  -1.842   2.746  0.00  0.00     0.174 A 
ATOM      3  C3  BZF d   1      -4.344  -2.091   2.927  0.00  0.00    -0.012 A 
ATOM      4  C3A BZF d   1      -3.799  -0.873   3.445  0.00  0.00    -0.107 A 
ATOM      5  C4  BZF d   1      -2.547  -0.498   3.838  0.00  0.00     0.055 A 
ATOM      6  C5  BZF d   1      -2.333   0.787   4.226  0.00  0.00    -0.016 A 
ATOM      7  C6  BZF d   1      -3.346   1.723   4.227  0.00  0.00     0.022 A 
ATOM      8  C7  BZF d   1      -4.607   1.397   3.849  0.00  0.00     0.029 A 
ATOM      9  C7A BZF d   1      -4.833   0.091   3.489  0.00  0.00     0.058 A 
ENDROOT
TORSDOF 0
ENDMDL
