MODEL 1
REMARK minimizedAffinity 5.32061768
REMARK minimizedRMSD -1
REMARK  0 active torsions:
REMARK  status: ('A' for Active; 'I' for Inactive)
ROOT
ATOM      1  C1  BNZ d   1       1.482  -2.336  -0.226  0.00  0.00     0.000 A 
ATOM      2  C2  BNZ d   1       1.502  -2.964  -1.443  0.00  0.00     0.000 A 
ATOM      3  C3  BNZ d   1       2.388  -2.583  -2.412  0.00  0.00     0.000 A 
ATOM      4  C4  BNZ d   1       3.225  -1.552  -2.178  0.00  0.00     0.000 A 
ATOM      5  C5  BNZ d   1       3.210  -0.903  -0.959  0.00  0.00     0.000 A 
ATOM      6  C6  BNZ d   1       2.343  -1.314   0.028  0.00  0.00     0.000 A 
ENDROOT
TORSDOF 0
ENDMDL
