MODEL 1
REMARK minimizedAffinity 5.46895409
REMARK minimizedRMSD -1
REMARK  0 active torsions:
REMARK  status: ('A' for Active; 'I' for Inactive)
ROOT
ATOM      1  C1  BNZ d   1       3.060   1.477   4.091  0.00  0.00     0.000 A 
ATOM      2  C2  BNZ d   1       3.281   2.209   2.955  0.00  0.00     0.000 A 
ATOM      3  C3  BNZ d   1       4.396   2.990   2.831  0.00  0.00     0.000 A 
ATOM      4  C4  BNZ d   1       5.267   3.070   3.858  0.00  0.00     0.000 A 
ATOM      5  C5  BNZ d   1       5.053   2.346   5.014  0.00  0.00     0.000 A 
ATOM      6  C6  BNZ d   1       3.950   1.530   5.119  0.00  0.00     0.000 A 
ENDROOT
TORSDOF 0
ENDMDL
