MODEL 1
REMARK minimizedAffinity -1.61116731
REMARK minimizedRMSD -1
REMARK  0 active torsions:
REMARK  status: ('A' for Active; 'I' for Inactive)
ROOT
ATOM      1  C1  BNZ d   1       0.548  -1.311  -0.220  0.00  0.00     0.000 A 
ATOM      2  C2  BNZ d   1       0.356   0.032  -0.030  0.00  0.00     0.000 A 
ATOM      3  C3  BNZ d   1      -0.507   0.734  -0.824  0.00  0.00     0.000 A 
ATOM      4  C4  BNZ d   1      -1.146   0.103  -1.830  0.00  0.00     0.000 A 
ATOM      5  C5  BNZ d   1      -0.956  -1.248  -2.039  0.00  0.00     0.000 A 
ATOM      6  C6  BNZ d   1      -0.117  -1.961  -1.214  0.00  0.00     0.000 A 
ENDROOT
TORSDOF 0
ENDMDL
