MODEL 1
REMARK minimizedAffinity 0.0901083201
REMARK minimizedRMSD -1
REMARK  0 active torsions:
REMARK  status: ('A' for Active; 'I' for Inactive)
ROOT
ATOM      1  C1  BNZ d   1       2.873   0.003  -0.963  0.00  0.00     0.000 A 
ATOM      2  C2  BNZ d   1       1.529   0.189  -0.777  0.00  0.00     0.000 A 
ATOM      3  C3  BNZ d   1       0.686  -0.879  -0.648  0.00  0.00     0.000 A 
ATOM      4  C4  BNZ d   1       1.181  -2.130  -0.746  0.00  0.00     0.000 A 
ATOM      5  C5  BNZ d   1       2.532  -2.334  -0.944  0.00  0.00     0.000 A 
ATOM      6  C6  BNZ d   1       3.383  -1.257  -1.033  0.00  0.00     0.000 A 
ENDROOT
TORSDOF 0
ENDMDL
