MODEL 1
REMARK minimizedAffinity -3.34438443
REMARK minimizedRMSD -1
REMARK  0 active torsions:
REMARK  status: ('A' for Active; 'I' for Inactive)
ROOT
ATOM      1  C1  BNZ d   1       4.979  -0.076  -2.537  0.00  0.00     0.000 A 
ATOM      2  C2  BNZ d   1       4.989  -1.252  -3.239  0.00  0.00     0.000 A 
ATOM      3  C3  BNZ d   1       4.171  -2.287  -2.882  0.00  0.00     0.000 A 
ATOM      4  C4  BNZ d   1       3.373  -2.160  -1.802  0.00  0.00     0.000 A 
ATOM      5  C5  BNZ d   1       3.358  -0.984  -1.079  0.00  0.00     0.000 A 
ATOM      6  C6  BNZ d   1       4.155   0.070  -1.464  0.00  0.00     0.000 A 
ENDROOT
TORSDOF 0
ENDMDL
