MODEL 1
REMARK minimizedAffinity -1.264974
REMARK minimizedRMSD -1
REMARK  0 active torsions:
REMARK  status: ('A' for Active; 'I' for Inactive)
ROOT
ATOM      1  C1  BNZ d   1      -3.649   3.345   2.318  0.00  0.00     0.000 A 
ATOM      2  C2  BNZ d   1      -3.214   4.460   1.653  0.00  0.00     0.000 A 
ATOM      3  C3  BNZ d   1      -1.952   4.945   1.851  0.00  0.00     0.000 A 
ATOM      4  C4  BNZ d   1      -1.141   4.339   2.742  0.00  0.00     0.000 A 
ATOM      5  C5  BNZ d   1      -1.568   3.220   3.428  0.00  0.00     0.000 A 
ATOM      6  C6  BNZ d   1      -2.826   2.711   3.197  0.00  0.00     0.000 A 
ENDROOT
TORSDOF 0
ENDMDL
