MODEL 1
REMARK minimizedAffinity 1.81120527
REMARK minimizedRMSD -1
REMARK  0 active torsions:
REMARK  status: ('A' for Active; 'I' for Inactive)
ROOT
ATOM      1  C1  BNZ d   1      -0.324  -1.148  -1.068  0.00  0.00     0.000 A 
ATOM      2  C2  BNZ d   1       0.279  -2.335  -1.386  0.00  0.00     0.000 A 
ATOM      3  C3  BNZ d   1       1.640  -2.460  -1.353  0.00  0.00     0.000 A 
ATOM      4  C4  BNZ d   1       2.397  -1.388  -1.041  0.00  0.00     0.000 A 
ATOM      5  C5  BNZ d   1       1.804  -0.181  -0.727  0.00  0.00     0.000 A 
ATOM      6  C6  BNZ d   1       0.432  -0.070  -0.724  0.00  0.00     0.000 A 
ENDROOT
TORSDOF 0
ENDMDL
