MODEL 1
REMARK minimizedAffinity 0.293400019
REMARK minimizedRMSD -1
REMARK  0 active torsions:
REMARK  status: ('A' for Active; 'I' for Inactive)
ROOT
ATOM      1  C1  BNZ d   1      -0.178  -0.297  -0.629  0.00  0.00     0.000 A 
ATOM      2  C2  BNZ d   1       1.022  -0.811  -0.217  0.00  0.00     0.000 A 
ATOM      3  C3  BNZ d   1       1.511  -1.967  -0.757  0.00  0.00     0.000 A 
ATOM      4  C4  BNZ d   1       0.783  -2.628  -1.680  0.00  0.00     0.000 A 
ATOM      5  C5  BNZ d   1      -0.434  -2.127  -2.100  0.00  0.00     0.000 A 
ATOM      6  C6  BNZ d   1      -0.905  -0.943  -1.581  0.00  0.00     0.000 A 
ENDROOT
TORSDOF 0
ENDMDL
