MODEL 1
REMARK minimizedAffinity -3.81351137
REMARK minimizedRMSD -1
REMARK  0 active torsions:
REMARK  status: ('A' for Active; 'I' for Inactive)
ROOT
ATOM      1  C1  BNZ d   1       2.459  -1.374  -0.311  0.00  0.00     0.000 A 
ATOM      2  C2  BNZ d   1       1.478  -2.286  -0.597  0.00  0.00     0.000 A 
ATOM      3  C3  BNZ d   1       0.254  -1.879  -1.049  0.00  0.00     0.000 A 
ATOM      4  C4  BNZ d   1      -0.001  -0.560  -1.176  0.00  0.00     0.000 A 
ATOM      5  C5  BNZ d   1       0.974   0.372  -0.883  0.00  0.00     0.000 A 
ATOM      6  C6  BNZ d   1       2.218  -0.043  -0.465  0.00  0.00     0.000 A 
ENDROOT
TORSDOF 0
ENDMDL
