MODEL 1
REMARK minimizedAffinity -5.41739178
REMARK minimizedRMSD -1
REMARK  0 active torsions:
REMARK  status: ('A' for Active; 'I' for Inactive)
ROOT
ATOM      1  C   UNL d   1      -1.807   3.167   0.888  0.00  0.00     0.023 A 
ATOM      2  C1  UNL d   1      -0.941   3.221  -0.204  0.00  0.00     0.003 A 
ATOM      3  C2  UNL d   1      -0.294   2.063  -0.640  0.00  0.00     0.048 A 
ATOM      4  C3  UNL d   1      -0.519   0.855   0.019  0.00  0.00     0.023 A 
ATOM      5  C4  UNL d   1      -1.385   0.797   1.112  0.00  0.00     0.048 A 
ATOM      6  C5  UNL d   1      -2.029   1.957   1.545  0.00  0.00     0.003 A 
ATOM      7  I   UNL d   1       0.443  -0.870  -0.629  0.00  0.00    -0.146 I 
ENDROOT
TORSDOF 0
ENDMDL
