MODEL 1
REMARK minimizedAffinity -4.55062675
REMARK minimizedRMSD -1
REMARK  0 active torsions:
REMARK  status: ('A' for Active; 'I' for Inactive)
ROOT
ATOM      1  C   UNL d   1      -1.498   0.805   1.812  0.00  0.00     0.023 A 
ATOM      2  C1  UNL d   1      -1.756   1.107   0.475  0.00  0.00     0.003 A 
ATOM      3  C2  UNL d   1      -1.121   0.388  -0.540  0.00  0.00     0.048 A 
ATOM      4  C3  UNL d   1      -0.229  -0.632  -0.210  0.00  0.00     0.023 A 
ATOM      5  C4  UNL d   1       0.032  -0.938   1.126  0.00  0.00     0.048 A 
ATOM      6  C5  UNL d   1      -0.605  -0.216   2.137  0.00  0.00     0.003 A 
ATOM      7  I   UNL d   1       0.717  -1.703  -1.719  0.00  0.00    -0.146 I 
ENDROOT
TORSDOF 0
ENDMDL
