MODEL 1
REMARK minimizedAffinity -3.35647511
REMARK minimizedRMSD -1
REMARK  0 active torsions:
REMARK  status: ('A' for Active; 'I' for Inactive)
ROOT
ATOM      1  C   UNL d   1      -1.475   1.041   1.918  0.00  0.00     0.023 A 
ATOM      2  C1  UNL d   1      -1.132  -0.254   2.305  0.00  0.00     0.003 A 
ATOM      3  C2  UNL d   1      -0.378  -1.063   1.453  0.00  0.00     0.048 A 
ATOM      4  C3  UNL d   1       0.032  -0.569   0.215  0.00  0.00     0.023 A 
ATOM      5  C4  UNL d   1      -0.307   0.727  -0.176  0.00  0.00     0.048 A 
ATOM      6  C5  UNL d   1      -1.063   1.532   0.679  0.00  0.00     0.003 A 
ATOM      7  I   UNL d   1       1.156  -1.770  -1.055  0.00  0.00    -0.146 I 
ENDROOT
TORSDOF 0
ENDMDL
