MODEL 1
REMARK minimizedAffinity -4.17456007
REMARK minimizedRMSD -1
REMARK  0 active torsions:
REMARK  status: ('A' for Active; 'I' for Inactive)
ROOT
ATOM      1  C   UNL d   1      -2.699   1.915   0.845  0.00  0.00     0.023 A 
ATOM      2  C1  UNL d   1      -2.830   1.306  -0.403  0.00  0.00     0.003 A 
ATOM      3  C2  UNL d   1      -1.780   0.548  -0.925  0.00  0.00     0.048 A 
ATOM      4  C3  UNL d   1      -0.602   0.402  -0.194  0.00  0.00     0.023 A 
ATOM      5  C4  UNL d   1      -0.467   1.009   1.056  0.00  0.00     0.048 A 
ATOM      6  C5  UNL d   1      -1.519   1.767   1.574  0.00  0.00     0.003 A 
ATOM      7  I   UNL d   1       0.962  -0.726  -0.969  0.00  0.00    -0.146 I 
ENDROOT
TORSDOF 0
ENDMDL
