MODEL 1
REMARK minimizedAffinity -2.59037423
REMARK minimizedRMSD -1
REMARK  0 active torsions:
REMARK  status: ('A' for Active; 'I' for Inactive)
ROOT
ATOM      1  C   UNL d   1       1.133  -0.408  -1.107  0.00  0.00     0.023 A 
ATOM      2  C1  UNL d   1       0.593  -1.019   0.025  0.00  0.00     0.003 A 
ATOM      3  C2  UNL d   1      -0.350  -0.343   0.802  0.00  0.00     0.048 A 
ATOM      4  C3  UNL d   1      -0.750   0.943   0.440  0.00  0.00     0.023 A 
ATOM      5  C4  UNL d   1      -0.213   1.557  -0.693  0.00  0.00     0.048 A 
ATOM      6  C5  UNL d   1       0.731   0.878  -1.465  0.00  0.00     0.003 A 
ATOM      7  I   UNL d   1      -2.155   1.951   1.593  0.00  0.00    -0.146 I 
ENDROOT
TORSDOF 0
ENDMDL
