MODEL 1
REMARK minimizedAffinity 0.590575159
REMARK minimizedRMSD -1
REMARK  0 active torsions:
REMARK  status: ('A' for Active; 'I' for Inactive)
ROOT
ATOM      1  C   UNL d   1       1.208  -0.353  -1.089  0.00  0.00     0.023 A 
ATOM      2  C1  UNL d   1       0.763  -0.847   0.138  0.00  0.00     0.003 A 
ATOM      3  C2  UNL d   1      -0.147  -0.111   0.900  0.00  0.00     0.048 A 
ATOM      4  C3  UNL d   1      -0.610   1.117   0.429  0.00  0.00     0.023 A 
ATOM      5  C4  UNL d   1      -0.168   1.615  -0.798  0.00  0.00     0.048 A 
ATOM      6  C5  UNL d   1       0.742   0.876  -1.556  0.00  0.00     0.003 A 
ATOM      7  I   UNL d   1      -1.964   2.213   1.561  0.00  0.00    -0.146 I 
ENDROOT
TORSDOF 0
ENDMDL
