MODEL 1
REMARK minimizedAffinity -0.219614983
REMARK minimizedRMSD -1
REMARK  0 active torsions:
REMARK  status: ('A' for Active; 'I' for Inactive)
ROOT
ATOM      1  C   UNL d   1       0.044   1.356  -0.178  0.00  0.00     0.023 A 
ATOM      2  C1  UNL d   1      -0.150   0.309   0.723  0.00  0.00     0.003 A 
ATOM      3  C2  UNL d   1       0.205  -0.994   0.367  0.00  0.00     0.048 A 
ATOM      4  C3  UNL d   1       0.753  -1.243  -0.890  0.00  0.00     0.023 A 
ATOM      5  C4  UNL d   1       0.950  -0.198  -1.795  0.00  0.00     0.048 A 
ATOM      6  C5  UNL d   1       0.593   1.103  -1.436  0.00  0.00     0.003 A 
ATOM      7  I   UNL d   1       1.282  -3.181  -1.421  0.00  0.00    -0.146 I 
ENDROOT
TORSDOF 0
ENDMDL
