MODEL 1
REMARK minimizedAffinity -3.22185135
REMARK minimizedRMSD -1
REMARK  0 active torsions:
REMARK  status: ('A' for Active; 'I' for Inactive)
ROOT
ATOM      1  C   UNL d   1      -1.502   1.551   1.530  0.00  0.00     0.023 A 
ATOM      2  C1  UNL d   1      -1.642   1.554   0.142  0.00  0.00     0.003 A 
ATOM      3  C2  UNL d   1      -0.974   0.602  -0.631  0.00  0.00     0.048 A 
ATOM      4  C3  UNL d   1      -0.169  -0.351  -0.010  0.00  0.00     0.023 A 
ATOM      5  C4  UNL d   1      -0.027  -0.360   1.379  0.00  0.00     0.048 A 
ATOM      6  C5  UNL d   1      -0.695   0.595   2.148  0.00  0.00     0.003 A 
ATOM      7  I   UNL d   1       0.826  -1.770  -1.158  0.00  0.00    -0.146 I 
ENDROOT
TORSDOF 0
ENDMDL
