MODEL 1
REMARK minimizedAffinity -4.33659458
REMARK minimizedRMSD -1
REMARK  0 active torsions:
REMARK  status: ('A' for Active; 'I' for Inactive)
ROOT
ATOM      1  C   UNL d   1      -1.742   2.158   1.402  0.00  0.00     0.023 A 
ATOM      2  C1  UNL d   1      -1.335   2.438   0.098  0.00  0.00     0.003 A 
ATOM      3  C2  UNL d   1      -0.522   1.535  -0.590  0.00  0.00     0.048 A 
ATOM      4  C3  UNL d   1      -0.121   0.353   0.032  0.00  0.00     0.023 A 
ATOM      5  C4  UNL d   1      -0.527   0.068   1.337  0.00  0.00     0.048 A 
ATOM      6  C5  UNL d   1      -1.339   0.974   2.021  0.00  0.00     0.003 A 
ATOM      7  I   UNL d   1       1.089  -0.993  -0.990  0.00  0.00    -0.146 I 
ENDROOT
TORSDOF 0
ENDMDL
