MODEL 1
REMARK minimizedAffinity -2.15204453
REMARK minimizedRMSD -1
REMARK  0 active torsions:
REMARK  status: ('A' for Active; 'I' for Inactive)
ROOT
ATOM      1  C   UNL d   1      -0.587  -0.764   1.450  0.00  0.00     0.023 A 
ATOM      2  C1  UNL d   1      -1.394   0.373   1.394  0.00  0.00     0.003 A 
ATOM      3  C2  UNL d   1      -1.106   1.391   0.482  0.00  0.00     0.048 A 
ATOM      4  C3  UNL d   1      -0.010   1.266  -0.370  0.00  0.00     0.023 A 
ATOM      5  C4  UNL d   1       0.800   0.130  -0.318  0.00  0.00     0.048 A 
ATOM      6  C5  UNL d   1       0.509  -0.885   0.596  0.00  0.00     0.003 A 
ATOM      7  I   UNL d   1       0.421   2.779  -1.728  0.00  0.00    -0.146 I 
ENDROOT
TORSDOF 0
ENDMDL
