MODEL 1
REMARK minimizedAffinity -3.80103588
REMARK minimizedRMSD -1
REMARK  0 active torsions:
REMARK  status: ('A' for Active; 'I' for Inactive)
ROOT
ATOM      1  C   UNL d   1      -2.030   1.449   1.613  0.00  0.00     0.023 A 
ATOM      2  C1  UNL d   1      -1.356   0.286   1.985  0.00  0.00     0.003 A 
ATOM      3  C2  UNL d   1      -0.297  -0.188   1.208  0.00  0.00     0.048 A 
ATOM      4  C3  UNL d   1       0.085   0.507   0.061  0.00  0.00     0.023 A 
ATOM      5  C4  UNL d   1      -0.585   1.673  -0.314  0.00  0.00     0.048 A 
ATOM      6  C5  UNL d   1      -1.644   2.142   0.465  0.00  0.00     0.003 A 
ATOM      7  I   UNL d   1       1.661  -0.196  -1.096  0.00  0.00    -0.146 I 
ENDROOT
TORSDOF 0
ENDMDL
