MODEL 1
REMARK minimizedAffinity -3.86085296
REMARK minimizedRMSD -1
REMARK  0 active torsions:
REMARK  status: ('A' for Active; 'I' for Inactive)
ROOT
ATOM      1  C   UNL d   1      -1.351   2.186   1.571  0.00  0.00     0.023 A 
ATOM      2  C1  UNL d   1      -1.382   2.230   0.177  0.00  0.00     0.003 A 
ATOM      3  C2  UNL d   1      -0.831   1.185  -0.568  0.00  0.00     0.048 A 
ATOM      4  C3  UNL d   1      -0.251   0.100   0.087  0.00  0.00     0.023 A 
ATOM      5  C4  UNL d   1      -0.218   0.051   1.482  0.00  0.00     0.048 A 
ATOM      6  C5  UNL d   1      -0.770   1.098   2.223  0.00  0.00     0.003 A 
ATOM      7  I   UNL d   1       0.570  -1.456  -1.019  0.00  0.00    -0.146 I 
ENDROOT
TORSDOF 0
ENDMDL
