MODEL 1
REMARK minimizedAffinity -3.19287205
REMARK minimizedRMSD -1
REMARK  0 active torsions:
REMARK  status: ('A' for Active; 'I' for Inactive)
ROOT
ATOM      1  C   UNL d   1      -1.241   1.778   1.577  0.00  0.00     0.023 A 
ATOM      2  C1  UNL d   1      -1.108   1.955   0.200  0.00  0.00     0.003 A 
ATOM      3  C2  UNL d   1      -0.561   0.938  -0.586  0.00  0.00     0.048 A 
ATOM      4  C3  UNL d   1      -0.151  -0.253   0.013  0.00  0.00     0.023 A 
ATOM      5  C4  UNL d   1      -0.283  -0.434   1.390  0.00  0.00     0.048 A 
ATOM      6  C5  UNL d   1      -0.830   0.586   2.172  0.00  0.00     0.003 A 
ATOM      7  I   UNL d   1       0.663  -1.768  -1.154  0.00  0.00    -0.146 I 
ENDROOT
TORSDOF 0
ENDMDL
