MODEL 1
REMARK minimizedAffinity -3.87962055
REMARK minimizedRMSD -1
REMARK  0 active torsions:
REMARK  status: ('A' for Active; 'I' for Inactive)
ROOT
ATOM      1  C   UNL d   1       1.277  -0.098  -1.116  0.00  0.00     0.023 A 
ATOM      2  C1  UNL d   1       0.726   1.145  -1.429  0.00  0.00     0.003 A 
ATOM      3  C2  UNL d   1      -0.315   1.663  -0.655  0.00  0.00     0.048 A 
ATOM      4  C3  UNL d   1      -0.799   0.933   0.430  0.00  0.00     0.023 A 
ATOM      5  C4  UNL d   1      -0.250  -0.310   0.747  0.00  0.00     0.048 A 
ATOM      6  C5  UNL d   1       0.789  -0.825  -0.030  0.00  0.00     0.003 A 
ATOM      7  I   UNL d   1      -2.348   1.702   1.583  0.00  0.00    -0.146 I 
ENDROOT
TORSDOF 0
ENDMDL
