MODEL 1
REMARK minimizedAffinity -1.62019062
REMARK minimizedRMSD -1
REMARK  0 active torsions:
REMARK  status: ('A' for Active; 'I' for Inactive)
ROOT
ATOM      1  N1  IND d   1      -1.873   1.339   0.019  0.00  0.00    -0.196 N 
ATOM      2  C2  IND d   1      -1.149   0.685  -0.939  0.00  0.00     0.054 A 
ATOM      3  C3  IND d   1       0.062   0.331  -0.454  0.00  0.00    -0.031 A 
ATOM      4  C4  IND d   1       1.028   0.633   1.913  0.00  0.00     0.051 A 
ATOM      5  C5  IND d   1       0.755   1.206   3.123  0.00  0.00    -0.031 A 
ATOM      6  C6  IND d   1      -0.434   1.863   3.366  0.00  0.00     0.015 A 
ATOM      7  C7  IND d   1      -1.402   1.963   2.408  0.00  0.00    -0.016 A 
ATOM      8  C8  IND d   1      -1.125   1.388   1.175  0.00  0.00    -0.047 A 
ATOM      9  C9  IND d   1       0.097   0.757   0.909  0.00  0.00    -0.096 A 
ATOM     10  HN1 IND d   1      -2.662   1.664  -0.082  0.00  0.00     0.298 HD
ENDROOT
TORSDOF 0
ENDMDL
