MODEL 1
REMARK minimizedAffinity -2.43068004
REMARK minimizedRMSD -1
REMARK  0 active torsions:
REMARK  status: ('A' for Active; 'I' for Inactive)
ROOT
ATOM      1  N1  IND d   1      -2.247   1.317   1.297  0.00  0.00    -0.196 N 
ATOM      2  C2  IND d   1      -1.249   0.422   1.031  0.00  0.00     0.054 A 
ATOM      3  C3  IND d   1      -0.243   0.559   1.924  0.00  0.00    -0.031 A 
ATOM      4  C4  IND d   1      -0.070   2.119   3.964  0.00  0.00     0.051 A 
ATOM      5  C5  IND d   1      -0.718   3.144   4.595  0.00  0.00    -0.031 A 
ATOM      6  C6  IND d   1      -1.934   3.620   4.151  0.00  0.00     0.015 A 
ATOM      7  C7  IND d   1      -2.557   3.079   3.062  0.00  0.00    -0.016 A 
ATOM      8  C8  IND d   1      -1.898   2.043   2.415  0.00  0.00    -0.047 A 
ATOM      9  C9  IND d   1      -0.643   1.584   2.835  0.00  0.00    -0.096 A 
ATOM     10  HN1 IND d   1      -2.971   1.412   0.842  0.00  0.00     0.298 HD
ENDROOT
TORSDOF 0
ENDMDL
