MODEL 1
REMARK minimizedAffinity -0.479407787
REMARK minimizedRMSD -1
REMARK  0 active torsions:
REMARK  status: ('A' for Active; 'I' for Inactive)
ROOT
ATOM      1  N1  IND d   1       0.190   0.722   3.063  0.00  0.00    -0.196 N 
ATOM      2  C2  IND d   1      -0.860   0.058   3.632  0.00  0.00     0.054 A 
ATOM      3  C3  IND d   1      -1.555  -0.619   2.690  0.00  0.00    -0.031 A 
ATOM      4  C4  IND d   1      -1.086  -0.861   0.170  0.00  0.00     0.051 A 
ATOM      5  C5  IND d   1      -0.259  -0.409  -0.820  0.00  0.00    -0.031 A 
ATOM      6  C6  IND d   1       0.782   0.459  -0.561  0.00  0.00     0.015 A 
ATOM      7  C7  IND d   1       1.044   0.900   0.706  0.00  0.00    -0.016 A 
ATOM      8  C8  IND d   1       0.202   0.448   1.713  0.00  0.00    -0.047 A 
ATOM      9  C9  IND d   1      -0.882  -0.399   1.449  0.00  0.00    -0.096 A 
ATOM     10  HN1 IND d   1       0.749   1.227   3.478  0.00  0.00     0.298 HD
ENDROOT
TORSDOF 0
ENDMDL
