MODEL 1
REMARK minimizedAffinity -2.35123229
REMARK minimizedRMSD -1
REMARK  0 active torsions:
REMARK  status: ('A' for Active; 'I' for Inactive)
ROOT
ATOM      1  N1  IND d   1      -0.366   0.403  -1.490  0.00  0.00    -0.196 N 
ATOM      2  C2  IND d   1       0.691  -0.340  -1.042  0.00  0.00     0.054 A 
ATOM      3  C3  IND d   1       0.317  -1.102   0.010  0.00  0.00    -0.031 A 
ATOM      4  C4  IND d   1      -2.002  -1.366   1.097  0.00  0.00     0.051 A 
ATOM      5  C5  IND d   1      -3.273  -0.866   1.057  0.00  0.00    -0.031 A 
ATOM      6  C6  IND d   1      -3.649   0.101   0.147  0.00  0.00     0.015 A 
ATOM      7  C7  IND d   1      -2.766   0.597  -0.770  0.00  0.00    -0.016 A 
ATOM      8  C8  IND d   1      -1.472   0.096  -0.728  0.00  0.00    -0.047 A 
ATOM      9  C9  IND d   1      -1.074  -0.853   0.221  0.00  0.00    -0.096 A 
ATOM     10  HN1 IND d   1      -0.343   0.968  -2.138  0.00  0.00     0.298 HD
ENDROOT
TORSDOF 0
ENDMDL
