MODEL 1
REMARK minimizedAffinity -2.14342976
REMARK minimizedRMSD -1
REMARK  0 active torsions:
REMARK  status: ('A' for Active; 'I' for Inactive)
ROOT
ATOM      1  N1  IND d   1       0.517   0.007  -0.696  0.00  0.00    -0.196 N 
ATOM      2  C2  IND d   1       0.269  -1.211  -1.264  0.00  0.00     0.054 A 
ATOM      3  C3  IND d   1      -0.220  -2.070  -0.342  0.00  0.00    -0.031 A 
ATOM      4  C4  IND d   1      -0.792  -1.658   2.135  0.00  0.00     0.051 A 
ATOM      5  C5  IND d   1      -0.705  -0.712   3.117  0.00  0.00    -0.031 A 
ATOM      6  C6  IND d   1      -0.199   0.548   2.874  0.00  0.00     0.015 A 
ATOM      7  C7  IND d   1       0.230   0.915   1.630  0.00  0.00    -0.016 A 
ATOM      8  C8  IND d   1       0.151  -0.045   0.631  0.00  0.00    -0.047 A 
ATOM      9  C9  IND d   1      -0.323  -1.340   0.882  0.00  0.00    -0.096 A 
ATOM     10  HN1 IND d   1       0.846   0.692  -1.100  0.00  0.00     0.298 HD
ENDROOT
TORSDOF 0
ENDMDL
