MODEL 1
REMARK minimizedAffinity -4.05134344
REMARK minimizedRMSD -1
REMARK  0 active torsions:
REMARK  status: ('A' for Active; 'I' for Inactive)
ROOT
ATOM      1  N1  IND d   1      -0.550   0.231  -0.393  0.00  0.00    -0.196 N 
ATOM      2  C2  IND d   1       0.801   0.416  -0.297  0.00  0.00     0.054 A 
ATOM      3  C3  IND d   1       1.193   0.360   0.996  0.00  0.00    -0.031 A 
ATOM      4  C4  IND d   1      -0.200  -0.126   3.106  0.00  0.00     0.051 A 
ATOM      5  C5  IND d   1      -1.485  -0.324   3.527  0.00  0.00    -0.031 A 
ATOM      6  C6  IND d   1      -2.545  -0.350   2.644  0.00  0.00     0.015 A 
ATOM      7  C7  IND d   1      -2.357  -0.190   1.301  0.00  0.00    -0.016 A 
ATOM      8  C8  IND d   1      -1.054   0.018   0.871  0.00  0.00    -0.047 A 
ATOM      9  C9  IND d   1       0.020   0.088   1.766  0.00  0.00    -0.096 A 
ATOM     10  HN1 IND d   1      -1.007   0.246  -1.121  0.00  0.00     0.298 HD
ENDROOT
TORSDOF 0
ENDMDL
