MODEL 1
REMARK minimizedAffinity -4.58183765
REMARK minimizedRMSD -1
REMARK  0 active torsions:
REMARK  status: ('A' for Active; 'I' for Inactive)
ROOT
ATOM      1  N1  IND d   1      -0.020  -0.089  -1.576  0.00  0.00    -0.196 N 
ATOM      2  C2  IND d   1       1.156  -0.784  -1.604  0.00  0.00     0.054 A 
ATOM      3  C3  IND d   1       1.528  -1.130  -0.351  0.00  0.00    -0.031 A 
ATOM      4  C4  IND d   1       0.306  -0.746   1.882  0.00  0.00     0.051 A 
ATOM      5  C5  IND d   1      -0.787  -0.125   2.419  0.00  0.00    -0.031 A 
ATOM      6  C6  IND d   1      -1.699   0.552   1.636  0.00  0.00     0.015 A 
ATOM      7  C7  IND d   1      -1.559   0.622   0.279  0.00  0.00    -0.016 A 
ATOM      8  C8  IND d   1      -0.447  -0.001  -0.269  0.00  0.00    -0.047 A 
ATOM      9  C9  IND d   1       0.505  -0.652   0.525  0.00  0.00    -0.096 A 
ATOM     10  HN1 IND d   1      -0.425   0.239  -2.260  0.00  0.00     0.298 HD
ENDROOT
TORSDOF 0
ENDMDL
