MODEL 1
REMARK minimizedAffinity -4.6061039
REMARK minimizedRMSD -1
REMARK  0 active torsions:
REMARK  status: ('A' for Active; 'I' for Inactive)
ROOT
ATOM      1  N1  IND d   1      -0.825   0.162  -1.190  0.00  0.00    -0.196 N 
ATOM      2  C2  IND d   1       0.234   0.067  -2.049  0.00  0.00     0.054 A 
ATOM      3  C3  IND d   1       1.359  -0.258  -1.375  0.00  0.00    -0.031 A 
ATOM      4  C4  IND d   1       1.673  -0.784   1.126  0.00  0.00     0.051 A 
ATOM      5  C5  IND d   1       1.003  -0.793   2.317  0.00  0.00    -0.031 A 
ATOM      6  C6  IND d   1      -0.339  -0.481   2.401  0.00  0.00     0.015 A 
ATOM      7  C7  IND d   1      -1.066  -0.158   1.290  0.00  0.00    -0.016 A 
ATOM      8  C8  IND d   1      -0.387  -0.140   0.080  0.00  0.00    -0.047 A 
ATOM      9  C9  IND d   1       0.984  -0.414  -0.005  0.00  0.00    -0.096 A 
ATOM     10  HN1 IND d   1      -1.630   0.374  -1.407  0.00  0.00     0.298 HD
ENDROOT
TORSDOF 0
ENDMDL
