MODEL 1
REMARK minimizedAffinity -4.14474154
REMARK minimizedRMSD -1
REMARK  0 active torsions:
REMARK  status: ('A' for Active; 'I' for Inactive)
ROOT
ATOM      1  N1  IND d   1       1.732   0.351   2.320  0.00  0.00    -0.196 N 
ATOM      2  C2  IND d   1       2.199   0.925   1.170  0.00  0.00     0.054 A 
ATOM      3  C3  IND d   1       1.223   0.969   0.236  0.00  0.00    -0.031 A 
ATOM      4  C4  IND d   1      -1.243   0.251   0.412  0.00  0.00     0.051 A 
ATOM      5  C5  IND d   1      -2.129  -0.362   1.252  0.00  0.00    -0.031 A 
ATOM      6  C6  IND d   1      -1.767  -0.775   2.518  0.00  0.00     0.015 A 
ATOM      7  C7  IND d   1      -0.502  -0.578   2.997  0.00  0.00    -0.016 A 
ATOM      8  C8  IND d   1       0.402   0.038   2.144  0.00  0.00    -0.047 A 
ATOM      9  C9  IND d   1       0.052   0.420   0.843  0.00  0.00    -0.096 A 
ATOM     10  HN1 IND d   1       2.191   0.210   3.033  0.00  0.00     0.298 HD
ENDROOT
TORSDOF 0
ENDMDL
