MODEL 1
REMARK minimizedAffinity -4.73023129
REMARK minimizedRMSD -1
REMARK  0 active torsions:
REMARK  status: ('A' for Active; 'I' for Inactive)
ROOT
ATOM      1  N1  IND d   1      -0.892   0.765  -0.603  0.00  0.00    -0.196 N 
ATOM      2  C2  IND d   1       0.065   0.297  -1.459  0.00  0.00     0.054 A 
ATOM      3  C3  IND d   1       0.844  -0.618  -0.839  0.00  0.00    -0.031 A 
ATOM      4  C4  IND d   1       0.663  -1.573   1.545  0.00  0.00     0.051 A 
ATOM      5  C5  IND d   1      -0.029  -1.427   2.714  0.00  0.00    -0.031 A 
ATOM      6  C6  IND d   1      -1.068  -0.527   2.839  0.00  0.00     0.015 A 
ATOM      7  C7  IND d   1      -1.461   0.257   1.791  0.00  0.00    -0.016 A 
ATOM      8  C8  IND d   1      -0.755   0.117   0.605  0.00  0.00    -0.047 A 
ATOM      9  C9  IND d   1       0.327  -0.765   0.485  0.00  0.00    -0.096 A 
ATOM     10  HN1 IND d   1      -1.480   1.365  -0.787  0.00  0.00     0.298 HD
ENDROOT
TORSDOF 0
ENDMDL
