MODEL 1
REMARK minimizedAffinity -4.92983627
REMARK minimizedRMSD -1
REMARK  0 active torsions:
REMARK  status: ('A' for Active; 'I' for Inactive)
ROOT
ATOM      1  N1  IND d   1       1.097   0.480  -1.058  0.00  0.00    -0.196 N 
ATOM      2  C2  IND d   1       0.062   0.158  -1.890  0.00  0.00     0.054 A 
ATOM      3  C3  IND d   1      -1.028  -0.190  -1.171  0.00  0.00    -0.031 A 
ATOM      4  C4  IND d   1      -1.369  -0.203   1.381  0.00  0.00     0.051 A 
ATOM      5  C5  IND d   1      -0.699  -0.021   2.558  0.00  0.00    -0.031 A 
ATOM      6  C6  IND d   1       0.630   0.348   2.591  0.00  0.00     0.015 A 
ATOM      7  C7  IND d   1       1.339   0.560   1.442  0.00  0.00    -0.016 A 
ATOM      8  C8  IND d   1       0.664   0.369   0.245  0.00  0.00    -0.047 A 
ATOM      9  C9  IND d   1      -0.673  -0.047   0.205  0.00  0.00    -0.096 A 
ATOM     10  HN1 IND d   1       1.887   0.714  -1.306  0.00  0.00     0.298 HD
ENDROOT
TORSDOF 0
ENDMDL
