MODEL 1
REMARK minimizedAffinity -0.259500742
REMARK minimizedRMSD -1
REMARK  0 active torsions:
REMARK  status: ('A' for Active; 'I' for Inactive)
ROOT
ATOM      1  N1  IND d   1      -2.186   0.221   1.318  0.00  0.00    -0.196 N 
ATOM      2  C2  IND d   1      -2.289   0.155  -0.044  0.00  0.00     0.054 A 
ATOM      3  C3  IND d   1      -1.063   0.056  -0.605  0.00  0.00    -0.031 A 
ATOM      4  C4  IND d   1       1.243  -0.115   0.526  0.00  0.00     0.051 A 
ATOM      5  C5  IND d   1       1.850  -0.062   1.749  0.00  0.00    -0.031 A 
ATOM      6  C6  IND d   1       1.128   0.089   2.915  0.00  0.00     0.015 A 
ATOM      7  C7  IND d   1      -0.235   0.181   2.902  0.00  0.00    -0.016 A 
ATOM      8  C8  IND d   1      -0.854   0.134   1.661  0.00  0.00    -0.047 A 
ATOM      9  C9  IND d   1      -0.123   0.024   0.471  0.00  0.00    -0.096 A 
ATOM     10  HN1 IND d   1      -2.842   0.304   1.867  0.00  0.00     0.298 HD
ENDROOT
TORSDOF 0
ENDMDL
