MODEL 1
REMARK minimizedAffinity -4.23879242
REMARK minimizedRMSD -1
REMARK  0 active torsions:
REMARK  status: ('A' for Active; 'I' for Inactive)
ROOT
ATOM      1  N1  IND d   1      -1.151  -0.836  -0.715  0.00  0.00    -0.196 N 
ATOM      2  C2  IND d   1      -0.352  -0.490  -1.769  0.00  0.00     0.054 A 
ATOM      3  C3  IND d   1       0.740   0.176  -1.332  0.00  0.00    -0.031 A 
ATOM      4  C4  IND d   1       1.469   0.721   1.076  0.00  0.00     0.051 A 
ATOM      5  C5  IND d   1       1.047   0.641   2.374  0.00  0.00    -0.031 A 
ATOM      6  C6  IND d   1      -0.152   0.049   2.715  0.00  0.00     0.015 A 
ATOM      7  C7  IND d   1      -0.972  -0.496   1.768  0.00  0.00    -0.016 A 
ATOM      8  C8  IND d   1      -0.550  -0.410   0.449  0.00  0.00    -0.047 A 
ATOM      9  C9  IND d   1       0.645   0.227   0.093  0.00  0.00    -0.096 A 
ATOM     10  HN1 IND d   1      -1.902  -1.251  -0.770  0.00  0.00     0.298 HD
ENDROOT
TORSDOF 0
ENDMDL
