MODEL 1
REMARK minimizedAffinity 1.92438877
REMARK minimizedRMSD -1
REMARK  0 active torsions:
REMARK  status: ('A' for Active; 'I' for Inactive)
ROOT
ATOM      1  N1  IND d   1      -0.947   0.261   2.420  0.00  0.00    -0.196 N 
ATOM      2  C2  IND d   1       0.113   0.378   3.275  0.00  0.00     0.054 A 
ATOM      3  C3  IND d   1       1.262   0.534   2.581  0.00  0.00    -0.031 A 
ATOM      4  C4  IND d   1       1.624   0.730   0.040  0.00  0.00     0.051 A 
ATOM      5  C5  IND d   1       0.961   0.648  -1.152  0.00  0.00    -0.031 A 
ATOM      6  C6  IND d   1      -0.400   0.431  -1.216  0.00  0.00     0.015 A 
ATOM      7  C7  IND d   1      -1.154   0.299  -0.084  0.00  0.00    -0.016 A 
ATOM      8  C8  IND d   1      -0.483   0.375   1.128  0.00  0.00    -0.047 A 
ATOM      9  C9  IND d   1       0.905   0.553   1.198  0.00  0.00    -0.096 A 
ATOM     10  HN1 IND d   1      -1.766   0.138   2.650  0.00  0.00     0.298 HD
ENDROOT
TORSDOF 0
ENDMDL
