MODEL 1
REMARK minimizedAffinity -2.73854494
REMARK minimizedRMSD -1
REMARK  0 active torsions:
REMARK  status: ('A' for Active; 'I' for Inactive)
ROOT
ATOM      1  N1  IND d   1      -0.625   0.216  -1.005  0.00  0.00    -0.196 N 
ATOM      2  C2  IND d   1       0.481   0.996  -1.196  0.00  0.00     0.054 A 
ATOM      3  C3  IND d   1       1.059   1.291  -0.010  0.00  0.00    -0.031 A 
ATOM      4  C4  IND d   1       0.418   0.516   2.359  0.00  0.00     0.051 A 
ATOM      5  C5  IND d   1      -0.541  -0.178   3.043  0.00  0.00    -0.031 A 
ATOM      6  C6  IND d   1      -1.596  -0.791   2.399  0.00  0.00     0.015 A 
ATOM      7  C7  IND d   1      -1.727  -0.742   1.040  0.00  0.00    -0.016 A 
ATOM      8  C8  IND d   1      -0.759  -0.032   0.343  0.00  0.00    -0.047 A 
ATOM      9  C9  IND d   1       0.291   0.628   0.995  0.00  0.00    -0.096 A 
ATOM     10  HN1 IND d   1      -1.149  -0.071  -1.624  0.00  0.00     0.298 HD
ENDROOT
TORSDOF 0
ENDMDL
