MODEL 1
REMARK minimizedAffinity -3.95605111
REMARK minimizedRMSD -1
REMARK  0 active torsions:
REMARK  status: ('A' for Active; 'I' for Inactive)
ROOT
ATOM      1  N1  IND d   1      -0.423   0.631  -0.785  0.00  0.00    -0.196 N 
ATOM      2  C2  IND d   1       0.712   0.283  -1.463  0.00  0.00     0.054 A 
ATOM      3  C3  IND d   1       1.544  -0.417  -0.659  0.00  0.00    -0.031 A 
ATOM      4  C4  IND d   1       1.201  -1.191   1.772  0.00  0.00     0.051 A 
ATOM      5  C5  IND d   1       0.337  -1.083   2.826  0.00  0.00    -0.031 A 
ATOM      6  C6  IND d   1      -0.850  -0.386   2.726  0.00  0.00     0.015 A 
ATOM      7  C7  IND d   1      -1.224   0.222   1.561  0.00  0.00    -0.016 A 
ATOM      8  C8  IND d   1      -0.345   0.120   0.492  0.00  0.00    -0.047 A 
ATOM      9  C9  IND d   1       0.880  -0.550   0.599  0.00  0.00    -0.096 A 
ATOM     10  HN1 IND d   1      -1.075   1.092  -1.103  0.00  0.00     0.298 HD
ENDROOT
TORSDOF 0
ENDMDL
