MODEL 1
REMARK minimizedAffinity -5.21392345
REMARK minimizedRMSD -1
REMARK  0 active torsions:
REMARK  status: ('A' for Active; 'I' for Inactive)
ROOT
ATOM      1  N1  IND d   1       0.838  -0.215   2.035  0.00  0.00    -0.196 N 
ATOM      2  C2  IND d   1       0.043  -0.811   2.975  0.00  0.00     0.054 A 
ATOM      3  C3  IND d   1      -1.245  -0.817   2.566  0.00  0.00    -0.031 A 
ATOM      4  C4  IND d   1      -2.260   0.003   0.347  0.00  0.00     0.051 A 
ATOM      5  C5  IND d   1      -1.937   0.655  -0.810  0.00  0.00    -0.031 A 
ATOM      6  C6  IND d   1      -0.645   1.055  -1.084  0.00  0.00     0.015 A 
ATOM      7  C7  IND d   1       0.377   0.808  -0.213  0.00  0.00    -0.016 A 
ATOM      8  C8  IND d   1       0.051   0.153   0.966  0.00  0.00    -0.047 A 
ATOM      9  C9  IND d   1      -1.265  -0.219   1.269  0.00  0.00    -0.096 A 
ATOM     10  HN1 IND d   1       1.686  -0.091   2.101  0.00  0.00     0.298 HD
ENDROOT
TORSDOF 0
ENDMDL
