MODEL 1
REMARK minimizedAffinity -2.13945031
REMARK minimizedRMSD -1
REMARK  0 active torsions:
REMARK  status: ('A' for Active; 'I' for Inactive)
ROOT
ATOM      1  N1  IND d   1      -0.726  -0.573  -0.555  0.00  0.00    -0.196 N 
ATOM      2  C2  IND d   1       0.109   0.096  -1.406  0.00  0.00     0.054 A 
ATOM      3  C3  IND d   1       0.999   0.836  -0.707  0.00  0.00    -0.031 A 
ATOM      4  C4  IND d   1       1.331   1.020   1.839  0.00  0.00     0.051 A 
ATOM      5  C5  IND d   1       0.785   0.623   3.028  0.00  0.00    -0.031 A 
ATOM      6  C6  IND d   1      -0.312  -0.211   3.084  0.00  0.00     0.015 A 
ATOM      7  C7  IND d   1      -0.901  -0.692   1.949  0.00  0.00    -0.016 A 
ATOM      8  C8  IND d   1      -0.354  -0.285   0.740  0.00  0.00    -0.047 A 
ATOM      9  C9  IND d   1       0.733   0.595   0.676  0.00  0.00    -0.096 A 
ATOM     10  HN1 IND d   1      -1.375  -1.086  -0.789  0.00  0.00     0.298 HD
ENDROOT
TORSDOF 0
ENDMDL
