MODEL 1
REMARK minimizedAffinity 3.5670054
REMARK minimizedRMSD -1
REMARK  0 active torsions:
REMARK  status: ('A' for Active; 'I' for Inactive)
ROOT
ATOM      1  C1  DEN d   1       2.126   4.048  -4.657  0.00  0.00     0.130 A 
ATOM      2  C2  DEN d   1       1.362   5.081  -5.352  0.00  0.00    -0.031 A 
ATOM      3  C3  DEN d   1       2.320   6.000  -5.999  0.00  0.00     0.027 A 
ATOM      4  C4  DEN d   1       4.898   5.922  -5.997  0.00  0.00     0.027 A 
ATOM      5  C5  DEN d   1       6.000   5.237  -5.533  0.00  0.00    -0.003 A 
ATOM      6  C6  DEN d   1       5.889   4.137  -4.724  0.00  0.00     0.001 A 
ATOM      7  C7  DEN d   1       4.649   3.662  -4.391  0.00  0.00     0.017 A 
ATOM      8  C8  DEN d   1       3.533   4.351  -4.848  0.00  0.00    -0.094 A 
ATOM      9  C9  DEN d   1       3.665   5.454  -5.675  0.00  0.00    -0.072 A 
ENDROOT
TORSDOF 0
ENDMDL
