MODEL 1
REMARK minimizedAffinity 19.5017548
REMARK minimizedRMSD -1
REMARK  0 active torsions:
REMARK  status: ('A' for Active; 'I' for Inactive)
ROOT
ATOM      1  C1  DEN d   1       1.369   1.614   0.204  0.00  0.00     0.130 A 
ATOM      2  C2  DEN d   1       2.420   0.617   0.389  0.00  0.00    -0.031 A 
ATOM      3  C3  DEN d   1       2.954   0.264  -0.941  0.00  0.00     0.027 A 
ATOM      4  C4  DEN d   1       2.263   1.163  -3.258  0.00  0.00     0.027 A 
ATOM      5  C5  DEN d   1       1.407   2.014  -3.922  0.00  0.00    -0.003 A 
ATOM      6  C6  DEN d   1       0.464   2.760  -3.266  0.00  0.00     0.001 A 
ATOM      7  C7  DEN d   1       0.384   2.703  -1.900  0.00  0.00     0.017 A 
ATOM      8  C8  DEN d   1       1.238   1.842  -1.224  0.00  0.00    -0.094 A 
ATOM      9  C9  DEN d   1       2.192   1.105  -1.904  0.00  0.00    -0.072 A 
ENDROOT
TORSDOF 0
ENDMDL
