MODEL 1
REMARK minimizedAffinity 9.40795517
REMARK minimizedRMSD -1
REMARK  0 active torsions:
REMARK  status: ('A' for Active; 'I' for Inactive)
ROOT
ATOM      1  C1  DEN d   1      -1.521   4.625  -4.569  0.00  0.00     0.130 A 
ATOM      2  C2  DEN d   1      -0.742   5.796  -4.175  0.00  0.00    -0.031 A 
ATOM      3  C3  DEN d   1      -0.662   5.817  -2.701  0.00  0.00     0.027 A 
ATOM      4  C4  DEN d   1      -1.662   4.156  -0.998  0.00  0.00     0.027 A 
ATOM      5  C5  DEN d   1      -2.414   3.012  -0.856  0.00  0.00    -0.003 A 
ATOM      6  C6  DEN d   1      -2.946   2.349  -1.930  0.00  0.00     0.001 A 
ATOM      7  C7  DEN d   1      -2.695   2.801  -3.199  0.00  0.00     0.017 A 
ATOM      8  C8  DEN d   1      -1.943   3.959  -3.350  0.00  0.00    -0.094 A 
ATOM      9  C9  DEN d   1      -1.404   4.607  -2.252  0.00  0.00    -0.072 A 
ENDROOT
TORSDOF 0
ENDMDL
