MODEL 1
REMARK minimizedAffinity 4.47216845
REMARK minimizedRMSD -1
REMARK  0 active torsions:
REMARK  status: ('A' for Active; 'I' for Inactive)
ROOT
ATOM      1  C1  DEN d   1       1.938   1.490  -0.638  0.00  0.00     0.130 A 
ATOM      2  C2  DEN d   1       1.972   2.828  -0.055  0.00  0.00    -0.031 A 
ATOM      3  C3  DEN d   1       0.941   2.893   1.000  0.00  0.00     0.027 A 
ATOM      4  C4  DEN d   1      -0.694   1.059   1.786  0.00  0.00     0.027 A 
ATOM      5  C5  DEN d   1      -1.107  -0.238   1.582  0.00  0.00    -0.003 A 
ATOM      6  C6  DEN d   1      -0.563  -1.034   0.609  0.00  0.00     0.001 A 
ATOM      7  C7  DEN d   1       0.459  -0.553  -0.168  0.00  0.00     0.017 A 
ATOM      8  C8  DEN d   1       0.876   0.757   0.027  0.00  0.00    -0.094 A 
ATOM      9  C9  DEN d   1       0.321   1.541   1.025  0.00  0.00    -0.072 A 
ENDROOT
TORSDOF 0
ENDMDL
