MODEL 1
REMARK minimizedAffinity 17.8160439
REMARK minimizedRMSD -1
REMARK  0 active torsions:
REMARK  status: ('A' for Active; 'I' for Inactive)
ROOT
ATOM      1  C1  DEN d   1      -2.221   0.806   1.438  0.00  0.00     0.130 A 
ATOM      2  C2  DEN d   1      -2.356  -0.436   2.195  0.00  0.00    -0.031 A 
ATOM      3  C3  DEN d   1      -1.145  -1.248   1.959  0.00  0.00     0.027 A 
ATOM      4  C4  DEN d   1       0.916  -0.705   0.508  0.00  0.00     0.027 A 
ATOM      5  C5  DEN d   1       1.482   0.227  -0.335  0.00  0.00    -0.003 A 
ATOM      6  C6  DEN d   1       0.844   1.391  -0.670  0.00  0.00     0.001 A 
ATOM      7  C7  DEN d   1      -0.380   1.676  -0.123  0.00  0.00     0.017 A 
ATOM      8  C8  DEN d   1      -0.960   0.738   0.721  0.00  0.00    -0.094 A 
ATOM      9  C9  DEN d   1      -0.293  -0.427   1.057  0.00  0.00    -0.072 A 
ENDROOT
TORSDOF 0
ENDMDL
