MODEL 1
REMARK minimizedAffinity 2.68245339
REMARK minimizedRMSD -1
REMARK  0 active torsions:
REMARK  status: ('A' for Active; 'I' for Inactive)
ROOT
ATOM      1  C1  DEN d   1       1.459   5.961  -4.521  0.00  0.00     0.130 A 
ATOM      2  C2  DEN d   1       1.070   5.953  -5.929  0.00  0.00    -0.031 A 
ATOM      3  C3  DEN d   1      -0.405   5.963  -5.995  0.00  0.00     0.027 A 
ATOM      4  C4  DEN d   1      -2.116   5.994  -4.065  0.00  0.00     0.027 A 
ATOM      5  C5  DEN d   1      -2.263   5.994  -2.695  0.00  0.00    -0.003 A 
ATOM      6  C6  DEN d   1      -1.190   5.949  -1.846  0.00  0.00     0.001 A 
ATOM      7  C7  DEN d   1       0.081   5.948  -2.357  0.00  0.00     0.017 A 
ATOM      8  C8  DEN d   1       0.237   5.940  -3.737  0.00  0.00    -0.094 A 
ATOM      9  C9  DEN d   1      -0.860   5.998  -4.579  0.00  0.00    -0.072 A 
ENDROOT
TORSDOF 0
ENDMDL
