MODEL 1
REMARK minimizedAffinity 0.307949692
REMARK minimizedRMSD -1
REMARK  0 active torsions:
REMARK  status: ('A' for Active; 'I' for Inactive)
ROOT
ATOM      1  C1  DEN d   1      -0.936   5.950  -4.667  0.00  0.00     0.130 A 
ATOM      2  C2  DEN d   1       0.062   5.976  -3.601  0.00  0.00    -0.031 A 
ATOM      3  C3  DEN d   1      -0.651   5.997  -2.308  0.00  0.00     0.027 A 
ATOM      4  C4  DEN d   1      -3.190   5.989  -1.856  0.00  0.00     0.027 A 
ATOM      5  C5  DEN d   1      -4.435   5.982  -2.445  0.00  0.00    -0.003 A 
ATOM      6  C6  DEN d   1      -4.600   5.998  -3.804  0.00  0.00     0.001 A 
ATOM      7  C7  DEN d   1      -3.501   5.977  -4.621  0.00  0.00     0.017 A 
ATOM      8  C8  DEN d   1      -2.242   5.991  -4.035  0.00  0.00    -0.094 A 
ATOM      9  C9  DEN d   1      -2.097   5.962  -2.659  0.00  0.00    -0.072 A 
ENDROOT
TORSDOF 0
ENDMDL
