MODEL 1
REMARK minimizedAffinity 1.06395674
REMARK minimizedRMSD -1
REMARK  0 active torsions:
REMARK  status: ('A' for Active; 'I' for Inactive)
ROOT
ATOM      1  C1  DEN d   1      -0.267   0.869   2.109  0.00  0.00     0.130 A 
ATOM      2  C2  DEN d   1      -0.645  -0.498   1.765  0.00  0.00    -0.031 A 
ATOM      3  C3  DEN d   1      -0.037  -0.825   0.460  0.00  0.00     0.027 A 
ATOM      4  C4  DEN d   1       1.451   0.644  -1.050  0.00  0.00     0.027 A 
ATOM      5  C5  DEN d   1       2.037   1.883  -1.185  0.00  0.00    -0.003 A 
ATOM      6  C6  DEN d   1       1.869   2.875  -0.255  0.00  0.00     0.001 A 
ATOM      7  C7  DEN d   1       1.133   2.629   0.874  0.00  0.00     0.017 A 
ATOM      8  C8  DEN d   1       0.534   1.384   1.013  0.00  0.00    -0.094 A 
ATOM      9  C9  DEN d   1       0.726   0.391   0.068  0.00  0.00    -0.072 A 
ENDROOT
TORSDOF 0
ENDMDL
