MODEL 1
REMARK minimizedAffinity 7.51654434
REMARK minimizedRMSD -1
REMARK  0 active torsions:
REMARK  status: ('A' for Active; 'I' for Inactive)
ROOT
ATOM      1  C1  DEN d   1       1.136   2.013   1.019  0.00  0.00     0.130 A 
ATOM      2  C2  DEN d   1       1.876   1.630  -0.180  0.00  0.00    -0.031 A 
ATOM      3  C3  DEN d   1       1.431   0.280  -0.579  0.00  0.00     0.027 A 
ATOM      4  C4  DEN d   1      -0.325  -1.246   0.534  0.00  0.00     0.027 A 
ATOM      5  C5  DEN d   1      -1.210  -1.359   1.583  0.00  0.00    -0.003 A 
ATOM      6  C6  DEN d   1      -1.350  -0.378   2.530  0.00  0.00     0.001 A 
ATOM      7  C7  DEN d   1      -0.625   0.779   2.420  0.00  0.00     0.017 A 
ATOM      8  C8  DEN d   1       0.275   0.897   1.369  0.00  0.00    -0.094 A 
ATOM      9  C9  DEN d   1       0.393  -0.100   0.416  0.00  0.00    -0.072 A 
ENDROOT
TORSDOF 0
ENDMDL
