MODEL 1
REMARK minimizedAffinity 5.45750475
REMARK minimizedRMSD -1
REMARK  0 active torsions:
REMARK  status: ('A' for Active; 'I' for Inactive)
ROOT
ATOM      1  C1  DEN d   1       1.972   1.937  -0.835  0.00  0.00     0.130 A 
ATOM      2  C2  DEN d   1       1.968   3.339  -0.429  0.00  0.00    -0.031 A 
ATOM      3  C3  DEN d   1       1.051   3.480   0.720  0.00  0.00     0.027 A 
ATOM      4  C4  DEN d   1      -0.352   1.670   1.907  0.00  0.00     0.027 A 
ATOM      5  C5  DEN d   1      -0.687   0.334   1.913  0.00  0.00    -0.003 A 
ATOM      6  C6  DEN d   1      -0.189  -0.548   0.990  0.00  0.00     0.001 A 
ATOM      7  C7  DEN d   1       0.706  -0.113   0.049  0.00  0.00     0.017 A 
ATOM      8  C8  DEN d   1       1.043   1.234   0.032  0.00  0.00    -0.094 A 
ATOM      9  C9  DEN d   1       0.539   2.107   0.981  0.00  0.00    -0.072 A 
ENDROOT
TORSDOF 0
ENDMDL
