MODEL 1
REMARK minimizedAffinity 3.28805947
REMARK minimizedRMSD -1
REMARK  0 active torsions:
REMARK  status: ('A' for Active; 'I' for Inactive)
ROOT
ATOM      1  C1  DEN d   1       1.065   0.015  -0.953  0.00  0.00     0.130 A 
ATOM      2  C2  DEN d   1       0.325   0.083   0.304  0.00  0.00    -0.031 A 
ATOM      3  C3  DEN d   1      -1.112  -0.055  -0.004  0.00  0.00     0.027 A 
ATOM      4  C4  DEN d   1      -2.258  -0.371  -2.293  0.00  0.00     0.027 A 
ATOM      5  C5  DEN d   1      -2.045  -0.478  -3.650  0.00  0.00    -0.003 A 
ATOM      6  C6  DEN d   1      -0.794  -0.394  -4.202  0.00  0.00     0.001 A 
ATOM      7  C7  DEN d   1       0.298  -0.244  -3.388  0.00  0.00     0.017 A 
ATOM      8  C8  DEN d   1       0.090  -0.128  -2.020  0.00  0.00    -0.094 A 
ATOM      9  C9  DEN d   1      -1.181  -0.227  -1.480  0.00  0.00    -0.072 A 
ENDROOT
TORSDOF 0
ENDMDL
