MODEL 1
REMARK minimizedAffinity 3.11926365
REMARK minimizedRMSD -1
REMARK  0 active torsions:
REMARK  status: ('A' for Active; 'I' for Inactive)
ROOT
ATOM      1  C1  DEN d   1       0.732   0.920  -0.915  0.00  0.00     0.130 A 
ATOM      2  C2  DEN d   1       1.733   1.981  -0.837  0.00  0.00    -0.031 A 
ATOM      3  C3  DEN d   1       1.754   2.487   0.550  0.00  0.00     0.027 A 
ATOM      4  C4  DEN d   1       0.345   1.733   2.575  0.00  0.00     0.027 A 
ATOM      5  C5  DEN d   1      -0.646   0.873   2.995  0.00  0.00    -0.003 A 
ATOM      6  C6  DEN d   1      -1.265   0.000   2.141  0.00  0.00     0.001 A 
ATOM      7  C7  DEN d   1      -0.869  -0.065   0.831  0.00  0.00     0.017 A 
ATOM      8  C8  DEN d   1       0.124   0.804   0.398  0.00  0.00    -0.094 A 
ATOM      9  C9  DEN d   1       0.747   1.671   1.280  0.00  0.00    -0.072 A 
ENDROOT
TORSDOF 0
ENDMDL
