MODEL 1
REMARK minimizedAffinity 6.93171263
REMARK minimizedRMSD -1
REMARK  0 active torsions:
REMARK  status: ('A' for Active; 'I' for Inactive)
ROOT
ATOM      1  C1  DEN d   1       2.184   1.394   0.796  0.00  0.00     0.130 A 
ATOM      2  C2  DEN d   1       2.049   0.570  -0.403  0.00  0.00    -0.031 A 
ATOM      3  C3  DEN d   1       0.703  -0.038  -0.389  0.00  0.00     0.027 A 
ATOM      4  C4  DEN d   1      -1.176   0.218   1.359  0.00  0.00     0.027 A 
ATOM      5  C5  DEN d   1      -1.524   0.805   2.555  0.00  0.00    -0.003 A 
ATOM      6  C6  DEN d   1      -0.655   1.596   3.260  0.00  0.00     0.001 A 
ATOM      7  C7  DEN d   1       0.590   1.858   2.752  0.00  0.00     0.017 A 
ATOM      8  C8  DEN d   1       0.950   1.263   1.550  0.00  0.00    -0.094 A 
ATOM      9  C9  DEN d   1       0.054   0.477   0.846  0.00  0.00    -0.072 A 
ENDROOT
TORSDOF 0
ENDMDL
