MODEL 1
REMARK minimizedAffinity 4.8720727
REMARK minimizedRMSD -1
REMARK  1 active torsions:
REMARK  status: ('A' for Active; 'I' for Inactive)
REMARK    1  A    between atoms: N_2  and  C1_3 
ROOT
ATOM      1  C1  UNL d   1       1.239   1.579  -0.914  0.00  0.00     0.143 A 
ATOM      2  C2  UNL d   1       2.082   1.934   0.144  0.00  0.00    -0.057 A 
ATOM      3  C3  UNL d   1       1.565   2.305   1.391  0.00  0.00     0.033 A 
ATOM      4  C4  UNL d   1       0.189   2.356   1.593  0.00  0.00    -0.042 A 
ATOM      5  C5  UNL d   1      -0.668   2.031   0.548  0.00  0.00     0.033 A 
ATOM      6  C6  UNL d   1      -0.145   1.655  -0.693  0.00  0.00    -0.057 A 
ENDROOT
BRANCH   1   7
ATOM      7  N   UNL d   1       1.689   1.296  -2.206  0.00  0.00    -0.732 N 
ATOM      8  C   UNL d   1       2.799   0.392  -2.419  0.00  0.00     0.284 C 
ATOM      9  H3  UNL d   1       0.924   1.179  -2.867  0.00  0.00     0.395 HD
ENDBRANCH   1   7
TORSDOF 1
ENDMDL
