MODEL 1
REMARK minimizedAffinity 7.88686514
REMARK minimizedRMSD -1
REMARK  1 active torsions:
REMARK  status: ('A' for Active; 'I' for Inactive)
REMARK    1  A    between atoms: N_2  and  C1_3 
ROOT
ATOM      1  C1  UNL d   1       1.149  -2.964   0.298  0.00  0.00     0.143 A 
ATOM      2  C2  UNL d   1       0.204  -2.422  -0.581  0.00  0.00    -0.057 A 
ATOM      3  C3  UNL d   1       0.580  -1.527  -1.589  0.00  0.00     0.033 A 
ATOM      4  C4  UNL d   1       1.908  -1.134  -1.719  0.00  0.00    -0.042 A 
ATOM      5  C5  UNL d   1       2.860  -1.640  -0.841  0.00  0.00     0.033 A 
ATOM      6  C6  UNL d   1       2.479  -2.538   0.160  0.00  0.00    -0.057 A 
ENDROOT
BRANCH   1   7
ATOM      7  N   UNL d   1       0.823  -3.782   1.383  0.00  0.00    -0.732 N 
ATOM      8  C   UNL d   1       1.703  -4.857   1.786  0.00  0.00     0.284 C 
ATOM      9  H3  UNL d   1       0.425  -3.257   2.159  0.00  0.00     0.395 HD
ENDBRANCH   1   7
TORSDOF 1
ENDMDL
