MODEL 1
REMARK minimizedAffinity 4.48075819
REMARK minimizedRMSD -1
REMARK  1 active torsions:
REMARK  status: ('A' for Active; 'I' for Inactive)
REMARK    1  A    between atoms: N_2  and  C1_3 
ROOT
ATOM      1  C1  UNL d   1       1.908   0.187  -1.834  0.00  0.00     0.143 A 
ATOM      2  C2  UNL d   1       1.072   1.007  -1.069  0.00  0.00    -0.057 A 
ATOM      3  C3  UNL d   1       0.652   2.257  -1.539  0.00  0.00     0.033 A 
ATOM      4  C4  UNL d   1       1.085   2.723  -2.776  0.00  0.00    -0.042 A 
ATOM      5  C5  UNL d   1       1.937   1.936  -3.543  0.00  0.00     0.033 A 
ATOM      6  C6  UNL d   1       2.347   0.686  -3.071  0.00  0.00    -0.057 A 
ENDROOT
BRANCH   1   7
ATOM      7  N   UNL d   1       2.439  -1.022  -1.380  0.00  0.00    -0.732 N 
ATOM      8  C   UNL d   1       1.603  -1.984  -0.695  0.00  0.00     0.284 C 
ATOM      9  H3  UNL d   1       3.088  -1.436  -2.046  0.00  0.00     0.395 HD
ENDBRANCH   1   7
TORSDOF 1
ENDMDL
