MODEL 1
REMARK minimizedAffinity -1.31644475
REMARK minimizedRMSD -1
REMARK  1 active torsions:
REMARK  status: ('A' for Active; 'I' for Inactive)
REMARK    1  A    between atoms: N_2  and  C1_3 
ROOT
ATOM      1  C1  UNL d   1      -3.735   0.908   4.952  0.00  0.00     0.143 A 
ATOM      2  C2  UNL d   1      -2.432   0.532   4.612  0.00  0.00    -0.057 A 
ATOM      3  C3  UNL d   1      -2.188  -0.438   3.632  0.00  0.00     0.033 A 
ATOM      4  C4  UNL d   1      -3.249  -1.073   2.994  0.00  0.00    -0.042 A 
ATOM      5  C5  UNL d   1      -4.553  -0.733   3.334  0.00  0.00     0.033 A 
ATOM      6  C6  UNL d   1      -4.790   0.241   4.309  0.00  0.00    -0.057 A 
ENDROOT
BRANCH   1   7
ATOM      7  N   UNL d   1      -4.044   1.794   5.987  0.00  0.00    -0.732 N 
ATOM      8  C   UNL d   1      -3.567   3.160   5.955  0.00  0.00     0.284 C 
ATOM      9  H3  UNL d   1      -5.005   1.697   6.308  0.00  0.00     0.395 HD
ENDBRANCH   1   7
TORSDOF 1
ENDMDL
