MODEL 1
REMARK minimizedAffinity 3.20119858
REMARK minimizedRMSD -1
REMARK  1 active torsions:
REMARK  status: ('A' for Active; 'I' for Inactive)
REMARK    1  A    between atoms: N_2  and  C1_3 
ROOT
ATOM      1  C1  UNL d   1       1.100  -1.346  -2.616  0.00  0.00     0.143 A 
ATOM      2  C2  UNL d   1       1.587  -0.710  -3.762  0.00  0.00    -0.057 A 
ATOM      3  C3  UNL d   1       1.519   0.682  -3.905  0.00  0.00     0.033 A 
ATOM      4  C4  UNL d   1       0.934   1.461  -2.912  0.00  0.00    -0.042 A 
ATOM      5  C5  UNL d   1       0.421   0.847  -1.775  0.00  0.00     0.033 A 
ATOM      6  C6  UNL d   1       0.498  -0.542  -1.636  0.00  0.00    -0.057 A 
ENDROOT
BRANCH   1   7
ATOM      7  N   UNL d   1       1.049  -2.733  -2.459  0.00  0.00    -0.732 N 
ATOM      8  C   UNL d   1       0.744  -3.592  -3.583  0.00  0.00     0.284 C 
ATOM      9  H3  UNL d   1       1.792  -3.084  -1.857  0.00  0.00     0.395 HD
ENDBRANCH   1   7
TORSDOF 1
ENDMDL
