MODEL 1
REMARK minimizedAffinity 2.92411876
REMARK minimizedRMSD -1
REMARK  1 active torsions:
REMARK  status: ('A' for Active; 'I' for Inactive)
REMARK    1  A    between atoms: N_2  and  C1_3 
ROOT
ATOM      1  C1  UNL d   1       1.261   1.976   0.306  0.00  0.00     0.143 A 
ATOM      2  C2  UNL d   1      -0.099   2.029  -0.015  0.00  0.00    -0.057 A 
ATOM      3  C3  UNL d   1      -0.569   1.601  -1.262  0.00  0.00     0.033 A 
ATOM      4  C4  UNL d   1       0.321   1.136  -2.225  0.00  0.00    -0.042 A 
ATOM      5  C5  UNL d   1       1.680   1.098  -1.937  0.00  0.00     0.033 A 
ATOM      6  C6  UNL d   1       2.143   1.521  -0.687  0.00  0.00    -0.057 A 
ENDROOT
BRANCH   1   7
ATOM      7  N   UNL d   1       1.802   2.479   1.492  0.00  0.00    -0.732 N 
ATOM      8  C   UNL d   1       2.948   1.846   2.107  0.00  0.00     0.284 C 
ATOM      9  H3  UNL d   1       1.832   3.496   1.504  0.00  0.00     0.395 HD
ENDBRANCH   1   7
TORSDOF 1
ENDMDL
