MODEL 1
REMARK minimizedAffinity 4.7049551
REMARK minimizedRMSD -1
REMARK  1 active torsions:
REMARK  status: ('A' for Active; 'I' for Inactive)
REMARK    1  A    between atoms: N_2  and  C1_3 
ROOT
ATOM      1  C1  UNL d   1       0.176   1.125  -1.717  0.00  0.00     0.143 A 
ATOM      2  C2  UNL d   1       1.394   1.688  -2.114  0.00  0.00    -0.057 A 
ATOM      3  C3  UNL d   1       2.473   0.885  -2.503  0.00  0.00     0.033 A 
ATOM      4  C4  UNL d   1       2.362  -0.501  -2.473  0.00  0.00    -0.042 A 
ATOM      5  C5  UNL d   1       1.170  -1.083  -2.058  0.00  0.00     0.033 A 
ATOM      6  C6  UNL d   1       0.094  -0.276  -1.677  0.00  0.00    -0.057 A 
ENDROOT
BRANCH   1   7
ATOM      7  N   UNL d   1      -0.900   1.867  -1.225  0.00  0.00    -0.732 N 
ATOM      8  C   UNL d   1      -0.953   2.255   0.168  0.00  0.00     0.284 C 
ATOM      9  H3  UNL d   1      -1.198   2.595  -1.871  0.00  0.00     0.395 HD
ENDBRANCH   1   7
TORSDOF 1
ENDMDL
