MODEL 1
REMARK minimizedAffinity 5.51639366
REMARK minimizedRMSD -1
REMARK  1 active torsions:
REMARK  status: ('A' for Active; 'I' for Inactive)
REMARK    1  A    between atoms: N_2  and  C1_3 
ROOT
ATOM      1  C1  UNL d   1       1.636   0.758  -2.013  0.00  0.00     0.143 A 
ATOM      2  C2  UNL d   1       0.296   0.475  -1.727  0.00  0.00    -0.057 A 
ATOM      3  C3  UNL d   1      -0.092  -0.774  -1.227  0.00  0.00     0.033 A 
ATOM      4  C4  UNL d   1       0.854  -1.776  -1.032  0.00  0.00    -0.042 A 
ATOM      5  C5  UNL d   1       2.188  -1.526  -1.334  0.00  0.00     0.033 A 
ATOM      6  C6  UNL d   1       2.569  -0.274  -1.826  0.00  0.00    -0.057 A 
ENDROOT
BRANCH   1   7
ATOM      7  N   UNL d   1       2.071   1.947  -2.604  0.00  0.00    -0.732 N 
ATOM      8  C   UNL d   1       1.139   2.808  -3.301  0.00  0.00     0.284 C 
ATOM      9  H3  UNL d   1       2.745   2.444  -2.026  0.00  0.00     0.395 HD
ENDBRANCH   1   7
TORSDOF 1
ENDMDL
