MODEL 1
REMARK minimizedAffinity 1.80849016
REMARK minimizedRMSD -1
REMARK  1 active torsions:
REMARK  status: ('A' for Active; 'I' for Inactive)
REMARK    1  A    between atoms: N_2  and  C1_3 
ROOT
ATOM      1  C1  UNL d   1       0.352   1.712  -0.751  0.00  0.00     0.143 A 
ATOM      2  C2  UNL d   1       0.144   2.733  -1.684  0.00  0.00    -0.057 A 
ATOM      3  C3  UNL d   1       0.745   2.694  -2.948  0.00  0.00     0.033 A 
ATOM      4  C4  UNL d   1       1.591   1.644  -3.291  0.00  0.00    -0.042 A 
ATOM      5  C5  UNL d   1       1.832   0.631  -2.370  0.00  0.00     0.033 A 
ATOM      6  C6  UNL d   1       1.223   0.672  -1.112  0.00  0.00    -0.057 A 
ENDROOT
BRANCH   1   7
ATOM      7  N   UNL d   1      -0.138   1.742   0.557  0.00  0.00    -0.732 N 
ATOM      8  C   UNL d   1       0.651   2.313   1.627  0.00  0.00     0.284 C 
ATOM      9  H3  UNL d   1      -1.126   1.981   0.596  0.00  0.00     0.395 HD
ENDBRANCH   1   7
TORSDOF 1
ENDMDL
