MODEL 1
REMARK minimizedAffinity 1.357108
REMARK minimizedRMSD -1
REMARK  1 active torsions:
REMARK  status: ('A' for Active; 'I' for Inactive)
REMARK    1  A    between atoms: N_2  and  C1_3 
ROOT
ATOM      1  C1  UNL d   1       2.290  -0.320  -1.891  0.00  0.00     0.143 A 
ATOM      2  C2  UNL d   1       1.231   0.446  -1.391  0.00  0.00    -0.057 A 
ATOM      3  C3  UNL d   1       1.024   1.764  -1.816  0.00  0.00     0.033 A 
ATOM      4  C4  UNL d   1       1.893   2.351  -2.730  0.00  0.00    -0.042 A 
ATOM      5  C5  UNL d   1       2.967   1.617  -3.222  0.00  0.00     0.033 A 
ATOM      6  C6  UNL d   1       3.164   0.299  -2.798  0.00  0.00    -0.057 A 
ENDROOT
BRANCH   1   7
ATOM      7  N   UNL d   1       2.607  -1.601  -1.434  0.00  0.00    -0.732 N 
ATOM      8  C   UNL d   1       1.569  -2.494  -0.964  0.00  0.00     0.284 C 
ATOM      9  H3  UNL d   1       3.316  -2.054  -2.007  0.00  0.00     0.395 HD
ENDBRANCH   1   7
TORSDOF 1
ENDMDL
