MODEL 1
REMARK minimizedAffinity 7.0973568
REMARK minimizedRMSD -1
REMARK  0 active torsions:
REMARK  status: ('A' for Active; 'I' for Inactive)
ROOT
ATOM      1  C   UNL d   1       1.940  -2.440   1.171  0.00  0.00     0.020 A 
ATOM      2  C1  UNL d   1       0.689  -2.916   0.780  0.00  0.00     0.020 A 
ATOM      3  C2  UNL d   1       0.068  -2.395  -0.357  0.00  0.00     0.034 A 
ATOM      4  C3  UNL d   1       0.697  -1.394  -1.107  0.00  0.00     0.017 A 
ATOM      5  C4  UNL d   1       1.953  -0.917  -0.713  0.00  0.00     0.017 A 
ATOM      6  C5  UNL d   1       2.570  -1.443   0.426  0.00  0.00     0.034 A 
ATOM      7 Cl   UNL d   1       2.791   0.316  -1.588  0.00  0.00    -0.070 Cl
ATOM      8 Cl1  UNL d   1      -0.129  -0.796  -2.501  0.00  0.00    -0.070 Cl
ENDROOT
TORSDOF 0
ENDMDL
