MODEL 1
REMARK minimizedAffinity 1.13333869
REMARK minimizedRMSD -1
REMARK  0 active torsions:
REMARK  status: ('A' for Active; 'I' for Inactive)
ROOT
ATOM      1  C   UNL d   1       0.195  -0.731  -0.816  0.00  0.00     0.020 A 
ATOM      2  C1  UNL d   1       1.575  -0.930  -0.820  0.00  0.00     0.020 A 
ATOM      3  C2  UNL d   1       2.118  -2.072  -0.227  0.00  0.00     0.034 A 
ATOM      4  C3  UNL d   1       1.280  -3.019   0.373  0.00  0.00     0.017 A 
ATOM      5  C4  UNL d   1      -0.105  -2.819   0.377  0.00  0.00     0.017 A 
ATOM      6  C5  UNL d   1      -0.643  -1.674  -0.219  0.00  0.00     0.034 A 
ATOM      7 Cl   UNL d   1      -1.202  -3.943   1.098  0.00  0.00    -0.070 Cl
ATOM      8 Cl1  UNL d   1       2.020  -4.408   1.087  0.00  0.00    -0.070 Cl
ENDROOT
TORSDOF 0
ENDMDL
