MODEL 1
REMARK minimizedAffinity -1.18339145
REMARK minimizedRMSD -1
REMARK  0 active torsions:
REMARK  status: ('A' for Active; 'I' for Inactive)
ROOT
ATOM      1  C   UNL d   1       2.169  -1.367  -0.409  0.00  0.00     0.020 A 
ATOM      2  C1  UNL d   1       1.464  -0.617  -1.349  0.00  0.00     0.020 A 
ATOM      3  C2  UNL d   1       0.112  -0.878  -1.578  0.00  0.00     0.034 A 
ATOM      4  C3  UNL d   1      -0.540  -1.892  -0.866  0.00  0.00     0.017 A 
ATOM      5  C4  UNL d   1       0.168  -2.644   0.078  0.00  0.00     0.017 A 
ATOM      6  C5  UNL d   1       1.523  -2.378   0.303  0.00  0.00     0.034 A 
ATOM      7 Cl   UNL d   1      -0.567  -3.910   0.995  0.00  0.00    -0.070 Cl
ATOM      8 Cl1  UNL d   1      -2.214  -2.160  -1.201  0.00  0.00    -0.070 Cl
ENDROOT
TORSDOF 0
ENDMDL
