MODEL 1
REMARK minimizedAffinity 0.126218155
REMARK minimizedRMSD -1
REMARK  0 active torsions:
REMARK  status: ('A' for Active; 'I' for Inactive)
ROOT
ATOM      1  C   UNL d   1       2.394  -1.362   0.565  0.00  0.00     0.020 A 
ATOM      2  C1  UNL d   1       1.960  -0.445  -0.391  0.00  0.00     0.020 A 
ATOM      3  C2  UNL d   1       0.705  -0.597  -0.985  0.00  0.00     0.034 A 
ATOM      4  C3  UNL d   1      -0.119  -1.669  -0.624  0.00  0.00     0.017 A 
ATOM      5  C4  UNL d   1       0.318  -2.589   0.335  0.00  0.00     0.017 A 
ATOM      6  C5  UNL d   1       1.575  -2.432   0.927  0.00  0.00     0.034 A 
ATOM      7 Cl   UNL d   1      -0.642  -3.938   0.832  0.00  0.00    -0.070 Cl
ATOM      8 Cl1  UNL d   1      -1.658  -1.796  -1.399  0.00  0.00    -0.070 Cl
ENDROOT
TORSDOF 0
ENDMDL
