MODEL 1
REMARK minimizedAffinity -0.294302016
REMARK minimizedRMSD -1
REMARK  0 active torsions:
REMARK  status: ('A' for Active; 'I' for Inactive)
ROOT
ATOM      1  C   UNL d   1       0.853  -0.337  -1.008  0.00  0.00     0.020 A 
ATOM      2  C1  UNL d   1       1.602  -0.685   0.115  0.00  0.00     0.020 A 
ATOM      3  C2  UNL d   1       1.284  -1.838   0.837  0.00  0.00     0.034 A 
ATOM      4  C3  UNL d   1       0.214  -2.646   0.436  0.00  0.00     0.017 A 
ATOM      5  C4  UNL d   1      -0.538  -2.296  -0.691  0.00  0.00     0.017 A 
ATOM      6  C5  UNL d   1      -0.215  -1.141  -1.410  0.00  0.00     0.034 A 
ATOM      7 Cl   UNL d   1      -1.872  -3.243  -1.246  0.00  0.00    -0.070 Cl
ATOM      8 Cl1  UNL d   1      -0.122  -4.057   1.376  0.00  0.00    -0.070 Cl
ENDROOT
TORSDOF 0
ENDMDL
