MODEL 1
REMARK minimizedAffinity 8.35264111
REMARK minimizedRMSD -1
REMARK  0 active torsions:
REMARK  status: ('A' for Active; 'I' for Inactive)
ROOT
ATOM      1  C   UNL d   1      -5.095  -0.387   2.591  0.00  0.00     0.020 A 
ATOM      2  C1  UNL d   1      -4.219  -1.472   2.629  0.00  0.00     0.020 A 
ATOM      3  C2  UNL d   1      -2.974  -1.343   3.248  0.00  0.00     0.034 A 
ATOM      4  C3  UNL d   1      -2.601  -0.126   3.831  0.00  0.00     0.017 A 
ATOM      5  C4  UNL d   1      -3.480   0.962   3.792  0.00  0.00     0.017 A 
ATOM      6  C5  UNL d   1      -4.726   0.827   3.171  0.00  0.00     0.034 A 
ATOM      7 Cl   UNL d   1      -3.090   2.494   4.490  0.00  0.00    -0.070 Cl
ATOM      8 Cl1  UNL d   1      -1.046  -0.038   4.580  0.00  0.00    -0.070 Cl
ENDROOT
TORSDOF 0
ENDMDL
