MODEL 1
REMARK minimizedAffinity -1.41958833
REMARK minimizedRMSD -1
REMARK  0 active torsions:
REMARK  status: ('A' for Active; 'I' for Inactive)
ROOT
ATOM      1  C   UNL d   1       0.342  -0.766  -0.864  0.00  0.00     0.020 A 
ATOM      2  C1  UNL d   1       1.686  -1.089  -0.681  0.00  0.00     0.020 A 
ATOM      3  C2  UNL d   1       2.038  -2.274  -0.031  0.00  0.00     0.034 A 
ATOM      4  C3  UNL d   1       1.044  -3.141   0.439  0.00  0.00     0.017 A 
ATOM      5  C4  UNL d   1      -0.305  -2.816   0.255  0.00  0.00     0.017 A 
ATOM      6  C5  UNL d   1      -0.651  -1.628  -0.397  0.00  0.00     0.034 A 
ATOM      7 Cl   UNL d   1      -1.588  -3.835   0.807  0.00  0.00    -0.070 Cl
ATOM      8 Cl1  UNL d   1       1.550  -4.589   1.233  0.00  0.00    -0.070 Cl
ENDROOT
TORSDOF 0
ENDMDL
