MODEL 1
REMARK minimizedAffinity 4.8639698
REMARK minimizedRMSD -1
REMARK  0 active torsions:
REMARK  status: ('A' for Active; 'I' for Inactive)
ROOT
ATOM      1  C   UNL d   1       1.399  -1.401  -1.605  0.00  0.00     0.020 A 
ATOM      2  C1  UNL d   1       2.270  -0.496  -1.001  0.00  0.00     0.020 A 
ATOM      3  C2  UNL d   1       2.758  -0.748   0.284  0.00  0.00     0.034 A 
ATOM      4  C3  UNL d   1       2.375  -1.908   0.967  0.00  0.00     0.017 A 
ATOM      5  C4  UNL d   1       1.500  -2.816   0.359  0.00  0.00     0.017 A 
ATOM      6  C5  UNL d   1       1.015  -2.559  -0.927  0.00  0.00     0.034 A 
ATOM      7 Cl   UNL d   1       0.982  -4.268   1.140  0.00  0.00    -0.070 Cl
ATOM      8 Cl1  UNL d   1       3.016  -2.156   2.552  0.00  0.00    -0.070 Cl
ENDROOT
TORSDOF 0
ENDMDL
