MODEL 1
REMARK minimizedAffinity 5.20763922
REMARK minimizedRMSD -1
REMARK  0 active torsions:
REMARK  status: ('A' for Active; 'I' for Inactive)
ROOT
ATOM      1  C   UNL d   1       1.197  -0.284  -0.966  0.00  0.00     0.020 A 
ATOM      2  C1  UNL d   1       0.301  -1.022  -0.194  0.00  0.00     0.020 A 
ATOM      3  C2  UNL d   1      -0.608  -1.884  -0.811  0.00  0.00     0.034 A 
ATOM      4  C3  UNL d   1      -0.623  -2.010  -2.205  0.00  0.00     0.017 A 
ATOM      5  C4  UNL d   1       0.277  -1.269  -2.980  0.00  0.00     0.017 A 
ATOM      6  C5  UNL d   1       1.185  -0.408  -2.356  0.00  0.00     0.034 A 
ATOM      7 Cl   UNL d   1       0.319  -1.372  -4.704  0.00  0.00    -0.070 Cl
ATOM      8 Cl1  UNL d   1      -1.773  -3.095  -2.902  0.00  0.00    -0.070 Cl
ENDROOT
TORSDOF 0
ENDMDL
