MODEL 1
REMARK minimizedAffinity 4.50778532
REMARK minimizedRMSD -1
REMARK  0 active torsions:
REMARK  status: ('A' for Active; 'I' for Inactive)
ROOT
ATOM      1  C   UNL d   1       0.341  -1.698   0.878  0.00  0.00     0.020 A 
ATOM      2  C1  UNL d   1       1.388  -1.071   1.552  0.00  0.00     0.020 A 
ATOM      3  C2  UNL d   1       2.531  -0.676   0.853  0.00  0.00     0.034 A 
ATOM      4  C3  UNL d   1       2.630  -0.908  -0.524  0.00  0.00     0.017 A 
ATOM      5  C4  UNL d   1       1.578  -1.538  -1.199  0.00  0.00     0.017 A 
ATOM      6  C5  UNL d   1       0.436  -1.931  -0.495  0.00  0.00     0.034 A 
ATOM      7 Cl   UNL d   1       1.626  -1.858  -2.897  0.00  0.00    -0.070 Cl
ATOM      8 Cl1  UNL d   1       4.072  -0.394  -1.324  0.00  0.00    -0.070 Cl
ENDROOT
TORSDOF 0
ENDMDL
