MODEL 1
REMARK minimizedAffinity 3.0619092
REMARK minimizedRMSD -1
REMARK  0 active torsions:
REMARK  status: ('A' for Active; 'I' for Inactive)
ROOT
ATOM      1  C   UNL d   1       1.278  -0.109  -0.974  0.00  0.00     0.020 A 
ATOM      2  C1  UNL d   1      -0.110  -0.165  -1.098  0.00  0.00     0.020 A 
ATOM      3  C2  UNL d   1      -0.809  -1.275  -0.620  0.00  0.00     0.034 A 
ATOM      4  C3  UNL d   1      -0.120  -2.334  -0.016  0.00  0.00     0.017 A 
ATOM      5  C4  UNL d   1       1.272  -2.276   0.108  0.00  0.00     0.017 A 
ATOM      6  C5  UNL d   1       1.967  -1.162  -0.372  0.00  0.00     0.034 A 
ATOM      7 Cl   UNL d   1       2.191  -3.544   0.841  0.00  0.00    -0.070 Cl
ATOM      8 Cl1  UNL d   1      -1.049  -3.676   0.552  0.00  0.00    -0.070 Cl
ENDROOT
TORSDOF 0
ENDMDL
