MODEL 1
REMARK minimizedAffinity 1.92764997
REMARK minimizedRMSD -1
REMARK  0 active torsions:
REMARK  status: ('A' for Active; 'I' for Inactive)
ROOT
ATOM      1  C   UNL d   1      -0.050  -1.430  -0.368  0.00  0.00     0.020 A 
ATOM      2  C1  UNL d   1      -0.883  -2.544  -0.471  0.00  0.00     0.020 A 
ATOM      3  C2  UNL d   1      -0.503  -3.755   0.112  0.00  0.00     0.034 A 
ATOM      4  C3  UNL d   1       0.712  -3.855   0.800  0.00  0.00     0.017 A 
ATOM      5  C4  UNL d   1       1.547  -2.736   0.902  0.00  0.00     0.017 A 
ATOM      6  C5  UNL d   1       1.162  -1.526   0.316  0.00  0.00     0.034 A 
ATOM      7 Cl   UNL d   1       3.061  -2.782   1.734  0.00  0.00    -0.070 Cl
ATOM      8 Cl1  UNL d   1       1.118  -5.383   1.496  0.00  0.00    -0.070 Cl
ENDROOT
TORSDOF 0
ENDMDL
