MODEL 1
REMARK minimizedAffinity 1.37203431
REMARK minimizedRMSD -1
REMARK  0 active torsions:
REMARK  status: ('A' for Active; 'I' for Inactive)
ROOT
ATOM      1  C   UNL d   1       0.855   1.458  -2.507  0.00  0.00     0.020 A 
ATOM      2  C1  UNL d   1       1.044   0.835  -3.740  0.00  0.00     0.020 A 
ATOM      3  C2  UNL d   1       1.040  -0.559  -3.826  0.00  0.00     0.034 A 
ATOM      4  C3  UNL d   1       0.848  -1.334  -2.676  0.00  0.00     0.017 A 
ATOM      5  C4  UNL d   1       0.658  -0.708  -1.439  0.00  0.00     0.017 A 
ATOM      6  C5  UNL d   1       0.663   0.688  -1.359  0.00  0.00     0.034 A 
ATOM      7 Cl   UNL d   1       0.415  -1.597   0.022  0.00  0.00    -0.070 Cl
ATOM      8 Cl1  UNL d   1       0.855  -3.052  -2.856  0.00  0.00    -0.070 Cl
ENDROOT
TORSDOF 0
ENDMDL
