MODEL 1
REMARK minimizedAffinity 2.689183
REMARK minimizedRMSD -1
REMARK  0 active torsions:
REMARK  status: ('A' for Active; 'I' for Inactive)
ROOT
ATOM      1  C   UNL d   1       1.607  -1.064  -2.108  0.00  0.00     0.020 A 
ATOM      2  C1  UNL d   1       0.951  -0.617  -0.962  0.00  0.00     0.020 A 
ATOM      3  C2  UNL d   1       0.436   0.680  -0.913  0.00  0.00     0.034 A 
ATOM      4  C3  UNL d   1       0.577   1.535  -2.012  0.00  0.00     0.017 A 
ATOM      5  C4  UNL d   1       1.236   1.086  -3.162  0.00  0.00     0.017 A 
ATOM      6  C5  UNL d   1       1.749  -0.214  -3.205  0.00  0.00     0.034 A 
ATOM      7 Cl   UNL d   1       1.449   2.083  -4.558  0.00  0.00    -0.070 Cl
ATOM      8 Cl1  UNL d   1      -0.084   3.127  -1.882  0.00  0.00    -0.070 Cl
ENDROOT
TORSDOF 0
ENDMDL
