MODEL 1
REMARK minimizedAffinity -0.196408093
REMARK minimizedRMSD -1
REMARK  0 active torsions:
REMARK  status: ('A' for Active; 'I' for Inactive)
ROOT
ATOM      1  C   UNL d   1       1.473  -2.419  -3.385  0.00  0.00     0.020 A 
ATOM      2  C1  UNL d   1       1.390  -1.263  -4.160  0.00  0.00     0.020 A 
ATOM      3  C2  UNL d   1       1.026  -0.051  -3.571  0.00  0.00     0.034 A 
ATOM      4  C3  UNL d   1       0.743   0.008  -2.201  0.00  0.00     0.017 A 
ATOM      5  C4  UNL d   1       0.827  -1.152  -1.423  0.00  0.00     0.017 A 
ATOM      6  C5  UNL d   1       1.192  -2.363  -2.019  0.00  0.00     0.034 A 
ATOM      7 Cl   UNL d   1       0.493  -1.158   0.273  0.00  0.00    -0.070 Cl
ATOM      8 Cl1  UNL d   1       0.299   1.541  -1.538  0.00  0.00    -0.070 Cl
ENDROOT
TORSDOF 0
ENDMDL
