MODEL 1
REMARK minimizedAffinity 1.27787757
REMARK minimizedRMSD -1
REMARK  0 active torsions:
REMARK  status: ('A' for Active; 'I' for Inactive)
ROOT
ATOM      1  C   UNL d   1      -3.684   2.157   4.958  0.00  0.00     0.020 A 
ATOM      2  C1  UNL d   1      -4.841   2.157   5.736  0.00  0.00     0.020 A 
ATOM      3  C2  UNL d   1      -5.515   3.354   5.985  0.00  0.00     0.034 A 
ATOM      4  C3  UNL d   1      -5.032   4.557   5.455  0.00  0.00     0.017 A 
ATOM      5  C4  UNL d   1      -3.871   4.556   4.675  0.00  0.00     0.017 A 
ATOM      6  C5  UNL d   1      -3.200   3.354   4.429  0.00  0.00     0.034 A 
ATOM      7 Cl   UNL d   1      -3.214   5.999   3.987  0.00  0.00    -0.070 Cl
ATOM      8 Cl1  UNL d   1      -5.916   6.000   5.803  0.00  0.00    -0.070 Cl
ENDROOT
TORSDOF 0
ENDMDL
