MODEL 1
REMARK minimizedAffinity 1.5891763
REMARK minimizedRMSD -1
REMARK  0 active torsions:
REMARK  status: ('A' for Active; 'I' for Inactive)
ROOT
ATOM      1  C   UNL d   1       6.000   1.871  -4.878  0.00  0.00     0.020 A 
ATOM      2  C1  UNL d   1       5.036   1.535  -5.827  0.00  0.00     0.020 A 
ATOM      3  C2  UNL d   1       3.896   2.329  -5.976  0.00  0.00     0.034 A 
ATOM      4  C3  UNL d   1       3.718   3.462  -5.173  0.00  0.00     0.017 A 
ATOM      5  C4  UNL d   1       4.686   3.798  -4.221  0.00  0.00     0.017 A 
ATOM      6  C5  UNL d   1       5.826   3.000  -4.076  0.00  0.00     0.034 A 
ATOM      7 Cl   UNL d   1       4.536   5.181  -3.194  0.00  0.00    -0.070 Cl
ATOM      8 Cl1  UNL d   1       2.285   4.397  -5.412  0.00  0.00    -0.070 Cl
ENDROOT
TORSDOF 0
ENDMDL
