MODEL 1
REMARK minimizedAffinity 1.59922397
REMARK minimizedRMSD -1
REMARK  0 active torsions:
REMARK  status: ('A' for Active; 'I' for Inactive)
ROOT
ATOM      1  C   UNL d   1      -4.921   5.999   5.025  0.00  0.00     0.020 A 
ATOM      2  C1  UNL d   1      -5.275   5.067   6.000  0.00  0.00     0.020 A 
ATOM      3  C2  UNL d   1      -4.931   3.723   5.839  0.00  0.00     0.034 A 
ATOM      4  C3  UNL d   1      -4.231   3.308   4.700  0.00  0.00     0.017 A 
ATOM      5  C4  UNL d   1      -3.876   4.244   3.722  0.00  0.00     0.017 A 
ATOM      6  C5  UNL d   1      -4.223   5.588   3.889  0.00  0.00     0.034 A 
ATOM      7 Cl   UNL d   1      -3.012   3.807   2.291  0.00  0.00    -0.070 Cl
ATOM      8 Cl1  UNL d   1      -3.837   1.631   4.566  0.00  0.00    -0.070 Cl
ENDROOT
TORSDOF 0
ENDMDL
