MODEL 1
REMARK minimizedAffinity 3.18575764
REMARK minimizedRMSD -1
REMARK  0 active torsions:
REMARK  status: ('A' for Active; 'I' for Inactive)
ROOT
ATOM      1  C   UNL d   1       4.193   1.654   2.393  0.00  0.00     0.020 A 
ATOM      2  C1  UNL d   1       5.444   2.031   2.878  0.00  0.00     0.020 A 
ATOM      3  C2  UNL d   1       5.984   1.386   3.993  0.00  0.00     0.034 A 
ATOM      4  C3  UNL d   1       5.272   0.360   4.626  0.00  0.00     0.017 A 
ATOM      5  C4  UNL d   1       4.016  -0.017   4.137  0.00  0.00     0.017 A 
ATOM      6  C5  UNL d   1       3.480   0.632   3.021  0.00  0.00     0.034 A 
ATOM      7 Cl   UNL d   1       3.078  -1.274   4.865  0.00  0.00    -0.070 Cl
ATOM      8 Cl1  UNL d   1       6.000  -0.394   5.999  0.00  0.00    -0.070 Cl
ENDROOT
TORSDOF 0
ENDMDL
