MODEL 1
REMARK minimizedAffinity 5.37710142
REMARK minimizedRMSD -1
REMARK  0 active torsions:
REMARK  status: ('A' for Active; 'I' for Inactive)
ROOT
ATOM      1  C   UNL d   1       0.688   1.239  -1.619  0.00  0.00     0.020 A 
ATOM      2  C1  UNL d   1       0.116   0.111  -1.032  0.00  0.00     0.020 A 
ATOM      3  C2  UNL d   1       0.313  -1.148  -1.602  0.00  0.00     0.034 A 
ATOM      4  C3  UNL d   1       1.082  -1.283  -2.763  0.00  0.00     0.017 A 
ATOM      5  C4  UNL d   1       1.655  -0.151  -3.352  0.00  0.00     0.017 A 
ATOM      6  C5  UNL d   1       1.456   1.108  -2.777  0.00  0.00     0.034 A 
ATOM      7 Cl   UNL d   1       2.618  -0.238  -4.785  0.00  0.00    -0.070 Cl
ATOM      8 Cl1  UNL d   1       1.284  -2.871  -3.413  0.00  0.00    -0.070 Cl
ENDROOT
TORSDOF 0
ENDMDL
