MODEL 1
REMARK minimizedAffinity -4.93390322
REMARK minimizedRMSD -1
REMARK  1 active torsions:
REMARK  status: ('A' for Active; 'I' for Inactive)
REMARK    1  A    between atoms: N_2  and  C1_3 
ROOT
ATOM      1  C1  UNL d   1       0.244  -0.507   0.409  0.00  0.00     0.143 A 
ATOM      2  C2  UNL d   1       1.575  -0.760   0.062  0.00  0.00    -0.057 A 
ATOM      3  C3  UNL d   1       2.312  -1.769   0.695  0.00  0.00     0.033 A 
ATOM      4  C4  UNL d   1       1.736  -2.525   1.711  0.00  0.00    -0.042 A 
ATOM      5  C5  UNL d   1       0.422  -2.275   2.089  0.00  0.00     0.033 A 
ATOM      6  C6  UNL d   1      -0.310  -1.271   1.448  0.00  0.00    -0.057 A 
ENDROOT
BRANCH   1   7
ATOM      7  N   UNL d   1      -0.510   0.546  -0.115  0.00  0.00    -0.732 N 
ATOM      8  C   UNL d   1      -0.495   1.848   0.516  0.00  0.00     0.284 C 
ATOM      9  H3  UNL d   1      -0.480   0.576  -1.132  0.00  0.00     0.395 HD
ENDBRANCH   1   7
TORSDOF 1
ENDMDL
