MODEL 1
REMARK minimizedAffinity -5.07280874
REMARK minimizedRMSD -1
REMARK  1 active torsions:
REMARK  status: ('A' for Active; 'I' for Inactive)
REMARK    1  A    between atoms: N_2  and  C1_3 
ROOT
ATOM      1  C1  UNL d   1      -0.351  -0.893   0.837  0.00  0.00     0.143 A 
ATOM      2  C2  UNL d   1       0.834  -1.281   0.204  0.00  0.00    -0.057 A 
ATOM      3  C3  UNL d   1       1.652  -2.281   0.745  0.00  0.00     0.033 A 
ATOM      4  C4  UNL d   1       1.312  -2.891   1.947  0.00  0.00    -0.042 A 
ATOM      5  C5  UNL d   1       0.150  -2.504   2.606  0.00  0.00     0.033 A 
ATOM      6  C6  UNL d   1      -0.665  -1.509   2.058  0.00  0.00    -0.057 A 
ENDROOT
BRANCH   1   7
ATOM      7  N   UNL d   1      -1.156   0.163   0.401  0.00  0.00    -0.732 N 
ATOM      8  C   UNL d   1      -0.738   1.001  -0.703  0.00  0.00     0.284 C 
ATOM      9  H3  UNL d   1      -2.143  -0.081   0.387  0.00  0.00     0.395 HD
ENDBRANCH   1   7
TORSDOF 1
ENDMDL
