MODEL 1
REMARK minimizedAffinity -3.49976897
REMARK minimizedRMSD -1
REMARK  1 active torsions:
REMARK  status: ('A' for Active; 'I' for Inactive)
REMARK    1  A    between atoms: N_2  and  C1_3 
ROOT
ATOM      1  C1  UNL d   1       0.351  -0.388   0.225  0.00  0.00     0.143 A 
ATOM      2  C2  UNL d   1       1.535  -1.132   0.266  0.00  0.00    -0.057 A 
ATOM      3  C3  UNL d   1       1.662  -2.249   1.100  0.00  0.00     0.033 A 
ATOM      4  C4  UNL d   1       0.613  -2.626   1.933  0.00  0.00    -0.042 A 
ATOM      5  C5  UNL d   1      -0.564  -1.886   1.927  0.00  0.00     0.033 A 
ATOM      6  C6  UNL d   1      -0.687  -0.775   1.087  0.00  0.00    -0.057 A 
ENDROOT
BRANCH   1   7
ATOM      7  N   UNL d   1       0.198   0.790  -0.510  0.00  0.00    -0.732 N 
ATOM      8  C   UNL d   1      -1.062   1.501  -0.509  0.00  0.00     0.284 C 
ATOM      9  H3  UNL d   1       1.016   1.393  -0.453  0.00  0.00     0.395 HD
ENDBRANCH   1   7
TORSDOF 1
ENDMDL
