MODEL 1
REMARK minimizedAffinity -5.04376459
REMARK minimizedRMSD -1
REMARK  1 active torsions:
REMARK  status: ('A' for Active; 'I' for Inactive)
REMARK    1  A    between atoms: N_2  and  C1_3 
ROOT
ATOM      1  C1  UNL d   1      -0.244  -0.277   0.080  0.00  0.00     0.143 A 
ATOM      2  C2  UNL d   1      -0.714  -0.805   1.287  0.00  0.00    -0.057 A 
ATOM      3  C3  UNL d   1      -0.044  -1.850   1.933  0.00  0.00     0.033 A 
ATOM      4  C4  UNL d   1       1.097  -2.408   1.366  0.00  0.00    -0.042 A 
ATOM      5  C5  UNL d   1       1.569  -1.916   0.154  0.00  0.00     0.033 A 
ATOM      6  C6  UNL d   1       0.899  -0.867  -0.483  0.00  0.00    -0.057 A 
ENDROOT
BRANCH   1   7
ATOM      7  N   UNL d   1      -0.921   0.696  -0.660  0.00  0.00    -0.732 N 
ATOM      8  C   UNL d   1      -1.337   0.430  -2.020  0.00  0.00     0.284 C 
ATOM      9  H3  UNL d   1      -1.610   1.197  -0.104  0.00  0.00     0.395 HD
ENDBRANCH   1   7
TORSDOF 1
ENDMDL
