MODEL 1
REMARK minimizedAffinity -3.17281842
REMARK minimizedRMSD -1
REMARK  1 active torsions:
REMARK  status: ('A' for Active; 'I' for Inactive)
REMARK    1  A    between atoms: N_2  and  C1_3 
ROOT
ATOM      1  C1  UNL d   1       0.411  -1.663   0.606  0.00  0.00     0.143 A 
ATOM      2  C2  UNL d   1      -0.790  -1.103   1.054  0.00  0.00    -0.057 A 
ATOM      3  C3  UNL d   1      -1.113   0.233   0.788  0.00  0.00     0.033 A 
ATOM      4  C4  UNL d   1      -0.223   1.044   0.091  0.00  0.00    -0.042 A 
ATOM      5  C5  UNL d   1       0.988   0.516  -0.343  0.00  0.00     0.033 A 
ATOM      6  C6  UNL d   1       1.301  -0.821  -0.080  0.00  0.00    -0.057 A 
ENDROOT
BRANCH   1   7
ATOM      7  N   UNL d   1       0.833  -2.956   0.923  0.00  0.00    -0.732 N 
ATOM      8  C   UNL d   1       1.994  -3.169   1.760  0.00  0.00     0.284 C 
ATOM      9  H3  UNL d   1       0.055  -3.580   1.126  0.00  0.00     0.395 HD
ENDBRANCH   1   7
TORSDOF 1
ENDMDL
