MODEL 1
REMARK minimizedAffinity -5.35375643
REMARK minimizedRMSD -1
REMARK  1 active torsions:
REMARK  status: ('A' for Active; 'I' for Inactive)
REMARK    1  A    between atoms: N_2  and  C1_3 
ROOT
ATOM      1  C1  UNL d   1      -0.354  -0.438   1.072  0.00  0.00     0.143 A 
ATOM      2  C2  UNL d   1       0.699  -1.112   0.445  0.00  0.00    -0.057 A 
ATOM      3  C3  UNL d   1       1.378  -2.156   1.086  0.00  0.00     0.033 A 
ATOM      4  C4  UNL d   1       1.033  -2.524   2.383  0.00  0.00    -0.042 A 
ATOM      5  C5  UNL d   1       0.007  -1.851   3.035  0.00  0.00     0.033 A 
ATOM      6  C6  UNL d   1      -0.672  -0.814   2.387  0.00  0.00    -0.057 A 
ENDROOT
BRANCH   1   7
ATOM      7  N   UNL d   1      -1.002   0.672   0.525  0.00  0.00    -0.732 N 
ATOM      8  C   UNL d   1      -0.424   1.386  -0.594  0.00  0.00     0.284 C 
ATOM      9  H3  UNL d   1      -2.009   0.541   0.460  0.00  0.00     0.395 HD
ENDBRANCH   1   7
TORSDOF 1
ENDMDL
