MODEL 1
REMARK minimizedAffinity -5.26302576
REMARK minimizedRMSD -1
REMARK  1 active torsions:
REMARK  status: ('A' for Active; 'I' for Inactive)
REMARK    1  A    between atoms: N_2  and  C1_3 
ROOT
ATOM      1  C1  UNL d   1      -0.139  -0.017   0.017  0.00  0.00     0.143 A 
ATOM      2  C2  UNL d   1       1.229  -0.259  -0.149  0.00  0.00    -0.057 A 
ATOM      3  C3  UNL d   1       1.851  -1.356   0.457  0.00  0.00     0.033 A 
ATOM      4  C4  UNL d   1       1.120  -2.219   1.266  0.00  0.00    -0.042 A 
ATOM      5  C5  UNL d   1      -0.236  -1.984   1.466  0.00  0.00     0.033 A 
ATOM      6  C6  UNL d   1      -0.853  -0.890   0.852  0.00  0.00    -0.057 A 
ENDROOT
BRANCH   1   7
ATOM      7  N   UNL d   1      -0.796   1.112  -0.479  0.00  0.00    -0.732 N 
ATOM      8  C   UNL d   1      -1.687   1.007  -1.614  0.00  0.00     0.284 C 
ATOM      9  H3  UNL d   1      -1.136   1.720   0.262  0.00  0.00     0.395 HD
ENDBRANCH   1   7
TORSDOF 1
ENDMDL
