MODEL 1
REMARK minimizedAffinity -4.5166173
REMARK minimizedRMSD -1
REMARK  1 active torsions:
REMARK  status: ('A' for Active; 'I' for Inactive)
REMARK    1  A    between atoms: N_2  and  C1_3 
ROOT
ATOM      1  C1  UNL d   1       0.742  -0.925  -0.101  0.00  0.00     0.143 A 
ATOM      2  C2  UNL d   1       1.085  -2.274   0.045  0.00  0.00    -0.057 A 
ATOM      3  C3  UNL d   1       0.672  -3.012   1.161  0.00  0.00     0.033 A 
ATOM      4  C4  UNL d   1      -0.071  -2.404   2.167  0.00  0.00    -0.042 A 
ATOM      5  C5  UNL d   1      -0.403  -1.059   2.055  0.00  0.00     0.033 A 
ATOM      6  C6  UNL d   1       0.007  -0.329   0.936  0.00  0.00    -0.057 A 
ENDROOT
BRANCH   1   7
ATOM      7  N   UNL d   1       1.205  -0.112  -1.138  0.00  0.00    -0.732 N 
ATOM      8  C   UNL d   1       2.616   0.186  -1.267  0.00  0.00     0.284 C 
ATOM      9  H3  UNL d   1       0.739  -0.306  -2.022  0.00  0.00     0.395 HD
ENDBRANCH   1   7
TORSDOF 1
ENDMDL
