MODEL 1
REMARK minimizedAffinity -5.14198446
REMARK minimizedRMSD -1
REMARK  0 active torsions:
REMARK  status: ('A' for Active; 'I' for Inactive)
ROOT
ATOM      1  C   UNL d   1       2.997  -0.710   0.702  0.00  0.00     0.077 C 
ATOM      2  C1  UNL d   1       1.749   0.073   0.421  0.00  0.00    -0.074 A 
ATOM      3  C2  UNL d   1       1.805   1.445   0.158  0.00  0.00    -0.005 A 
ATOM      4  C3  UNL d   1       0.637   2.159  -0.111  0.00  0.00     0.006 A 
ATOM      5  C4  UNL d   1      -0.597   1.508  -0.120  0.00  0.00    -0.005 A 
ATOM      6  C5  UNL d   1      -0.673   0.135   0.139  0.00  0.00    -0.074 A 
ATOM      7  C6  UNL d   1      -1.991  -0.582   0.123  0.00  0.00     0.077 C 
ATOM      8  C7  UNL d   1       0.506  -0.576   0.402  0.00  0.00    -0.001 A 
ENDROOT
TORSDOF 0
ENDMDL
