MODEL 1
REMARK minimizedAffinity -2.62556314
REMARK minimizedRMSD -1
REMARK  0 active torsions:
REMARK  status: ('A' for Active; 'I' for Inactive)
ROOT
ATOM      1  C   UNL d   1       3.949  -0.301   0.893  0.00  0.00     0.077 C 
ATOM      2  C1  UNL d   1       2.473  -0.206   0.645  0.00  0.00    -0.074 A 
ATOM      3  C2  UNL d   1       1.695  -1.358   0.487  0.00  0.00    -0.005 A 
ATOM      4  C3  UNL d   1       0.322  -1.254   0.266  0.00  0.00     0.006 A 
ATOM      5  C4  UNL d   1      -0.286   0.000   0.201  0.00  0.00    -0.005 A 
ATOM      6  C5  UNL d   1       0.475   1.163   0.357  0.00  0.00    -0.074 A 
ATOM      7  C6  UNL d   1      -0.164   2.518   0.299  0.00  0.00     0.077 C 
ATOM      8  C7  UNL d   1       1.854   1.050   0.585  0.00  0.00    -0.001 A 
ENDROOT
TORSDOF 0
ENDMDL
