MODEL 1
REMARK minimizedAffinity -3.48299623
REMARK minimizedRMSD -1
REMARK  0 active torsions:
REMARK  status: ('A' for Active; 'I' for Inactive)
ROOT
ATOM      1  C   UNL d   1       2.789   1.854   2.787  0.00  0.00     0.077 C 
ATOM      2  C1  UNL d   1       2.357   0.925   1.691  0.00  0.00    -0.074 A 
ATOM      3  C2  UNL d   1       3.277   0.085   1.057  0.00  0.00    -0.005 A 
ATOM      4  C3  UNL d   1       2.859  -0.780   0.046  0.00  0.00     0.006 A 
ATOM      5  C4  UNL d   1       1.518  -0.814  -0.340  0.00  0.00    -0.005 A 
ATOM      6  C5  UNL d   1       0.584   0.018   0.284  0.00  0.00    -0.074 A 
ATOM      7  C6  UNL d   1      -0.863  -0.013  -0.111  0.00  0.00     0.077 C 
ATOM      8  C7  UNL d   1       1.010   0.880   1.304  0.00  0.00    -0.001 A 
ENDROOT
TORSDOF 0
ENDMDL
