MODEL 1
REMARK minimizedAffinity -3.57248116
REMARK minimizedRMSD -1
REMARK  0 active torsions:
REMARK  status: ('A' for Active; 'I' for Inactive)
ROOT
ATOM      1  C   UNL d   1       1.137  -1.908   0.743  0.00  0.00     0.077 C 
ATOM      2  C1  UNL d   1       0.691  -0.604   0.150  0.00  0.00    -0.074 A 
ATOM      3  C2  UNL d   1       1.585   0.460  -0.001  0.00  0.00    -0.005 A 
ATOM      4  C3  UNL d   1       1.158   1.663  -0.563  0.00  0.00     0.006 A 
ATOM      5  C4  UNL d   1      -0.166   1.813  -0.979  0.00  0.00    -0.005 A 
ATOM      6  C5  UNL d   1      -1.074   0.760  -0.837  0.00  0.00    -0.074 A 
ATOM      7  C6  UNL d   1      -2.497   0.901  -1.288  0.00  0.00     0.077 C 
ATOM      8  C7  UNL d   1      -0.635  -0.448  -0.277  0.00  0.00    -0.001 A 
ENDROOT
TORSDOF 0
ENDMDL
