MODEL 1
REMARK minimizedAffinity -5.23504925
REMARK minimizedRMSD -1
REMARK  0 active torsions:
REMARK  status: ('A' for Active; 'I' for Inactive)
ROOT
ATOM      1  C   UNL d   1      -1.338  -1.820   1.383  0.00  0.00     0.077 C 
ATOM      2  C1  UNL d   1      -0.210  -0.861   1.143  0.00  0.00    -0.074 A 
ATOM      3  C2  UNL d   1      -0.457   0.440   0.692  0.00  0.00    -0.005 A 
ATOM      4  C3  UNL d   1       0.602   1.324   0.483  0.00  0.00     0.006 A 
ATOM      5  C4  UNL d   1       1.915   0.917   0.722  0.00  0.00    -0.005 A 
ATOM      6  C5  UNL d   1       2.180  -0.380   1.174  0.00  0.00    -0.074 A 
ATOM      7  C6  UNL d   1       3.585  -0.831   1.444  0.00  0.00     0.077 C 
ATOM      8  C7  UNL d   1       1.111  -1.260   1.389  0.00  0.00    -0.001 A 
ENDROOT
TORSDOF 0
ENDMDL
