MODEL 1
REMARK minimizedAffinity -4.87336445
REMARK minimizedRMSD -1
REMARK  0 active torsions:
REMARK  status: ('A' for Active; 'I' for Inactive)
ROOT
ATOM      1  C   UNL d   1      -0.945   0.516  -0.461  0.00  0.00     0.077 C 
ATOM      2  C1  UNL d   1       0.358   0.046   0.116  0.00  0.00    -0.074 A 
ATOM      3  C2  UNL d   1       1.507   0.840   0.039  0.00  0.00    -0.005 A 
ATOM      4  C3  UNL d   1       2.708   0.394   0.588  0.00  0.00     0.006 A 
ATOM      5  C4  UNL d   1       2.773  -0.849   1.219  0.00  0.00    -0.005 A 
ATOM      6  C5  UNL d   1       1.635  -1.656   1.308  0.00  0.00    -0.074 A 
ATOM      7  C6  UNL d   1       1.685  -2.990   1.991  0.00  0.00     0.077 C 
ATOM      8  C7  UNL d   1       0.429  -1.197   0.759  0.00  0.00    -0.001 A 
ENDROOT
TORSDOF 0
ENDMDL
