MODEL 1
REMARK minimizedAffinity -2.98739696
REMARK minimizedRMSD -1
REMARK  0 active torsions:
REMARK  status: ('A' for Active; 'I' for Inactive)
ROOT
ATOM      1  C   UNL d   1      -0.754  -2.451   1.032  0.00  0.00     0.077 C 
ATOM      2  C1  UNL d   1       0.107  -1.275   0.675  0.00  0.00    -0.074 A 
ATOM      3  C2  UNL d   1      -0.408  -0.203  -0.060  0.00  0.00    -0.005 A 
ATOM      4  C3  UNL d   1       0.402   0.887  -0.376  0.00  0.00     0.006 A 
ATOM      5  C4  UNL d   1       1.734   0.916   0.040  0.00  0.00    -0.005 A 
ATOM      6  C5  UNL d   1       2.266  -0.146   0.777  0.00  0.00    -0.074 A 
ATOM      7  C6  UNL d   1       3.693  -0.126   1.240  0.00  0.00     0.077 C 
ATOM      8  C7  UNL d   1       1.444  -1.235   1.096  0.00  0.00    -0.001 A 
ENDROOT
TORSDOF 0
ENDMDL
