MODEL 1
REMARK minimizedAffinity -4.55711603
REMARK minimizedRMSD -1
REMARK  0 active torsions:
REMARK  status: ('A' for Active; 'I' for Inactive)
ROOT
ATOM      1  C   UNL d   1       2.381  -1.952   1.943  0.00  0.00     0.077 C 
ATOM      2  C1  UNL d   1       1.889  -0.764   1.172  0.00  0.00    -0.074 A 
ATOM      3  C2  UNL d   1       2.707   0.354   0.975  0.00  0.00    -0.005 A 
ATOM      4  C3  UNL d   1       2.239   1.448   0.248  0.00  0.00     0.006 A 
ATOM      5  C4  UNL d   1       0.952   1.436  -0.290  0.00  0.00    -0.005 A 
ATOM      6  C5  UNL d   1       0.120   0.327  -0.105  0.00  0.00    -0.074 A 
ATOM      7  C6  UNL d   1      -1.263   0.293  -0.684  0.00  0.00     0.077 C 
ATOM      8  C7  UNL d   1       0.600  -0.772   0.622  0.00  0.00    -0.001 A 
ENDROOT
TORSDOF 0
ENDMDL
