MODEL 1
REMARK minimizedAffinity -4.87923527
REMARK minimizedRMSD -1
REMARK  0 active torsions:
REMARK  status: ('A' for Active; 'I' for Inactive)
ROOT
ATOM      1  C   UNL d   1       3.558  -0.375   1.181  0.00  0.00     0.077 C 
ATOM      2  C1  UNL d   1       2.133  -0.835   1.102  0.00  0.00    -0.074 A 
ATOM      3  C2  UNL d   1       1.704  -1.967   1.802  0.00  0.00    -0.005 A 
ATOM      4  C3  UNL d   1       0.373  -2.378   1.727  0.00  0.00     0.006 A 
ATOM      5  C4  UNL d   1      -0.541  -1.662   0.953  0.00  0.00    -0.005 A 
ATOM      6  C5  UNL d   1      -0.130  -0.527   0.247  0.00  0.00    -0.074 A 
ATOM      7  C6  UNL d   1      -1.102   0.260  -0.582  0.00  0.00     0.077 C 
ATOM      8  C7  UNL d   1       1.207  -0.116   0.333  0.00  0.00    -0.001 A 
ENDROOT
TORSDOF 0
ENDMDL
