MODEL 1
REMARK minimizedAffinity -3.15935659
REMARK minimizedRMSD -1
REMARK  0 active torsions:
REMARK  status: ('A' for Active; 'I' for Inactive)
ROOT
ATOM      1  O1  BZF d   1       0.023   1.393   0.400  0.00  0.00    -0.204 OA
ATOM      2  C2  BZF d   1      -1.125   1.056   1.090  0.00  0.00     0.174 A 
ATOM      3  C3  BZF d   1      -1.411  -0.253   0.933  0.00  0.00    -0.012 A 
ATOM      4  C3A BZF d   1      -0.326  -0.786   0.168  0.00  0.00    -0.107 A 
ATOM      5  C4  BZF d   1      -0.030  -2.035  -0.297  0.00  0.00     0.055 A 
ATOM      6  C5  BZF d   1       1.070  -2.207  -1.076  0.00  0.00    -0.016 A 
ATOM      7  C6  BZF d   1       1.892  -1.152  -1.414  0.00  0.00     0.022 A 
ATOM      8  C7  BZF d   1       1.642   0.105  -0.972  0.00  0.00     0.029 A 
ATOM      9  C7A BZF d   1       0.550   0.276  -0.158  0.00  0.00     0.058 A 
ENDROOT
TORSDOF 0
ENDMDL
