MODEL 1
REMARK minimizedAffinity -2.53147435
REMARK minimizedRMSD -1
REMARK  0 active torsions:
REMARK  status: ('A' for Active; 'I' for Inactive)
ROOT
ATOM      1  O1  BZF d   1      -0.974  -0.992   0.240  0.00  0.00    -0.204 OA
ATOM      2  C2  BZF d   1      -1.641   0.187   0.511  0.00  0.00     0.174 A 
ATOM      3  C3  BZF d   1      -0.891   1.252   0.162  0.00  0.00    -0.012 A 
ATOM      4  C3A BZF d   1       0.283   0.704  -0.445  0.00  0.00    -0.107 A 
ATOM      5  C4  BZF d   1       1.396   1.260  -1.008  0.00  0.00     0.055 A 
ATOM      6  C5  BZF d   1       2.393   0.445  -1.444  0.00  0.00    -0.016 A 
ATOM      7  C6  BZF d   1       2.311  -0.927  -1.328  0.00  0.00     0.022 A 
ATOM      8  C7  BZF d   1       1.225  -1.525  -0.782  0.00  0.00     0.029 A 
ATOM      9  C7A BZF d   1       0.202  -0.706  -0.370  0.00  0.00     0.058 A 
ENDROOT
TORSDOF 0
ENDMDL
