MODEL 1
REMARK minimizedAffinity -3.89403033
REMARK minimizedRMSD -1
REMARK  0 active torsions:
REMARK  status: ('A' for Active; 'I' for Inactive)
ROOT
ATOM      1  O1  BZF d   1      -1.173  -0.895   0.103  0.00  0.00    -0.204 OA
ATOM      2  C2  BZF d   1      -1.673   0.382   0.263  0.00  0.00     0.174 A 
ATOM      3  C3  BZF d   1      -0.716   1.303   0.028  0.00  0.00    -0.012 A 
ATOM      4  C3A BZF d   1       0.431   0.557  -0.389  0.00  0.00    -0.107 A 
ATOM      5  C4  BZF d   1       1.691   0.911  -0.778  0.00  0.00     0.055 A 
ATOM      6  C5  BZF d   1       2.596  -0.065  -1.051  0.00  0.00    -0.016 A 
ATOM      7  C6  BZF d   1       2.277  -1.403  -0.942  0.00  0.00     0.022 A 
ATOM      8  C7  BZF d   1       1.038  -1.803  -0.566  0.00  0.00     0.029 A 
ATOM      9  C7A BZF d   1       0.111  -0.819  -0.321  0.00  0.00     0.058 A 
ENDROOT
TORSDOF 0
ENDMDL
