MODEL 1
REMARK minimizedAffinity -4.02651167
REMARK minimizedRMSD -1
REMARK  0 active torsions:
REMARK  status: ('A' for Active; 'I' for Inactive)
ROOT
ATOM      1  O1  BZF d   1      -1.176  -0.340   0.132  0.00  0.00    -0.204 OA
ATOM      2  C2  BZF d   1      -1.308   1.035   0.122  0.00  0.00     0.174 A 
ATOM      3  C3  BZF d   1      -0.133   1.627  -0.173  0.00  0.00    -0.012 A 
ATOM      4  C3A BZF d   1       0.770   0.552  -0.450  0.00  0.00    -0.107 A 
ATOM      5  C4  BZF d   1       2.084   0.502  -0.819  0.00  0.00     0.055 A 
ATOM      6  C5  BZF d   1       2.690  -0.709  -0.939  0.00  0.00    -0.016 A 
ATOM      7  C6  BZF d   1       2.015  -1.886  -0.694  0.00  0.00     0.022 A 
ATOM      8  C7  BZF d   1       0.710  -1.887  -0.330  0.00  0.00     0.029 A 
ATOM      9  C7A BZF d   1       0.085  -0.667  -0.240  0.00  0.00     0.058 A 
ENDROOT
TORSDOF 0
ENDMDL
