MODEL 1
REMARK minimizedAffinity -2.43592763
REMARK minimizedRMSD -1
REMARK  0 active torsions:
REMARK  status: ('A' for Active; 'I' for Inactive)
ROOT
ATOM      1  O1  BZF d   1       2.159  -1.958  -1.237  0.00  0.00    -0.204 OA
ATOM      2  C2  BZF d   1       3.171  -1.118  -1.657  0.00  0.00     0.174 A 
ATOM      3  C3  BZF d   1       2.830   0.173  -1.469  0.00  0.00    -0.012 A 
ATOM      4  C3A BZF d   1       1.561   0.135  -0.809  0.00  0.00    -0.107 A 
ATOM      5  C4  BZF d   1       0.715   1.101  -0.343  0.00  0.00     0.055 A 
ATOM      6  C5  BZF d   1      -0.481   0.732   0.186  0.00  0.00    -0.016 A 
ATOM      7  C6  BZF d   1      -0.865  -0.590   0.261  0.00  0.00     0.022 A 
ATOM      8  C7  BZF d   1      -0.057  -1.584  -0.183  0.00  0.00     0.029 A 
ATOM      9  C7A BZF d   1       1.166  -1.217  -0.689  0.00  0.00     0.058 A 
ENDROOT
TORSDOF 0
ENDMDL
