MODEL 1
REMARK minimizedAffinity -1.50103819
REMARK minimizedRMSD -1
REMARK  0 active torsions:
REMARK  status: ('A' for Active; 'I' for Inactive)
ROOT
ATOM      1  O1  BZF d   1      -0.098   1.508   0.491  0.00  0.00    -0.204 OA
ATOM      2  C2  BZF d   1      -0.300   0.468  -0.396  0.00  0.00     0.174 A 
ATOM      3  C3  BZF d   1      -1.141  -0.449   0.125  0.00  0.00    -0.012 A 
ATOM      4  C3A BZF d   1      -1.560   0.095   1.381  0.00  0.00    -0.107 A 
ATOM      5  C4  BZF d   1      -2.408  -0.343   2.357  0.00  0.00     0.055 A 
ATOM      6  C5  BZF d   1      -2.541   0.391   3.493  0.00  0.00    -0.016 A 
ATOM      7  C6  BZF d   1      -1.839   1.563   3.688  0.00  0.00     0.022 A 
ATOM      8  C7  BZF d   1      -0.990   2.040   2.745  0.00  0.00     0.029 A 
ATOM      9  C7A BZF d   1      -0.878   1.318   1.582  0.00  0.00     0.058 A 
ENDROOT
TORSDOF 0
ENDMDL
