MODEL 1
REMARK minimizedAffinity -2.75786304
REMARK minimizedRMSD -1
REMARK  0 active torsions:
REMARK  status: ('A' for Active; 'I' for Inactive)
ROOT
ATOM      1  O1  BZF d   1      -1.185   1.355  -0.019  0.00  0.00    -0.204 OA
ATOM      2  C2  BZF d   1      -1.433   0.528   1.060  0.00  0.00     0.174 A 
ATOM      3  C3  BZF d   1      -0.385  -0.291   1.286  0.00  0.00    -0.012 A 
ATOM      4  C3A BZF d   1       0.614   0.109   0.343  0.00  0.00    -0.107 A 
ATOM      5  C4  BZF d   1       1.885  -0.319   0.085  0.00  0.00     0.055 A 
ATOM      6  C5  BZF d   1       2.570   0.232  -0.952  0.00  0.00    -0.016 A 
ATOM      7  C6  BZF d   1       2.013   1.207  -1.753  0.00  0.00     0.022 A 
ATOM      8  C7  BZF d   1       0.757   1.667  -1.533  0.00  0.00     0.029 A 
ATOM      9  C7A BZF d   1       0.075   1.136  -0.465  0.00  0.00     0.058 A 
ENDROOT
TORSDOF 0
ENDMDL
