MODEL 1
REMARK minimizedAffinity -2.21627712
REMARK minimizedRMSD -1
REMARK  0 active torsions:
REMARK  status: ('A' for Active; 'I' for Inactive)
ROOT
ATOM      1  O1  BZF d   1       0.427   1.290   0.755  0.00  0.00    -0.204 OA
ATOM      2  C2  BZF d   1       0.136   0.400  -0.260  0.00  0.00     0.174 A 
ATOM      3  C3  BZF d   1      -0.997  -0.280   0.009  0.00  0.00    -0.012 A 
ATOM      4  C3A BZF d   1      -1.492   0.282   1.229  0.00  0.00    -0.107 A 
ATOM      5  C4  BZF d   1      -2.594   0.036   1.996  0.00  0.00     0.055 A 
ATOM      6  C5  BZF d   1      -2.748   0.709   3.166  0.00  0.00    -0.016 A 
ATOM      7  C6  BZF d   1      -1.817   1.630   3.602  0.00  0.00     0.022 A 
ATOM      8  C7  BZF d   1      -0.710   1.911   2.872  0.00  0.00     0.029 A 
ATOM      9  C7A BZF d   1      -0.569   1.256   1.673  0.00  0.00     0.058 A 
ENDROOT
TORSDOF 0
ENDMDL
