MODEL 1
REMARK minimizedAffinity -4.49657869
REMARK minimizedRMSD -1
REMARK  0 active torsions:
REMARK  status: ('A' for Active; 'I' for Inactive)
ROOT
ATOM      1  O1  BZF d   1       2.208  -1.822  -1.383  0.00  0.00    -0.204 OA
ATOM      2  C2  BZF d   1       3.278  -0.952  -1.459  0.00  0.00     0.174 A 
ATOM      3  C3  BZF d   1       2.956   0.250  -0.939  0.00  0.00    -0.012 A 
ATOM      4  C3A BZF d   1       1.628   0.095  -0.427  0.00  0.00    -0.107 A 
ATOM      5  C4  BZF d   1       0.768   0.934   0.221  0.00  0.00     0.055 A 
ATOM      6  C5  BZF d   1      -0.483   0.495   0.520  0.00  0.00    -0.016 A 
ATOM      7  C6  BZF d   1      -0.908  -0.773   0.182  0.00  0.00     0.022 A 
ATOM      8  C7  BZF d   1      -0.088  -1.643  -0.458  0.00  0.00     0.029 A 
ATOM      9  C7A BZF d   1       1.187  -1.214  -0.732  0.00  0.00     0.058 A 
ENDROOT
TORSDOF 0
ENDMDL
