MODEL 1
REMARK minimizedAffinity -5.90215206
REMARK minimizedRMSD -1
REMARK  0 active torsions:
REMARK  status: ('A' for Active; 'I' for Inactive)
ROOT
ATOM      1  O1  BZF d   1       1.450  -1.151  -0.279  0.00  0.00    -0.204 OA
ATOM      2  C2  BZF d   1       2.607  -0.626  -0.823  0.00  0.00     0.174 A 
ATOM      3  C3  BZF d   1       2.346   0.517  -1.491  0.00  0.00    -0.012 A 
ATOM      4  C3A BZF d   1       0.953   0.767  -1.278  0.00  0.00    -0.107 A 
ATOM      5  C4  BZF d   1       0.107   1.763  -1.676  0.00  0.00     0.055 A 
ATOM      6  C5  BZF d   1      -1.212   1.673  -1.360  0.00  0.00    -0.016 A 
ATOM      7  C6  BZF d   1      -1.719   0.602  -0.655  0.00  0.00     0.022 A 
ATOM      8  C7  BZF d   1      -0.918  -0.407  -0.234  0.00  0.00     0.029 A 
ATOM      9  C7A BZF d   1       0.421  -0.303  -0.523  0.00  0.00     0.058 A 
ENDROOT
TORSDOF 0
ENDMDL
