MODEL 1
REMARK minimizedAffinity -4.81853008
REMARK minimizedRMSD -1
REMARK  0 active torsions:
REMARK  status: ('A' for Active; 'I' for Inactive)
ROOT
ATOM      1  O1  BZF d   1      -0.194   1.477   0.070  0.00  0.00    -0.204 OA
ATOM      2  C2  BZF d   1      -1.293   0.805   0.569  0.00  0.00     0.174 A 
ATOM      3  C3  BZF d   1      -1.123  -0.530   0.470  0.00  0.00    -0.012 A 
ATOM      4  C3A BZF d   1       0.202  -0.703  -0.044  0.00  0.00    -0.107 A 
ATOM      5  C4  BZF d   1       0.955  -1.801  -0.346  0.00  0.00     0.055 A 
ATOM      6  C5  BZF d   1       2.184  -1.627  -0.899  0.00  0.00    -0.016 A 
ATOM      7  C6  BZF d   1       2.688  -0.371  -1.169  0.00  0.00     0.022 A 
ATOM      8  C7  BZF d   1       1.979   0.748  -0.882  0.00  0.00     0.029 A 
ATOM      9  C7A BZF d   1       0.751   0.576  -0.292  0.00  0.00     0.058 A 
ENDROOT
TORSDOF 0
ENDMDL
