MODEL 1
REMARK minimizedAffinity -5.2868433
REMARK minimizedRMSD -1
REMARK  0 active torsions:
REMARK  status: ('A' for Active; 'I' for Inactive)
ROOT
ATOM      1  O1  BZF d   1      -0.968   1.012  -0.757  0.00  0.00    -0.204 OA
ATOM      2  C2  BZF d   1      -0.448   2.099  -1.433  0.00  0.00     0.174 A 
ATOM      3  C3  BZF d   1       0.853   1.902  -1.727  0.00  0.00    -0.012 A 
ATOM      4  C3A BZF d   1       1.141   0.573  -1.285  0.00  0.00    -0.107 A 
ATOM      5  C4  BZF d   1       2.264  -0.204  -1.315  0.00  0.00     0.055 A 
ATOM      6  C5  BZF d   1       2.234  -1.432  -0.733  0.00  0.00    -0.016 A 
ATOM      7  C6  BZF d   1       1.102  -1.911  -0.107  0.00  0.00     0.022 A 
ATOM      8  C7  BZF d   1      -0.037  -1.179  -0.056  0.00  0.00     0.029 A 
ATOM      9  C7A BZF d   1      -0.020   0.048  -0.672  0.00  0.00     0.058 A 
ENDROOT
TORSDOF 0
ENDMDL
