MODEL 1
REMARK minimizedAffinity -4.37487841
REMARK minimizedRMSD -1
REMARK  0 active torsions:
REMARK  status: ('A' for Active; 'I' for Inactive)
ROOT
ATOM      1  O1  BZF d   1       2.222   0.874  -1.966  0.00  0.00    -0.204 OA
ATOM      2  C2  BZF d   1       3.029  -0.224  -2.195  0.00  0.00     0.174 A 
ATOM      3  C3  BZF d   1       2.535  -1.317  -1.576  0.00  0.00    -0.012 A 
ATOM      4  C3A BZF d   1       1.297  -0.894  -0.997  0.00  0.00    -0.107 A 
ATOM      5  C4  BZF d   1       0.335  -1.533  -0.268  0.00  0.00     0.055 A 
ATOM      6  C5  BZF d   1      -0.716  -0.817   0.210  0.00  0.00    -0.016 A 
ATOM      7  C6  BZF d   1      -0.835   0.538  -0.019  0.00  0.00     0.022 A 
ATOM      8  C7  BZF d   1       0.091   1.214  -0.741  0.00  0.00     0.029 A 
ATOM      9  C7A BZF d   1       1.138   0.487  -1.253  0.00  0.00     0.058 A 
ENDROOT
TORSDOF 0
ENDMDL
