MODEL 1
REMARK minimizedAffinity -6.01400137
REMARK minimizedRMSD -1
REMARK  0 active torsions:
REMARK  status: ('A' for Active; 'I' for Inactive)
ROOT
ATOM      1  O1  BZF d   1       2.529  -1.232  -0.947  0.00  0.00    -0.204 OA
ATOM      2  C2  BZF d   1       3.166  -0.067  -1.328  0.00  0.00     0.174 A 
ATOM      3  C3  BZF d   1       2.340   0.992  -1.207  0.00  0.00    -0.012 A 
ATOM      4  C3A BZF d   1       1.139   0.469  -0.632  0.00  0.00    -0.107 A 
ATOM      5  C4  BZF d   1      -0.046   1.034  -0.257  0.00  0.00     0.055 A 
ATOM      6  C5  BZF d   1      -1.043   0.234   0.204  0.00  0.00    -0.016 A 
ATOM      7  C6  BZF d   1      -0.891  -1.134   0.298  0.00  0.00     0.022 A 
ATOM      8  C7  BZF d   1       0.268  -1.740  -0.057  0.00  0.00     0.029 A 
ATOM      9  C7A BZF d   1       1.289  -0.930  -0.492  0.00  0.00     0.058 A 
ENDROOT
TORSDOF 0
ENDMDL
