MODEL 1
REMARK minimizedAffinity -2.16217947
REMARK minimizedRMSD -1
REMARK  0 active torsions:
REMARK  status: ('A' for Active; 'I' for Inactive)
ROOT
ATOM      1  O1  BZF d   1      -1.230  -0.782   1.166  0.00  0.00    -0.204 OA
ATOM      2  C2  BZF d   1      -1.551   0.562   1.167  0.00  0.00     0.174 A 
ATOM      3  C3  BZF d   1      -0.729   1.251   0.349  0.00  0.00    -0.012 A 
ATOM      4  C3A BZF d   1       0.103   0.263  -0.267  0.00  0.00    -0.107 A 
ATOM      5  C4  BZF d   1       1.109   0.325  -1.189  0.00  0.00     0.055 A 
ATOM      6  C5  BZF d   1       1.768  -0.815  -1.525  0.00  0.00    -0.016 A 
ATOM      7  C6  BZF d   1       1.451  -2.031  -0.957  0.00  0.00     0.022 A 
ATOM      8  C7  BZF d   1       0.458  -2.143  -0.042  0.00  0.00     0.029 A 
ATOM      9  C7A BZF d   1      -0.232  -0.999   0.276  0.00  0.00     0.058 A 
ENDROOT
TORSDOF 0
ENDMDL
