MODEL 1
REMARK minimizedAffinity -2.77267432
REMARK minimizedRMSD -1
REMARK  0 active torsions:
REMARK  status: ('A' for Active; 'I' for Inactive)
ROOT
ATOM      1  O1  BZF d   1       1.698  -0.325  -1.538  0.00  0.00    -0.204 OA
ATOM      2  C2  BZF d   1       1.757  -1.589  -0.982  0.00  0.00     0.174 A 
ATOM      3  C3  BZF d   1       0.782  -1.755  -0.066  0.00  0.00    -0.012 A 
ATOM      4  C3A BZF d   1       0.012  -0.550  -0.113  0.00  0.00    -0.107 A 
ATOM      5  C4  BZF d   1      -1.100  -0.120   0.553  0.00  0.00     0.055 A 
ATOM      6  C5  BZF d   1      -1.560   1.139   0.326  0.00  0.00    -0.016 A 
ATOM      7  C6  BZF d   1      -0.931   1.994  -0.555  0.00  0.00     0.022 A 
ATOM      8  C7  BZF d   1       0.172   1.610  -1.242  0.00  0.00     0.029 A 
ATOM      9  C7A BZF d   1       0.620   0.328  -1.040  0.00  0.00     0.058 A 
ENDROOT
TORSDOF 0
ENDMDL
