MODEL 1
REMARK minimizedAffinity -2.6581769
REMARK minimizedRMSD -1
REMARK  0 active torsions:
REMARK  status: ('A' for Active; 'I' for Inactive)
ROOT
ATOM      1  O1  BZF d   1      -1.163   1.049   0.740  0.00  0.00    -0.204 OA
ATOM      2  C2  BZF d   1      -0.944   0.243   1.840  0.00  0.00     0.174 A 
ATOM      3  C3  BZF d   1       0.199  -0.459   1.699  0.00  0.00    -0.012 A 
ATOM      4  C3A BZF d   1       0.775   0.002   0.473  0.00  0.00    -0.107 A 
ATOM      5  C4  BZF d   1       1.923  -0.307  -0.200  0.00  0.00     0.055 A 
ATOM      6  C5  BZF d   1       2.156   0.270  -1.408  0.00  0.00    -0.016 A 
ATOM      7  C6  BZF d   1       1.261   1.154  -1.975  0.00  0.00     0.022 A 
ATOM      8  C7  BZF d   1       0.112   1.496  -1.343  0.00  0.00     0.029 A 
ATOM      9  C7A BZF d   1      -0.110   0.940  -0.106  0.00  0.00     0.058 A 
ENDROOT
TORSDOF 0
ENDMDL
