MODEL 1
REMARK minimizedAffinity -1.81563604
REMARK minimizedRMSD -1
REMARK  0 active torsions:
REMARK  status: ('A' for Active; 'I' for Inactive)
ROOT
ATOM      1  C   UNL d   1       0.971  -1.122   0.125  0.00  0.00     0.172 C 
ATOM      2  N   UNL d   1       0.237  -2.102  -0.641  0.00  0.00    -0.070 N 
ATOM      3  C1  UNL d   1       0.713  -2.786  -1.728  0.00  0.00    -0.004 A 
ATOM      4  C2  UNL d   1      -0.288  -3.623  -2.172  0.00  0.00    -0.047 A 
ATOM      5  C3  UNL d   1      -1.405  -3.435  -1.323  0.00  0.00    -0.047 A 
ATOM      6  C4  UNL d   1      -1.052  -2.488  -0.384  0.00  0.00    -0.004 A 
ENDROOT
TORSDOF 0
ENDMDL
