MODEL 1
REMARK minimizedAffinity -3.27840209
REMARK minimizedRMSD -1
REMARK  0 active torsions:
REMARK  status: ('A' for Active; 'I' for Inactive)
ROOT
ATOM      1  C   UNL d   1       3.072   1.853   0.570  0.00  0.00     0.172 C 
ATOM      2  N   UNL d   1       1.643   1.956   0.390  0.00  0.00    -0.070 N 
ATOM      3  C1  UNL d   1       0.789   0.910   0.163  0.00  0.00    -0.004 A 
ATOM      4  C2  UNL d   1      -0.485   1.422   0.049  0.00  0.00    -0.047 A 
ATOM      5  C3  UNL d   1      -0.395   2.824   0.213  0.00  0.00    -0.047 A 
ATOM      6  C4  UNL d   1       0.934   3.128   0.422  0.00  0.00    -0.004 A 
ENDROOT
TORSDOF 0
ENDMDL
