MODEL 1
REMARK minimizedAffinity -3.76672459
REMARK minimizedRMSD -1
REMARK  0 active torsions:
REMARK  status: ('A' for Active; 'I' for Inactive)
ROOT
ATOM      1  C   UNL d   1       0.401  -1.206   0.138  0.00  0.00     0.172 C 
ATOM      2  N   UNL d   1       0.139   0.214   0.166  0.00  0.00    -0.070 N 
ATOM      3  C1  UNL d   1       1.033   1.197  -0.164  0.00  0.00    -0.004 A 
ATOM      4  C2  UNL d   1       0.401   2.412  -0.009  0.00  0.00    -0.047 A 
ATOM      5  C3  UNL d   1      -0.918   2.150   0.430  0.00  0.00    -0.047 A 
ATOM      6  C4  UNL d   1      -1.054   0.781   0.530  0.00  0.00    -0.004 A 
ENDROOT
TORSDOF 0
ENDMDL
