MODEL 1
REMARK minimizedAffinity -3.93259692
REMARK minimizedRMSD -1
REMARK  0 active torsions:
REMARK  status: ('A' for Active; 'I' for Inactive)
ROOT
ATOM      1  C   UNL d   1      -0.267  -0.966   0.297  0.00  0.00     0.172 C 
ATOM      2  N   UNL d   1      -0.021   0.409  -0.069  0.00  0.00    -0.070 N 
ATOM      3  C1  UNL d   1      -0.913   1.441   0.056  0.00  0.00    -0.004 A 
ATOM      4  C2  UNL d   1      -0.299   2.587  -0.401  0.00  0.00    -0.047 A 
ATOM      5  C3  UNL d   1       1.006   2.232  -0.815  0.00  0.00    -0.047 A 
ATOM      6  C4  UNL d   1       1.152   0.878  -0.599  0.00  0.00    -0.004 A 
ENDROOT
TORSDOF 0
ENDMDL
