MODEL 1
REMARK minimizedAffinity -1.76697254
REMARK minimizedRMSD -1
REMARK  0 active torsions:
REMARK  status: ('A' for Active; 'I' for Inactive)
ROOT
ATOM      1  C   UNL d   1       0.041  -1.161   0.007  0.00  0.00     0.172 C 
ATOM      2  N   UNL d   1      -0.034   0.279   0.088  0.00  0.00    -0.070 N 
ATOM      3  C1  UNL d   1       0.924   1.154  -0.350  0.00  0.00    -0.004 A 
ATOM      4  C2  UNL d   1       0.477   2.432  -0.094  0.00  0.00    -0.047 A 
ATOM      5  C3  UNL d   1      -0.793   2.322   0.520  0.00  0.00    -0.047 A 
ATOM      6  C4  UNL d   1      -1.085   0.978   0.620  0.00  0.00    -0.004 A 
ENDROOT
TORSDOF 0
ENDMDL
