MODEL 1
REMARK minimizedAffinity -3.98372316
REMARK minimizedRMSD -1
REMARK  0 active torsions:
REMARK  status: ('A' for Active; 'I' for Inactive)
ROOT
ATOM      1  C   UNL d   1       0.396  -0.872   0.161  0.00  0.00     0.172 C 
ATOM      2  N   UNL d   1       0.084   0.531   0.016  0.00  0.00    -0.070 N 
ATOM      3  C1  UNL d   1       0.952   1.502  -0.406  0.00  0.00    -0.004 A 
ATOM      4  C2  UNL d   1       0.274   2.702  -0.408  0.00  0.00    -0.047 A 
ATOM      5  C3  UNL d   1      -1.047   2.443   0.029  0.00  0.00    -0.047 A 
ATOM      6  C4  UNL d   1      -1.137   1.091   0.284  0.00  0.00    -0.004 A 
ENDROOT
TORSDOF 0
ENDMDL
