MODEL 1
REMARK minimizedAffinity -3.88323307
REMARK minimizedRMSD -1
REMARK  0 active torsions:
REMARK  status: ('A' for Active; 'I' for Inactive)
ROOT
ATOM      1  C   UNL d   1       1.856   1.014   0.229  0.00  0.00     0.172 C 
ATOM      2  N   UNL d   1       0.417   1.136   0.249  0.00  0.00    -0.070 N 
ATOM      3  C1  UNL d   1      -0.286   2.309   0.193  0.00  0.00    -0.004 A 
ATOM      4  C2  UNL d   1      -1.628   2.000   0.236  0.00  0.00    -0.047 A 
ATOM      5  C3  UNL d   1      -1.735   0.591   0.320  0.00  0.00    -0.047 A 
ATOM      6  C4  UNL d   1      -0.454   0.081   0.326  0.00  0.00    -0.004 A 
ENDROOT
TORSDOF 0
ENDMDL
