MODEL 1
REMARK minimizedAffinity -0.602267206
REMARK minimizedRMSD -1
REMARK  0 active torsions:
REMARK  status: ('A' for Active; 'I' for Inactive)
ROOT
ATOM      1  C   UNL d   1      -0.370  -0.739  -0.211  0.00  0.00     0.172 C 
ATOM      2  N   UNL d   1      -0.814  -1.955  -0.852  0.00  0.00    -0.070 N 
ATOM      3  C1  UNL d   1      -0.324  -3.210  -0.609  0.00  0.00    -0.004 A 
ATOM      4  C2  UNL d   1      -1.008  -4.094  -1.417  0.00  0.00    -0.047 A 
ATOM      5  C3  UNL d   1      -1.941  -3.343  -2.171  0.00  0.00    -0.047 A 
ATOM      6  C4  UNL d   1      -1.800  -2.022  -1.801  0.00  0.00    -0.004 A 
ENDROOT
TORSDOF 0
ENDMDL
