MODEL 1
REMARK minimizedAffinity -3.11047411
REMARK minimizedRMSD -1
REMARK  0 active torsions:
REMARK  status: ('A' for Active; 'I' for Inactive)
ROOT
ATOM      1  C   UNL d   1       0.444  -0.959  -0.048  0.00  0.00     0.172 C 
ATOM      2  N   UNL d   1       0.333   0.480   0.013  0.00  0.00    -0.070 N 
ATOM      3  C1  UNL d   1      -0.732   1.179   0.515  0.00  0.00    -0.004 A 
ATOM      4  C2  UNL d   1      -0.451   2.522   0.393  0.00  0.00    -0.047 A 
ATOM      5  C3  UNL d   1       0.827   2.635  -0.205  0.00  0.00    -0.047 A 
ATOM      6  C4  UNL d   1       1.289   1.356  -0.430  0.00  0.00    -0.004 A 
ENDROOT
TORSDOF 0
ENDMDL
