MODEL 1
REMARK minimizedAffinity -3.37302876
REMARK minimizedRMSD -1
REMARK  0 active torsions:
REMARK  status: ('A' for Active; 'I' for Inactive)
ROOT
ATOM      1  C   UNL d   1      -0.016   2.942   0.024  0.00  0.00     0.172 C 
ATOM      2  N   UNL d   1       0.221   1.518   0.070  0.00  0.00    -0.070 N 
ATOM      3  C1  UNL d   1       1.446   0.910   0.003  0.00  0.00    -0.004 A 
ATOM      4  C2  UNL d   1       1.247  -0.451   0.080  0.00  0.00    -0.047 A 
ATOM      5  C3  UNL d   1      -0.147  -0.669   0.197  0.00  0.00    -0.047 A 
ATOM      6  C4  UNL d   1      -0.758   0.567   0.188  0.00  0.00    -0.004 A 
ENDROOT
TORSDOF 0
ENDMDL
