MODEL 1
REMARK minimizedAffinity -2.32216048
REMARK minimizedRMSD -1
REMARK  0 active torsions:
REMARK  status: ('A' for Active; 'I' for Inactive)
ROOT
ATOM      1  C   UNL d   1      -0.108   3.156   1.316  0.00  0.00     0.172 C 
ATOM      2  N   UNL d   1       0.063   2.037   0.420  0.00  0.00    -0.070 N 
ATOM      3  C1  UNL d   1      -0.349   0.753   0.658  0.00  0.00    -0.004 A 
ATOM      4  C2  UNL d   1      -0.002  -0.012  -0.435  0.00  0.00    -0.047 A 
ATOM      5  C3  UNL d   1       0.642   0.842  -1.361  0.00  0.00    -0.047 A 
ATOM      6  C4  UNL d   1       0.669   2.104  -0.807  0.00  0.00    -0.004 A 
ENDROOT
TORSDOF 0
ENDMDL
