MODEL 1
REMARK minimizedAffinity 8.14624882
REMARK minimizedRMSD -1
REMARK  0 active torsions:
REMARK  status: ('A' for Active; 'I' for Inactive)
ROOT
ATOM      1  C   UNL d   1       3.695  -2.931  -1.415  0.00  0.00     0.172 C 
ATOM      2  N   UNL d   1       2.620  -3.765  -1.897  0.00  0.00    -0.070 N 
ATOM      3  C1  UNL d   1       2.055  -4.812  -1.219  0.00  0.00    -0.004 A 
ATOM      4  C2  UNL d   1       1.066  -5.347  -2.016  0.00  0.00    -0.047 A 
ATOM      5  C3  UNL d   1       1.037  -4.597  -3.216  0.00  0.00    -0.047 A 
ATOM      6  C4  UNL d   1       2.009  -3.624  -3.115  0.00  0.00    -0.004 A 
ENDROOT
TORSDOF 0
ENDMDL
