MODEL 1
REMARK minimizedAffinity -3.22956538
REMARK minimizedRMSD -1
REMARK  0 active torsions:
REMARK  status: ('A' for Active; 'I' for Inactive)
ROOT
ATOM      1  C   UNL d   1       0.387  -0.484  -0.032  0.00  0.00     0.172 C 
ATOM      2  N   UNL d   1       0.181   0.941  -0.139  0.00  0.00    -0.070 N 
ATOM      3  C1  UNL d   1       0.944   1.805  -0.878  0.00  0.00    -0.004 A 
ATOM      4  C2  UNL d   1       0.424   3.071  -0.718  0.00  0.00    -0.047 A 
ATOM      5  C3  UNL d   1      -0.690   2.965   0.148  0.00  0.00    -0.047 A 
ATOM      6  C4  UNL d   1      -0.818   1.635   0.491  0.00  0.00    -0.004 A 
ENDROOT
TORSDOF 0
ENDMDL
