MODEL 1
REMARK minimizedAffinity 6.64067936
REMARK minimizedRMSD -1
REMARK  3 active torsions:
REMARK  status: ('A' for Active; 'I' for Inactive)
REMARK    1  A    between atoms: C3'_2  and  C2'_3 
REMARK    2  A    between atoms: C2'_3  and  C1'_4 
REMARK    3  A    between atoms: C1'_4  and  C1_5 
ROOT
ATOM      1  C1  N4B d   1       1.493   2.286  -3.130  0.00  0.00    -0.075 A 
ATOM      2  C2  N4B d   1       1.426   0.914  -3.457  0.00  0.00     0.002 A 
ATOM      3  C3  N4B d   1       2.002  -0.018  -2.629  0.00  0.00     0.002 A 
ATOM      4  C4  N4B d   1       2.664   0.398  -1.483  0.00  0.00    -0.004 A 
ATOM      5  C5  N4B d   1       2.702   1.723  -1.161  0.00  0.00     0.002 A 
ATOM      6  C6  N4B d   1       2.124   2.670  -1.982  0.00  0.00     0.002 A 
ENDROOT
BRANCH   1   7
ATOM      7  C1' N4B d   1       0.953   3.348  -4.047  0.00  0.00     0.057 C 
BRANCH   7   8
ATOM      8  C2' N4B d   1      -0.376   3.857  -3.497  0.00  0.00     0.009 C 
BRANCH   8   9
ATOM      9  C3' N4B d   1      -1.435   2.769  -3.471  0.00  0.00     0.004 C 
ATOM     10  C4' N4B d   1      -2.831   3.316  -3.489  0.00  0.00     0.003 C 
ENDBRANCH   8   9
ENDBRANCH   7   8
ENDBRANCH   1   7
TORSDOF 3
ENDMDL
