MODEL 1
REMARK minimizedAffinity 8.17557716
REMARK minimizedRMSD -1
REMARK  3 active torsions:
REMARK  status: ('A' for Active; 'I' for Inactive)
REMARK    1  A    between atoms: C3'_2  and  C2'_3 
REMARK    2  A    between atoms: C2'_3  and  C1'_4 
REMARK    3  A    between atoms: C1'_4  and  C1_5 
ROOT
ATOM      1  C1  N4B d   1       2.220   0.459  -0.675  0.00  0.00    -0.075 A 
ATOM      2  C2  N4B d   1       1.516   0.109  -1.848  0.00  0.00     0.002 A 
ATOM      3  C3  N4B d   1       1.216   1.070  -2.781  0.00  0.00     0.002 A 
ATOM      4  C4  N4B d   1       1.591   2.386  -2.555  0.00  0.00    -0.004 A 
ATOM      5  C5  N4B d   1       2.293   2.711  -1.431  0.00  0.00     0.002 A 
ATOM      6  C6  N4B d   1       2.605   1.754  -0.487  0.00  0.00     0.002 A 
ENDROOT
BRANCH   1   7
ATOM      7  C1' N4B d   1       2.495  -0.542   0.414  0.00  0.00     0.057 C 
BRANCH   7   8
ATOM      8  C2' N4B d   1       1.444  -1.646   0.357  0.00  0.00     0.009 C 
BRANCH   8   9
ATOM      9  C3' N4B d   1       1.486  -2.535   1.588  0.00  0.00     0.004 C 
ATOM     10  C4' N4B d   1       0.700  -1.975   2.736  0.00  0.00     0.003 C 
ENDBRANCH   8   9
ENDBRANCH   7   8
ENDBRANCH   1   7
TORSDOF 3
ENDMDL
