MODEL 1
REMARK minimizedAffinity 6.87024164
REMARK minimizedRMSD -1
REMARK  3 active torsions:
REMARK  status: ('A' for Active; 'I' for Inactive)
REMARK    1  A    between atoms: C3'_2  and  C2'_3 
REMARK    2  A    between atoms: C2'_3  and  C1'_4 
REMARK    3  A    between atoms: C1'_4  and  C1_5 
ROOT
ATOM      1  C1  N4B d   1       2.229  -0.009  -1.060  0.00  0.00    -0.075 A 
ATOM      2  C2  N4B d   1       2.349   1.240  -0.413  0.00  0.00     0.002 A 
ATOM      3  C3  N4B d   1       2.105   2.400  -1.108  0.00  0.00     0.002 A 
ATOM      4  C4  N4B d   1       1.761   2.336  -2.450  0.00  0.00    -0.004 A 
ATOM      5  C5  N4B d   1       1.622   1.124  -3.061  0.00  0.00     0.002 A 
ATOM      6  C6  N4B d   1       1.860  -0.050  -2.374  0.00  0.00     0.002 A 
ENDROOT
BRANCH   1   7
ATOM      7  C1' N4B d   1       2.568  -1.299  -0.365  0.00  0.00     0.057 C 
BRANCH   7   8
ATOM      8  C2' N4B d   1       1.314  -1.851   0.306  0.00  0.00     0.009 C 
BRANCH   8   9
ATOM      9  C3' N4B d   1       1.494  -2.009   1.806  0.00  0.00     0.004 C 
ATOM     10  C4' N4B d   1       0.267  -1.630   2.581  0.00  0.00     0.003 C 
ENDBRANCH   8   9
ENDBRANCH   7   8
ENDBRANCH   1   7
TORSDOF 3
ENDMDL
