MODEL 1
REMARK minimizedAffinity 6.52906513
REMARK minimizedRMSD -1
REMARK  3 active torsions:
REMARK  status: ('A' for Active; 'I' for Inactive)
REMARK    1  A    between atoms: C3'_2  and  C2'_3 
REMARK    2  A    between atoms: C2'_3  and  C1'_4 
REMARK    3  A    between atoms: C1'_4  and  C1_5 
ROOT
ATOM      1  C1  N4B d   1       0.832  -1.204   2.335  0.00  0.00    -0.075 A 
ATOM      2  C2  N4B d   1       0.430  -1.535   1.022  0.00  0.00     0.002 A 
ATOM      3  C3  N4B d   1       1.371  -1.667   0.030  0.00  0.00     0.002 A 
ATOM      4  C4  N4B d   1       2.710  -1.455   0.321  0.00  0.00    -0.004 A 
ATOM      5  C5  N4B d   1       3.092  -1.161   1.597  0.00  0.00     0.002 A 
ATOM      6  C6  N4B d   1       2.158  -1.029   2.606  0.00  0.00     0.002 A 
ENDROOT
BRANCH   1   7
ATOM      7  C1' N4B d   1      -0.167  -0.964   3.434  0.00  0.00     0.057 C 
BRANCH   7   8
ATOM      8  C2' N4B d   1      -0.774   0.425   3.265  0.00  0.00     0.009 C 
BRANCH   8   9
ATOM      9  C3' N4B d   1      -2.122   0.375   2.566  0.00  0.00     0.004 C 
ATOM     10  C4' N4B d   1      -3.155   1.233   3.234  0.00  0.00     0.003 C 
ENDBRANCH   8   9
ENDBRANCH   7   8
ENDBRANCH   1   7
TORSDOF 3
ENDMDL
