MODEL 1
REMARK minimizedAffinity 5.35473442
REMARK minimizedRMSD -1
REMARK  3 active torsions:
REMARK  status: ('A' for Active; 'I' for Inactive)
REMARK    1  A    between atoms: C3'_2  and  C2'_3 
REMARK    2  A    between atoms: C2'_3  and  C1'_4 
REMARK    3  A    between atoms: C1'_4  and  C1_5 
ROOT
ATOM      1  C1  N4B d   1      -1.824  -1.496   1.473  0.00  0.00    -0.075 A 
ATOM      2  C2  N4B d   1      -1.276  -2.730   1.890  0.00  0.00     0.002 A 
ATOM      3  C3  N4B d   1      -0.083  -2.757   2.570  0.00  0.00     0.002 A 
ATOM      4  C4  N4B d   1       0.587  -1.570   2.826  0.00  0.00    -0.004 A 
ATOM      5  C5  N4B d   1       0.039  -0.381   2.442  0.00  0.00     0.002 A 
ATOM      6  C6  N4B d   1      -1.161  -0.339   1.762  0.00  0.00     0.002 A 
ENDROOT
BRANCH   1   7
ATOM      7  C1' N4B d   1      -3.082  -1.423   0.653  0.00  0.00     0.057 C 
BRANCH   7   8
ATOM      8  C2' N4B d   1      -2.716  -1.143  -0.802  0.00  0.00     0.009 C 
BRANCH   8   9
ATOM      9  C3' N4B d   1      -3.938  -1.141  -1.705  0.00  0.00     0.004 C 
ATOM     10  C4' N4B d   1      -4.135   0.166  -2.412  0.00  0.00     0.003 C 
ENDBRANCH   8   9
ENDBRANCH   7   8
ENDBRANCH   1   7
TORSDOF 3
ENDMDL
