MODEL 1
REMARK minimizedAffinity 1.61505246
REMARK minimizedRMSD -1
REMARK  3 active torsions:
REMARK  status: ('A' for Active; 'I' for Inactive)
REMARK    1  A    between atoms: C3'_2  and  C2'_3 
REMARK    2  A    between atoms: C2'_3  and  C1'_4 
REMARK    3  A    between atoms: C1'_4  and  C1_5 
ROOT
ATOM      1  C1  N4B d   1      -0.309  -0.393  -0.602  0.00  0.00    -0.075 A 
ATOM      2  C2  N4B d   1      -0.072   0.967  -0.900  0.00  0.00     0.002 A 
ATOM      3  C3  N4B d   1       1.208   1.402  -1.145  0.00  0.00     0.002 A 
ATOM      4  C4  N4B d   1       2.262   0.504  -1.080  0.00  0.00    -0.004 A 
ATOM      5  C5  N4B d   1       2.021  -0.812  -0.817  0.00  0.00     0.002 A 
ATOM      6  C6  N4B d   1       0.740  -1.265  -0.572  0.00  0.00     0.002 A 
ENDROOT
BRANCH   1   7
ATOM      7  C1' N4B d   1      -1.679  -0.899  -0.242  0.00  0.00     0.057 C 
BRANCH   7   8
ATOM      8  C2' N4B d   1      -2.592  -0.784  -1.459  0.00  0.00     0.009 C 
BRANCH   8   9
ATOM      9  C3' N4B d   1      -3.421  -2.039  -1.669  0.00  0.00     0.004 C 
ATOM     10  C4' N4B d   1      -4.051  -2.099  -3.029  0.00  0.00     0.003 C 
ENDBRANCH   8   9
ENDBRANCH   7   8
ENDBRANCH   1   7
TORSDOF 3
ENDMDL
