MODEL 1
REMARK minimizedAffinity 3.35223007
REMARK minimizedRMSD -1
REMARK  1 active torsions:
REMARK  status: ('A' for Active; 'I' for Inactive)
REMARK    1  A    between atoms: C1_2  and  C2_3 
ROOT
ATOM      1  C2  UNL d   1      -3.821  -0.571  -0.986  0.00  0.00    -0.081 A 
ATOM      2  C3  UNL d   1      -3.160  -1.120   0.119  0.00  0.00     0.006 A 
ATOM      3  C4  UNL d   1      -1.766  -1.092   0.197  0.00  0.00     0.002 A 
ATOM      4  C5  UNL d   1      -1.009  -0.507  -0.825  0.00  0.00    -0.080 A 
ATOM      5  C6  UNL d   1       0.487  -0.443  -0.739  0.00  0.00     0.076 C 
ATOM      6  C7  UNL d   1      -1.669   0.027  -1.937  0.00  0.00     0.002 A 
ATOM      7  C8  UNL d   1      -3.063  -0.002  -2.016  0.00  0.00     0.006 A 
ENDROOT
BRANCH   1   8
ATOM      8  C1  UNL d   1      -5.327  -0.542  -1.043  0.00  0.00     0.054 C 
ATOM      9  C   UNL d   1      -5.869  -1.663  -1.918  0.00  0.00     0.018 C 
ENDBRANCH   1   8
TORSDOF 1
ENDMDL
