MODEL 1
REMARK minimizedAffinity 3.40011978
REMARK minimizedRMSD -1
REMARK  1 active torsions:
REMARK  status: ('A' for Active; 'I' for Inactive)
REMARK    1  A    between atoms: C1_2  and  C2_3 
ROOT
ATOM      1  C2  UNL d   1       1.071  -3.870   5.603  0.00  0.00    -0.081 A 
ATOM      2  C3  UNL d   1       1.911  -2.763   5.428  0.00  0.00     0.006 A 
ATOM      3  C4  UNL d   1       1.406  -1.466   5.543  0.00  0.00     0.002 A 
ATOM      4  C5  UNL d   1       0.056  -1.253   5.842  0.00  0.00    -0.080 A 
ATOM      5  C6  UNL d   1      -0.492   0.134   5.998  0.00  0.00     0.076 C 
ATOM      6  C7  UNL d   1      -0.787  -2.359   5.999  0.00  0.00     0.002 A 
ATOM      7  C8  UNL d   1      -0.283  -3.656   5.884  0.00  0.00     0.006 A 
ENDROOT
BRANCH   1   8
ATOM      8  C1  UNL d   1       1.625  -5.270   5.543  0.00  0.00     0.054 C 
ATOM      9  C   UNL d   1       3.147  -5.265   5.583  0.00  0.00     0.018 C 
ENDBRANCH   1   8
TORSDOF 1
ENDMDL
