MODEL 1
REMARK minimizedAffinity 6.21539354
REMARK minimizedRMSD -1
REMARK  1 active torsions:
REMARK  status: ('A' for Active; 'I' for Inactive)
REMARK    1  A    between atoms: C1_2  and  C2_3 
ROOT
ATOM      1  C2  UNL d   1       0.616  -2.221  -0.799  0.00  0.00    -0.081 A 
ATOM      2  C3  UNL d   1       0.952  -2.696   0.474  0.00  0.00     0.006 A 
ATOM      3  C4  UNL d   1       1.895  -2.023   1.255  0.00  0.00     0.002 A 
ATOM      4  C5  UNL d   1       2.511  -0.860   0.779  0.00  0.00    -0.080 A 
ATOM      5  C6  UNL d   1       3.502  -0.111   1.619  0.00  0.00     0.076 C 
ATOM      6  C7  UNL d   1       2.187  -0.395  -0.501  0.00  0.00     0.002 A 
ATOM      7  C8  UNL d   1       1.245  -1.068  -1.282  0.00  0.00     0.006 A 
ENDROOT
BRANCH   1   8
ATOM      8  C1  UNL d   1      -0.448  -2.908  -1.617  0.00  0.00     0.054 C 
ATOM      9  C   UNL d   1      -0.828  -4.252  -1.012  0.00  0.00     0.018 C 
ENDBRANCH   1   8
TORSDOF 1
ENDMDL
