MODEL 1
REMARK minimizedAffinity 8.52933311
REMARK minimizedRMSD -1
REMARK  1 active torsions:
REMARK  status: ('A' for Active; 'I' for Inactive)
REMARK    1  A    between atoms: C1_2  and  C2_3 
ROOT
ATOM      1  C2  UNL d   1       1.170   1.011   1.502  0.00  0.00    -0.081 A 
ATOM      2  C3  UNL d   1       0.406   1.336   0.375  0.00  0.00     0.006 A 
ATOM      3  C4  UNL d   1       0.281   0.431  -0.682  0.00  0.00     0.002 A 
ATOM      4  C5  UNL d   1       0.911  -0.817  -0.625  0.00  0.00    -0.080 A 
ATOM      5  C6  UNL d   1       0.760  -1.810  -1.739  0.00  0.00     0.076 C 
ATOM      6  C7  UNL d   1       1.689  -1.135   0.493  0.00  0.00     0.002 A 
ATOM      7  C8  UNL d   1       1.815  -0.230   1.549  0.00  0.00     0.006 A 
ENDROOT
BRANCH   1   8
ATOM      8  C1  UNL d   1       1.254   1.959   2.670  0.00  0.00     0.054 C 
ATOM      9  C   UNL d   1       1.551   3.380   2.210  0.00  0.00     0.018 C 
ENDBRANCH   1   8
TORSDOF 1
ENDMDL
