MODEL 1
REMARK minimizedAffinity 3.85113788
REMARK minimizedRMSD -1
REMARK  1 active torsions:
REMARK  status: ('A' for Active; 'I' for Inactive)
REMARK    1  A    between atoms: C1_2  and  C2_3 
ROOT
ATOM      1  C2  UNL d   1       0.429  -3.711   5.951  0.00  0.00    -0.081 A 
ATOM      2  C3  UNL d   1      -0.477  -2.644   5.971  0.00  0.00     0.006 A 
ATOM      3  C4  UNL d   1      -0.018  -1.325   5.998  0.00  0.00     0.002 A 
ATOM      4  C5  UNL d   1       1.354  -1.051   5.997  0.00  0.00    -0.080 A 
ATOM      5  C6  UNL d   1       1.860   0.361   5.995  0.00  0.00     0.076 C 
ATOM      6  C7  UNL d   1       2.260  -2.117   5.995  0.00  0.00     0.002 A 
ATOM      7  C8  UNL d   1       1.801  -3.436   5.969  0.00  0.00     0.006 A 
ENDROOT
BRANCH   1   8
ATOM      8  C1  UNL d   1      -0.062  -5.133   5.857  0.00  0.00     0.054 C 
ATOM      9  C   UNL d   1      -1.580  -5.188   5.755  0.00  0.00     0.018 C 
ENDBRANCH   1   8
TORSDOF 1
ENDMDL
