MODEL 1
REMARK minimizedAffinity 7.27488136
REMARK minimizedRMSD -1
REMARK  1 active torsions:
REMARK  status: ('A' for Active; 'I' for Inactive)
REMARK    1  A    between atoms: C1_2  and  C2_3 
ROOT
ATOM      1  C2  UNL d   1      -4.557   0.746   0.894  0.00  0.00    -0.081 A 
ATOM      2  C3  UNL d   1      -5.546   1.184   0.004  0.00  0.00     0.006 A 
ATOM      3  C4  UNL d   1      -6.000   0.346  -1.017  0.00  0.00     0.002 A 
ATOM      4  C5  UNL d   1      -5.479  -0.944  -1.162  0.00  0.00    -0.080 A 
ATOM      5  C6  UNL d   1      -5.980  -1.864  -2.235  0.00  0.00     0.076 C 
ATOM      6  C7  UNL d   1      -4.479  -1.375  -0.283  0.00  0.00     0.002 A 
ATOM      7  C8  UNL d   1      -4.024  -0.538   0.738  0.00  0.00     0.006 A 
ENDROOT
BRANCH   1   8
ATOM      8  C1  UNL d   1      -4.112   1.623   2.037  0.00  0.00     0.054 C 
ATOM      9  C   UNL d   1      -5.144   2.698   2.344  0.00  0.00     0.018 C 
ENDBRANCH   1   8
TORSDOF 1
ENDMDL
