MODEL 1
REMARK minimizedAffinity 5.10668516
REMARK minimizedRMSD -1
REMARK  1 active torsions:
REMARK  status: ('A' for Active; 'I' for Inactive)
REMARK    1  A    between atoms: C1_2  and  C2_3 
ROOT
ATOM      1  C2  UNL d   1      -4.845   0.199   0.246  0.00  0.00    -0.081 A 
ATOM      2  C3  UNL d   1      -5.632   0.794  -0.748  0.00  0.00     0.006 A 
ATOM      3  C4  UNL d   1      -5.996   0.074  -1.888  0.00  0.00     0.002 A 
ATOM      4  C5  UNL d   1      -5.588  -1.254  -2.050  0.00  0.00    -0.080 A 
ATOM      5  C6  UNL d   1      -5.997  -2.047  -3.255  0.00  0.00     0.076 C 
ATOM      6  C7  UNL d   1      -4.787  -1.843  -1.065  0.00  0.00     0.002 A 
ATOM      7  C8  UNL d   1      -4.422  -1.124   0.075  0.00  0.00     0.006 A 
ENDROOT
BRANCH   1   8
ATOM      8  C1  UNL d   1      -4.505   0.951   1.507  0.00  0.00     0.054 C 
ATOM      9  C   UNL d   1      -5.251   2.276   1.580  0.00  0.00     0.018 C 
ENDBRANCH   1   8
TORSDOF 1
ENDMDL
