MODEL 1
REMARK minimizedAffinity -2.30326819
REMARK minimizedRMSD -1
REMARK  1 active torsions:
REMARK  status: ('A' for Active; 'I' for Inactive)
REMARK    1  A    between atoms: N_2  and  C1_3 
ROOT
ATOM      1  C1  UNL d   1       0.231   0.145   0.041  0.00  0.00     0.143 A 
ATOM      2  C2  UNL d   1      -0.441   1.265  -0.461  0.00  0.00    -0.057 A 
ATOM      3  C3  UNL d   1      -1.387   1.951   0.310  0.00  0.00     0.033 A 
ATOM      4  C4  UNL d   1      -1.699   1.510   1.592  0.00  0.00    -0.042 A 
ATOM      5  C5  UNL d   1      -1.062   0.384   2.102  0.00  0.00     0.033 A 
ATOM      6  C6  UNL d   1      -0.114  -0.292   1.329  0.00  0.00    -0.057 A 
ENDROOT
BRANCH   1   7
ATOM      7  N   UNL d   1       1.109  -0.637  -0.713  0.00  0.00    -0.732 N 
ATOM      8  C   UNL d   1       0.632  -1.805  -1.422  0.00  0.00     0.284 C 
ATOM      9  H3  UNL d   1       1.777  -0.077  -1.237  0.00  0.00     0.395 HD
ENDBRANCH   1   7
TORSDOF 1
ENDMDL
