MODEL 1
REMARK minimizedAffinity -2.45855951
REMARK minimizedRMSD -1
REMARK  1 active torsions:
REMARK  status: ('A' for Active; 'I' for Inactive)
REMARK    1  A    between atoms: N_2  and  C1_3 
ROOT
ATOM      1  C1  UNL d   1      -0.442   0.702  -0.002  0.00  0.00     0.143 A 
ATOM      2  C2  UNL d   1       0.052  -0.250   0.896  0.00  0.00    -0.057 A 
ATOM      3  C3  UNL d   1      -0.314  -0.232   2.247  0.00  0.00     0.033 A 
ATOM      4  C4  UNL d   1      -1.161   0.759   2.732  0.00  0.00    -0.042 A 
ATOM      5  C5  UNL d   1      -1.644   1.730   1.862  0.00  0.00     0.033 A 
ATOM      6  C6  UNL d   1      -1.280   1.703   0.513  0.00  0.00    -0.057 A 
ENDROOT
BRANCH   1   7
ATOM      7  N   UNL d   1      -0.038   0.797  -1.336  0.00  0.00    -0.732 N 
ATOM      8  C   UNL d   1       0.852   1.855  -1.764  0.00  0.00     0.284 C 
ATOM      9  H3  UNL d   1       0.171  -0.112  -1.744  0.00  0.00     0.395 HD
ENDBRANCH   1   7
TORSDOF 1
ENDMDL
