MODEL 1
REMARK minimizedAffinity -2.64737487
REMARK minimizedRMSD -1
REMARK  1 active torsions:
REMARK  status: ('A' for Active; 'I' for Inactive)
REMARK    1  A    between atoms: N_2  and  C1_3 
ROOT
ATOM      1  C1  UNL d   1       0.243   1.285  -0.164  0.00  0.00     0.143 A 
ATOM      2  C2  UNL d   1       0.749  -0.017  -0.252  0.00  0.00    -0.057 A 
ATOM      3  C3  UNL d   1       0.496  -0.964   0.747  0.00  0.00     0.033 A 
ATOM      4  C4  UNL d   1      -0.246  -0.617   1.871  0.00  0.00    -0.042 A 
ATOM      5  C5  UNL d   1      -0.738   0.678   1.993  0.00  0.00     0.033 A 
ATOM      6  C6  UNL d   1      -0.487   1.618   0.988  0.00  0.00    -0.057 A 
ENDROOT
BRANCH   1   7
ATOM      7  N   UNL d   1       0.542   2.299  -1.076  0.00  0.00    -0.732 N 
ATOM      8  C   UNL d   1       1.164   1.990  -2.346  0.00  0.00     0.284 C 
ATOM      9  H3  UNL d   1      -0.194   3.000  -1.133  0.00  0.00     0.395 HD
ENDBRANCH   1   7
TORSDOF 1
ENDMDL
