MODEL 1
REMARK minimizedAffinity -2.11272478
REMARK minimizedRMSD -1
REMARK  1 active torsions:
REMARK  status: ('A' for Active; 'I' for Inactive)
REMARK    1  A    between atoms: N_2  and  C1_3 
ROOT
ATOM      1  C1  UNL d   1       0.224   1.261  -0.207  0.00  0.00     0.143 A 
ATOM      2  C2  UNL d   1       0.243  -0.138  -0.166  0.00  0.00    -0.057 A 
ATOM      3  C3  UNL d   1      -0.376  -0.841   0.875  0.00  0.00     0.033 A 
ATOM      4  C4  UNL d   1      -1.001  -0.155   1.911  0.00  0.00    -0.042 A 
ATOM      5  C5  UNL d   1      -1.010   1.235   1.903  0.00  0.00     0.033 A 
ATOM      6  C6  UNL d   1      -0.396   1.932   0.858  0.00  0.00    -0.057 A 
ENDROOT
BRANCH   1   7
ATOM      7  N   UNL d   1       0.906   2.019  -1.162  0.00  0.00    -0.732 N 
ATOM      8  C   UNL d   1       0.508   3.383  -1.441  0.00  0.00     0.284 C 
ATOM      9  H3  UNL d   1       1.913   1.880  -1.123  0.00  0.00     0.395 HD
ENDBRANCH   1   7
TORSDOF 1
ENDMDL
