MODEL 1
REMARK minimizedAffinity -4.23472309
REMARK minimizedRMSD -1
REMARK  1 active torsions:
REMARK  status: ('A' for Active; 'I' for Inactive)
REMARK    1  A    between atoms: N_2  and  C1_3 
ROOT
ATOM      1  C1  UNL d   1      -0.958   1.250   0.833  0.00  0.00     0.143 A 
ATOM      2  C2  UNL d   1      -0.437   1.743  -0.368  0.00  0.00    -0.057 A 
ATOM      3  C3  UNL d   1       0.453   0.985  -1.139  0.00  0.00     0.033 A 
ATOM      4  C4  UNL d   1       0.860  -0.273  -0.707  0.00  0.00    -0.042 A 
ATOM      5  C5  UNL d   1       0.374  -0.773   0.496  0.00  0.00     0.033 A 
ATOM      6  C6  UNL d   1      -0.519  -0.014   1.259  0.00  0.00    -0.057 A 
ENDROOT
BRANCH   1   7
ATOM      7  N   UNL d   1      -1.768   1.994   1.694  0.00  0.00    -0.732 N 
ATOM      8  C   UNL d   1      -2.255   3.300   1.302  0.00  0.00     0.284 C 
ATOM      9  H3  UNL d   1      -2.458   1.419   2.172  0.00  0.00     0.395 HD
ENDBRANCH   1   7
TORSDOF 1
ENDMDL
