MODEL 1
REMARK minimizedAffinity -2.9467535
REMARK minimizedRMSD -1
REMARK  1 active torsions:
REMARK  status: ('A' for Active; 'I' for Inactive)
REMARK    1  A    between atoms: N_2  and  C1_3 
ROOT
ATOM      1  C1  UNL d   1      -0.138   0.200   0.038  0.00  0.00     0.143 A 
ATOM      2  C2  UNL d   1      -1.176   0.829  -0.658  0.00  0.00    -0.057 A 
ATOM      3  C3  UNL d   1      -2.019   1.752  -0.027  0.00  0.00     0.033 A 
ATOM      4  C4  UNL d   1      -1.855   2.041   1.324  0.00  0.00    -0.042 A 
ATOM      5  C5  UNL d   1      -0.846   1.410   2.042  0.00  0.00     0.033 A 
ATOM      6  C6  UNL d   1      -0.004   0.494   1.404  0.00  0.00    -0.057 A 
ENDROOT
BRANCH   1   7
ATOM      7  N   UNL d   1       0.671  -0.800  -0.508  0.00  0.00    -0.732 N 
ATOM      8  C   UNL d   1       0.119  -1.779  -1.419  0.00  0.00     0.284 C 
ATOM      9  H3  UNL d   1       1.589  -0.453  -0.777  0.00  0.00     0.395 HD
ENDBRANCH   1   7
TORSDOF 1
ENDMDL
