MODEL 1
REMARK minimizedAffinity -3.27321815
REMARK minimizedRMSD -1
REMARK  1 active torsions:
REMARK  status: ('A' for Active; 'I' for Inactive)
REMARK    1  A    between atoms: N_2  and  C1_3 
ROOT
ATOM      1  C1  UNL d   1      -1.020   1.088   0.217  0.00  0.00     0.143 A 
ATOM      2  C2  UNL d   1      -0.514  -0.216   0.271  0.00  0.00    -0.057 A 
ATOM      3  C3  UNL d   1      -0.260  -0.845   1.496  0.00  0.00     0.033 A 
ATOM      4  C4  UNL d   1      -0.480  -0.170   2.691  0.00  0.00    -0.042 A 
ATOM      5  C5  UNL d   1      -0.958   1.135   2.661  0.00  0.00     0.033 A 
ATOM      6  C6  UNL d   1      -1.217   1.756   1.435  0.00  0.00    -0.057 A 
ENDROOT
BRANCH   1   7
ATOM      7  N   UNL d   1      -1.201   1.803  -0.969  0.00  0.00    -0.732 N 
ATOM      8  C   UNL d   1      -0.062   2.241  -1.747  0.00  0.00     0.284 C 
ATOM      9  H3  UNL d   1      -1.971   1.442  -1.527  0.00  0.00     0.395 HD
ENDBRANCH   1   7
TORSDOF 1
ENDMDL
