MODEL 1
REMARK minimizedAffinity -4.16819859
REMARK minimizedRMSD -1
REMARK  1 active torsions:
REMARK  status: ('A' for Active; 'I' for Inactive)
REMARK    1  A    between atoms: N_2  and  C1_3 
ROOT
ATOM      1  C1  UNL d   1      -0.674   0.590   1.012  0.00  0.00     0.143 A 
ATOM      2  C2  UNL d   1      -0.249   1.069  -0.232  0.00  0.00    -0.057 A 
ATOM      3  C3  UNL d   1       0.845   0.498  -0.895  0.00  0.00     0.033 A 
ATOM      4  C4  UNL d   1       1.552  -0.546  -0.309  0.00  0.00    -0.042 A 
ATOM      5  C5  UNL d   1       1.163  -1.022   0.938  0.00  0.00     0.033 A 
ATOM      6  C6  UNL d   1       0.066  -0.452   1.591  0.00  0.00    -0.057 A 
ENDROOT
BRANCH   1   7
ATOM      7  N   UNL d   1      -1.692   1.179   1.765  0.00  0.00    -0.732 N 
ATOM      8  C   UNL d   1      -1.839   2.618   1.809  0.00  0.00     0.284 C 
ATOM      9  H3  UNL d   1      -2.573   0.674   1.691  0.00  0.00     0.395 HD
ENDBRANCH   1   7
TORSDOF 1
ENDMDL
