MODEL 1
REMARK minimizedAffinity -3.4169147
REMARK minimizedRMSD -1
REMARK  1 active torsions:
REMARK  status: ('A' for Active; 'I' for Inactive)
REMARK    1  A    between atoms: N_2  and  C1_3 
ROOT
ATOM      1  C1  UNL d   1      -0.047  -0.213  -0.224  0.00  0.00     0.143 A 
ATOM      2  C2  UNL d   1      -1.425  -0.233   0.020  0.00  0.00    -0.057 A 
ATOM      3  C3  UNL d   1      -1.964   0.335   1.181  0.00  0.00     0.033 A 
ATOM      4  C4  UNL d   1      -1.130   0.909   2.135  0.00  0.00    -0.042 A 
ATOM      5  C5  UNL d   1       0.244   0.918   1.924  0.00  0.00     0.033 A 
ATOM      6  C6  UNL d   1       0.777   0.356   0.760  0.00  0.00    -0.057 A 
ENDROOT
BRANCH   1   7
ATOM      7  N   UNL d   1       0.559  -0.847  -1.311  0.00  0.00    -0.732 N 
ATOM      8  C   UNL d   1       0.779  -0.135  -2.551  0.00  0.00     0.284 C 
ATOM      9  H3  UNL d   1       1.335  -1.442  -1.030  0.00  0.00     0.395 HD
ENDBRANCH   1   7
TORSDOF 1
ENDMDL
