MODEL 1
REMARK minimizedAffinity -5.35462952
REMARK minimizedRMSD -1
REMARK  1 active torsions:
REMARK  status: ('A' for Active; 'I' for Inactive)
REMARK    1  A    between atoms: N_2  and  C1_3 
ROOT
ATOM      1  C1  UNL d   1      -0.699   0.874   1.863  0.00  0.00     0.143 A 
ATOM      2  C2  UNL d   1      -0.560   0.967   3.252  0.00  0.00    -0.057 A 
ATOM      3  C3  UNL d   1       0.573   0.468   3.904  0.00  0.00     0.033 A 
ATOM      4  C4  UNL d   1       1.579  -0.162   3.179  0.00  0.00    -0.042 A 
ATOM      5  C5  UNL d   1       1.451  -0.289   1.800  0.00  0.00     0.033 A 
ATOM      6  C6  UNL d   1       0.320   0.218   1.154  0.00  0.00    -0.057 A 
ENDROOT
BRANCH   1   7
ATOM      7  N   UNL d   1      -1.846   1.263   1.167  0.00  0.00    -0.732 N 
ATOM      8  C   UNL d   1      -2.199   0.630  -0.086  0.00  0.00     0.284 C 
ATOM      9  H3  UNL d   1      -2.637   1.430   1.785  0.00  0.00     0.395 HD
ENDBRANCH   1   7
TORSDOF 1
ENDMDL
