MODEL 1
REMARK minimizedAffinity -5.3995018
REMARK minimizedRMSD -1
REMARK  0 active torsions:
REMARK  status: ('A' for Active; 'I' for Inactive)
ROOT
ATOM      1  O1  BZF d   1      -1.204   0.192   1.715  0.00  0.00    -0.204 OA
ATOM      2  C2  BZF d   1      -1.027   1.226   0.815  0.00  0.00     0.174 A 
ATOM      3  C3  BZF d   1       0.027   0.985   0.010  0.00  0.00    -0.012 A 
ATOM      4  C3A BZF d   1       0.486  -0.321   0.372  0.00  0.00    -0.107 A 
ATOM      5  C4  BZF d   1       1.495  -1.121  -0.083  0.00  0.00     0.055 A 
ATOM      6  C5  BZF d   1       1.724  -2.310   0.533  0.00  0.00    -0.016 A 
ATOM      7  C6  BZF d   1       0.967  -2.728   1.609  0.00  0.00     0.022 A 
ATOM      8  C7  BZF d   1      -0.048  -1.971   2.092  0.00  0.00     0.029 A 
ATOM      9  C7A BZF d   1      -0.302  -0.784   1.450  0.00  0.00     0.058 A 
ENDROOT
TORSDOF 0
ENDMDL
