MODEL 1
REMARK minimizedAffinity -4.57574034
REMARK minimizedRMSD -1
REMARK  0 active torsions:
REMARK  status: ('A' for Active; 'I' for Inactive)
ROOT
ATOM      1  O1  BZF d   1      -0.850   0.109   0.248  0.00  0.00    -0.204 OA
ATOM      2  C2  BZF d   1      -0.089   0.855  -0.632  0.00  0.00     0.174 A 
ATOM      3  C3  BZF d   1       1.181   0.401  -0.669  0.00  0.00    -0.012 A 
ATOM      4  C3A BZF d   1       1.193  -0.754   0.174  0.00  0.00    -0.107 A 
ATOM      5  C4  BZF d   1       2.163  -1.648   0.529  0.00  0.00     0.055 A 
ATOM      6  C5  BZF d   1       1.867  -2.621   1.430  0.00  0.00    -0.016 A 
ATOM      7  C6  BZF d   1       0.615  -2.727   2.000  0.00  0.00     0.022 A 
ATOM      8  C7  BZF d   1      -0.381  -1.866   1.676  0.00  0.00     0.029 A 
ATOM      9  C7A BZF d   1      -0.094  -0.902   0.741  0.00  0.00     0.058 A 
ENDROOT
TORSDOF 0
ENDMDL
