MODEL 1
REMARK minimizedAffinity -4.07122231
REMARK minimizedRMSD -1
REMARK  0 active torsions:
REMARK  status: ('A' for Active; 'I' for Inactive)
ROOT
ATOM      1  O1  BZF d   1       0.110  -1.589   1.980  0.00  0.00    -0.204 OA
ATOM      2  C2  BZF d   1       1.066  -2.529   1.647  0.00  0.00     0.174 A 
ATOM      3  C3  BZF d   1       1.695  -2.187   0.504  0.00  0.00    -0.012 A 
ATOM      4  C3A BZF d   1       1.159  -0.909   0.147  0.00  0.00    -0.107 A 
ATOM      5  C4  BZF d   1       1.398  -0.045  -0.882  0.00  0.00     0.055 A 
ATOM      6  C5  BZF d   1       0.652   1.087  -0.982  0.00  0.00    -0.016 A 
ATOM      7  C6  BZF d   1      -0.343   1.382  -0.074  0.00  0.00     0.022 A 
ATOM      8  C7  BZF d   1      -0.614   0.558   0.968  0.00  0.00     0.029 A 
ATOM      9  C7A BZF d   1       0.160  -0.570   1.089  0.00  0.00     0.058 A 
ENDROOT
TORSDOF 0
ENDMDL
