MODEL 1
REMARK minimizedAffinity -5.18745804
REMARK minimizedRMSD -1
REMARK  0 active torsions:
REMARK  status: ('A' for Active; 'I' for Inactive)
ROOT
ATOM      1  O1  BZF d   1      -0.518   3.535  -5.128  0.00  0.00    -0.204 OA
ATOM      2  C2  BZF d   1       0.189   4.575  -4.558  0.00  0.00     0.174 A 
ATOM      3  C3  BZF d   1       0.127   4.515  -3.212  0.00  0.00    -0.012 A 
ATOM      4  C3A BZF d   1      -0.591   3.312  -2.922  0.00  0.00    -0.107 A 
ATOM      5  C4  BZF d   1      -0.961   2.696  -1.761  0.00  0.00     0.055 A 
ATOM      6  C5  BZF d   1      -1.719   1.570  -1.822  0.00  0.00    -0.016 A 
ATOM      7  C6  BZF d   1      -2.129   1.036  -3.026  0.00  0.00     0.022 A 
ATOM      8  C7  BZF d   1      -1.783   1.609  -4.205  0.00  0.00     0.029 A 
ATOM      9  C7A BZF d   1      -0.989   2.728  -4.147  0.00  0.00     0.058 A 
ENDROOT
TORSDOF 0
ENDMDL
