MODEL 1
REMARK minimizedAffinity -5.42295027
REMARK minimizedRMSD -1
REMARK  0 active torsions:
REMARK  status: ('A' for Active; 'I' for Inactive)
ROOT
ATOM      1  O1  BZF d   1      -0.314   3.325  -5.408  0.00  0.00    -0.204 OA
ATOM      2  C2  BZF d   1       0.426   4.361  -4.871  0.00  0.00     0.174 A 
ATOM      3  C3  BZF d   1       0.252   4.431  -3.536  0.00  0.00    -0.012 A 
ATOM      4  C3A BZF d   1      -0.581   3.316  -3.205  0.00  0.00    -0.107 A 
ATOM      5  C4  BZF d   1      -1.091   2.840  -2.031  0.00  0.00     0.055 A 
ATOM      6  C5  BZF d   1      -1.929   1.771  -2.060  0.00  0.00    -0.016 A 
ATOM      7  C6  BZF d   1      -2.283   1.158  -3.244  0.00  0.00     0.022 A 
ATOM      8  C7  BZF d   1      -1.799   1.591  -4.433  0.00  0.00     0.029 A 
ATOM      9  C7A BZF d   1      -0.925   2.650  -4.404  0.00  0.00     0.058 A 
ENDROOT
TORSDOF 0
ENDMDL
