MODEL 1
REMARK minimizedAffinity -5.06803513
REMARK minimizedRMSD -1
REMARK  0 active torsions:
REMARK  status: ('A' for Active; 'I' for Inactive)
ROOT
ATOM      1  O1  BZF d   1      -1.017   0.739   0.280  0.00  0.00    -0.204 OA
ATOM      2  C2  BZF d   1      -0.157   1.228  -0.683  0.00  0.00     0.174 A 
ATOM      3  C3  BZF d   1       0.973   0.493  -0.734  0.00  0.00    -0.012 A 
ATOM      4  C3A BZF d   1       0.768  -0.575   0.196  0.00  0.00    -0.107 A 
ATOM      5  C4  BZF d   1       1.528  -1.643   0.581  0.00  0.00     0.055 A 
ATOM      6  C5  BZF d   1       1.068  -2.459   1.566  0.00  0.00    -0.016 A 
ATOM      7  C6  BZF d   1      -0.141  -2.234   2.190  0.00  0.00     0.022 A 
ATOM      8  C7  BZF d   1      -0.932  -1.191   1.838  0.00  0.00     0.029 A 
ATOM      9  C7A BZF d   1      -0.486  -0.384   0.821  0.00  0.00     0.058 A 
ENDROOT
TORSDOF 0
ENDMDL
