MODEL 1
REMARK minimizedAffinity -5.78655577
REMARK minimizedRMSD -1
REMARK  0 active torsions:
REMARK  status: ('A' for Active; 'I' for Inactive)
ROOT
ATOM      1  O1  BZF d   1      -2.286   1.284  -2.970  0.00  0.00    -0.204 OA
ATOM      2  C2  BZF d   1      -2.335   1.505  -1.607  0.00  0.00     0.174 A 
ATOM      3  C3  BZF d   1      -1.529   2.528  -1.259  0.00  0.00    -0.012 A 
ATOM      4  C3A BZF d   1      -1.009   3.034  -2.492  0.00  0.00    -0.107 A 
ATOM      5  C4  BZF d   1      -0.163   4.060  -2.804  0.00  0.00     0.055 A 
ATOM      6  C5  BZF d   1       0.202   4.244  -4.100  0.00  0.00    -0.016 A 
ATOM      7  C6  BZF d   1      -0.256   3.420  -5.107  0.00  0.00     0.022 A 
ATOM      8  C7  BZF d   1      -1.101   2.393  -4.848  0.00  0.00     0.029 A 
ATOM      9  C7A BZF d   1      -1.497   2.224  -3.543  0.00  0.00     0.058 A 
ENDROOT
TORSDOF 0
ENDMDL
