MODEL 1
REMARK minimizedAffinity -5.09992361
REMARK minimizedRMSD -1
REMARK  0 active torsions:
REMARK  status: ('A' for Active; 'I' for Inactive)
ROOT
ATOM      1  O1  BZF d   1      -0.728   3.149  -4.891  0.00  0.00    -0.204 OA
ATOM      2  C2  BZF d   1       0.383   3.869  -4.496  0.00  0.00     0.174 A 
ATOM      3  C3  BZF d   1       0.640   3.673  -3.187  0.00  0.00    -0.012 A 
ATOM      4  C3A BZF d   1      -0.318   2.702  -2.757  0.00  0.00    -0.107 A 
ATOM      5  C4  BZF d   1      -0.561   2.087  -1.561  0.00  0.00     0.055 A 
ATOM      6  C5  BZF d   1      -1.620   1.242  -1.456  0.00  0.00    -0.016 A 
ATOM      7  C6  BZF d   1      -2.458   0.993  -2.522  0.00  0.00     0.022 A 
ATOM      8  C7  BZF d   1      -2.255   1.574  -3.730  0.00  0.00     0.029 A 
ATOM      9  C7A BZF d   1      -1.167   2.404  -3.848  0.00  0.00     0.058 A 
ENDROOT
TORSDOF 0
ENDMDL
