MODEL 1
REMARK minimizedAffinity -2.40015125
REMARK minimizedRMSD -1
REMARK  0 active torsions:
REMARK  status: ('A' for Active; 'I' for Inactive)
ROOT
ATOM      1  O1  BZF d   1      -1.590   3.913  -4.718  0.00  0.00    -0.204 OA
ATOM      2  C2  BZF d   1      -0.387   4.556  -4.496  0.00  0.00     0.174 A 
ATOM      3  C3  BZF d   1       0.166   4.148  -3.336  0.00  0.00    -0.012 A 
ATOM      4  C3A BZF d   1      -0.702   3.122  -2.845  0.00  0.00    -0.107 A 
ATOM      5  C4  BZF d   1      -0.678   2.321  -1.739  0.00  0.00     0.055 A 
ATOM      6  C5  BZF d   1      -1.716   1.473  -1.515  0.00  0.00    -0.016 A 
ATOM      7  C6  BZF d   1      -2.795   1.403  -2.372  0.00  0.00     0.022 A 
ATOM      8  C7  BZF d   1      -2.861   2.174  -3.485  0.00  0.00     0.029 A 
ATOM      9  C7A BZF d   1      -1.798   3.009  -3.731  0.00  0.00     0.058 A 
ENDROOT
TORSDOF 0
ENDMDL
