MODEL 1
REMARK minimizedAffinity -6.32211733
REMARK minimizedRMSD -1
REMARK  0 active torsions:
REMARK  status: ('A' for Active; 'I' for Inactive)
ROOT
ATOM      1  O1  BZF d   1      -1.099   3.865  -4.816  0.00  0.00    -0.204 OA
ATOM      2  C2  BZF d   1      -0.027   4.621  -4.381  0.00  0.00     0.174 A 
ATOM      3  C3  BZF d   1       0.280   4.323  -3.102  0.00  0.00    -0.012 A 
ATOM      4  C3A BZF d   1      -0.599   3.253  -2.743  0.00  0.00    -0.107 A 
ATOM      5  C4  BZF d   1      -0.765   2.516  -1.605  0.00  0.00     0.055 A 
ATOM      6  C5  BZF d   1      -1.762   1.594  -1.555  0.00  0.00    -0.016 A 
ATOM      7  C6  BZF d   1      -2.613   1.386  -2.621  0.00  0.00     0.022 A 
ATOM      8  C7  BZF d   1      -2.483   2.089  -3.773  0.00  0.00     0.029 A 
ATOM      9  C7A BZF d   1      -1.456   2.998  -3.838  0.00  0.00     0.058 A 
ENDROOT
TORSDOF 0
ENDMDL
