MODEL 1
REMARK minimizedAffinity -4.55344868
REMARK minimizedRMSD -1
REMARK  0 active torsions:
REMARK  status: ('A' for Active; 'I' for Inactive)
ROOT
ATOM      1  O1  BZF d   1      -0.770   3.048  -5.141  0.00  0.00    -0.204 OA
ATOM      2  C2  BZF d   1       0.406   3.633  -4.713  0.00  0.00     0.174 A 
ATOM      3  C3  BZF d   1       0.490   3.609  -3.367  0.00  0.00    -0.012 A 
ATOM      4  C3A BZF d   1      -0.665   2.886  -2.930  0.00  0.00    -0.107 A 
ATOM      5  C4  BZF d   1      -1.133   2.517  -1.702  0.00  0.00     0.055 A 
ATOM      6  C5  BZF d   1      -2.330   1.881  -1.615  0.00  0.00    -0.016 A 
ATOM      7  C6  BZF d   1      -3.088   1.603  -2.734  0.00  0.00     0.022 A 
ATOM      8  C7  BZF d   1      -2.663   1.945  -3.974  0.00  0.00     0.029 A 
ATOM      9  C7A BZF d   1      -1.437   2.558  -4.068  0.00  0.00     0.058 A 
ENDROOT
TORSDOF 0
ENDMDL
