MODEL 1
REMARK minimizedAffinity -4.72012615
REMARK minimizedRMSD -1
REMARK  0 active torsions:
REMARK  status: ('A' for Active; 'I' for Inactive)
ROOT
ATOM      1  O1  BZF d   1      -0.995   3.429  -5.170  0.00  0.00    -0.204 OA
ATOM      2  C2  BZF d   1       0.198   4.071  -4.898  0.00  0.00     0.174 A 
ATOM      3  C3  BZF d   1       0.597   3.823  -3.634  0.00  0.00    -0.012 A 
ATOM      4  C3A BZF d   1      -0.362   2.898  -3.111  0.00  0.00    -0.107 A 
ATOM      5  C4  BZF d   1      -0.498   2.266  -1.908  0.00  0.00     0.055 A 
ATOM      6  C5  BZF d   1      -1.587   1.482  -1.694  0.00  0.00    -0.016 A 
ATOM      7  C6  BZF d   1      -2.561   1.313  -2.656  0.00  0.00     0.022 A 
ATOM      8  C7  BZF d   1      -2.468   1.915  -3.866  0.00  0.00     0.029 A 
ATOM      9  C7A BZF d   1      -1.352   2.682  -4.098  0.00  0.00     0.058 A 
ENDROOT
TORSDOF 0
ENDMDL
