MODEL 1
REMARK minimizedAffinity -3.94006491
REMARK minimizedRMSD -1
REMARK  0 active torsions:
REMARK  status: ('A' for Active; 'I' for Inactive)
ROOT
ATOM      1  O1  BZF d   1      -0.825   2.889  -4.647  0.00  0.00    -0.204 OA
ATOM      2  C2  BZF d   1       0.340   3.456  -4.168  0.00  0.00     0.174 A 
ATOM      3  C3  BZF d   1       0.457   3.261  -2.839  0.00  0.00    -0.012 A 
ATOM      4  C3A BZF d   1      -0.662   2.445  -2.479  0.00  0.00    -0.107 A 
ATOM      5  C4  BZF d   1      -1.087   1.903  -1.300  0.00  0.00     0.055 A 
ATOM      6  C5  BZF d   1      -2.260   1.217  -1.274  0.00  0.00    -0.016 A 
ATOM      7  C6  BZF d   1      -3.034   1.059  -2.405  0.00  0.00     0.022 A 
ATOM      8  C7  BZF d   1      -2.651   1.574  -3.598  0.00  0.00     0.029 A 
ATOM      9  C7A BZF d   1      -1.450   2.240  -3.635  0.00  0.00     0.058 A 
ENDROOT
TORSDOF 0
ENDMDL
