MODEL 1
REMARK minimizedAffinity -1.97969389
REMARK minimizedRMSD -1
REMARK  0 active torsions:
REMARK  status: ('A' for Active; 'I' for Inactive)
ROOT
ATOM      1  O1  BZF d   1      -0.578  -0.973   2.526  0.00  0.00    -0.204 OA
ATOM      2  C2  BZF d   1      -1.612  -0.138   2.149  0.00  0.00     0.174 A 
ATOM      3  C3  BZF d   1      -1.270   0.588   1.065  0.00  0.00    -0.012 A 
ATOM      4  C3A BZF d   1       0.027   0.115   0.689  0.00  0.00    -0.107 A 
ATOM      5  C4  BZF d   1       0.887   0.437  -0.321  0.00  0.00     0.055 A 
ATOM      6  C5  BZF d   1       2.108  -0.159  -0.365  0.00  0.00    -0.016 A 
ATOM      7  C6  BZF d   1       2.502  -1.077   0.587  0.00  0.00     0.022 A 
ATOM      8  C7  BZF d   1       1.680  -1.433   1.605  0.00  0.00     0.029 A 
ATOM      9  C7A BZF d   1       0.434  -0.856   1.633  0.00  0.00     0.058 A 
ENDROOT
TORSDOF 0
ENDMDL
