MODEL 1
REMARK minimizedAffinity -2.74793005
REMARK minimizedRMSD -1
REMARK  0 active torsions:
REMARK  status: ('A' for Active; 'I' for Inactive)
ROOT
ATOM      1  O1  BZF d   1      -1.035   0.700   1.927  0.00  0.00    -0.204 OA
ATOM      2  C2  BZF d   1      -1.069   1.614   0.892  0.00  0.00     0.174 A 
ATOM      3  C3  BZF d   1      -0.076   1.377   0.011  0.00  0.00    -0.012 A 
ATOM      4  C3A BZF d   1       0.567   0.188   0.479  0.00  0.00    -0.107 A 
ATOM      5  C4  BZF d   1       1.615  -0.557   0.018  0.00  0.00     0.055 A 
ATOM      6  C5  BZF d   1       2.041  -1.621   0.748  0.00  0.00    -0.016 A 
ATOM      7  C6  BZF d   1       1.446  -1.965   1.945  0.00  0.00     0.022 A 
ATOM      8  C7  BZF d   1       0.400  -1.260   2.440  0.00  0.00     0.029 A 
ATOM      9  C7A BZF d   1      -0.054  -0.204   1.688  0.00  0.00     0.058 A 
ENDROOT
TORSDOF 0
ENDMDL
