MODEL 1
REMARK minimizedAffinity -1.71460319
REMARK minimizedRMSD -1
REMARK  0 active torsions:
REMARK  status: ('A' for Active; 'I' for Inactive)
ROOT
ATOM      1  O1  BZF d   1       1.444  -1.499   1.634  0.00  0.00    -0.204 OA
ATOM      2  C2  BZF d   1       2.481  -1.519   0.721  0.00  0.00     0.174 A 
ATOM      3  C3  BZF d   1       2.184  -0.766  -0.357  0.00  0.00    -0.012 A 
ATOM      4  C3A BZF d   1       0.919  -0.168  -0.061  0.00  0.00    -0.107 A 
ATOM      5  C4  BZF d   1       0.108   0.697  -0.739  0.00  0.00     0.055 A 
ATOM      6  C5  BZF d   1      -1.097   1.029  -0.205  0.00  0.00    -0.016 A 
ATOM      7  C6  BZF d   1      -1.524   0.512   1.000  0.00  0.00     0.022 A 
ATOM      8  C7  BZF d   1      -0.753  -0.346   1.711  0.00  0.00     0.029 A 
ATOM      9  C7A BZF d   1       0.479  -0.658   1.190  0.00  0.00     0.058 A 
ENDROOT
TORSDOF 0
ENDMDL
