MODEL 1
REMARK minimizedAffinity -4.12214375
REMARK minimizedRMSD -1
REMARK  0 active torsions:
REMARK  status: ('A' for Active; 'I' for Inactive)
ROOT
ATOM      1  C   UNL d   1       3.959  -0.389  -2.052  0.00  0.00     0.172 C 
ATOM      2  N   UNL d   1       2.858  -0.073  -1.172  0.00  0.00    -0.070 N 
ATOM      3  C1  UNL d   1       2.334   1.175  -0.967  0.00  0.00    -0.004 A 
ATOM      4  C2  UNL d   1       1.302   1.055  -0.061  0.00  0.00    -0.047 A 
ATOM      5  C3  UNL d   1       1.204  -0.312   0.291  0.00  0.00    -0.047 A 
ATOM      6  C4  UNL d   1       2.179  -0.988  -0.412  0.00  0.00    -0.004 A 
ENDROOT
TORSDOF 0
ENDMDL
