MODEL 1
REMARK minimizedAffinity -3.05823612
REMARK minimizedRMSD -1
REMARK  0 active torsions:
REMARK  status: ('A' for Active; 'I' for Inactive)
ROOT
ATOM      1  C   UNL d   1       3.941  -1.239  -0.890  0.00  0.00     0.172 C 
ATOM      2  N   UNL d   1       2.626  -0.915  -0.387  0.00  0.00    -0.070 N 
ATOM      3  C1  UNL d   1       1.649  -1.819  -0.067  0.00  0.00    -0.004 A 
ATOM      4  C2  UNL d   1       0.550  -1.114   0.374  0.00  0.00    -0.047 A 
ATOM      5  C3  UNL d   1       0.878   0.261   0.316  0.00  0.00    -0.047 A 
ATOM      6  C4  UNL d   1       2.169   0.356  -0.158  0.00  0.00    -0.004 A 
ENDROOT
TORSDOF 0
ENDMDL
