MODEL 1
REMARK minimizedAffinity -4.42607594
REMARK minimizedRMSD -1
REMARK  0 active torsions:
REMARK  status: ('A' for Active; 'I' for Inactive)
ROOT
ATOM      1  C   UNL d   1       4.158  -1.012  -0.876  0.00  0.00     0.172 C 
ATOM      2  N   UNL d   1       2.823  -0.778  -0.378  0.00  0.00    -0.070 N 
ATOM      3  C1  UNL d   1       2.286   0.446  -0.076  0.00  0.00    -0.004 A 
ATOM      4  C2  UNL d   1       0.997   0.244   0.366  0.00  0.00    -0.047 A 
ATOM      5  C3  UNL d   1       0.750  -1.149   0.330  0.00  0.00    -0.047 A 
ATOM      6  C4  UNL d   1       1.897  -1.758  -0.134  0.00  0.00    -0.004 A 
ENDROOT
TORSDOF 0
ENDMDL
