MODEL 1
REMARK minimizedAffinity -0.267194778
REMARK minimizedRMSD -1
REMARK  0 active torsions:
REMARK  status: ('A' for Active; 'I' for Inactive)
ROOT
ATOM      1  C   UNL d   1       4.468  -0.746  -2.356  0.00  0.00     0.172 C 
ATOM      2  N   UNL d   1       3.287  -0.459  -1.575  0.00  0.00    -0.070 N 
ATOM      3  C1  UNL d   1       2.594  -1.363  -0.815  0.00  0.00    -0.004 A 
ATOM      4  C2  UNL d   1       1.537  -0.699  -0.230  0.00  0.00    -0.047 A 
ATOM      5  C3  UNL d   1       1.597   0.650  -0.653  0.00  0.00    -0.047 A 
ATOM      6  C4  UNL d   1       2.690   0.771  -1.485  0.00  0.00    -0.004 A 
ENDROOT
TORSDOF 0
ENDMDL
