MODEL 1
REMARK minimizedAffinity -2.72886109
REMARK minimizedRMSD -1
REMARK  0 active torsions:
REMARK  status: ('A' for Active; 'I' for Inactive)
ROOT
ATOM      1  C   UNL d   1       4.415  -0.758  -1.825  0.00  0.00     0.172 C 
ATOM      2  N   UNL d   1       3.148  -0.616  -1.147  0.00  0.00    -0.070 N 
ATOM      3  C1  UNL d   1       2.329  -1.644  -0.762  0.00  0.00    -0.004 A 
ATOM      4  C2  UNL d   1       1.223  -1.096  -0.149  0.00  0.00    -0.047 A 
ATOM      5  C3  UNL d   1       1.382   0.310  -0.167  0.00  0.00    -0.047 A 
ATOM      6  C4  UNL d   1       2.582   0.579  -0.791  0.00  0.00    -0.004 A 
ENDROOT
TORSDOF 0
ENDMDL
