MODEL 1
REMARK minimizedAffinity -2.37584758
REMARK minimizedRMSD -1
REMARK  0 active torsions:
REMARK  status: ('A' for Active; 'I' for Inactive)
ROOT
ATOM      1  C   UNL d   1       2.858   0.573  -1.482  0.00  0.00     0.172 C 
ATOM      2  N   UNL d   1       2.191  -0.091  -0.386  0.00  0.00    -0.070 N 
ATOM      3  C1  UNL d   1       2.687  -1.150   0.326  0.00  0.00    -0.004 A 
ATOM      4  C2  UNL d   1       1.754  -1.490   1.282  0.00  0.00    -0.047 A 
ATOM      5  C3  UNL d   1       0.658  -0.606   1.137  0.00  0.00    -0.047 A 
ATOM      6  C4  UNL d   1       0.956   0.250   0.098  0.00  0.00    -0.004 A 
ENDROOT
TORSDOF 0
ENDMDL
