MODEL 1
REMARK minimizedAffinity -2.25969172
REMARK minimizedRMSD -1
REMARK  0 active torsions:
REMARK  status: ('A' for Active; 'I' for Inactive)
ROOT
ATOM      1  C   UNL d   1       0.167  -0.874   1.899  0.00  0.00     0.172 C 
ATOM      2  N   UNL d   1       1.131  -0.617   0.855  0.00  0.00    -0.070 N 
ATOM      3  C1  UNL d   1       1.989  -1.538   0.317  0.00  0.00    -0.004 A 
ATOM      4  C2  UNL d   1       2.742  -0.901  -0.646  0.00  0.00    -0.047 A 
ATOM      5  C3  UNL d   1       2.322   0.450  -0.687  0.00  0.00    -0.047 A 
ATOM      6  C4  UNL d   1       1.324   0.598   0.253  0.00  0.00    -0.004 A 
ENDROOT
TORSDOF 0
ENDMDL
