MODEL 1
REMARK minimizedAffinity -1.27414012
REMARK minimizedRMSD -1
REMARK  0 active torsions:
REMARK  status: ('A' for Active; 'I' for Inactive)
ROOT
ATOM      1  C   UNL d   1       4.087  -1.271  -1.604  0.00  0.00     0.172 C 
ATOM      2  N   UNL d   1       2.991  -0.770  -0.809  0.00  0.00    -0.070 N 
ATOM      3  C1  UNL d   1       2.078  -1.535  -0.135  0.00  0.00    -0.004 A 
ATOM      4  C2  UNL d   1       1.199  -0.684   0.499  0.00  0.00    -0.047 A 
ATOM      5  C3  UNL d   1       1.597   0.640   0.193  0.00  0.00    -0.047 A 
ATOM      6  C4  UNL d   1       2.709   0.557  -0.618  0.00  0.00    -0.004 A 
ENDROOT
TORSDOF 0
ENDMDL
