MODEL 1
REMARK minimizedAffinity -2.53931665
REMARK minimizedRMSD -1
REMARK  0 active torsions:
REMARK  status: ('A' for Active; 'I' for Inactive)
ROOT
ATOM      1  C   UNL d   1       3.887  -1.247  -1.396  0.00  0.00     0.172 C 
ATOM      2  N   UNL d   1       2.713  -0.767  -0.707  0.00  0.00    -0.070 N 
ATOM      3  C1  UNL d   1       2.375   0.547  -0.524  0.00  0.00    -0.004 A 
ATOM      4  C2  UNL d   1       1.190   0.585   0.177  0.00  0.00    -0.047 A 
ATOM      5  C3  UNL d   1       0.802  -0.753   0.426  0.00  0.00    -0.047 A 
ATOM      6  C4  UNL d   1       1.763  -1.570  -0.132  0.00  0.00    -0.004 A 
ENDROOT
TORSDOF 0
ENDMDL
