MODEL 1
REMARK minimizedAffinity 0.706739008
REMARK minimizedRMSD -1
REMARK  0 active torsions:
REMARK  status: ('A' for Active; 'I' for Inactive)
ROOT
ATOM      1  C   UNL d   1       3.006  -1.807  -1.073  0.00  0.00     0.172 C 
ATOM      2  N   UNL d   1       2.085  -1.072  -0.238  0.00  0.00    -0.070 N 
ATOM      3  C1  UNL d   1       2.246   0.221   0.182  0.00  0.00    -0.004 A 
ATOM      4  C2  UNL d   1       1.155   0.553   0.956  0.00  0.00    -0.047 A 
ATOM      5  C3  UNL d   1       0.309  -0.581   1.003  0.00  0.00    -0.047 A 
ATOM      6  C4  UNL d   1       0.909  -1.572   0.255  0.00  0.00    -0.004 A 
ENDROOT
TORSDOF 0
ENDMDL
