MODEL 1
REMARK minimizedAffinity -1.40893006
REMARK minimizedRMSD -1
REMARK  0 active torsions:
REMARK  status: ('A' for Active; 'I' for Inactive)
ROOT
ATOM      1  C   UNL d   1       5.245  -0.647  -2.663  0.00  0.00     0.172 C 
ATOM      2  N   UNL d   1       4.041  -0.601  -1.868  0.00  0.00    -0.070 N 
ATOM      3  C1  UNL d   1       3.502  -1.651  -1.173  0.00  0.00    -0.004 A 
ATOM      4  C2  UNL d   1       2.360  -1.201  -0.546  0.00  0.00    -0.047 A 
ATOM      5  C3  UNL d   1       2.206   0.166  -0.877  0.00  0.00    -0.047 A 
ATOM      6  C4  UNL d   1       3.260   0.512  -1.696  0.00  0.00    -0.004 A 
ENDROOT
TORSDOF 0
ENDMDL
