MODEL 1
REMARK minimizedAffinity -2.9093709
REMARK minimizedRMSD -1
REMARK  0 active torsions:
REMARK  status: ('A' for Active; 'I' for Inactive)
ROOT
ATOM      1  C   UNL d   1       4.264  -0.810  -1.679  0.00  0.00     0.172 C 
ATOM      2  N   UNL d   1       3.069  -0.691  -0.876  0.00  0.00    -0.070 N 
ATOM      3  C1  UNL d   1       2.268   0.417  -0.798  0.00  0.00    -0.004 A 
ATOM      4  C2  UNL d   1       1.235   0.130   0.069  0.00  0.00    -0.047 A 
ATOM      5  C3  UNL d   1       1.423  -1.195   0.528  0.00  0.00    -0.047 A 
ATOM      6  C4  UNL d   1       2.566  -1.680  -0.073  0.00  0.00    -0.004 A 
ENDROOT
TORSDOF 0
ENDMDL
