MODEL 1
REMARK minimizedAffinity -2.03614879
REMARK minimizedRMSD -1
REMARK  0 active torsions:
REMARK  status: ('A' for Active; 'I' for Inactive)
ROOT
ATOM      1  C   UNL d   1       3.856  -1.003  -1.669  0.00  0.00     0.172 C 
ATOM      2  N   UNL d   1       2.747  -0.664  -0.809  0.00  0.00    -0.070 N 
ATOM      3  C1  UNL d   1       1.855   0.353  -1.020  0.00  0.00    -0.004 A 
ATOM      4  C2  UNL d   1       0.953   0.346   0.022  0.00  0.00    -0.047 A 
ATOM      5  C3  UNL d   1       1.316  -0.711   0.890  0.00  0.00    -0.047 A 
ATOM      6  C4  UNL d   1       2.430  -1.320   0.352  0.00  0.00    -0.004 A 
ENDROOT
TORSDOF 0
ENDMDL
