MODEL 1
REMARK minimizedAffinity -4.13178587
REMARK minimizedRMSD -1
REMARK  0 active torsions:
REMARK  status: ('A' for Active; 'I' for Inactive)
ROOT
ATOM      1  C   UNL d   1       4.050  -0.433  -1.824  0.00  0.00     0.172 C 
ATOM      2  N   UNL d   1       2.917  -0.599  -0.944  0.00  0.00    -0.070 N 
ATOM      3  C1  UNL d   1       2.574  -1.754  -0.293  0.00  0.00    -0.004 A 
ATOM      4  C2  UNL d   1       1.438  -1.501   0.444  0.00  0.00    -0.047 A 
ATOM      5  C3  UNL d   1       1.085  -0.147   0.228  0.00  0.00    -0.047 A 
ATOM      6  C4  UNL d   1       2.018   0.387  -0.635  0.00  0.00    -0.004 A 
ENDROOT
TORSDOF 0
ENDMDL
