MODEL 1
REMARK minimizedAffinity -1.66236937
REMARK minimizedRMSD -1
REMARK  0 active torsions:
REMARK  status: ('A' for Active; 'I' for Inactive)
ROOT
ATOM      1  C   UNL d   1       4.622  -0.492  -1.519  0.00  0.00     0.172 C 
ATOM      2  N   UNL d   1       3.387  -0.402  -0.776  0.00  0.00    -0.070 N 
ATOM      3  C1  UNL d   1       2.661  -1.463  -0.304  0.00  0.00    -0.004 A 
ATOM      4  C2  UNL d   1       1.556  -0.961   0.348  0.00  0.00    -0.047 A 
ATOM      5  C3  UNL d   1       1.620   0.451   0.265  0.00  0.00    -0.047 A 
ATOM      6  C4  UNL d   1       2.764   0.769  -0.437  0.00  0.00    -0.004 A 
ENDROOT
TORSDOF 0
ENDMDL
