MODEL 1
REMARK minimizedAffinity -3.06257844
REMARK minimizedRMSD -1
REMARK  0 active torsions:
REMARK  status: ('A' for Active; 'I' for Inactive)
ROOT
ATOM      1  C   UNL d   1       1.786  -2.337   0.454  0.00  0.00     0.172 C 
ATOM      2  N   UNL d   1       1.640  -1.008  -0.093  0.00  0.00    -0.070 N 
ATOM      3  C1  UNL d   1       0.636  -0.127   0.208  0.00  0.00    -0.004 A 
ATOM      4  C2  UNL d   1       0.854   1.025  -0.518  0.00  0.00    -0.047 A 
ATOM      5  C3  UNL d   1       2.028   0.828  -1.282  0.00  0.00    -0.047 A 
ATOM      6  C4  UNL d   1       2.494  -0.439  -1.000  0.00  0.00    -0.004 A 
ENDROOT
TORSDOF 0
ENDMDL
