MODEL 1
REMARK minimizedAffinity -2.98055124
REMARK minimizedRMSD -1
REMARK  0 active torsions:
REMARK  status: ('A' for Active; 'I' for Inactive)
ROOT
ATOM      1  C   UNL d   1       2.783   0.482  -2.055  0.00  0.00     0.172 C 
ATOM      2  N   UNL d   1       2.184  -0.082  -0.869  0.00  0.00    -0.070 N 
ATOM      3  C1  UNL d   1       2.470  -1.311  -0.336  0.00  0.00    -0.004 A 
ATOM      4  C2  UNL d   1       1.692  -1.476   0.789  0.00  0.00    -0.047 A 
ATOM      5  C3  UNL d   1       0.910  -0.306   0.938  0.00  0.00    -0.047 A 
ATOM      6  C4  UNL d   1       1.234   0.540  -0.102  0.00  0.00    -0.004 A 
ENDROOT
TORSDOF 0
ENDMDL
