MODEL 1
REMARK minimizedAffinity -3.26203513
REMARK minimizedRMSD -1
REMARK  0 active torsions:
REMARK  status: ('A' for Active; 'I' for Inactive)
ROOT
ATOM      1  C   UNL d   1       4.556  -0.500  -1.948  0.00  0.00     0.172 C 
ATOM      2  N   UNL d   1       3.306  -0.457  -1.227  0.00  0.00    -0.070 N 
ATOM      3  C1  UNL d   1       2.610  -1.544  -0.770  0.00  0.00    -0.004 A 
ATOM      4  C2  UNL d   1       1.476  -1.084  -0.136  0.00  0.00    -0.047 A 
ATOM      5  C3  UNL d   1       1.491   0.329  -0.216  0.00  0.00    -0.047 A 
ATOM      6  C4  UNL d   1       2.634   0.691  -0.896  0.00  0.00    -0.004 A 
ENDROOT
TORSDOF 0
ENDMDL
