MODEL 1
REMARK minimizedAffinity 11.9684811
REMARK minimizedRMSD -1
REMARK  0 active torsions:
REMARK  status: ('A' for Active; 'I' for Inactive)
ROOT
ATOM      1  C   UNL d   1       0.633   4.329  -1.676  0.00  0.00     0.124 A 
ATOM      2  C1  UNL d   1       0.864   4.625  -0.340  0.00  0.00     0.062 A 
ATOM      3  C2  UNL d   1       1.273   3.626   0.538  0.00  0.00     0.162 A 
ATOM      4  C3  UNL d   1       1.456   2.320   0.082  0.00  0.00    -0.034 A 
ATOM      5  C4  UNL d   1       1.221   2.030  -1.263  0.00  0.00     0.162 A 
ATOM      6  C5  UNL d   1       0.812   3.032  -2.136  0.00  0.00     0.062 A 
ATOM      7  F   UNL d   1       0.590   2.744  -3.427  0.00  0.00    -0.097 F 
ATOM      8  F1  UNL d   1       1.388   0.785  -1.734  0.00  0.00    -0.096 F 
ATOM      9  I   UNL d   1       2.069   0.824   1.392  0.00  0.00    -0.060 I 
ATOM     10  F2  UNL d   1       1.489   3.941   1.824  0.00  0.00    -0.096 F 
ATOM     11  F3  UNL d   1       0.690   5.877   0.107  0.00  0.00    -0.097 F 
ATOM     12  F4  UNL d   1       0.238   5.292  -2.519  0.00  0.00    -0.092 F 
ENDROOT
TORSDOF 0
ENDMDL
