MODEL 1
REMARK minimizedAffinity 11.1983957
REMARK minimizedRMSD -1
REMARK  0 active torsions:
REMARK  status: ('A' for Active; 'I' for Inactive)
ROOT
ATOM      1  C   UNL d   1       0.860   3.167  -0.664  0.00  0.00     0.124 A 
ATOM      2  C1  UNL d   1       1.347   2.802   0.583  0.00  0.00     0.062 A 
ATOM      3  C2  UNL d   1       1.789   1.501   0.809  0.00  0.00     0.162 A 
ATOM      4  C3  UNL d   1       1.747   0.556  -0.216  0.00  0.00    -0.034 A 
ATOM      5  C4  UNL d   1       1.256   0.931  -1.468  0.00  0.00     0.162 A 
ATOM      6  C5  UNL d   1       0.815   2.232  -1.688  0.00  0.00     0.062 A 
ATOM      7  F   UNL d   1       0.345   2.583  -2.894  0.00  0.00    -0.097 F 
ATOM      8  F1  UNL d   1       1.202   0.048  -2.476  0.00  0.00    -0.096 F 
ATOM      9  I   UNL d   1       2.407  -1.389   0.117  0.00  0.00    -0.060 I 
ATOM     10  F2  UNL d   1       2.254   1.176   2.024  0.00  0.00    -0.096 F 
ATOM     11  F3  UNL d   1       1.391   3.704   1.575  0.00  0.00    -0.097 F 
ATOM     12  F4  UNL d   1       0.435   4.419  -0.878  0.00  0.00    -0.092 F 
ENDROOT
TORSDOF 0
ENDMDL
