MODEL 1
REMARK minimizedAffinity 3.49558067
REMARK minimizedRMSD -1
REMARK  0 active torsions:
REMARK  status: ('A' for Active; 'I' for Inactive)
ROOT
ATOM      1  C   UNL d   1       1.231   0.751  -1.518  0.00  0.00     0.124 A 
ATOM      2  C1  UNL d   1       1.532   0.288  -0.244  0.00  0.00     0.062 A 
ATOM      3  C2  UNL d   1       1.563   1.170   0.832  0.00  0.00     0.162 A 
ATOM      4  C3  UNL d   1       1.290   2.525   0.640  0.00  0.00    -0.034 A 
ATOM      5  C4  UNL d   1       0.989   2.983  -0.644  0.00  0.00     0.162 A 
ATOM      6  C5  UNL d   1       0.960   2.097  -1.717  0.00  0.00     0.062 A 
ATOM      7  F   UNL d   1       0.668   2.546  -2.946  0.00  0.00    -0.097 F 
ATOM      8  F1  UNL d   1       0.721   4.279  -0.864  0.00  0.00    -0.096 F 
ATOM      9  I   UNL d   1       1.334   3.847   2.246  0.00  0.00    -0.060 I 
ATOM     10  F2  UNL d   1       1.857   0.696   2.051  0.00  0.00    -0.096 F 
ATOM     11  F3  UNL d   1       1.796  -1.012  -0.050  0.00  0.00    -0.097 F 
ATOM     12  F4  UNL d   1       1.203  -0.100  -2.552  0.00  0.00    -0.092 F 
ENDROOT
TORSDOF 0
ENDMDL
