MODEL 1
REMARK minimizedAffinity 17.1259766
REMARK minimizedRMSD -1
REMARK  0 active torsions:
REMARK  status: ('A' for Active; 'I' for Inactive)
ROOT
ATOM      1  C   UNL d   1      -3.188   3.404   1.969  0.00  0.00     0.124 A 
ATOM      2  C1  UNL d   1      -2.846   4.033   3.158  0.00  0.00     0.062 A 
ATOM      3  C2  UNL d   1      -2.630   3.282   4.310  0.00  0.00     0.162 A 
ATOM      4  C3  UNL d   1      -2.754   1.893   4.278  0.00  0.00    -0.034 A 
ATOM      5  C4  UNL d   1      -3.099   1.267   3.078  0.00  0.00     0.162 A 
ATOM      6  C5  UNL d   1      -3.315   2.022   1.930  0.00  0.00     0.062 A 
ATOM      7  F   UNL d   1      -3.645   1.413   0.782  0.00  0.00    -0.097 F 
ATOM      8  F1  UNL d   1      -3.227  -0.066   3.012  0.00  0.00    -0.096 F 
ATOM      9  I   UNL d   1      -2.432   0.766   5.998  0.00  0.00    -0.060 I 
ATOM     10  F2  UNL d   1      -2.301   3.916   5.445  0.00  0.00    -0.096 F 
ATOM     11  F3  UNL d   1      -2.725   5.367   3.198  0.00  0.00    -0.097 F 
ATOM     12  F4  UNL d   1      -3.397   4.129   0.862  0.00  0.00    -0.092 F 
ENDROOT
TORSDOF 0
ENDMDL
