MODEL 1
REMARK minimizedAffinity 2.00062418
REMARK minimizedRMSD -1
REMARK  0 active torsions:
REMARK  status: ('A' for Active; 'I' for Inactive)
ROOT
ATOM      1  C   UNL d   1       0.937   3.194  -0.682  0.00  0.00     0.124 A 
ATOM      2  C1  UNL d   1       1.018   2.728   0.622  0.00  0.00     0.062 A 
ATOM      3  C2  UNL d   1       1.107   1.361   0.873  0.00  0.00     0.162 A 
ATOM      4  C3  UNL d   1       1.116   0.451  -0.184  0.00  0.00    -0.034 A 
ATOM      5  C4  UNL d   1       1.033   0.928  -1.494  0.00  0.00     0.162 A 
ATOM      6  C5  UNL d   1       0.944   2.294  -1.739  0.00  0.00     0.062 A 
ATOM      7  F   UNL d   1       0.865   2.743  -3.000  0.00  0.00    -0.097 F 
ATOM      8  F1  UNL d   1       1.038   0.081  -2.533  0.00  0.00    -0.096 F 
ATOM      9  I   UNL d   1       1.249  -1.593   0.186  0.00  0.00    -0.060 I 
ATOM     10  F2  UNL d   1       1.185   0.939   2.143  0.00  0.00    -0.096 F 
ATOM     11  F3  UNL d   1       1.011   3.595   1.645  0.00  0.00    -0.097 F 
ATOM     12  F4  UNL d   1       0.850   4.509  -0.920  0.00  0.00    -0.092 F 
ENDROOT
TORSDOF 0
ENDMDL
