MODEL 1
REMARK minimizedAffinity 15.1852627
REMARK minimizedRMSD -1
REMARK  0 active torsions:
REMARK  status: ('A' for Active; 'I' for Inactive)
ROOT
ATOM      1  C   UNL d   1       1.593   0.869  -0.338  0.00  0.00     0.124 A 
ATOM      2  C1  UNL d   1       1.690   1.848   0.641  0.00  0.00     0.062 A 
ATOM      3  C2  UNL d   1       1.550   3.191   0.305  0.00  0.00     0.162 A 
ATOM      4  C3  UNL d   1       1.310   3.564  -1.017  0.00  0.00    -0.034 A 
ATOM      5  C4  UNL d   1       1.214   2.574  -1.997  0.00  0.00     0.162 A 
ATOM      6  C5  UNL d   1       1.355   1.233  -1.656  0.00  0.00     0.062 A 
ATOM      7  F   UNL d   1       1.261   0.289  -2.604  0.00  0.00    -0.097 F 
ATOM      8  F1  UNL d   1       0.984   2.898  -3.278  0.00  0.00    -0.096 F 
ATOM      9  I   UNL d   1       1.100   5.572  -1.524  0.00  0.00    -0.060 I 
ATOM     10  F2  UNL d   1       1.649   4.115   1.272  0.00  0.00    -0.096 F 
ATOM     11  F3  UNL d   1       1.921   1.498   1.915  0.00  0.00    -0.097 F 
ATOM     12  F4  UNL d   1       1.729  -0.423  -0.012  0.00  0.00    -0.092 F 
ENDROOT
TORSDOF 0
ENDMDL
