MODEL 1
REMARK minimizedAffinity -1.74778962
REMARK minimizedRMSD -1
REMARK  0 active torsions:
REMARK  status: ('A' for Active; 'I' for Inactive)
ROOT
ATOM      1  C   UNL d   1       1.022   3.054  -0.867  0.00  0.00     0.124 A 
ATOM      2  C1  UNL d   1       1.561   2.710   0.365  0.00  0.00     0.062 A 
ATOM      3  C2  UNL d   1       1.984   1.406   0.604  0.00  0.00     0.162 A 
ATOM      4  C3  UNL d   1       1.872   0.436  -0.392  0.00  0.00    -0.034 A 
ATOM      5  C4  UNL d   1       1.328   0.789  -1.628  0.00  0.00     0.162 A 
ATOM      6  C5  UNL d   1       0.906   2.094  -1.862  0.00  0.00     0.062 A 
ATOM      7  F   UNL d   1       0.385   2.425  -3.053  0.00  0.00    -0.097 F 
ATOM      8  F1  UNL d   1       1.205  -0.118  -2.608  0.00  0.00    -0.096 F 
ATOM      9  I   UNL d   1       2.505  -1.515  -0.039  0.00  0.00    -0.060 I 
ATOM     10  F2  UNL d   1       2.501   1.101   1.804  0.00  0.00    -0.096 F 
ATOM     11  F3  UNL d   1       1.673   3.636   1.329  0.00  0.00    -0.097 F 
ATOM     12  F4  UNL d   1       0.614   4.310  -1.094  0.00  0.00    -0.092 F 
ENDROOT
TORSDOF 0
ENDMDL
