MODEL 1
REMARK minimizedAffinity 21.1957321
REMARK minimizedRMSD -1
REMARK  0 active torsions:
REMARK  status: ('A' for Active; 'I' for Inactive)
ROOT
ATOM      1  C   UNL d   1       1.305   0.830  -1.705  0.00  0.00     0.124 A 
ATOM      2  C1  UNL d   1       1.691   0.399  -0.443  0.00  0.00     0.062 A 
ATOM      3  C2  UNL d   1       1.789   1.308   0.607  0.00  0.00     0.162 A 
ATOM      4  C3  UNL d   1       1.499   2.657   0.400  0.00  0.00    -0.034 A 
ATOM      5  C4  UNL d   1       1.113   3.082  -0.872  0.00  0.00     0.162 A 
ATOM      6  C5  UNL d   1       1.017   2.171  -1.918  0.00  0.00     0.062 A 
ATOM      7  F   UNL d   1       0.644   2.589  -3.137  0.00  0.00    -0.097 F 
ATOM      8  F1  UNL d   1       0.827   4.372  -1.106  0.00  0.00    -0.096 F 
ATOM      9  I   UNL d   1       1.645   4.018   1.968  0.00  0.00    -0.060 I 
ATOM     10  F2  UNL d   1       2.164   0.864   1.816  0.00  0.00    -0.096 F 
ATOM     11  F3  UNL d   1       1.971  -0.895  -0.235  0.00  0.00    -0.097 F 
ATOM     12  F4  UNL d   1       1.213  -0.046  -2.714  0.00  0.00    -0.092 F 
ENDROOT
TORSDOF 0
ENDMDL
