MODEL 1
REMARK minimizedAffinity 9.25401592
REMARK minimizedRMSD -1
REMARK  0 active torsions:
REMARK  status: ('A' for Active; 'I' for Inactive)
ROOT
ATOM      1  C   UNL d   1       1.153   4.709   0.052  0.00  0.00     0.124 A 
ATOM      2  C1  UNL d   1       1.147   4.312  -1.278  0.00  0.00     0.062 A 
ATOM      3  C2  UNL d   1       1.320   2.971  -1.608  0.00  0.00     0.162 A 
ATOM      4  C3  UNL d   1       1.499   2.016  -0.607  0.00  0.00    -0.034 A 
ATOM      5  C4  UNL d   1       1.505   2.424   0.728  0.00  0.00     0.162 A 
ATOM      6  C5  UNL d   1       1.332   3.765   1.054  0.00  0.00     0.062 A 
ATOM      7  F   UNL d   1       1.338   4.147   2.339  0.00  0.00    -0.097 F 
ATOM      8  F1  UNL d   1       1.674   1.532   1.716  0.00  0.00    -0.096 F 
ATOM      9  I   UNL d   1       1.757   0.010  -1.097  0.00  0.00    -0.060 I 
ATOM     10  F2  UNL d   1       1.310   2.615  -2.902  0.00  0.00    -0.096 F 
ATOM     11  F3  UNL d   1       0.976   5.222  -2.247  0.00  0.00    -0.097 F 
ATOM     12  F4  UNL d   1       0.988   6.000   0.368  0.00  0.00    -0.092 F 
ENDROOT
TORSDOF 0
ENDMDL
