MODEL 1
REMARK minimizedAffinity 11.3414984
REMARK minimizedRMSD -1
REMARK  0 active torsions:
REMARK  status: ('A' for Active; 'I' for Inactive)
ROOT
ATOM      1  C   UNL d   1       1.574   1.325   0.863  0.00  0.00     0.124 A 
ATOM      2  C1  UNL d   1       1.366   2.693   0.751  0.00  0.00     0.062 A 
ATOM      3  C2  UNL d   1       0.901   3.234  -0.445  0.00  0.00     0.162 A 
ATOM      4  C3  UNL d   1       0.641   2.407  -1.537  0.00  0.00    -0.034 A 
ATOM      5  C4  UNL d   1       0.854   1.033  -1.417  0.00  0.00     0.162 A 
ATOM      6  C5  UNL d   1       1.319   0.497  -0.220  0.00  0.00     0.062 A 
ATOM      7  F   UNL d   1       1.520  -0.825  -0.113  0.00  0.00    -0.097 F 
ATOM      8  F1  UNL d   1       0.615   0.209  -2.448  0.00  0.00    -0.096 F 
ATOM      9  I   UNL d   1      -0.054   3.212  -3.326  0.00  0.00    -0.060 I 
ATOM     10  F2  UNL d   1       0.708   4.559  -0.525  0.00  0.00    -0.096 F 
ATOM     11  F3  UNL d   1       1.613   3.496   1.796  0.00  0.00    -0.097 F 
ATOM     12  F4  UNL d   1       2.022   0.808   2.014  0.00  0.00    -0.092 F 
ENDROOT
TORSDOF 0
ENDMDL
