MODEL 1
REMARK minimizedAffinity 24.2217903
REMARK minimizedRMSD -1
REMARK  0 active torsions:
REMARK  status: ('A' for Active; 'I' for Inactive)
ROOT
ATOM      1  C   UNL d   1       0.540   2.148  -2.550  0.00  0.00     0.124 A 
ATOM      2  C1  UNL d   1       0.604   3.263  -1.726  0.00  0.00     0.062 A 
ATOM      3  C2  UNL d   1       1.105   3.150  -0.432  0.00  0.00     0.162 A 
ATOM      4  C3  UNL d   1       1.547   1.916   0.046  0.00  0.00    -0.034 A 
ATOM      5  C4  UNL d   1       1.478   0.799  -0.788  0.00  0.00     0.162 A 
ATOM      6  C5  UNL d   1       0.977   0.917  -2.080  0.00  0.00     0.062 A 
ATOM      7  F   UNL d   1       0.916  -0.161  -2.875  0.00  0.00    -0.097 F 
ATOM      8  F1  UNL d   1       1.895  -0.402  -0.361  0.00  0.00    -0.096 F 
ATOM      9  I   UNL d   1       2.296   1.742   1.980  0.00  0.00    -0.060 I 
ATOM     10  F2  UNL d   1       1.155   4.244   0.342  0.00  0.00    -0.096 F 
ATOM     11  F3  UNL d   1       0.182   4.453  -2.176  0.00  0.00    -0.097 F 
ATOM     12  F4  UNL d   1       0.057   2.260  -3.794  0.00  0.00    -0.092 F 
ENDROOT
TORSDOF 0
ENDMDL
