MODEL 1
REMARK minimizedAffinity 4.73627567
REMARK minimizedRMSD -1
REMARK  0 active torsions:
REMARK  status: ('A' for Active; 'I' for Inactive)
ROOT
ATOM      1  C   UNL d   1       0.949   2.151  -0.851  0.00  0.00     0.124 A 
ATOM      2  C1  UNL d   1       0.929   1.685   0.457  0.00  0.00     0.062 A 
ATOM      3  C2  UNL d   1       1.037   0.322   0.716  0.00  0.00     0.162 A 
ATOM      4  C3  UNL d   1       1.167  -0.586  -0.335  0.00  0.00    -0.034 A 
ATOM      5  C4  UNL d   1       1.185  -0.110  -1.647  0.00  0.00     0.162 A 
ATOM      6  C5  UNL d   1       1.077   1.253  -1.901  0.00  0.00     0.062 A 
ATOM      7  F   UNL d   1       1.096   1.701  -3.165  0.00  0.00    -0.097 F 
ATOM      8  F1  UNL d   1       1.309  -0.956  -2.681  0.00  0.00    -0.096 F 
ATOM      9  I   UNL d   1       1.330  -2.625   0.049  0.00  0.00    -0.060 I 
ATOM     10  F2  UNL d   1       1.016  -0.100   1.989  0.00  0.00    -0.096 F 
ATOM     11  F3  UNL d   1       0.805   2.551   1.473  0.00  0.00    -0.097 F 
ATOM     12  F4  UNL d   1       0.843   3.463  -1.098  0.00  0.00    -0.092 F 
ENDROOT
TORSDOF 0
ENDMDL
