MODEL 1
REMARK minimizedAffinity 5.6557498
REMARK minimizedRMSD -1
REMARK  0 active torsions:
REMARK  status: ('A' for Active; 'I' for Inactive)
ROOT
ATOM      1  C   UNL d   1       0.693   2.925  -1.216  0.00  0.00     0.124 A 
ATOM      2  C1  UNL d   1       0.982   2.528   0.082  0.00  0.00     0.062 A 
ATOM      3  C2  UNL d   1       1.328   1.206   0.349  0.00  0.00     0.162 A 
ATOM      4  C3  UNL d   1       1.388   0.272  -0.685  0.00  0.00    -0.034 A 
ATOM      5  C4  UNL d   1       1.095   0.679  -1.988  0.00  0.00     0.162 A 
ATOM      6  C5  UNL d   1       0.750   2.001  -2.249  0.00  0.00     0.062 A 
ATOM      7  F   UNL d   1       0.472   2.383  -3.504  0.00  0.00    -0.097 F 
ATOM      8  F1  UNL d   1       1.144  -0.194  -3.005  0.00  0.00    -0.096 F 
ATOM      9  I   UNL d   1       1.904  -1.705  -0.290  0.00  0.00    -0.060 I 
ATOM     10  F2  UNL d   1       1.601   0.850   1.613  0.00  0.00    -0.096 F 
ATOM     11  F3  UNL d   1       0.927   3.419   1.083  0.00  0.00    -0.097 F 
ATOM     12  F4  UNL d   1       0.360   4.197  -1.470  0.00  0.00    -0.092 F 
ENDROOT
TORSDOF 0
ENDMDL
