MODEL 1
REMARK minimizedAffinity 6.56831694
REMARK minimizedRMSD -1
REMARK  0 active torsions:
REMARK  status: ('A' for Active; 'I' for Inactive)
ROOT
ATOM      1  C   UNL d   1       0.645   2.920  -1.431  0.00  0.00     0.124 A 
ATOM      2  C1  UNL d   1       1.035   2.648  -0.127  0.00  0.00     0.062 A 
ATOM      3  C2  UNL d   1       1.589   1.413   0.195  0.00  0.00     0.162 A 
ATOM      4  C3  UNL d   1       1.757   0.439  -0.790  0.00  0.00    -0.034 A 
ATOM      5  C4  UNL d   1       1.361   0.719  -2.099  0.00  0.00     0.162 A 
ATOM      6  C5  UNL d   1       0.808   1.955  -2.415  0.00  0.00     0.062 A 
ATOM      7  F   UNL d   1       0.431   2.216  -3.676  0.00  0.00    -0.097 F 
ATOM      8  F1  UNL d   1       1.508  -0.195  -3.069  0.00  0.00    -0.096 F 
ATOM      9  I   UNL d   1       2.584  -1.410  -0.312  0.00  0.00    -0.060 I 
ATOM     10  F2  UNL d   1       1.957   1.178   1.463  0.00  0.00    -0.096 F 
ATOM     11  F3  UNL d   1       0.878   3.579   0.826  0.00  0.00    -0.097 F 
ATOM     12  F4  UNL d   1       0.111   4.109  -1.738  0.00  0.00    -0.092 F 
ENDROOT
TORSDOF 0
ENDMDL
