MODEL 1
REMARK minimizedAffinity 12.8375549
REMARK minimizedRMSD -1
REMARK  0 active torsions:
REMARK  status: ('A' for Active; 'I' for Inactive)
ROOT
ATOM      1  C   UNL d   1       1.020   1.497  -1.532  0.00  0.00     0.124 A 
ATOM      2  C1  UNL d   1       1.361   0.935  -0.310  0.00  0.00     0.062 A 
ATOM      3  C2  UNL d   1       1.600   1.750   0.793  0.00  0.00     0.162 A 
ATOM      4  C3  UNL d   1       1.497   3.137   0.679  0.00  0.00    -0.034 A 
ATOM      5  C4  UNL d   1       1.154   3.695  -0.554  0.00  0.00     0.162 A 
ATOM      6  C5  UNL d   1       0.917   2.876  -1.653  0.00  0.00     0.062 A 
ATOM      7  F   UNL d   1       0.587   3.421  -2.833  0.00  0.00    -0.097 F 
ATOM      8  F1  UNL d   1       1.047   5.024  -0.698  0.00  0.00    -0.096 F 
ATOM      9  I   UNL d   1       1.853   4.358   2.326  0.00  0.00    -0.060 I 
ATOM     10  F2  UNL d   1       1.928   1.180   1.962  0.00  0.00    -0.096 F 
ATOM     11  F3  UNL d   1       1.462  -0.396  -0.191  0.00  0.00    -0.097 F 
ATOM     12  F4  UNL d   1       0.791   0.711  -2.592  0.00  0.00    -0.092 F 
ENDROOT
TORSDOF 0
ENDMDL
