MODEL 1
REMARK minimizedAffinity 5.71457481
REMARK minimizedRMSD -1
REMARK  0 active torsions:
REMARK  status: ('A' for Active; 'I' for Inactive)
ROOT
ATOM      1  C1  BNZ d   1      -1.345  -0.420  -0.984  0.00  0.00     0.000 A 
ATOM      2  C2  BNZ d   1      -2.219  -0.069   0.010  0.00  0.00     0.000 A 
ATOM      3  C3  BNZ d   1      -1.761   0.347   1.229  0.00  0.00     0.000 A 
ATOM      4  C4  BNZ d   1      -0.434   0.374   1.465  0.00  0.00     0.000 A 
ATOM      5  C5  BNZ d   1       0.460   0.015   0.476  0.00  0.00     0.000 A 
ATOM      6  C6  BNZ d   1      -0.003  -0.366  -0.763  0.00  0.00     0.000 A 
ENDROOT
TORSDOF 0
ENDMDL
