MODEL 1
REMARK minimizedAffinity 2.62306023
REMARK minimizedRMSD -1
REMARK  0 active torsions:
REMARK  status: ('A' for Active; 'I' for Inactive)
ROOT
ATOM      1  C1  BNZ d   1      -2.893  -1.222   3.528  0.00  0.00     0.000 A 
ATOM      2  C2  BNZ d   1      -3.032  -0.218   2.607  0.00  0.00     0.000 A 
ATOM      3  C3  BNZ d   1      -1.970   0.574   2.269  0.00  0.00     0.000 A 
ATOM      4  C4  BNZ d   1      -0.783   0.388   2.881  0.00  0.00     0.000 A 
ATOM      5  C5  BNZ d   1      -0.629  -0.614   3.818  0.00  0.00     0.000 A 
ATOM      6  C6  BNZ d   1      -1.690  -1.435   4.127  0.00  0.00     0.000 A 
ENDROOT
TORSDOF 0
ENDMDL
