MODEL 1
REMARK minimizedAffinity 6.09231663
REMARK minimizedRMSD -1
REMARK  0 active torsions:
REMARK  status: ('A' for Active; 'I' for Inactive)
ROOT
ATOM      1  C1  BNZ d   1      -3.347  -1.232   2.662  0.00  0.00     0.000 A 
ATOM      2  C2  BNZ d   1      -3.284  -0.211   1.752  0.00  0.00     0.000 A 
ATOM      3  C3  BNZ d   1      -2.137   0.517   1.596  0.00  0.00     0.000 A 
ATOM      4  C4  BNZ d   1      -1.071   0.250   2.377  0.00  0.00     0.000 A 
ATOM      5  C5  BNZ d   1      -1.122  -0.771   3.305  0.00  0.00     0.000 A 
ATOM      6  C6  BNZ d   1      -2.265  -1.527   3.432  0.00  0.00     0.000 A 
ENDROOT
TORSDOF 0
ENDMDL
