MODEL 1
REMARK minimizedAffinity 0.0247994028
REMARK minimizedRMSD -1
REMARK  0 active torsions:
REMARK  status: ('A' for Active; 'I' for Inactive)
ROOT
ATOM      1  C1  BNZ d   1      -0.728   0.115   0.671  0.00  0.00     0.000 A 
ATOM      2  C2  BNZ d   1      -0.038  -0.342   1.762  0.00  0.00     0.000 A 
ATOM      3  C3  BNZ d   1      -0.592  -0.295   3.011  0.00  0.00     0.000 A 
ATOM      4  C4  BNZ d   1      -1.817   0.246   3.173  0.00  0.00     0.000 A 
ATOM      5  C5  BNZ d   1      -2.521   0.720   2.084  0.00  0.00     0.000 A 
ATOM      6  C6  BNZ d   1      -1.976   0.635   0.823  0.00  0.00     0.000 A 
ENDROOT
TORSDOF 0
ENDMDL
