MODEL 1
REMARK minimizedAffinity 3.80788994
REMARK minimizedRMSD -1
REMARK  1 active torsions:
REMARK  status: ('A' for Active; 'I' for Inactive)
REMARK    1  A    between atoms: C1_2  and  C2_3 
ROOT
ATOM      1  C2  UNL d   1       1.911   2.521   1.488  0.00  0.00    -0.077 A 
ATOM      2  C3  UNL d   1       1.299   1.835   2.547  0.00  0.00     0.002 A 
ATOM      3  C4  UNL d   1       2.017   1.542   3.707  0.00  0.00     0.002 A 
ATOM      4  C5  UNL d   1       3.349   1.934   3.822  0.00  0.00    -0.004 A 
ATOM      5  C6  UNL d   1       3.967   2.614   2.774  0.00  0.00     0.002 A 
ATOM      6  C7  UNL d   1       3.251   2.908   1.613  0.00  0.00     0.002 A 
ENDROOT
BRANCH   1   7
ATOM      7  C1  UNL d   1       1.124   2.882   0.256  0.00  0.00     0.055 C 
ATOM      8  C   UNL d   1      -0.104   3.710   0.606  0.00  0.00     0.019 C 
ENDBRANCH   1   7
TORSDOF 1
ENDMDL
