MODEL 1
REMARK minimizedAffinity 6.96905994
REMARK minimizedRMSD -1
REMARK  1 active torsions:
REMARK  status: ('A' for Active; 'I' for Inactive)
REMARK    1  A    between atoms: C1_2  and  C2_3 
ROOT
ATOM      1  C2  UNL d   1      -1.354   2.642   1.455  0.00  0.00    -0.077 A 
ATOM      2  C3  UNL d   1      -0.797   1.912   2.514  0.00  0.00     0.002 A 
ATOM      3  C4  UNL d   1       0.579   1.679   2.563  0.00  0.00     0.002 A 
ATOM      4  C5  UNL d   1       1.408   2.175   1.560  0.00  0.00    -0.004 A 
ATOM      5  C6  UNL d   1       0.863   2.901   0.501  0.00  0.00     0.002 A 
ATOM      6  C7  UNL d   1      -0.512   3.134   0.449  0.00  0.00     0.002 A 
ENDROOT
BRANCH   1   7
ATOM      7  C1  UNL d   1      -2.831   2.937   1.425  0.00  0.00     0.055 C 
ATOM      8  C   UNL d   1      -3.643   1.674   1.178  0.00  0.00     0.019 C 
ENDBRANCH   1   7
TORSDOF 1
ENDMDL
