MODEL 1
REMARK minimizedAffinity 2.7696104
REMARK minimizedRMSD -1
REMARK  1 active torsions:
REMARK  status: ('A' for Active; 'I' for Inactive)
REMARK    1  A    between atoms: C1_2  and  C2_3 
ROOT
ATOM      1  C2  UNL d   1       1.612  -1.425  -0.313  0.00  0.00    -0.077 A 
ATOM      2  C3  UNL d   1       0.394  -1.520  -1.000  0.00  0.00     0.002 A 
ATOM      3  C4  UNL d   1      -0.375  -2.682  -0.917  0.00  0.00     0.002 A 
ATOM      4  C5  UNL d   1       0.063  -3.756  -0.144  0.00  0.00    -0.004 A 
ATOM      5  C6  UNL d   1       1.274  -3.672   0.542  0.00  0.00     0.002 A 
ATOM      6  C7  UNL d   1       2.045  -2.512   0.459  0.00  0.00     0.002 A 
ENDROOT
BRANCH   1   7
ATOM      7  C1  UNL d   1       2.420  -0.155  -0.362  0.00  0.00     0.055 C 
ATOM      8  C   UNL d   1       1.668   1.004   0.277  0.00  0.00     0.019 C 
ENDBRANCH   1   7
TORSDOF 1
ENDMDL
