MODEL 1
REMARK minimizedAffinity 0.0113984179
REMARK minimizedRMSD -1
REMARK  1 active torsions:
REMARK  status: ('A' for Active; 'I' for Inactive)
REMARK    1  A    between atoms: C1_2  and  C2_3 
ROOT
ATOM      1  C2  UNL d   1       1.352   0.020  -0.313  0.00  0.00    -0.077 A 
ATOM      2  C3  UNL d   1       2.524  -0.596   0.149  0.00  0.00     0.002 A 
ATOM      3  C4  UNL d   1       2.632  -1.988   0.162  0.00  0.00     0.002 A 
ATOM      4  C5  UNL d   1       1.575  -2.775  -0.290  0.00  0.00    -0.004 A 
ATOM      5  C6  UNL d   1       0.405  -2.172  -0.750  0.00  0.00     0.002 A 
ATOM      6  C7  UNL d   1       0.295  -0.781  -0.763  0.00  0.00     0.002 A 
ENDROOT
BRANCH   1   7
ATOM      7  C1  UNL d   1       1.252   1.522  -0.374  0.00  0.00     0.055 C 
ATOM      8  C   UNL d   1       0.239   2.050   0.631  0.00  0.00     0.019 C 
ENDBRANCH   1   7
TORSDOF 1
ENDMDL
