MODEL 1
REMARK minimizedAffinity 1.55885863
REMARK minimizedRMSD -1
REMARK  1 active torsions:
REMARK  status: ('A' for Active; 'I' for Inactive)
REMARK    1  A    between atoms: C1_2  and  C2_3 
ROOT
ATOM      1  C2  UNL d   1       2.126   2.300   1.353  0.00  0.00    -0.077 A 
ATOM      2  C3  UNL d   1       3.363   2.945   1.495  0.00  0.00     0.002 A 
ATOM      3  C4  UNL d   1       4.063   2.871   2.701  0.00  0.00     0.002 A 
ATOM      4  C5  UNL d   1       3.538   2.149   3.770  0.00  0.00    -0.004 A 
ATOM      5  C6  UNL d   1       2.308   1.506   3.639  0.00  0.00     0.002 A 
ATOM      6  C7  UNL d   1       1.606   1.580   2.436  0.00  0.00     0.002 A 
ENDROOT
BRANCH   1   7
ATOM      7  C1  UNL d   1       1.392   2.338   0.038  0.00  0.00     0.055 C 
ATOM      8  C   UNL d   1       0.226   3.315   0.083  0.00  0.00     0.019 C 
ENDBRANCH   1   7
TORSDOF 1
ENDMDL
