MODEL 1
REMARK minimizedAffinity 4.21251631
REMARK minimizedRMSD -1
REMARK  1 active torsions:
REMARK  status: ('A' for Active; 'I' for Inactive)
REMARK    1  A    between atoms: C1_2  and  C2_3 
ROOT
ATOM      1  C2  UNL d   1       0.950   0.001  -0.558  0.00  0.00    -0.077 A 
ATOM      2  C3  UNL d   1      -0.003  -0.995  -0.807  0.00  0.00     0.002 A 
ATOM      3  C4  UNL d   1       0.375  -2.338  -0.857  0.00  0.00     0.002 A 
ATOM      4  C5  UNL d   1       1.706  -2.697  -0.654  0.00  0.00    -0.004 A 
ATOM      5  C6  UNL d   1       2.662  -1.713  -0.407  0.00  0.00     0.002 A 
ATOM      6  C7  UNL d   1       2.286  -0.370  -0.358  0.00  0.00     0.002 A 
ENDROOT
BRANCH   1   7
ATOM      7  C1  UNL d   1       0.536   1.446  -0.455  0.00  0.00     0.055 C 
ATOM      8  C   UNL d   1       1.526   2.248   0.378  0.00  0.00     0.019 C 
ENDBRANCH   1   7
TORSDOF 1
ENDMDL
