MODEL 1
REMARK minimizedAffinity 2.88220692
REMARK minimizedRMSD -1
REMARK  1 active torsions:
REMARK  status: ('A' for Active; 'I' for Inactive)
REMARK    1  A    between atoms: C1_2  and  C2_3 
ROOT
ATOM      1  C2  UNL d   1       1.540   0.456   0.348  0.00  0.00    -0.077 A 
ATOM      2  C3  UNL d   1       1.351   0.178   1.709  0.00  0.00     0.002 A 
ATOM      3  C4  UNL d   1       0.290   0.757   2.408  0.00  0.00     0.002 A 
ATOM      4  C5  UNL d   1      -0.592   1.613   1.754  0.00  0.00    -0.004 A 
ATOM      5  C6  UNL d   1      -0.412   1.898   0.401  0.00  0.00     0.002 A 
ATOM      6  C7  UNL d   1       0.649   1.321  -0.299  0.00  0.00     0.002 A 
ENDROOT
BRANCH   1   7
ATOM      7  C1  UNL d   1       2.655  -0.206  -0.419  0.00  0.00     0.055 C 
ATOM      8  C   UNL d   1       2.447  -1.711  -0.509  0.00  0.00     0.019 C 
ENDBRANCH   1   7
TORSDOF 1
ENDMDL
