MODEL 1
REMARK minimizedAffinity -5.34014225
REMARK minimizedRMSD -1
REMARK  1 active torsions:
REMARK  status: ('A' for Active; 'I' for Inactive)
REMARK    1  A    between atoms: C1_2  and  C2_3 
ROOT
ATOM      1  C2  UNL d   1      -0.973   0.463   1.854  0.00  0.00    -0.077 A 
ATOM      2  C3  UNL d   1       0.108   0.138   2.685  0.00  0.00     0.002 A 
ATOM      3  C4  UNL d   1       1.376  -0.077   2.143  0.00  0.00     0.002 A 
ATOM      4  C5  UNL d   1       1.577   0.036   0.769  0.00  0.00    -0.004 A 
ATOM      5  C6  UNL d   1       0.507   0.358  -0.066  0.00  0.00     0.002 A 
ATOM      6  C7  UNL d   1      -0.761   0.571   0.474  0.00  0.00     0.002 A 
ENDROOT
BRANCH   1   7
ATOM      7  C1  UNL d   1      -2.331   0.743   2.443  0.00  0.00     0.055 C 
ATOM      8  C   UNL d   1      -3.392   0.856   1.358  0.00  0.00     0.019 C 
ENDBRANCH   1   7
TORSDOF 1
ENDMDL
