MODEL 1
REMARK minimizedAffinity -3.71239257
REMARK minimizedRMSD -1
REMARK  1 active torsions:
REMARK  status: ('A' for Active; 'I' for Inactive)
REMARK    1  A    between atoms: C1_2  and  C2_3 
ROOT
ATOM      1  C2  UNL d   1      -1.311   0.514   2.058  0.00  0.00    -0.077 A 
ATOM      2  C3  UNL d   1      -1.071   0.260   0.700  0.00  0.00     0.002 A 
ATOM      3  C4  UNL d   1       0.195  -0.141   0.270  0.00  0.00     0.002 A 
ATOM      4  C5  UNL d   1       1.229  -0.296   1.191  0.00  0.00    -0.004 A 
ATOM      5  C6  UNL d   1       1.001  -0.044   2.543  0.00  0.00     0.002 A 
ATOM      6  C7  UNL d   1      -0.264   0.358   2.975  0.00  0.00     0.002 A 
ENDROOT
BRANCH   1   7
ATOM      7  C1  UNL d   1      -2.689   0.899   2.530  0.00  0.00     0.055 C 
ATOM      8  C   UNL d   1      -3.711   0.787   1.408  0.00  0.00     0.019 C 
ENDBRANCH   1   7
TORSDOF 1
ENDMDL
