MODEL 1
REMARK minimizedAffinity -3.18854618
REMARK minimizedRMSD -1
REMARK  1 active torsions:
REMARK  status: ('A' for Active; 'I' for Inactive)
REMARK    1  A    between atoms: C1_2  and  C2_3 
ROOT
ATOM      1  C2  UNL d   1      -0.817   0.403   1.928  0.00  0.00    -0.077 A 
ATOM      2  C3  UNL d   1      -0.490   0.259   0.572  0.00  0.00     0.002 A 
ATOM      3  C4  UNL d   1       0.811  -0.076   0.192  0.00  0.00     0.002 A 
ATOM      4  C5  UNL d   1       1.793  -0.274   1.160  0.00  0.00    -0.004 A 
ATOM      5  C6  UNL d   1       1.478  -0.131   2.511  0.00  0.00     0.002 A 
ATOM      6  C7  UNL d   1       0.178   0.205   2.893  0.00  0.00     0.002 A 
ENDROOT
BRANCH   1   7
ATOM      7  C1  UNL d   1      -2.231   0.716   2.343  0.00  0.00     0.055 C 
ATOM      8  C   UNL d   1      -3.188   0.621   1.163  0.00  0.00     0.019 C 
ENDBRANCH   1   7
TORSDOF 1
ENDMDL
