MODEL 1
REMARK minimizedAffinity -4.11375189
REMARK minimizedRMSD -1
REMARK  1 active torsions:
REMARK  status: ('A' for Active; 'I' for Inactive)
REMARK    1  A    between atoms: C1_2  and  C2_3 
ROOT
ATOM      1  C2  UNL d   1      -1.258   0.529   1.022  0.00  0.00    -0.077 A 
ATOM      2  C3  UNL d   1      -0.565   0.358  -0.185  0.00  0.00     0.002 A 
ATOM      3  C4  UNL d   1       0.801   0.070  -0.180  0.00  0.00     0.002 A 
ATOM      4  C5  UNL d   1       1.485  -0.052   1.028  0.00  0.00    -0.004 A 
ATOM      5  C6  UNL d   1       0.805   0.118   2.233  0.00  0.00     0.002 A 
ATOM      6  C7  UNL d   1      -0.560   0.406   2.230  0.00  0.00     0.002 A 
ENDROOT
BRANCH   1   7
ATOM      7  C1  UNL d   1      -2.742   0.790   1.020  0.00  0.00     0.055 C 
ATOM      8  C   UNL d   1      -3.218   1.287   2.377  0.00  0.00     0.019 C 
ENDBRANCH   1   7
TORSDOF 1
ENDMDL
