MODEL 1
REMARK minimizedAffinity -2.65717602
REMARK minimizedRMSD -1
REMARK  1 active torsions:
REMARK  status: ('A' for Active; 'I' for Inactive)
REMARK    1  A    between atoms: C1_2  and  C2_3 
ROOT
ATOM      1  C2  UNL d   1      -0.185   0.402   0.516  0.00  0.00    -0.077 A 
ATOM      2  C3  UNL d   1       0.099   0.567   1.879  0.00  0.00     0.002 A 
ATOM      3  C4  UNL d   1      -0.920   0.883   2.780  0.00  0.00     0.002 A 
ATOM      4  C5  UNL d   1      -2.230   1.031   2.329  0.00  0.00    -0.004 A 
ATOM      5  C6  UNL d   1      -2.522   0.870   0.975  0.00  0.00     0.002 A 
ATOM      6  C7  UNL d   1      -1.505   0.556   0.073  0.00  0.00     0.002 A 
ENDROOT
BRANCH   1   7
ATOM      7  C1  UNL d   1       0.904   0.013  -0.449  0.00  0.00     0.055 C 
ATOM      8  C   UNL d   1       0.331  -0.652  -1.692  0.00  0.00     0.019 C 
ENDBRANCH   1   7
TORSDOF 1
ENDMDL
