MODEL 1
REMARK minimizedAffinity -5.0038867
REMARK minimizedRMSD -1
REMARK  1 active torsions:
REMARK  status: ('A' for Active; 'I' for Inactive)
REMARK    1  A    between atoms: C1_2  and  C2_3 
ROOT
ATOM      1  C2  UNL d   1       1.368  -0.933  -1.751  0.00  0.00    -0.077 A 
ATOM      2  C3  UNL d   1       2.094  -1.304  -0.610  0.00  0.00     0.002 A 
ATOM      3  C4  UNL d   1       1.767  -0.772   0.638  0.00  0.00     0.002 A 
ATOM      4  C5  UNL d   1       0.712   0.130   0.759  0.00  0.00    -0.004 A 
ATOM      5  C6  UNL d   1      -0.015   0.507  -0.370  0.00  0.00     0.002 A 
ATOM      6  C7  UNL d   1       0.311  -0.023  -1.619  0.00  0.00     0.002 A 
ENDROOT
BRANCH   1   7
ATOM      7  C1  UNL d   1       1.687  -1.543  -3.091  0.00  0.00     0.055 C 
ATOM      8  C   UNL d   1       0.599  -1.239  -4.111  0.00  0.00     0.019 C 
ENDBRANCH   1   7
TORSDOF 1
ENDMDL
