MODEL 1
REMARK minimizedAffinity -1.04909468
REMARK minimizedRMSD -1
REMARK  1 active torsions:
REMARK  status: ('A' for Active; 'I' for Inactive)
REMARK    1  A    between atoms: C1_2  and  C2_3 
ROOT
ATOM      1  C2  UNL d   1       0.365  -0.056  -1.182  0.00  0.00    -0.077 A 
ATOM      2  C3  UNL d   1       1.496  -0.137  -0.357  0.00  0.00     0.002 A 
ATOM      3  C4  UNL d   1       1.386   0.087   1.016  0.00  0.00     0.002 A 
ATOM      4  C5  UNL d   1       0.147   0.389   1.578  0.00  0.00    -0.004 A 
ATOM      5  C6  UNL d   1      -0.983   0.474   0.766  0.00  0.00     0.002 A 
ATOM      6  C7  UNL d   1      -0.875   0.252  -0.607  0.00  0.00     0.002 A 
ENDROOT
BRANCH   1   7
ATOM      7  C1  UNL d   1       0.472  -0.346  -2.656  0.00  0.00     0.055 C 
ATOM      8  C   UNL d   1       1.919  -0.301  -3.125  0.00  0.00     0.019 C 
ENDBRANCH   1   7
TORSDOF 1
ENDMDL
