MODEL 1
REMARK minimizedAffinity -4.85815907
REMARK minimizedRMSD -1
REMARK  1 active torsions:
REMARK  status: ('A' for Active; 'I' for Inactive)
REMARK    1  A    between atoms: C1_2  and  C2_3 
ROOT
ATOM      1  C2  UNL d   1      -0.946   0.403   1.808  0.00  0.00    -0.077 A 
ATOM      2  C3  UNL d   1       0.070   0.059   2.710  0.00  0.00     0.002 A 
ATOM      3  C4  UNL d   1       1.379  -0.128   2.261  0.00  0.00     0.002 A 
ATOM      4  C5  UNL d   1       1.684   0.031   0.911  0.00  0.00    -0.004 A 
ATOM      5  C6  UNL d   1       0.679   0.371   0.006  0.00  0.00     0.002 A 
ATOM      6  C7  UNL d   1      -0.630   0.557   0.453  0.00  0.00     0.002 A 
ENDROOT
BRANCH   1   7
ATOM      7  C1  UNL d   1      -2.349   0.653   2.298  0.00  0.00     0.055 C 
ATOM      8  C   UNL d   1      -3.310   0.868   1.138  0.00  0.00     0.019 C 
ENDBRANCH   1   7
TORSDOF 1
ENDMDL
