MODEL 1
REMARK minimizedAffinity -2.23209834
REMARK minimizedRMSD -1
REMARK  1 active torsions:
REMARK  status: ('A' for Active; 'I' for Inactive)
REMARK    1  A    between atoms: C1_2  and  C2_3 
ROOT
ATOM      1  C2  UNL d   1       0.095   0.277  -0.125  0.00  0.00    -0.077 A 
ATOM      2  C3  UNL d   1      -1.299   0.324   0.016  0.00  0.00     0.002 A 
ATOM      3  C4  UNL d   1      -1.880   0.339   1.285  0.00  0.00     0.002 A 
ATOM      4  C5  UNL d   1      -1.075   0.311   2.422  0.00  0.00    -0.004 A 
ATOM      5  C6  UNL d   1       0.312   0.262   2.292  0.00  0.00     0.002 A 
ATOM      6  C7  UNL d   1       0.895   0.246   1.024  0.00  0.00     0.002 A 
ENDROOT
BRANCH   1   7
ATOM      7  C1  UNL d   1       0.725   0.311  -1.493  0.00  0.00     0.055 C 
ATOM      8  C   UNL d   1       0.947  -1.094  -2.035  0.00  0.00     0.019 C 
ENDBRANCH   1   7
TORSDOF 1
ENDMDL
