MODEL 1
REMARK minimizedAffinity -4.96975231
REMARK minimizedRMSD -1
REMARK  1 active torsions:
REMARK  status: ('A' for Active; 'I' for Inactive)
REMARK    1  A    between atoms: C1_2  and  C2_3 
ROOT
ATOM      1  C2  UNL d   1       0.757  -0.242   0.720  0.00  0.00    -0.077 A 
ATOM      2  C3  UNL d   1       1.215  -1.435   0.143  0.00  0.00     0.002 A 
ATOM      3  C4  UNL d   1       1.062  -1.661  -1.226  0.00  0.00     0.002 A 
ATOM      4  C5  UNL d   1       0.455  -0.698  -2.030  0.00  0.00    -0.004 A 
ATOM      5  C6  UNL d   1      -0.006   0.491  -1.464  0.00  0.00     0.002 A 
ATOM      6  C7  UNL d   1       0.145   0.718  -0.096  0.00  0.00     0.002 A 
ENDROOT
BRANCH   1   7
ATOM      7  C1  UNL d   1       0.965   0.024   2.188  0.00  0.00     0.055 C 
ATOM      8  C   UNL d   1      -0.168   0.860   2.765  0.00  0.00     0.019 C 
ENDBRANCH   1   7
TORSDOF 1
ENDMDL
