MODEL 1
REMARK minimizedAffinity -2.64910603
REMARK minimizedRMSD -1
REMARK  1 active torsions:
REMARK  status: ('A' for Active; 'I' for Inactive)
REMARK    1  A    between atoms: C1_2  and  C2_3 
ROOT
ATOM      1  C2  UNL d   1       0.889  -0.224  -0.808  0.00  0.00    -0.077 A 
ATOM      2  C3  UNL d   1       0.697   0.956  -0.076  0.00  0.00     0.002 A 
ATOM      3  C4  UNL d   1       0.767   0.942   1.319  0.00  0.00     0.002 A 
ATOM      4  C5  UNL d   1       1.032  -0.249   1.992  0.00  0.00    -0.004 A 
ATOM      5  C6  UNL d   1       1.223  -1.428   1.274  0.00  0.00     0.002 A 
ATOM      6  C7  UNL d   1       1.152  -1.416  -0.120  0.00  0.00     0.002 A 
ENDROOT
BRANCH   1   7
ATOM      7  C1  UNL d   1       0.863  -0.202  -2.314  0.00  0.00     0.055 C 
ATOM      8  C   UNL d   1       1.157  -1.577  -2.893  0.00  0.00     0.019 C 
ENDBRANCH   1   7
TORSDOF 1
ENDMDL
