MODEL 1
REMARK minimizedAffinity 5.82776213
REMARK minimizedRMSD -1
REMARK  0 active torsions:
REMARK  status: ('A' for Active; 'I' for Inactive)
ROOT
ATOM      1  C1  BNZ d   1      -4.153  -0.240   2.516  0.00  0.00     0.000 A 
ATOM      2  C2  BNZ d   1      -5.089   0.269   3.377  0.00  0.00     0.000 A 
ATOM      3  C3  BNZ d   1      -5.999  -0.550   3.984  0.00  0.00     0.000 A 
ATOM      4  C4  BNZ d   1      -6.000  -1.868   3.699  0.00  0.00     0.000 A 
ATOM      5  C5  BNZ d   1      -5.069  -2.395   2.825  0.00  0.00     0.000 A 
ATOM      6  C6  BNZ d   1      -4.129  -1.573   2.246  0.00  0.00     0.000 A 
ENDROOT
TORSDOF 0
ENDMDL
