MODEL 1
REMARK minimizedAffinity -3.61074567
REMARK minimizedRMSD -1
REMARK  0 active torsions:
REMARK  status: ('A' for Active; 'I' for Inactive)
ROOT
ATOM      1  C1  BNZ d   1       0.484   4.836  -1.026  0.00  0.00     0.000 A 
ATOM      2  C2  BNZ d   1       0.828   4.935   0.296  0.00  0.00     0.000 A 
ATOM      3  C3  BNZ d   1       0.820   3.835   1.106  0.00  0.00     0.000 A 
ATOM      4  C4  BNZ d   1       0.430   2.645   0.605  0.00  0.00     0.000 A 
ATOM      5  C5  BNZ d   1       0.071   2.530  -0.724  0.00  0.00     0.000 A 
ATOM      6  C6  BNZ d   1       0.118   3.633  -1.546  0.00  0.00     0.000 A 
ENDROOT
TORSDOF 0
ENDMDL
