MODEL 1
REMARK minimizedAffinity -2.07454777
REMARK minimizedRMSD -1
REMARK  0 active torsions:
REMARK  status: ('A' for Active; 'I' for Inactive)
ROOT
ATOM      1  C1  BNZ d   1       0.345   2.737   1.208  0.00  0.00     0.000 A 
ATOM      2  C2  BNZ d   1       0.560   4.032   0.819  0.00  0.00     0.000 A 
ATOM      3  C3  BNZ d   1       0.499   4.387  -0.499  0.00  0.00     0.000 A 
ATOM      4  C4  BNZ d   1       0.264   3.440  -1.430  0.00  0.00     0.000 A 
ATOM      5  C5  BNZ d   1       0.054   2.128  -1.055  0.00  0.00     0.000 A 
ATOM      6  C6  BNZ d   1       0.078   1.781   0.276  0.00  0.00     0.000 A 
ENDROOT
TORSDOF 0
ENDMDL
