MODEL 1
REMARK minimizedAffinity -0.124122679
REMARK minimizedRMSD -1
REMARK  0 active torsions:
REMARK  status: ('A' for Active; 'I' for Inactive)
ROOT
ATOM      1  C1  BNZ d   1      -0.023   2.068  -1.042  0.00  0.00     0.000 A 
ATOM      2  C2  BNZ d   1       0.282   3.330  -1.477  0.00  0.00     0.000 A 
ATOM      3  C3  BNZ d   1       0.803   4.259  -0.619  0.00  0.00     0.000 A 
ATOM      4  C4  BNZ d   1       0.980   3.937   0.678  0.00  0.00     0.000 A 
ATOM      5  C5  BNZ d   1       0.669   2.672   1.134  0.00  0.00     0.000 A 
ATOM      6  C6  BNZ d   1       0.182   1.727   0.259  0.00  0.00     0.000 A 
ENDROOT
TORSDOF 0
ENDMDL
