MODEL 1
REMARK minimizedAffinity -2.64734149
REMARK minimizedRMSD -1
REMARK  0 active torsions:
REMARK  status: ('A' for Active; 'I' for Inactive)
ROOT
ATOM      1  C1  BNZ d   1      -0.489   4.049  -0.237  0.00  0.00     0.000 A 
ATOM      2  C2  BNZ d   1      -0.988   3.375   0.846  0.00  0.00     0.000 A 
ATOM      3  C3  BNZ d   1      -0.705   2.052   1.038  0.00  0.00     0.000 A 
ATOM      4  C4  BNZ d   1       0.042   1.394   0.128  0.00  0.00     0.000 A 
ATOM      5  C5  BNZ d   1       0.545   2.057  -0.974  0.00  0.00     0.000 A 
ATOM      6  C6  BNZ d   1       0.290   3.399  -1.144  0.00  0.00     0.000 A 
ENDROOT
TORSDOF 0
ENDMDL
