MODEL 1
REMARK minimizedAffinity 1.97369695
REMARK minimizedRMSD -1
REMARK  0 active torsions:
REMARK  status: ('A' for Active; 'I' for Inactive)
ROOT
ATOM      1  C1  BNZ d   1       1.012   2.894  -0.375  0.00  0.00     0.000 A 
ATOM      2  C2  BNZ d   1       0.851   2.218   0.805  0.00  0.00     0.000 A 
ATOM      3  C3  BNZ d   1      -0.277   1.483   1.042  0.00  0.00     0.000 A 
ATOM      4  C4  BNZ d   1      -1.258   1.456   0.116  0.00  0.00     0.000 A 
ATOM      5  C5  BNZ d   1      -1.114   2.140  -1.074  0.00  0.00     0.000 A 
ATOM      6  C6  BNZ d   1       0.039   2.848  -1.325  0.00  0.00     0.000 A 
ENDROOT
TORSDOF 0
ENDMDL
