MODEL 1
REMARK minimizedAffinity 4.9931941
REMARK minimizedRMSD -1
REMARK  0 active torsions:
REMARK  status: ('A' for Active; 'I' for Inactive)
ROOT
ATOM      1  C1  BNZ d   1      -0.426   5.998  -1.047  0.00  0.00     0.000 A 
ATOM      2  C2  BNZ d   1      -0.206   5.056  -0.077  0.00  0.00     0.000 A 
ATOM      3  C3  BNZ d   1       0.453   3.894  -0.368  0.00  0.00     0.000 A 
ATOM      4  C4  BNZ d   1       0.855   3.659  -1.633  0.00  0.00     0.000 A 
ATOM      5  C5  BNZ d   1       0.632   4.595  -2.623  0.00  0.00     0.000 A 
ATOM      6  C6  BNZ d   1       0.003   5.780  -2.319  0.00  0.00     0.000 A 
ENDROOT
TORSDOF 0
ENDMDL
