MODEL 1
REMARK minimizedAffinity -0.269821674
REMARK minimizedRMSD -1
REMARK  0 active torsions:
REMARK  status: ('A' for Active; 'I' for Inactive)
ROOT
ATOM      1  C1  BNZ d   1       5.995  -3.345  -2.935  0.00  0.00     0.000 A 
ATOM      2  C2  BNZ d   1       5.189  -2.332  -2.487  0.00  0.00     0.000 A 
ATOM      3  C3  BNZ d   1       4.376  -1.651  -3.349  0.00  0.00     0.000 A 
ATOM      4  C4  BNZ d   1       4.398  -1.957  -4.662  0.00  0.00     0.000 A 
ATOM      5  C5  BNZ d   1       5.211  -2.969  -5.131  0.00  0.00     0.000 A 
ATOM      6  C6  BNZ d   1       6.000  -3.678  -4.254  0.00  0.00     0.000 A 
ENDROOT
TORSDOF 0
ENDMDL
