MODEL 1
REMARK minimizedAffinity -1.34531856
REMARK minimizedRMSD -1
REMARK  0 active torsions:
REMARK  status: ('A' for Active; 'I' for Inactive)
ROOT
ATOM      1  C1  BNZ d   1       1.156  -1.077   1.902  0.00  0.00     0.000 A 
ATOM      2  C2  BNZ d   1       1.862  -0.052   1.331  0.00  0.00     0.000 A 
ATOM      3  C3  BNZ d   1       1.220   1.038   0.814  0.00  0.00     0.000 A 
ATOM      4  C4  BNZ d   1      -0.128   1.084   0.833  0.00  0.00     0.000 A 
ATOM      5  C5  BNZ d   1      -0.855   0.055   1.397  0.00  0.00     0.000 A 
ATOM      6  C6  BNZ d   1      -0.203  -1.023   1.951  0.00  0.00     0.000 A 
ENDROOT
TORSDOF 0
ENDMDL
