MODEL 1
REMARK minimizedAffinity 1.14806807
REMARK minimizedRMSD -1
REMARK  0 active torsions:
REMARK  status: ('A' for Active; 'I' for Inactive)
ROOT
ATOM      1  C1  BNZ d   1      -1.148  -0.307   2.083  0.00  0.00     0.000 A 
ATOM      2  C2  BNZ d   1      -1.827   0.650   1.378  0.00  0.00     0.000 A 
ATOM      3  C3  BNZ d   1      -1.166   1.707   0.816  0.00  0.00     0.000 A 
ATOM      4  C4  BNZ d   1       0.165   1.826   0.993  0.00  0.00     0.000 A 
ATOM      5  C5  BNZ d   1       0.863   0.874   1.709  0.00  0.00     0.000 A 
ATOM      6  C6  BNZ d   1       0.200  -0.209   2.240  0.00  0.00     0.000 A 
ENDROOT
TORSDOF 0
ENDMDL
