MODEL 1
REMARK minimizedAffinity -1.1197381
REMARK minimizedRMSD -1
REMARK  0 active torsions:
REMARK  status: ('A' for Active; 'I' for Inactive)
ROOT
ATOM      1  C1  BNZ d   1      -0.039   1.490   1.023  0.00  0.00     0.000 A 
ATOM      2  C2  BNZ d   1      -0.994   1.433   0.043  0.00  0.00     0.000 A 
ATOM      3  C3  BNZ d   1      -0.851   2.143  -1.116  0.00  0.00     0.000 A 
ATOM      4  C4  BNZ d   1       0.226   2.940  -1.277  0.00  0.00     0.000 A 
ATOM      5  C5  BNZ d   1       1.193   3.015  -0.295  0.00  0.00     0.000 A 
ATOM      6  C6  BNZ d   1       1.065   2.269   0.854  0.00  0.00     0.000 A 
ENDROOT
TORSDOF 0
ENDMDL
