MODEL 1
REMARK minimizedAffinity 7.77896261
REMARK minimizedRMSD -1
REMARK  0 active torsions:
REMARK  status: ('A' for Active; 'I' for Inactive)
ROOT
ATOM      1  C4' PXY d   1      -1.730  -4.185   4.454  0.00  0.00     0.077 C 
ATOM      2  C1' PXY d   1      -3.818   0.980   5.996  0.00  0.00     0.077 C 
ATOM      3  C1  PXY d   1      -3.258  -0.370   5.593  0.00  0.00    -0.082 A 
ATOM      4  C2  PXY d   1      -3.990  -1.187   4.852  0.00  0.00     0.003 A 
ATOM      5  C3  PXY d   1      -3.511  -2.424   4.505  0.00  0.00     0.003 A 
ATOM      6  C4  PXY d   1      -2.251  -2.809   4.876  0.00  0.00    -0.082 A 
ATOM      7  C5  PXY d   1      -1.495  -1.977   5.624  0.00  0.00     0.003 A 
ATOM      8  C6  PXY d   1      -2.014  -0.742   6.000  0.00  0.00     0.003 A 
ENDROOT
TORSDOF 0
ENDMDL
