MODEL 1
REMARK minimizedAffinity 16.859621
REMARK minimizedRMSD -1
REMARK  0 active torsions:
REMARK  status: ('A' for Active; 'I' for Inactive)
ROOT
ATOM      1  C4' PXY d   1       4.971   4.367   0.510  0.00  0.00     0.077 C 
ATOM      2  C1' PXY d   1       2.330  -0.414  -1.383  0.00  0.00     0.077 C 
ATOM      3  C1  PXY d   1       3.028   0.833  -0.876  0.00  0.00    -0.082 A 
ATOM      4  C2  PXY d   1       2.541   2.025  -1.182  0.00  0.00     0.003 A 
ATOM      5  C3  PXY d   1       3.177   3.164  -0.759  0.00  0.00     0.003 A 
ATOM      6  C4  PXY d   1       4.294   3.081   0.029  0.00  0.00    -0.082 A 
ATOM      7  C5  PXY d   1       4.791   1.869   0.353  0.00  0.00     0.003 A 
ATOM      8  C6  PXY d   1       4.154   0.726  -0.120  0.00  0.00     0.003 A 
ENDROOT
TORSDOF 0
ENDMDL
