MODEL 1
REMARK minimizedAffinity 12.9626808
REMARK minimizedRMSD -1
REMARK  0 active torsions:
REMARK  status: ('A' for Active; 'I' for Inactive)
ROOT
ATOM      1  C4' PXY d   1       4.815   5.592   1.801  0.00  0.00     0.077 C 
ATOM      2  C1' PXY d   1       2.664   1.166  -1.232  0.00  0.00     0.077 C 
ATOM      3  C1  PXY d   1       3.235   2.330  -0.447  0.00  0.00    -0.082 A 
ATOM      4  C2  PXY d   1       3.246   2.285   0.876  0.00  0.00     0.003 A 
ATOM      5  C3  PXY d   1       3.729   3.343   1.602  0.00  0.00     0.003 A 
ATOM      6  C4  PXY d   1       4.256   4.436   0.967  0.00  0.00    -0.082 A 
ATOM      7  C5  PXY d   1       4.259   4.484  -0.382  0.00  0.00     0.003 A 
ATOM      8  C6  PXY d   1       3.726   3.418  -1.100  0.00  0.00     0.003 A 
ENDROOT
TORSDOF 0
ENDMDL
