MODEL 1
REMARK minimizedAffinity 3.73181391
REMARK minimizedRMSD -1
REMARK  0 active torsions:
REMARK  status: ('A' for Active; 'I' for Inactive)
ROOT
ATOM      1  C4' PXY d   1      -6.000   5.998  -1.436  0.00  0.00     0.077 C 
ATOM      2  C1' PXY d   1      -2.925   2.396   1.879  0.00  0.00     0.077 C 
ATOM      3  C1  PXY d   1      -3.742   3.333   1.012  0.00  0.00    -0.082 A 
ATOM      4  C2  PXY d   1      -3.130   4.112   0.134  0.00  0.00     0.003 A 
ATOM      5  C3  PXY d   1      -3.851   4.988  -0.637  0.00  0.00     0.003 A 
ATOM      6  C4  PXY d   1      -5.216   5.030  -0.545  0.00  0.00    -0.082 A 
ATOM      7  C5  PXY d   1      -5.848   4.231   0.340  0.00  0.00     0.003 A 
ATOM      8  C6  PXY d   1      -5.095   3.378   1.142  0.00  0.00     0.003 A 
ENDROOT
TORSDOF 0
ENDMDL
