MODEL 1
REMARK minimizedAffinity 12.7174139
REMARK minimizedRMSD -1
REMARK  0 active torsions:
REMARK  status: ('A' for Active; 'I' for Inactive)
ROOT
ATOM      1  C4' PXY d   1       2.570   2.244  -1.222  0.00  0.00     0.077 C 
ATOM      2  C1' PXY d   1      -0.089  -2.381  -3.449  0.00  0.00     0.077 C 
ATOM      3  C1  PXY d   1       0.619  -1.175  -2.863  0.00  0.00    -0.082 A 
ATOM      4  C2  PXY d   1      -0.091  -0.196  -2.326  0.00  0.00     0.003 A 
ATOM      5  C3  PXY d   1       0.531   0.916  -1.821  0.00  0.00     0.003 A 
ATOM      6  C4  PXY d   1       1.898   1.003  -1.816  0.00  0.00    -0.082 A 
ATOM      7  C5  PXY d   1       2.630   0.004  -2.352  0.00  0.00     0.003 A 
ATOM      8  C6  PXY d   1       1.977  -1.098  -2.897  0.00  0.00     0.003 A 
ENDROOT
TORSDOF 0
ENDMDL
