MODEL 1
REMARK minimizedAffinity 15.0014791
REMARK minimizedRMSD -1
REMARK  0 active torsions:
REMARK  status: ('A' for Active; 'I' for Inactive)
ROOT
ATOM      1  C4' PXY d   1      -4.445   1.551   5.999  0.00  0.00     0.077 C 
ATOM      2  C1' PXY d   1      -1.343  -2.947   4.113  0.00  0.00     0.077 C 
ATOM      3  C1  PXY d   1      -2.163  -1.768   4.596  0.00  0.00    -0.082 A 
ATOM      4  C2  PXY d   1      -1.663  -0.955   5.513  0.00  0.00     0.003 A 
ATOM      5  C3  PXY d   1      -2.404   0.098   5.985  0.00  0.00     0.003 A 
ATOM      6  C4  PXY d   1      -3.649   0.353   5.474  0.00  0.00    -0.082 A 
ATOM      7  C5  PXY d   1      -4.162  -0.465   4.531  0.00  0.00     0.003 A 
ATOM      8  C6  PXY d   1      -3.410  -1.553   4.095  0.00  0.00     0.003 A 
ENDROOT
TORSDOF 0
ENDMDL
