MODEL 1
REMARK minimizedAffinity 8.50835514
REMARK minimizedRMSD -1
REMARK  0 active torsions:
REMARK  status: ('A' for Active; 'I' for Inactive)
ROOT
ATOM      1  C4' PXY d   1       6.000   0.914  -4.135  0.00  0.00     0.077 C 
ATOM      2  C1' PXY d   1       0.958  -0.363  -1.612  0.00  0.00     0.077 C 
ATOM      3  C1  PXY d   1       2.286  -0.039  -2.267  0.00  0.00    -0.082 A 
ATOM      4  C2  PXY d   1       2.536   1.200  -2.660  0.00  0.00     0.003 A 
ATOM      5  C3  PXY d   1       3.719   1.504  -3.284  0.00  0.00     0.003 A 
ATOM      6  C4  PXY d   1       4.677   0.542  -3.460  0.00  0.00    -0.082 A 
ATOM      7  C5  PXY d   1       4.433  -0.722  -3.052  0.00  0.00     0.003 A 
ATOM      8  C6  PXY d   1       3.210  -1.019  -2.458  0.00  0.00     0.003 A 
ENDROOT
TORSDOF 0
ENDMDL
