MODEL 1
REMARK minimizedAffinity 7.29779625
REMARK minimizedRMSD -1
REMARK  0 active torsions:
REMARK  status: ('A' for Active; 'I' for Inactive)
ROOT
ATOM      1  C4' PXY d   1      -5.958   2.497   6.000  0.00  0.00     0.077 C 
ATOM      2  C1' PXY d   1      -2.309  -1.852   4.910  0.00  0.00     0.077 C 
ATOM      3  C1  PXY d   1      -3.258  -0.707   5.205  0.00  0.00    -0.082 A 
ATOM      4  C2  PXY d   1      -4.549  -0.845   4.951  0.00  0.00     0.003 A 
ATOM      5  C3  PXY d   1      -5.416   0.192   5.181  0.00  0.00     0.003 A 
ATOM      6  C4  PXY d   1      -4.965   1.364   5.727  0.00  0.00    -0.082 A 
ATOM      7  C5  PXY d   1      -3.651   1.509   5.999  0.00  0.00     0.003 A 
ATOM      8  C6  PXY d   1      -2.781   0.459   5.719  0.00  0.00     0.003 A 
ENDROOT
TORSDOF 0
ENDMDL
