MODEL 1
REMARK minimizedAffinity 10.4029713
REMARK minimizedRMSD -1
REMARK  0 active torsions:
REMARK  status: ('A' for Active; 'I' for Inactive)
ROOT
ATOM      1  C4' PXY d   1       3.475   2.859  -0.383  0.00  0.00     0.077 C 
ATOM      2  C1' PXY d   1      -0.123  -0.465  -3.451  0.00  0.00     0.077 C 
ATOM      3  C1  PXY d   1       0.820   0.416  -2.656  0.00  0.00    -0.082 A 
ATOM      4  C2  PXY d   1       1.651  -0.134  -1.786  0.00  0.00     0.003 A 
ATOM      5  C3  PXY d   1       2.488   0.651  -1.035  0.00  0.00     0.003 A 
ATOM      6  C4  PXY d   1       2.512   2.008  -1.214  0.00  0.00    -0.082 A 
ATOM      7  C5  PXY d   1       1.675   2.575  -2.108  0.00  0.00     0.003 A 
ATOM      8  C6  PXY d   1       0.804   1.765  -2.831  0.00  0.00     0.003 A 
ENDROOT
TORSDOF 0
ENDMDL
