MODEL 1
REMARK minimizedAffinity 5.28158808
REMARK minimizedRMSD -1
REMARK  0 active torsions:
REMARK  status: ('A' for Active; 'I' for Inactive)
ROOT
ATOM      1  C4' PXY d   1       2.054   0.239  -1.473  0.00  0.00     0.077 C 
ATOM      2  C1' PXY d   1       4.873   5.010   0.170  0.00  0.00     0.077 C 
ATOM      3  C1  PXY d   1       4.135   3.754  -0.249  0.00  0.00    -0.082 A 
ATOM      4  C2  PXY d   1       4.115   3.402  -1.524  0.00  0.00     0.003 A 
ATOM      5  C3  PXY d   1       3.425   2.286  -1.924  0.00  0.00     0.003 A 
ATOM      6  C4  PXY d   1       2.794   1.494  -1.003  0.00  0.00    -0.082 A 
ATOM      7  C5  PXY d   1       2.820   1.841   0.301  0.00  0.00     0.003 A 
ATOM      8  C6  PXY d   1       3.491   2.999   0.682  0.00  0.00     0.003 A 
ENDROOT
TORSDOF 0
ENDMDL
