MODEL 1
REMARK minimizedAffinity 7.82311153
REMARK minimizedRMSD -1
REMARK  0 active torsions:
REMARK  status: ('A' for Active; 'I' for Inactive)
ROOT
ATOM      1  C4' PXY d   1      -5.513   5.976   5.730  0.00  0.00     0.077 C 
ATOM      2  C1' PXY d   1      -3.977   0.404   5.846  0.00  0.00     0.077 C 
ATOM      3  C1  PXY d   1      -4.369   1.868   5.822  0.00  0.00    -0.082 A 
ATOM      4  C2  PXY d   1      -5.633   2.204   5.620  0.00  0.00     0.003 A 
ATOM      5  C3  PXY d   1      -6.000   3.524   5.564  0.00  0.00     0.003 A 
ATOM      6  C4  PXY d   1      -5.073   4.510   5.770  0.00  0.00    -0.082 A 
ATOM      7  C5  PXY d   1      -3.783   4.175   5.988  0.00  0.00     0.003 A 
ATOM      8  C6  PXY d   1      -3.424   2.831   6.000  0.00  0.00     0.003 A 
ENDROOT
TORSDOF 0
ENDMDL
