MODEL 1
REMARK minimizedAffinity 14.6973572
REMARK minimizedRMSD -1
REMARK  0 active torsions:
REMARK  status: ('A' for Active; 'I' for Inactive)
ROOT
ATOM      1  C4' PXY d   1      -5.932   2.795   6.000  0.00  0.00     0.077 C 
ATOM      2  C1' PXY d   1      -2.058  -1.488   5.763  0.00  0.00     0.077 C 
ATOM      3  C1  PXY d   1      -3.083  -0.373   5.821  0.00  0.00    -0.082 A 
ATOM      4  C2  PXY d   1      -2.684   0.887   5.748  0.00  0.00     0.003 A 
ATOM      5  C3  PXY d   1      -3.595   1.908   5.831  0.00  0.00     0.003 A 
ATOM      6  C4  PXY d   1      -4.933   1.637   5.936  0.00  0.00    -0.082 A 
ATOM      7  C5  PXY d   1      -5.349   0.354   6.000  0.00  0.00     0.003 A 
ATOM      8  C6  PXY d   1      -4.405  -0.668   5.956  0.00  0.00     0.003 A 
ENDROOT
TORSDOF 0
ENDMDL
