MODEL 1
REMARK minimizedAffinity 17.1930218
REMARK minimizedRMSD -1
REMARK  0 active torsions:
REMARK  status: ('A' for Active; 'I' for Inactive)
ROOT
ATOM      1  C4' PXY d   1      -0.124  -3.855   0.176  0.00  0.00     0.077 C 
ATOM      2  C1' PXY d   1      -4.112   0.266  -0.553  0.00  0.00     0.077 C 
ATOM      3  C1  PXY d   1      -3.064  -0.816  -0.375  0.00  0.00    -0.082 A 
ATOM      4  C2  PXY d   1      -3.067  -1.554   0.723  0.00  0.00     0.003 A 
ATOM      5  C3  PXY d   1      -2.107  -2.515   0.915  0.00  0.00     0.003 A 
ATOM      6  C4  PXY d   1      -1.168  -2.758  -0.051  0.00  0.00    -0.082 A 
ATOM      7  C5  PXY d   1      -1.166  -2.016  -1.179  0.00  0.00     0.003 A 
ATOM      8  C6  PXY d   1      -2.123  -1.018  -1.336  0.00  0.00     0.003 A 
ENDROOT
TORSDOF 0
ENDMDL
