MODEL 1
REMARK minimizedAffinity 15.0316591
REMARK minimizedRMSD -1
REMARK  0 active torsions:
REMARK  status: ('A' for Active; 'I' for Inactive)
ROOT
ATOM      1  C4' PXY d   1      -2.480  -3.142   3.416  0.00  0.00     0.077 C 
ATOM      2  C1' PXY d   1      -1.454  -1.570  -2.051  0.00  0.00     0.077 C 
ATOM      3  C1  PXY d   1      -1.715  -1.993  -0.619  0.00  0.00    -0.082 A 
ATOM      4  C2  PXY d   1      -2.827  -1.605  -0.015  0.00  0.00     0.003 A 
ATOM      5  C3  PXY d   1      -3.064  -1.952   1.291  0.00  0.00     0.003 A 
ATOM      6  C4  PXY d   1      -2.179  -2.747   1.968  0.00  0.00    -0.082 A 
ATOM      7  C5  PXY d   1      -1.048  -3.156   1.355  0.00  0.00     0.003 A 
ATOM      8  C6  PXY d   1      -0.806  -2.759   0.043  0.00  0.00     0.003 A 
ENDROOT
TORSDOF 0
ENDMDL
