MODEL 1
REMARK minimizedAffinity 6.31391382
REMARK minimizedRMSD -1
REMARK  0 active torsions:
REMARK  status: ('A' for Active; 'I' for Inactive)
ROOT
ATOM      1  C4' PXY d   1      -1.704  -1.885   4.985  0.00  0.00     0.077 C 
ATOM      2  C1' PXY d   1      -5.985   1.865   5.997  0.00  0.00     0.077 C 
ATOM      3  C1  PXY d   1      -4.856   0.891   5.726  0.00  0.00    -0.082 A 
ATOM      4  C2  PXY d   1      -5.110  -0.406   5.667  0.00  0.00     0.003 A 
ATOM      5  C3  PXY d   1      -4.095  -1.304   5.455  0.00  0.00     0.003 A 
ATOM      6  C4  PXY d   1      -2.815  -0.865   5.247  0.00  0.00    -0.082 A 
ATOM      7  C5  PXY d   1      -2.549   0.458   5.295  0.00  0.00     0.003 A 
ATOM      8  C6  PXY d   1      -3.586   1.349   5.553  0.00  0.00     0.003 A 
ENDROOT
TORSDOF 0
ENDMDL
