MODEL 1
REMARK minimizedAffinity 6.0674715
REMARK minimizedRMSD -1
REMARK  0 active torsions:
REMARK  status: ('A' for Active; 'I' for Inactive)
ROOT
ATOM      1  C4' PXY d   1      -0.376  -1.515  -1.438  0.00  0.00     0.077 C 
ATOM      2  C1' PXY d   1      -2.263  -3.578   3.621  0.00  0.00     0.077 C 
ATOM      3  C1  PXY d   1      -1.757  -3.043   2.296  0.00  0.00    -0.082 A 
ATOM      4  C2  PXY d   1      -2.284  -1.939   1.792  0.00  0.00     0.003 A 
ATOM      5  C3  PXY d   1      -1.860  -1.459   0.579  0.00  0.00     0.003 A 
ATOM      6  C4  PXY d   1      -0.849  -2.086  -0.099  0.00  0.00    -0.082 A 
ATOM      7  C5  PXY d   1      -0.299  -3.207   0.414  0.00  0.00     0.003 A 
ATOM      8  C6  PXY d   1      -0.772  -3.701   1.626  0.00  0.00     0.003 A 
ENDROOT
TORSDOF 0
ENDMDL
