MODEL 1
REMARK minimizedAffinity 7.71093702
REMARK minimizedRMSD -1
REMARK  0 active torsions:
REMARK  status: ('A' for Active; 'I' for Inactive)
ROOT
ATOM      1  C4' PXY d   1      -5.628   2.263   6.000  0.00  0.00     0.077 C 
ATOM      2  C1' PXY d   1      -1.700  -1.907   5.227  0.00  0.00     0.077 C 
ATOM      3  C1  PXY d   1      -2.720  -0.805   5.432  0.00  0.00    -0.082 A 
ATOM      4  C2  PXY d   1      -3.941  -1.111   5.840  0.00  0.00     0.003 A 
ATOM      5  C3  PXY d   1      -4.886  -0.130   5.999  0.00  0.00     0.003 A 
ATOM      6  C4  PXY d   1      -4.562   1.183   5.789  0.00  0.00    -0.082 A 
ATOM      7  C5  PXY d   1      -3.316   1.505   5.382  0.00  0.00     0.003 A 
ATOM      8  C6  PXY d   1      -2.384   0.490   5.187  0.00  0.00     0.003 A 
ENDROOT
TORSDOF 0
ENDMDL
