MODEL 1
REMARK minimizedAffinity 10.8742561
REMARK minimizedRMSD -1
REMARK  0 active torsions:
REMARK  status: ('A' for Active; 'I' for Inactive)
ROOT
ATOM      1  C4' PXY d   1      -0.468  -3.375   0.593  0.00  0.00     0.077 C 
ATOM      2  C1' PXY d   1      -3.234   0.219  -2.992  0.00  0.00     0.077 C 
ATOM      3  C1  PXY d   1      -2.514  -0.718  -2.042  0.00  0.00    -0.082 A 
ATOM      4  C2  PXY d   1      -1.378  -1.284  -2.416  0.00  0.00     0.003 A 
ATOM      5  C3  PXY d   1      -0.731  -2.158  -1.581  0.00  0.00     0.003 A 
ATOM      6  C4  PXY d   1      -1.224  -2.415  -0.330  0.00  0.00    -0.082 A 
ATOM      7  C5  PXY d   1      -2.376  -1.833   0.064  0.00  0.00     0.003 A 
ATOM      8  C6  PXY d   1      -3.040  -0.981  -0.814  0.00  0.00     0.003 A 
ENDROOT
TORSDOF 0
ENDMDL
