MODEL 1
REMARK minimizedAffinity 13.1668425
REMARK minimizedRMSD -1
REMARK  0 active torsions:
REMARK  status: ('A' for Active; 'I' for Inactive)
ROOT
ATOM      1  C4' PXY d   1      -0.066  -1.408  -2.771  0.00  0.00     0.077 C 
ATOM      2  C1' PXY d   1      -0.025  -5.999   0.742  0.00  0.00     0.077 C 
ATOM      3  C1  PXY d   1      -0.030  -4.802  -0.189  0.00  0.00    -0.082 A 
ATOM      4  C2  PXY d   1      -0.125  -3.582   0.315  0.00  0.00     0.003 A 
ATOM      5  C3  PXY d   1      -0.163  -2.491  -0.514  0.00  0.00     0.003 A 
ATOM      6  C4  PXY d   1      -0.048  -2.646  -1.869  0.00  0.00    -0.082 A 
ATOM      7  C5  PXY d   1       0.060  -3.886  -2.390  0.00  0.00     0.003 A 
ATOM      8  C6  PXY d   1       0.055  -4.984  -1.534  0.00  0.00     0.003 A 
ENDROOT
TORSDOF 0
ENDMDL
