MODEL 1
REMARK minimizedAffinity 7.91453028
REMARK minimizedRMSD -1
REMARK  0 active torsions:
REMARK  status: ('A' for Active; 'I' for Inactive)
ROOT
ATOM      1  C4' PXY d   1      -2.546  -3.682   3.222  0.00  0.00     0.077 C 
ATOM      2  C1' PXY d   1      -1.105  -1.267  -1.828  0.00  0.00     0.077 C 
ATOM      3  C1  PXY d   1      -1.477  -1.912  -0.508  0.00  0.00    -0.082 A 
ATOM      4  C2  PXY d   1      -2.478  -1.416   0.203  0.00  0.00     0.003 A 
ATOM      5  C3  PXY d   1      -2.807  -1.967   1.414  0.00  0.00     0.003 A 
ATOM      6  C4  PXY d   1      -2.141  -3.069   1.879  0.00  0.00    -0.082 A 
ATOM      7  C5  PXY d   1      -1.126  -3.587   1.155  0.00  0.00     0.003 A 
ATOM      8  C6  PXY d   1      -0.780  -2.988  -0.053  0.00  0.00     0.003 A 
ENDROOT
TORSDOF 0
ENDMDL
