MODEL 1
REMARK minimizedAffinity -0.849549711
REMARK minimizedRMSD -1
REMARK  0 active torsions:
REMARK  status: ('A' for Active; 'I' for Inactive)
ROOT
ATOM      1  N1  IND d   1       1.579  -3.161  -5.313  0.00  0.00    -0.196 N 
ATOM      2  C2  IND d   1       2.760  -2.911  -5.953  0.00  0.00     0.054 A 
ATOM      3  C3  IND d   1       3.804  -3.199  -5.144  0.00  0.00    -0.031 A 
ATOM      4  C4  IND d   1       3.807  -4.189  -2.768  0.00  0.00     0.051 A 
ATOM      5  C5  IND d   1       2.969  -4.552  -1.751  0.00  0.00    -0.031 A 
ATOM      6  C6  IND d   1       1.596  -4.471  -1.873  0.00  0.00     0.015 A 
ATOM      7  C7  IND d   1       1.009  -4.032  -3.026  0.00  0.00    -0.016 A 
ATOM      8  C8  IND d   1       1.857  -3.656  -4.058  0.00  0.00    -0.047 A 
ATOM      9  C9  IND d   1       3.251  -3.696  -3.925  0.00  0.00    -0.096 A 
ATOM     10  HN1 IND d   1       0.794  -3.032  -5.640  0.00  0.00     0.298 HD
ENDROOT
TORSDOF 0
ENDMDL
