MODEL 1
REMARK minimizedAffinity 3.21006966
REMARK minimizedRMSD -1
REMARK  0 active torsions:
REMARK  status: ('A' for Active; 'I' for Inactive)
ROOT
ATOM      1  N1  IND d   1       5.001  -4.523  -5.177  0.00  0.00    -0.196 N 
ATOM      2  C2  IND d   1       5.988  -4.051  -5.997  0.00  0.00     0.054 A 
ATOM      3  C3  IND d   1       5.991  -2.699  -6.000  0.00  0.00    -0.031 A 
ATOM      4  C4  IND d   1       4.533  -1.058  -4.655  0.00  0.00     0.051 A 
ATOM      5  C5  IND d   1       3.468  -1.015  -3.800  0.00  0.00    -0.031 A 
ATOM      6  C6  IND d   1       2.849  -2.163  -3.348  0.00  0.00     0.015 A 
ATOM      7  C7  IND d   1       3.281  -3.402  -3.728  0.00  0.00    -0.016 A 
ATOM      8  C8  IND d   1       4.358  -3.449  -4.603  0.00  0.00    -0.047 A 
ATOM      9  C9  IND d   1       4.963  -2.286  -5.098  0.00  0.00    -0.096 A 
ATOM     10  HN1 IND d   1       4.814  -5.351  -5.043  0.00  0.00     0.298 HD
ENDROOT
TORSDOF 0
ENDMDL
