MODEL 1
REMARK minimizedAffinity 11.380517
REMARK minimizedRMSD -1
REMARK  0 active torsions:
REMARK  status: ('A' for Active; 'I' for Inactive)
ROOT
ATOM      1  N1  IND d   1       4.190  -5.385  -4.578  0.00  0.00    -0.196 N 
ATOM      2  C2  IND d   1       5.249  -5.998  -5.186  0.00  0.00     0.054 A 
ATOM      3  C3  IND d   1       5.998  -5.091  -5.852  0.00  0.00    -0.031 A 
ATOM      4  C4  IND d   1       5.727  -2.535  -5.996  0.00  0.00     0.051 A 
ATOM      5  C5  IND d   1       4.888  -1.519  -5.635  0.00  0.00    -0.031 A 
ATOM      6  C6  IND d   1       3.751  -1.744  -4.886  0.00  0.00     0.015 A 
ATOM      7  C7  IND d   1       3.416  -2.997  -4.458  0.00  0.00    -0.016 A 
ATOM      8  C8  IND d   1       4.263  -4.033  -4.829  0.00  0.00    -0.047 A 
ATOM      9  C9  IND d   1       5.395  -3.817  -5.625  0.00  0.00    -0.096 A 
ATOM     10  HN1 IND d   1       3.580  -5.778  -4.116  0.00  0.00     0.298 HD
ENDROOT
TORSDOF 0
ENDMDL
