MODEL 1
REMARK minimizedAffinity 10.1023159
REMARK minimizedRMSD -1
REMARK  0 active torsions:
REMARK  status: ('A' for Active; 'I' for Inactive)
ROOT
ATOM      1  N1  IND d   1       4.646  -6.000  -5.251  0.00  0.00    -0.196 N 
ATOM      2  C2  IND d   1       5.833  -5.726  -5.873  0.00  0.00     0.054 A 
ATOM      3  C3  IND d   1       6.000  -4.390  -5.999  0.00  0.00    -0.031 A 
ATOM      4  C4  IND d   1       4.502  -2.468  -5.167  0.00  0.00     0.051 A 
ATOM      5  C5  IND d   1       3.295  -2.222  -4.576  0.00  0.00    -0.031 A 
ATOM      6  C6  IND d   1       2.461  -3.243  -4.168  0.00  0.00     0.015 A 
ATOM      7  C7  IND d   1       2.810  -4.554  -4.328  0.00  0.00    -0.016 A 
ATOM      8  C8  IND d   1       4.032  -4.808  -4.935  0.00  0.00    -0.047 A 
ATOM      9  C9  IND d   1       4.863  -3.776  -5.389  0.00  0.00    -0.096 A 
ATOM     10  HN1 IND d   1       4.336  -6.784  -5.086  0.00  0.00     0.298 HD
ENDROOT
TORSDOF 0
ENDMDL
