MODEL 1
REMARK minimizedAffinity 7.625772
REMARK minimizedRMSD -1
REMARK  0 active torsions:
REMARK  status: ('A' for Active; 'I' for Inactive)
ROOT
ATOM      1  N1  IND d   1       4.248  -2.055  -5.473  0.00  0.00    -0.196 N 
ATOM      2  C2  IND d   1       3.085  -1.963  -4.760  0.00  0.00     0.054 A 
ATOM      3  C3  IND d   1       2.751  -3.169  -4.248  0.00  0.00    -0.031 A 
ATOM      4  C4  IND d   1       4.020  -5.406  -4.369  0.00  0.00     0.051 A 
ATOM      5  C5  IND d   1       5.113  -5.995  -4.940  0.00  0.00    -0.031 A 
ATOM      6  C6  IND d   1       5.993  -5.286  -5.733  0.00  0.00     0.015 A 
ATOM      7  C7  IND d   1       5.817  -3.952  -5.975  0.00  0.00    -0.016 A 
ATOM      8  C8  IND d   1       4.705  -3.353  -5.402  0.00  0.00    -0.047 A 
ATOM      9  C9  IND d   1       3.786  -4.077  -4.631  0.00  0.00    -0.096 A 
ATOM     10  HN1 IND d   1       4.629  -1.411  -5.896  0.00  0.00     0.298 HD
ENDROOT
TORSDOF 0
ENDMDL
