MODEL 1
REMARK minimizedAffinity 14.0278397
REMARK minimizedRMSD -1
REMARK  0 active torsions:
REMARK  status: ('A' for Active; 'I' for Inactive)
ROOT
ATOM      1  N1  IND d   1       0.193  -1.907  -2.148  0.00  0.00    -0.196 N 
ATOM      2  C2  IND d   1       0.555  -2.981  -1.383  0.00  0.00     0.054 A 
ATOM      3  C3  IND d   1       0.265  -2.751  -0.082  0.00  0.00    -0.031 A 
ATOM      4  C4  IND d   1      -0.898  -0.725   1.000  0.00  0.00     0.051 A 
ATOM      5  C5  IND d   1      -1.380   0.521   0.712  0.00  0.00    -0.031 A 
ATOM      6  C6  IND d   1      -1.365   1.030  -0.570  0.00  0.00     0.015 A 
ATOM      7  C7  IND d   1      -0.875   0.305  -1.619  0.00  0.00    -0.016 A 
ATOM      8  C8  IND d   1      -0.378  -0.958  -1.329  0.00  0.00    -0.047 A 
ATOM      9  C9  IND d   1      -0.352  -1.463  -0.023  0.00  0.00    -0.096 A 
ATOM     10  HN1 IND d   1       0.304  -1.837  -2.998  0.00  0.00     0.298 HD
ENDROOT
TORSDOF 0
ENDMDL
