MODEL 1
REMARK minimizedAffinity 11.8952513
REMARK minimizedRMSD -1
REMARK  0 active torsions:
REMARK  status: ('A' for Active; 'I' for Inactive)
ROOT
ATOM      1  N1  IND d   1      -3.429   0.406  -4.428  0.00  0.00    -0.196 N 
ATOM      2  C2  IND d   1      -3.059  -0.411  -3.396  0.00  0.00     0.054 A 
ATOM      3  C3  IND d   1      -3.033   0.281  -2.235  0.00  0.00    -0.031 A 
ATOM      4  C4  IND d   1      -3.659   2.736  -1.779  0.00  0.00     0.051 A 
ATOM      5  C5  IND d   1      -4.022   3.891  -2.413  0.00  0.00    -0.031 A 
ATOM      6  C6  IND d   1      -4.212   3.944  -3.779  0.00  0.00     0.015 A 
ATOM      7  C7  IND d   1      -4.056   2.836  -4.563  0.00  0.00    -0.016 A 
ATOM      8  C8  IND d   1      -3.681   1.663  -3.923  0.00  0.00    -0.047 A 
ATOM      9  C9  IND d   1      -3.446   1.613  -2.543  0.00  0.00    -0.096 A 
ATOM     10  HN1 IND d   1      -3.493   0.174  -5.253  0.00  0.00     0.298 HD
ENDROOT
TORSDOF 0
ENDMDL
