MODEL 1
REMARK minimizedAffinity -4.51146364
REMARK minimizedRMSD -1
REMARK  1 active torsions:
REMARK  status: ('A' for Active; 'I' for Inactive)
REMARK    1  A    between atoms: C1_2  and  C2_3 
ROOT
ATOM      1  C2  UNL d   1      -0.450   1.641   0.093  0.00  0.00    -0.076 A 
ATOM      2  C3  UNL d   1      -0.759   2.459   1.193  0.00  0.00     0.004 A 
ATOM      3  C4  UNL d   1      -1.010   3.820   1.028  0.00  0.00    -0.003 A 
ATOM      4  C5  UNL d   1      -0.955   4.386  -0.241  0.00  0.00     0.000 A 
ATOM      5  C6  UNL d   1      -0.667   3.586  -1.346  0.00  0.00     0.000 A 
ATOM      6  C7  UNL d   1      -0.428   2.209  -1.199  0.00  0.00    -0.073 A 
ATOM      7  C8  UNL d   1      -0.115   1.396  -2.425  0.00  0.00     0.078 C 
ENDROOT
BRANCH   1   8
ATOM      8  C1  UNL d   1      -0.160   0.177   0.336  0.00  0.00     0.053 C 
ATOM      9  C   UNL d   1       0.961  -0.036   1.341  0.00  0.00     0.018 C 
ENDBRANCH   1   8
TORSDOF 1
ENDMDL
