MODEL 1
REMARK minimizedAffinity -3.58551908
REMARK minimizedRMSD -1
REMARK  1 active torsions:
REMARK  status: ('A' for Active; 'I' for Inactive)
REMARK    1  A    between atoms: C1_2  and  C2_3 
ROOT
ATOM      1  C2  UNL d   1      -0.170   1.478  -0.191  0.00  0.00    -0.076 A 
ATOM      2  C3  UNL d   1      -0.514   1.894   1.107  0.00  0.00     0.004 A 
ATOM      3  C4  UNL d   1      -0.332   1.052   2.203  0.00  0.00    -0.003 A 
ATOM      4  C5  UNL d   1       0.198  -0.221   2.018  0.00  0.00     0.000 A 
ATOM      5  C6  UNL d   1       0.561  -0.643   0.740  0.00  0.00     0.000 A 
ATOM      6  C7  UNL d   1       0.399   0.200  -0.373  0.00  0.00    -0.073 A 
ATOM      7  C8  UNL d   1       0.803  -0.310  -1.730  0.00  0.00     0.078 C 
ENDROOT
BRANCH   1   8
ATOM      8  C1  UNL d   1      -0.415   2.425  -1.343  0.00  0.00     0.053 C 
ATOM      9  C   UNL d   1      -0.425   3.883  -0.908  0.00  0.00     0.018 C 
ENDBRANCH   1   8
TORSDOF 1
ENDMDL
