MODEL 1
REMARK minimizedAffinity -4.76364326
REMARK minimizedRMSD -1
REMARK  1 active torsions:
REMARK  status: ('A' for Active; 'I' for Inactive)
REMARK    1  A    between atoms: C1_2  and  C2_3 
ROOT
ATOM      1  C2  UNL d   1       0.073   1.141  -0.522  0.00  0.00    -0.076 A 
ATOM      2  C3  UNL d   1       0.142   0.265   0.575  0.00  0.00     0.004 A 
ATOM      3  C4  UNL d   1       0.120   0.748   1.882  0.00  0.00    -0.003 A 
ATOM      4  C5  UNL d   1       0.027   2.116   2.113  0.00  0.00     0.000 A 
ATOM      5  C6  UNL d   1      -0.060   2.999   1.037  0.00  0.00     0.000 A 
ATOM      6  C7  UNL d   1      -0.055   2.527  -0.287  0.00  0.00    -0.073 A 
ATOM      7  C8  UNL d   1      -0.145   3.524  -1.409  0.00  0.00     0.078 C 
ENDROOT
BRANCH   1   8
ATOM      8  C1  UNL d   1       0.130   0.561  -1.917  0.00  0.00     0.053 C 
ATOM      9  C   UNL d   1      -0.366  -0.876  -1.971  0.00  0.00     0.018 C 
ENDBRANCH   1   8
TORSDOF 1
ENDMDL
