MODEL 1
REMARK minimizedAffinity -3.4309473
REMARK minimizedRMSD -1
REMARK  1 active torsions:
REMARK  status: ('A' for Active; 'I' for Inactive)
REMARK    1  A    between atoms: C1_2  and  C2_3 
ROOT
ATOM      1  C2  UNL d   1      -0.493   0.950   0.684  0.00  0.00    -0.076 A 
ATOM      2  C3  UNL d   1       0.129  -0.138   1.322  0.00  0.00     0.004 A 
ATOM      3  C4  UNL d   1       0.648  -1.201   0.584  0.00  0.00    -0.003 A 
ATOM      4  C5  UNL d   1       0.555  -1.193  -0.803  0.00  0.00     0.000 A 
ATOM      5  C6  UNL d   1      -0.043  -0.114  -1.453  0.00  0.00     0.000 A 
ATOM      6  C7  UNL d   1      -0.557   0.973  -0.726  0.00  0.00    -0.073 A 
ATOM      7  C8  UNL d   1      -1.197   2.107  -1.479  0.00  0.00     0.078 C 
ENDROOT
BRANCH   1   8
ATOM      8  C1  UNL d   1      -1.062   2.061   1.537  0.00  0.00     0.053 C 
ATOM      9  C   UNL d   1       0.019   2.946   2.138  0.00  0.00     0.018 C 
ENDBRANCH   1   8
TORSDOF 1
ENDMDL
