MODEL 1
REMARK minimizedAffinity 13.1784639
REMARK minimizedRMSD -1
REMARK  0 active torsions:
REMARK  status: ('A' for Active; 'I' for Inactive)
ROOT
ATOM      1  C   UNL d   1       2.026  -2.518   0.023  0.00  0.00     0.020 A 
ATOM      2  C1  UNL d   1       1.383  -1.503  -0.685  0.00  0.00     0.020 A 
ATOM      3  C2  UNL d   1       0.390  -1.821  -1.614  0.00  0.00     0.034 A 
ATOM      4  C3  UNL d   1       0.038  -3.157  -1.837  0.00  0.00     0.017 A 
ATOM      5  C4  UNL d   1       0.684  -4.175  -1.126  0.00  0.00     0.017 A 
ATOM      6  C5  UNL d   1       1.677  -3.851  -0.197  0.00  0.00     0.034 A 
ATOM      7 Cl   UNL d   1       0.303  -5.846  -1.348  0.00  0.00    -0.070 Cl
ATOM      8 Cl1  UNL d   1      -1.199  -3.478  -3.000  0.00  0.00    -0.070 Cl
ENDROOT
TORSDOF 0
ENDMDL
