MODEL 1
REMARK minimizedAffinity 8.76012897
REMARK minimizedRMSD -1
REMARK  0 active torsions:
REMARK  status: ('A' for Active; 'I' for Inactive)
ROOT
ATOM      1  C   UNL d   1      -0.860  -4.627  -2.719  0.00  0.00     0.020 A 
ATOM      2  C1  UNL d   1      -0.110  -5.587  -3.398  0.00  0.00     0.020 A 
ATOM      3  C2  UNL d   1       1.124  -5.997  -2.888  0.00  0.00     0.034 A 
ATOM      4  C3  UNL d   1       1.612  -5.446  -1.697  0.00  0.00     0.017 A 
ATOM      5  C4  UNL d   1       0.858  -4.483  -1.017  0.00  0.00     0.017 A 
ATOM      6  C5  UNL d   1      -0.377  -4.077  -1.532  0.00  0.00     0.034 A 
ATOM      7 Cl   UNL d   1       1.393  -3.759   0.458  0.00  0.00    -0.070 Cl
ATOM      8 Cl1  UNL d   1       3.145  -6.000  -1.126  0.00  0.00    -0.070 Cl
ENDROOT
TORSDOF 0
ENDMDL
