MODEL 1
REMARK minimizedAffinity 10.8133039
REMARK minimizedRMSD -1
REMARK  0 active torsions:
REMARK  status: ('A' for Active; 'I' for Inactive)
ROOT
ATOM      1  C   UNL d   1      -0.569   4.322  -2.728  0.00  0.00     0.020 A 
ATOM      2  C1  UNL d   1      -1.290   5.498  -2.522  0.00  0.00     0.020 A 
ATOM      3  C2  UNL d   1      -1.455   5.999  -1.229  0.00  0.00     0.034 A 
ATOM      4  C3  UNL d   1      -0.898   5.323  -0.137  0.00  0.00     0.017 A 
ATOM      5  C4  UNL d   1      -0.175   4.143  -0.344  0.00  0.00     0.017 A 
ATOM      6  C5  UNL d   1      -0.013   3.647  -1.641  0.00  0.00     0.034 A 
ATOM      7 Cl   UNL d   1       0.541   3.255   0.954  0.00  0.00    -0.070 Cl
ATOM      8 Cl1  UNL d   1      -1.141   6.000   1.435  0.00  0.00    -0.070 Cl
ENDROOT
TORSDOF 0
ENDMDL
