MODEL 1
REMARK minimizedAffinity 8.32959461
REMARK minimizedRMSD -1
REMARK  0 active torsions:
REMARK  status: ('A' for Active; 'I' for Inactive)
ROOT
ATOM      1  C   UNL d   1       1.114   4.653   0.112  0.00  0.00     0.020 A 
ATOM      2  C1  UNL d   1       0.046   3.806  -0.185  0.00  0.00     0.020 A 
ATOM      3  C2  UNL d   1      -0.322   2.804   0.715  0.00  0.00     0.034 A 
ATOM      4  C3  UNL d   1       0.379   2.646   1.917  0.00  0.00     0.017 A 
ATOM      5  C4  UNL d   1       1.450   3.496   2.214  0.00  0.00     0.017 A 
ATOM      6  C5  UNL d   1       1.814   4.497   1.309  0.00  0.00     0.034 A 
ATOM      7 Cl   UNL d   1       2.362   3.361   3.676  0.00  0.00    -0.070 Cl
ATOM      8 Cl1  UNL d   1      -0.131   1.386   2.983  0.00  0.00    -0.070 Cl
ENDROOT
TORSDOF 0
ENDMDL
