MODEL 1
REMARK minimizedAffinity 4.35771656
REMARK minimizedRMSD -1
REMARK  0 active torsions:
REMARK  status: ('A' for Active; 'I' for Inactive)
ROOT
ATOM      1  C   UNL d   1       5.735  -3.557  -0.947  0.00  0.00     0.020 A 
ATOM      2  C1  UNL d   1       5.221  -4.849  -1.054  0.00  0.00     0.020 A 
ATOM      3  C2  UNL d   1       3.846  -5.065  -0.937  0.00  0.00     0.034 A 
ATOM      4  C3  UNL d   1       2.981  -3.989  -0.712  0.00  0.00     0.017 A 
ATOM      5  C4  UNL d   1       3.498  -2.692  -0.605  0.00  0.00     0.017 A 
ATOM      6  C5  UNL d   1       4.875  -2.481  -0.723  0.00  0.00     0.034 A 
ATOM      7 Cl   UNL d   1       2.493  -1.314  -0.328  0.00  0.00    -0.070 Cl
ATOM      8 Cl1  UNL d   1       1.292  -4.329  -0.577  0.00  0.00    -0.070 Cl
ENDROOT
TORSDOF 0
ENDMDL
