MODEL 1
REMARK minimizedAffinity 0.849190414
REMARK minimizedRMSD -1
REMARK  0 active torsions:
REMARK  status: ('A' for Active; 'I' for Inactive)
ROOT
ATOM      1  C   UNL d   1       0.375   2.965  -0.986  0.00  0.00     0.020 A 
ATOM      2  C1  UNL d   1       0.163   2.964   0.392  0.00  0.00     0.020 A 
ATOM      3  C2  UNL d   1      -0.689   3.909   0.968  0.00  0.00     0.034 A 
ATOM      4  C3  UNL d   1      -1.332   4.859   0.166  0.00  0.00     0.017 A 
ATOM      5  C4  UNL d   1      -1.118   4.859  -1.217  0.00  0.00     0.017 A 
ATOM      6  C5  UNL d   1      -0.264   3.911  -1.789  0.00  0.00     0.034 A 
ATOM      7 Cl   UNL d   1      -1.876   5.999  -2.272  0.00  0.00    -0.070 Cl
ATOM      8 Cl1  UNL d   1      -2.372   5.997   0.945  0.00  0.00    -0.070 Cl
ENDROOT
TORSDOF 0
ENDMDL
