MODEL 1
REMARK minimizedAffinity 14.04317
REMARK minimizedRMSD -1
REMARK  0 active torsions:
REMARK  status: ('A' for Active; 'I' for Inactive)
ROOT
ATOM      1  C   UNL d   1       0.880  -1.487  -0.383  0.00  0.00     0.020 A 
ATOM      2  C1  UNL d   1       1.764  -2.283   0.344  0.00  0.00     0.020 A 
ATOM      3  C2  UNL d   1       1.747  -3.670   0.183  0.00  0.00     0.034 A 
ATOM      4  C3  UNL d   1       0.845  -4.265  -0.706  0.00  0.00     0.017 A 
ATOM      5  C4  UNL d   1      -0.042  -3.465  -1.435  0.00  0.00     0.017 A 
ATOM      6  C5  UNL d   1      -0.021  -2.076  -1.271  0.00  0.00     0.034 A 
ATOM      7 Cl   UNL d   1      -1.184  -4.126  -2.551  0.00  0.00    -0.070 Cl
ATOM      8 Cl1  UNL d   1       0.880  -5.986  -0.855  0.00  0.00    -0.070 Cl
ENDROOT
TORSDOF 0
ENDMDL
