MODEL 1
REMARK minimizedAffinity 9.70050812
REMARK minimizedRMSD -1
REMARK  0 active torsions:
REMARK  status: ('A' for Active; 'I' for Inactive)
ROOT
ATOM      1  C   UNL d   1       0.783  -1.523  -0.379  0.00  0.00     0.020 A 
ATOM      2  C1  UNL d   1       1.691  -2.324   0.311  0.00  0.00     0.020 A 
ATOM      3  C2  UNL d   1       1.707  -3.704   0.098  0.00  0.00     0.034 A 
ATOM      4  C3  UNL d   1       0.813  -4.287  -0.808  0.00  0.00     0.017 A 
ATOM      5  C4  UNL d   1      -0.098  -3.482  -1.500  0.00  0.00     0.017 A 
ATOM      6  C5  UNL d   1      -0.109  -2.100  -1.283  0.00  0.00     0.034 A 
ATOM      7 Cl   UNL d   1      -1.231  -4.128  -2.634  0.00  0.00    -0.070 Cl
ATOM      8 Cl1  UNL d   1       0.889  -6.000  -1.022  0.00  0.00    -0.070 Cl
ENDROOT
TORSDOF 0
ENDMDL
