MODEL 1
REMARK minimizedAffinity -0.805544198
REMARK minimizedRMSD -1
REMARK  0 active torsions:
REMARK  status: ('A' for Active; 'I' for Inactive)
ROOT
ATOM      1  C   UNL d   1       1.420   4.371  -0.018  0.00  0.00     0.020 A 
ATOM      2  C1  UNL d   1       0.057   4.092   0.075  0.00  0.00     0.020 A 
ATOM      3  C2  UNL d   1      -0.447   3.434   1.198  0.00  0.00     0.034 A 
ATOM      4  C3  UNL d   1       0.413   3.052   2.235  0.00  0.00     0.017 A 
ATOM      5  C4  UNL d   1       1.781   3.332   2.141  0.00  0.00     0.017 A 
ATOM      6  C5  UNL d   1       2.280   3.992   1.013  0.00  0.00     0.034 A 
ATOM      7 Cl   UNL d   1       2.904   2.892   3.379  0.00  0.00    -0.070 Cl
ATOM      8 Cl1  UNL d   1      -0.278   2.241   3.595  0.00  0.00    -0.070 Cl
ENDROOT
TORSDOF 0
ENDMDL
