MODEL 1
REMARK minimizedAffinity -2.02440572
REMARK minimizedRMSD -1
REMARK  1 active torsions:
REMARK  status: ('A' for Active; 'I' for Inactive)
REMARK    1  A    between atoms: C1_2  and  C2_3 
ROOT
ATOM      1  C2  UNL d   1       0.382  -0.501  -0.623  0.00  0.00    -0.073 A 
ATOM      2  C3  UNL d   1       0.262   0.524   0.322  0.00  0.00    -0.002 A 
ATOM      3  C4  UNL d   1       0.452   1.854  -0.053  0.00  0.00     0.004 A 
ATOM      4  C5  UNL d   1       0.757   2.174  -1.376  0.00  0.00    -0.004 A 
ATOM      5  C6  UNL d   1       0.870   1.165  -2.337  0.00  0.00    -0.075 A 
ATOM      6  C7  UNL d   1       1.199   1.491  -3.764  0.00  0.00     0.076 C 
ATOM      7  C8  UNL d   1       0.680  -0.169  -1.952  0.00  0.00     0.001 A 
ENDROOT
BRANCH   1   8
ATOM      8  C1  UNL d   1       0.171  -1.939  -0.224  0.00  0.00     0.053 C 
ATOM      9  C   UNL d   1       0.277  -2.134   1.280  0.00  0.00     0.018 C 
ENDBRANCH   1   8
TORSDOF 1
ENDMDL
