MODEL 1
REMARK minimizedAffinity -3.1919024
REMARK minimizedRMSD -1
REMARK  1 active torsions:
REMARK  status: ('A' for Active; 'I' for Inactive)
REMARK    1  A    between atoms: C1_2  and  C2_3 
ROOT
ATOM      1  C2  UNL d   1       0.293   0.103   0.385  0.00  0.00    -0.073 A 
ATOM      2  C3  UNL d   1       0.804  -1.199   0.426  0.00  0.00    -0.002 A 
ATOM      3  C4  UNL d   1       0.233  -2.154   1.268  0.00  0.00     0.004 A 
ATOM      4  C5  UNL d   1      -0.859  -1.820   2.069  0.00  0.00    -0.004 A 
ATOM      5  C6  UNL d   1      -1.392  -0.527   2.033  0.00  0.00    -0.075 A 
ATOM      6  C7  UNL d   1      -2.564  -0.152   2.891  0.00  0.00     0.076 C 
ATOM      7  C8  UNL d   1      -0.810   0.427   1.188  0.00  0.00     0.001 A 
ENDROOT
BRANCH   1   8
ATOM      8  C1  UNL d   1       0.903   1.137  -0.527  0.00  0.00     0.053 C 
ATOM      9  C   UNL d   1       0.566   0.879  -1.987  0.00  0.00     0.018 C 
ENDBRANCH   1   8
TORSDOF 1
ENDMDL
