MODEL 1
REMARK minimizedAffinity -0.818394065
REMARK minimizedRMSD -1
REMARK  1 active torsions:
REMARK  status: ('A' for Active; 'I' for Inactive)
REMARK    1  A    between atoms: C1_2  and  C2_3 
ROOT
ATOM      1  C2  UNL d   1      -0.510  -0.352   0.362  0.00  0.00    -0.073 A 
ATOM      2  C3  UNL d   1       0.519  -1.066   0.985  0.00  0.00    -0.002 A 
ATOM      3  C4  UNL d   1       1.851  -0.819   0.652  0.00  0.00     0.004 A 
ATOM      4  C5  UNL d   1       2.168   0.149  -0.302  0.00  0.00    -0.004 A 
ATOM      5  C6  UNL d   1       1.154   0.882  -0.927  0.00  0.00    -0.075 A 
ATOM      6  C7  UNL d   1       1.479   1.924  -1.956  0.00  0.00     0.076 C 
ATOM      7  C8  UNL d   1      -0.181   0.625  -0.589  0.00  0.00     0.001 A 
ENDROOT
BRANCH   1   8
ATOM      8  C1  UNL d   1      -1.950  -0.611   0.723  0.00  0.00     0.053 C 
ATOM      9  C   UNL d   1      -2.687   0.670   1.082  0.00  0.00     0.018 C 
ENDBRANCH   1   8
TORSDOF 1
ENDMDL
