MODEL 1
REMARK minimizedAffinity -5.70851755
REMARK minimizedRMSD -1
REMARK  1 active torsions:
REMARK  status: ('A' for Active; 'I' for Inactive)
REMARK    1  A    between atoms: C1_2  and  C2_3 
ROOT
ATOM      1  C2  UNL d   1       0.934   1.288  -1.381  0.00  0.00    -0.073 A 
ATOM      2  C3  UNL d   1       0.378   1.505  -2.646  0.00  0.00    -0.002 A 
ATOM      3  C4  UNL d   1       1.175   1.953  -3.700  0.00  0.00     0.004 A 
ATOM      4  C5  UNL d   1       2.537   2.182  -3.502  0.00  0.00    -0.004 A 
ATOM      5  C6  UNL d   1       3.114   1.960  -2.247  0.00  0.00    -0.075 A 
ATOM      6  C7  UNL d   1       4.576   2.204  -2.017  0.00  0.00     0.076 C 
ATOM      7  C8  UNL d   1       2.306   1.512  -1.193  0.00  0.00     0.001 A 
ENDROOT
BRANCH   1   8
ATOM      8  C1  UNL d   1       0.078   0.798  -0.242  0.00  0.00     0.053 C 
ATOM      9  C   UNL d   1       0.836  -0.150   0.674  0.00  0.00     0.018 C 
ENDBRANCH   1   8
TORSDOF 1
ENDMDL
