MODEL 1
REMARK minimizedAffinity -4.52090645
REMARK minimizedRMSD -1
REMARK  1 active torsions:
REMARK  status: ('A' for Active; 'I' for Inactive)
REMARK    1  A    between atoms: C1_2  and  C2_3 
ROOT
ATOM      1  C2  UNL d   1      -0.745  -0.954  -0.159  0.00  0.00    -0.073 A 
ATOM      2  C3  UNL d   1      -1.012  -0.114   0.928  0.00  0.00    -0.002 A 
ATOM      3  C4  UNL d   1      -0.363   1.116   1.044  0.00  0.00     0.004 A 
ATOM      4  C5  UNL d   1       0.552   1.522   0.073  0.00  0.00    -0.004 A 
ATOM      5  C6  UNL d   1       0.823   0.701  -1.027  0.00  0.00    -0.075 A 
ATOM      6  C7  UNL d   1       1.807   1.122  -2.079  0.00  0.00     0.076 C 
ATOM      7  C8  UNL d   1       0.170  -0.534  -1.135  0.00  0.00     0.001 A 
ENDROOT
BRANCH   1   8
ATOM      8  C1  UNL d   1      -1.447  -2.281  -0.292  0.00  0.00     0.053 C 
ATOM      9  C   UNL d   1      -1.904  -2.821   1.054  0.00  0.00     0.018 C 
ENDBRANCH   1   8
TORSDOF 1
ENDMDL
