MODEL 1
REMARK minimizedAffinity -4.94608784
REMARK minimizedRMSD -1
REMARK  1 active torsions:
REMARK  status: ('A' for Active; 'I' for Inactive)
REMARK    1  A    between atoms: C1_2  and  C2_3 
ROOT
ATOM      1  C2  UNL d   1      -0.989  -0.759   1.232  0.00  0.00    -0.073 A 
ATOM      2  C3  UNL d   1      -1.906   0.146   1.777  0.00  0.00    -0.002 A 
ATOM      3  C4  UNL d   1      -1.826   1.504   1.466  0.00  0.00     0.004 A 
ATOM      4  C5  UNL d   1      -0.833   1.969   0.604  0.00  0.00    -0.004 A 
ATOM      5  C6  UNL d   1       0.085   1.078   0.039  0.00  0.00    -0.075 A 
ATOM      6  C7  UNL d   1       1.160   1.563  -0.889  0.00  0.00     0.076 C 
ATOM      7  C8  UNL d   1      -0.001  -0.284   0.359  0.00  0.00     0.001 A 
ENDROOT
BRANCH   1   8
ATOM      8  C1  UNL d   1      -1.076  -2.227   1.560  0.00  0.00     0.053 C 
ATOM      9  C   UNL d   1      -2.479  -2.635   1.982  0.00  0.00     0.018 C 
ENDBRANCH   1   8
TORSDOF 1
ENDMDL
