MODEL 1
REMARK minimizedAffinity -2.25202012
REMARK minimizedRMSD -1
REMARK  1 active torsions:
REMARK  status: ('A' for Active; 'I' for Inactive)
REMARK    1  A    between atoms: C1_2  and  C2_3 
ROOT
ATOM      1  C2  UNL d   1      -0.752  -1.901   1.932  0.00  0.00    -0.073 A 
ATOM      2  C3  UNL d   1      -1.862  -1.972   1.082  0.00  0.00    -0.002 A 
ATOM      3  C4  UNL d   1      -1.850  -1.318  -0.150  0.00  0.00     0.004 A 
ATOM      4  C5  UNL d   1      -0.728  -0.592  -0.549  0.00  0.00    -0.004 A 
ATOM      5  C6  UNL d   1       0.396  -0.518   0.281  0.00  0.00    -0.075 A 
ATOM      6  C7  UNL d   1       1.610   0.261  -0.132  0.00  0.00     0.076 C 
ATOM      7  C8  UNL d   1       0.375  -1.176   1.518  0.00  0.00     0.001 A 
ENDROOT
BRANCH   1   8
ATOM      8  C1  UNL d   1      -0.757  -2.611   3.260  0.00  0.00     0.053 C 
ATOM      9  C   UNL d   1       0.638  -2.721   3.854  0.00  0.00     0.018 C 
ENDBRANCH   1   8
TORSDOF 1
ENDMDL
