MODEL 1
REMARK minimizedAffinity -4.29329395
REMARK minimizedRMSD -1
REMARK  1 active torsions:
REMARK  status: ('A' for Active; 'I' for Inactive)
REMARK    1  A    between atoms: C1_2  and  C2_3 
ROOT
ATOM      1  C2  UNL d   1      -0.048  -1.498   0.567  0.00  0.00    -0.073 A 
ATOM      2  C3  UNL d   1       1.121  -1.494  -0.203  0.00  0.00    -0.002 A 
ATOM      3  C4  UNL d   1       1.532  -0.330  -0.854  0.00  0.00     0.004 A 
ATOM      4  C5  UNL d   1       0.785   0.841  -0.736  0.00  0.00    -0.004 A 
ATOM      5  C6  UNL d   1      -0.380   0.860   0.038  0.00  0.00    -0.075 A 
ATOM      6  C7  UNL d   1      -1.196   2.112   0.173  0.00  0.00     0.076 C 
ATOM      7  C8  UNL d   1      -0.788  -0.313   0.686  0.00  0.00     0.001 A 
ENDROOT
BRANCH   1   8
ATOM      8  C1  UNL d   1      -0.493  -2.751   1.276  0.00  0.00     0.053 C 
ATOM      9  C   UNL d   1       0.289  -2.988   2.559  0.00  0.00     0.018 C 
ENDBRANCH   1   8
TORSDOF 1
ENDMDL
