MODEL 1
REMARK minimizedAffinity -2.13882875
REMARK minimizedRMSD -1
REMARK  1 active torsions:
REMARK  status: ('A' for Active; 'I' for Inactive)
REMARK    1  A    between atoms: C1_2  and  C2_3 
ROOT
ATOM      1  C2  UNL d   1       0.723  -0.788  -0.700  0.00  0.00    -0.073 A 
ATOM      2  C3  UNL d   1       0.551   0.186   0.290  0.00  0.00    -0.002 A 
ATOM      3  C4  UNL d   1       0.843   1.524   0.020  0.00  0.00     0.004 A 
ATOM      4  C5  UNL d   1       1.303   1.902  -1.241  0.00  0.00    -0.004 A 
ATOM      5  C6  UNL d   1       1.470   0.945  -2.247  0.00  0.00    -0.075 A 
ATOM      6  C7  UNL d   1       1.966   1.335  -3.608  0.00  0.00     0.076 C 
ATOM      7  C8  UNL d   1       1.177  -0.397  -1.968  0.00  0.00     0.001 A 
ENDROOT
BRANCH   1   8
ATOM      8  C1  UNL d   1       0.403  -2.233  -0.416  0.00  0.00     0.053 C 
ATOM      9  C   UNL d   1       0.605  -2.584   1.049  0.00  0.00     0.018 C 
ENDBRANCH   1   8
TORSDOF 1
ENDMDL
