MODEL 1
REMARK minimizedAffinity -5.92734766
REMARK minimizedRMSD -1
REMARK  0 active torsions:
REMARK  status: ('A' for Active; 'I' for Inactive)
ROOT
ATOM      1  C   UNL d   1       1.317  -3.121   1.131  0.00  0.00     0.077 C 
ATOM      2  C1  UNL d   1       1.392  -1.720   0.600  0.00  0.00    -0.074 A 
ATOM      3  C2  UNL d   1       2.620  -1.060   0.484  0.00  0.00    -0.005 A 
ATOM      4  C3  UNL d   1       2.676   0.239  -0.021  0.00  0.00     0.006 A 
ATOM      5  C4  UNL d   1       1.506   0.890  -0.415  0.00  0.00    -0.005 A 
ATOM      6  C5  UNL d   1       0.270   0.246  -0.308  0.00  0.00    -0.074 A 
ATOM      7  C6  UNL d   1      -0.996   0.928  -0.736  0.00  0.00     0.077 C 
ATOM      8  C7  UNL d   1       0.223  -1.062   0.194  0.00  0.00    -0.001 A 
ENDROOT
TORSDOF 0
ENDMDL
