MODEL 1
REMARK minimizedAffinity 0.542994857
REMARK minimizedRMSD -1
REMARK  0 active torsions:
REMARK  status: ('A' for Active; 'I' for Inactive)
ROOT
ATOM      1  C   UNL d   1       1.484  -1.929   4.474  0.00  0.00     0.077 C 
ATOM      2  C1  UNL d   1       1.754  -1.590   3.038  0.00  0.00    -0.074 A 
ATOM      3  C2  UNL d   1       3.030  -1.752   2.489  0.00  0.00    -0.005 A 
ATOM      4  C3  UNL d   1       3.263  -1.441   1.149  0.00  0.00     0.006 A 
ATOM      5  C4  UNL d   1       2.225  -0.966   0.347  0.00  0.00    -0.005 A 
ATOM      6  C5  UNL d   1       0.943  -0.798   0.879  0.00  0.00    -0.074 A 
ATOM      7  C6  UNL d   1      -0.187  -0.298   0.028  0.00  0.00     0.077 C 
ATOM      8  C7  UNL d   1       0.714  -1.119   2.224  0.00  0.00    -0.001 A 
ENDROOT
TORSDOF 0
ENDMDL
