MODEL 1
REMARK minimizedAffinity -4.94432688
REMARK minimizedRMSD -1
REMARK  0 active torsions:
REMARK  status: ('A' for Active; 'I' for Inactive)
ROOT
ATOM      1  C   UNL d   1      -1.490  -1.842   2.981  0.00  0.00     0.077 C 
ATOM      2  C1  UNL d   1      -0.530  -1.369   1.930  0.00  0.00    -0.074 A 
ATOM      3  C2  UNL d   1       0.720  -1.976   1.773  0.00  0.00    -0.005 A 
ATOM      4  C3  UNL d   1       1.599  -1.532   0.785  0.00  0.00     0.006 A 
ATOM      5  C4  UNL d   1       1.237  -0.478  -0.055  0.00  0.00    -0.005 A 
ATOM      6  C5  UNL d   1      -0.010   0.141   0.087  0.00  0.00    -0.074 A 
ATOM      7  C6  UNL d   1      -0.419   1.268  -0.814  0.00  0.00     0.077 C 
ATOM      8  C7  UNL d   1      -0.890  -0.316   1.077  0.00  0.00    -0.001 A 
ENDROOT
TORSDOF 0
ENDMDL
