MODEL 1
REMARK minimizedAffinity -3.10034847
REMARK minimizedRMSD -1
REMARK  0 active torsions:
REMARK  status: ('A' for Active; 'I' for Inactive)
ROOT
ATOM      1  C   UNL d   1      -2.100  -0.850   2.626  0.00  0.00     0.077 C 
ATOM      2  C1  UNL d   1      -1.021  -0.703   1.596  0.00  0.00    -0.074 A 
ATOM      3  C2  UNL d   1       0.161  -1.445   1.682  0.00  0.00    -0.005 A 
ATOM      4  C3  UNL d   1       1.153  -1.305   0.711  0.00  0.00     0.006 A 
ATOM      5  C4  UNL d   1       0.972  -0.423  -0.355  0.00  0.00    -0.005 A 
ATOM      6  C5  UNL d   1      -0.204   0.328  -0.458  0.00  0.00    -0.074 A 
ATOM      7  C6  UNL d   1      -0.418   1.273  -1.603  0.00  0.00     0.077 C 
ATOM      8  C7  UNL d   1      -1.198   0.176   0.518  0.00  0.00    -0.001 A 
ENDROOT
TORSDOF 0
ENDMDL
