MODEL 1
REMARK minimizedAffinity -4.87747049
REMARK minimizedRMSD -1
REMARK  0 active torsions:
REMARK  status: ('A' for Active; 'I' for Inactive)
ROOT
ATOM      1  C   UNL d   1      -0.768   1.428  -1.050  0.00  0.00     0.077 C 
ATOM      2  C1  UNL d   1      -0.553   0.341  -0.039  0.00  0.00    -0.074 A 
ATOM      3  C2  UNL d   1      -1.379   0.231   1.084  0.00  0.00    -0.005 A 
ATOM      4  C3  UNL d   1      -1.172  -0.790   2.011  0.00  0.00     0.006 A 
ATOM      5  C4  UNL d   1      -0.140  -1.711   1.825  0.00  0.00    -0.005 A 
ATOM      6  C5  UNL d   1       0.695  -1.617   0.707  0.00  0.00    -0.074 A 
ATOM      7  C6  UNL d   1       1.803  -2.603   0.486  0.00  0.00     0.077 C 
ATOM      8  C7  UNL d   1       0.477  -0.592  -0.224  0.00  0.00    -0.001 A 
ENDROOT
TORSDOF 0
ENDMDL
