MODEL 1
REMARK minimizedAffinity -2.27798748
REMARK minimizedRMSD -1
REMARK  0 active torsions:
REMARK  status: ('A' for Active; 'I' for Inactive)
ROOT
ATOM      1  C   UNL d   1       3.831  -0.876   1.767  0.00  0.00     0.077 C 
ATOM      2  C1  UNL d   1       2.455  -1.114   1.218  0.00  0.00    -0.074 A 
ATOM      3  C2  UNL d   1       1.859  -2.376   1.297  0.00  0.00    -0.005 A 
ATOM      4  C3  UNL d   1       0.575  -2.580   0.790  0.00  0.00     0.006 A 
ATOM      5  C4  UNL d   1      -0.123  -1.526   0.200  0.00  0.00    -0.005 A 
ATOM      6  C5  UNL d   1       0.457  -0.257   0.113  0.00  0.00    -0.074 A 
ATOM      7  C6  UNL d   1      -0.283   0.889  -0.509  0.00  0.00     0.077 C 
ATOM      8  C7  UNL d   1       1.744  -0.058   0.631  0.00  0.00    -0.001 A 
ENDROOT
TORSDOF 0
ENDMDL
