MODEL 1
REMARK minimizedAffinity -5.22089624
REMARK minimizedRMSD -1
REMARK  0 active torsions:
REMARK  status: ('A' for Active; 'I' for Inactive)
ROOT
ATOM      1  C   UNL d   1      -2.052   0.805   1.247  0.00  0.00     0.077 C 
ATOM      2  C1  UNL d   1      -0.771   0.257   0.691  0.00  0.00    -0.074 A 
ATOM      3  C2  UNL d   1       0.096   1.067  -0.049  0.00  0.00    -0.005 A 
ATOM      4  C3  UNL d   1       1.288   0.547  -0.552  0.00  0.00     0.006 A 
ATOM      5  C4  UNL d   1       1.625  -0.788  -0.321  0.00  0.00    -0.005 A 
ATOM      6  C5  UNL d   1       0.771  -1.613   0.418  0.00  0.00    -0.074 A 
ATOM      7  C6  UNL d   1       1.123  -3.046   0.684  0.00  0.00     0.077 C 
ATOM      8  C7  UNL d   1      -0.422  -1.080   0.926  0.00  0.00    -0.001 A 
ENDROOT
TORSDOF 0
ENDMDL
