MODEL 1
REMARK minimizedAffinity -5.49617386
REMARK minimizedRMSD -1
REMARK  0 active torsions:
REMARK  status: ('A' for Active; 'I' for Inactive)
ROOT
ATOM      1  C   UNL d   1      -0.890   1.100  -0.717  0.00  0.00     0.077 C 
ATOM      2  C1  UNL d   1       0.186   0.225  -0.146  0.00  0.00    -0.074 A 
ATOM      3  C2  UNL d   1       1.538   0.531  -0.335  0.00  0.00    -0.005 A 
ATOM      4  C3  UNL d   1       2.527  -0.287   0.210  0.00  0.00     0.006 A 
ATOM      5  C4  UNL d   1       2.176  -1.417   0.948  0.00  0.00    -0.005 A 
ATOM      6  C5  UNL d   1       0.830  -1.739   1.149  0.00  0.00    -0.074 A 
ATOM      7  C6  UNL d   1       0.435  -2.945   1.949  0.00  0.00     0.077 C 
ATOM      8  C7  UNL d   1      -0.159  -0.908   0.604  0.00  0.00    -0.001 A 
ENDROOT
TORSDOF 0
ENDMDL
