MODEL 1
REMARK minimizedAffinity -4.80338478
REMARK minimizedRMSD -1
REMARK  0 active torsions:
REMARK  status: ('A' for Active; 'I' for Inactive)
ROOT
ATOM      1  C   UNL d   1      -0.399   0.836  -0.638  0.00  0.00     0.077 C 
ATOM      2  C1  UNL d   1       0.412  -0.275  -0.041  0.00  0.00    -0.074 A 
ATOM      3  C2  UNL d   1       1.642  -0.645  -0.595  0.00  0.00    -0.005 A 
ATOM      4  C3  UNL d   1       2.390  -1.674  -0.023  0.00  0.00     0.006 A 
ATOM      5  C4  UNL d   1       1.917  -2.342   1.107  0.00  0.00    -0.005 A 
ATOM      6  C5  UNL d   1       0.690  -1.985   1.676  0.00  0.00    -0.074 A 
ATOM      7  C6  UNL d   1       0.172  -2.687   2.896  0.00  0.00     0.077 C 
ATOM      8  C7  UNL d   1      -0.052  -0.946   1.099  0.00  0.00    -0.001 A 
ENDROOT
TORSDOF 0
ENDMDL
