MODEL 1
REMARK minimizedAffinity -4.81017971
REMARK minimizedRMSD -1
REMARK  0 active torsions:
REMARK  status: ('A' for Active; 'I' for Inactive)
ROOT
ATOM      1  C   UNL d   1       1.217   0.364  -0.527  0.00  0.00     0.077 C 
ATOM      2  C1  UNL d   1       1.087  -0.734   0.487  0.00  0.00    -0.074 A 
ATOM      3  C2  UNL d   1       2.161  -1.585   0.766  0.00  0.00    -0.005 A 
ATOM      4  C3  UNL d   1       2.028  -2.596   1.718  0.00  0.00     0.006 A 
ATOM      5  C4  UNL d   1       0.822  -2.765   2.400  0.00  0.00    -0.005 A 
ATOM      6  C5  UNL d   1      -0.262  -1.922   2.135  0.00  0.00    -0.074 A 
ATOM      7  C6  UNL d   1      -1.562  -2.084   2.865  0.00  0.00     0.077 C 
ATOM      8  C7  UNL d   1      -0.119  -0.905   1.181  0.00  0.00    -0.001 A 
ENDROOT
TORSDOF 0
ENDMDL
