MODEL 1
REMARK minimizedAffinity -4.33020687
REMARK minimizedRMSD -1
REMARK  0 active torsions:
REMARK  status: ('A' for Active; 'I' for Inactive)
ROOT
ATOM      1  C   UNL d   1      -0.604   1.123  -0.867  0.00  0.00     0.077 C 
ATOM      2  C1  UNL d   1      -0.226  -0.060  -0.026  0.00  0.00    -0.074 A 
ATOM      3  C2  UNL d   1       0.976  -0.742  -0.244  0.00  0.00    -0.005 A 
ATOM      4  C3  UNL d   1       1.318  -1.835   0.552  0.00  0.00     0.006 A 
ATOM      5  C4  UNL d   1       0.465  -2.256   1.572  0.00  0.00    -0.005 A 
ATOM      6  C5  UNL d   1      -0.741  -1.586   1.806  0.00  0.00    -0.074 A 
ATOM      7  C6  UNL d   1      -1.665  -2.020   2.904  0.00  0.00     0.077 C 
ATOM      8  C7  UNL d   1      -1.075  -0.485   1.006  0.00  0.00    -0.001 A 
ENDROOT
TORSDOF 0
ENDMDL
