MODEL 1
REMARK minimizedAffinity -4.34895897
REMARK minimizedRMSD -1
REMARK  0 active torsions:
REMARK  status: ('A' for Active; 'I' for Inactive)
ROOT
ATOM      1  C   UNL d   1      -0.717   0.899  -0.580  0.00  0.00     0.077 C 
ATOM      2  C1  UNL d   1      -0.528  -0.201   0.423  0.00  0.00    -0.074 A 
ATOM      3  C2  UNL d   1      -1.498  -0.461   1.396  0.00  0.00    -0.005 A 
ATOM      4  C3  UNL d   1      -1.313  -1.493   2.315  0.00  0.00     0.006 A 
ATOM      5  C4  UNL d   1      -0.157  -2.274   2.272  0.00  0.00    -0.005 A 
ATOM      6  C5  UNL d   1       0.824  -2.029   1.305  0.00  0.00    -0.074 A 
ATOM      7  C6  UNL d   1       2.067  -2.865   1.238  0.00  0.00     0.077 C 
ATOM      8  C7  UNL d   1       0.627  -0.995   0.380  0.00  0.00    -0.001 A 
ENDROOT
TORSDOF 0
ENDMDL
