MODEL 1
REMARK minimizedAffinity -5.04530096
REMARK minimizedRMSD -1
REMARK  0 active torsions:
REMARK  status: ('A' for Active; 'I' for Inactive)
ROOT
ATOM      1  C   UNL d   1       1.524  -3.061   1.002  0.00  0.00     0.077 C 
ATOM      2  C1  UNL d   1       0.501  -1.965   1.030  0.00  0.00    -0.074 A 
ATOM      3  C2  UNL d   1      -0.561  -1.996   1.939  0.00  0.00    -0.005 A 
ATOM      4  C3  UNL d   1      -1.499  -0.964   1.960  0.00  0.00     0.006 A 
ATOM      5  C4  UNL d   1      -1.385   0.108   1.073  0.00  0.00    -0.005 A 
ATOM      6  C5  UNL d   1      -0.329   0.156   0.158  0.00  0.00    -0.074 A 
ATOM      7  C6  UNL d   1      -0.185   1.306  -0.795  0.00  0.00     0.077 C 
ATOM      8  C7  UNL d   1       0.614  -0.881   0.148  0.00  0.00    -0.001 A 
ENDROOT
TORSDOF 0
ENDMDL
