MODEL 1
REMARK minimizedAffinity -3.90842557
REMARK minimizedRMSD -1
REMARK  0 active torsions:
REMARK  status: ('A' for Active; 'I' for Inactive)
ROOT
ATOM      1  C   UNL d   1       1.141  -3.088   1.067  0.00  0.00     0.077 C 
ATOM      2  C1  UNL d   1       0.761  -1.732   0.553  0.00  0.00    -0.074 A 
ATOM      3  C2  UNL d   1      -0.564  -1.289   0.603  0.00  0.00    -0.005 A 
ATOM      4  C3  UNL d   1      -0.901  -0.021   0.130  0.00  0.00     0.006 A 
ATOM      5  C4  UNL d   1       0.083   0.816  -0.397  0.00  0.00    -0.005 A 
ATOM      6  C5  UNL d   1       1.415   0.391  -0.454  0.00  0.00    -0.074 A 
ATOM      7  C6  UNL d   1       2.486   1.283  -1.008  0.00  0.00     0.077 C 
ATOM      8  C7  UNL d   1       1.746  -0.882   0.030  0.00  0.00    -0.001 A 
ENDROOT
TORSDOF 0
ENDMDL
