MODEL 1
REMARK minimizedAffinity -5.01811171
REMARK minimizedRMSD -1
REMARK  0 active torsions:
REMARK  status: ('A' for Active; 'I' for Inactive)
ROOT
ATOM      1  N1  IND d   1       0.684   2.361   0.526  0.00  0.00    -0.196 N 
ATOM      2  C2  IND d   1       1.888   2.808   0.994  0.00  0.00     0.054 A 
ATOM      3  C3  IND d   1       2.772   1.788   1.069  0.00  0.00    -0.031 A 
ATOM      4  C4  IND d   1       2.488  -0.676   0.381  0.00  0.00     0.051 A 
ATOM      5  C5  IND d   1       1.555  -1.569  -0.066  0.00  0.00    -0.031 A 
ATOM      6  C6  IND d   1       0.258  -1.189  -0.348  0.00  0.00     0.015 A 
ATOM      7  C7  IND d   1      -0.152   0.105  -0.202  0.00  0.00    -0.016 A 
ATOM      8  C8  IND d   1       0.791   1.013   0.259  0.00  0.00    -0.047 A 
ATOM      9  C9  IND d   1       2.096   0.626   0.587  0.00  0.00    -0.096 A 
ATOM     10  HN1 IND d   1      -0.022   2.840   0.416  0.00  0.00     0.298 HD
ENDROOT
TORSDOF 0
ENDMDL
