MODEL 1
REMARK minimizedAffinity 9.2953186
REMARK minimizedRMSD -1
REMARK  0 active torsions:
REMARK  status: ('A' for Active; 'I' for Inactive)
ROOT
ATOM      1  N1  IND d   1       0.883   0.472   0.422  0.00  0.00    -0.196 N 
ATOM      2  C2  IND d   1       0.956  -0.803  -0.064  0.00  0.00     0.054 A 
ATOM      3  C3  IND d   1       1.180  -1.678   0.943  0.00  0.00    -0.031 A 
ATOM      4  C4  IND d   1       1.359  -1.247   3.475  0.00  0.00     0.051 A 
ATOM      5  C5  IND d   1       1.394  -0.238   4.396  0.00  0.00    -0.031 A 
ATOM      6  C6  IND d   1       1.254   1.086   4.033  0.00  0.00     0.015 A 
ATOM      7  C7  IND d   1       1.063   1.451   2.730  0.00  0.00    -0.016 A 
ATOM      8  C8  IND d   1       1.034   0.429   1.791  0.00  0.00    -0.047 A 
ATOM      9  C9  IND d   1       1.218  -0.913   2.148  0.00  0.00    -0.096 A 
ATOM     10  HN1 IND d   1       0.763   1.182  -0.048  0.00  0.00     0.298 HD
ENDROOT
TORSDOF 0
ENDMDL
