MODEL 1
REMARK minimizedAffinity 4.42990065
REMARK minimizedRMSD -1
REMARK  0 active torsions:
REMARK  status: ('A' for Active; 'I' for Inactive)
ROOT
ATOM      1  N1  IND d   1       1.140  -1.384  -0.108  0.00  0.00    -0.196 N 
ATOM      2  C2  IND d   1       1.763  -2.211  -1.000  0.00  0.00     0.054 A 
ATOM      3  C3  IND d   1       2.877  -1.622  -1.489  0.00  0.00    -0.031 A 
ATOM      4  C4  IND d   1       3.922   0.653  -0.890  0.00  0.00     0.051 A 
ATOM      5  C5  IND d   1       3.696   1.781  -0.153  0.00  0.00    -0.031 A 
ATOM      6  C6  IND d   1       2.585   1.914   0.655  0.00  0.00     0.015 A 
ATOM      7  C7  IND d   1       1.661   0.914   0.765  0.00  0.00    -0.016 A 
ATOM      8  C8  IND d   1       1.884  -0.230   0.013  0.00  0.00    -0.047 A 
ATOM      9  C9  IND d   1       2.987  -0.354  -0.841  0.00  0.00    -0.096 A 
ATOM     10  HN1 IND d   1       0.407  -1.555   0.307  0.00  0.00     0.298 HD
ENDROOT
TORSDOF 0
ENDMDL
