MODEL 1
REMARK minimizedAffinity 8.79302883
REMARK minimizedRMSD -1
REMARK  0 active torsions:
REMARK  status: ('A' for Active; 'I' for Inactive)
ROOT
ATOM      1  N1  IND d   1       0.739  -3.346  -0.094  0.00  0.00    -0.196 N 
ATOM      2  C2  IND d   1       0.998  -2.910   1.175  0.00  0.00     0.054 A 
ATOM      3  C3  IND d   1       0.538  -1.650   1.342  0.00  0.00    -0.031 A 
ATOM      4  C4  IND d   1      -0.763  -0.153  -0.300  0.00  0.00     0.051 A 
ATOM      5  C5  IND d   1      -1.206  -0.102  -1.592  0.00  0.00    -0.031 A 
ATOM      6  C6  IND d   1      -1.021  -1.152  -2.468  0.00  0.00     0.015 A 
ATOM      7  C7  IND d   1      -0.395  -2.302  -2.079  0.00  0.00    -0.016 A 
ATOM      8  C8  IND d   1       0.063  -2.355  -0.770  0.00  0.00    -0.047 A 
ATOM      9  C9  IND d   1      -0.084  -1.275   0.111  0.00  0.00    -0.096 A 
ATOM     10  HN1 IND d   1       0.962  -4.112  -0.417  0.00  0.00     0.298 HD
ENDROOT
TORSDOF 0
ENDMDL
