MODEL 1
REMARK minimizedAffinity 5.46472025
REMARK minimizedRMSD -1
REMARK  0 active torsions:
REMARK  status: ('A' for Active; 'I' for Inactive)
ROOT
ATOM      1  N1  IND d   1      -0.329   0.776  -0.941  0.00  0.00    -0.196 N 
ATOM      2  C2  IND d   1       0.759   1.418  -0.419  0.00  0.00     0.054 A 
ATOM      3  C3  IND d   1       1.732   0.527  -0.121  0.00  0.00    -0.031 A 
ATOM      4  C4  IND d   1       1.792  -2.018  -0.502  0.00  0.00     0.051 A 
ATOM      5  C5  IND d   1       1.016  -3.064  -0.919  0.00  0.00    -0.031 A 
ATOM      6  C6  IND d   1      -0.273  -2.879  -1.375  0.00  0.00     0.015 A 
ATOM      7  C7  IND d   1      -0.832  -1.634  -1.444  0.00  0.00    -0.016 A 
ATOM      8  C8  IND d   1      -0.050  -0.571  -1.015  0.00  0.00    -0.047 A 
ATOM      9  C9  IND d   1       1.243  -0.757  -0.511  0.00  0.00    -0.096 A 
ATOM     10  HN1 IND d   1      -1.065   1.151  -1.182  0.00  0.00     0.298 HD
ENDROOT
TORSDOF 0
ENDMDL
