MODEL 1
REMARK minimizedAffinity 3.79203653
REMARK minimizedRMSD -1
REMARK  0 active torsions:
REMARK  status: ('A' for Active; 'I' for Inactive)
ROOT
ATOM      1  N1  IND d   1      -0.872   1.369  -0.989  0.00  0.00    -0.196 N 
ATOM      2  C2  IND d   1       0.302   1.814  -0.448  0.00  0.00     0.054 A 
ATOM      3  C3  IND d   1       0.122   2.163   0.846  0.00  0.00    -0.031 A 
ATOM      4  C4  IND d   1      -1.991   1.989   2.307  0.00  0.00     0.051 A 
ATOM      5  C5  IND d   1      -3.320   1.676   2.246  0.00  0.00    -0.031 A 
ATOM      6  C6  IND d   1      -3.912   1.232   1.081  0.00  0.00     0.015 A 
ATOM      7  C7  IND d   1      -3.191   1.074  -0.068  0.00  0.00    -0.016 A 
ATOM      8  C8  IND d   1      -1.843   1.398  -0.012  0.00  0.00    -0.047 A 
ATOM      9  C9  IND d   1      -1.246   1.889   1.156  0.00  0.00    -0.096 A 
ATOM     10  HN1 IND d   1      -0.984   1.113  -1.802  0.00  0.00     0.298 HD
ENDROOT
TORSDOF 0
ENDMDL
