MODEL 1
REMARK minimizedAffinity -0.384691477
REMARK minimizedRMSD -1
REMARK  0 active torsions:
REMARK  status: ('A' for Active; 'I' for Inactive)
ROOT
ATOM      1  N1  IND d   1      -1.575  -0.281  -0.719  0.00  0.00    -0.196 N 
ATOM      2  C2  IND d   1      -0.228  -0.150  -0.913  0.00  0.00     0.054 A 
ATOM      3  C3  IND d   1       0.296   0.705  -0.006  0.00  0.00    -0.031 A 
ATOM      4  C4  IND d   1      -0.852   1.922   1.951  0.00  0.00     0.051 A 
ATOM      5  C5  IND d   1      -2.079   2.144   2.510  0.00  0.00    -0.031 A 
ATOM      6  C6  IND d   1      -3.224   1.555   2.013  0.00  0.00     0.015 A 
ATOM      7  C7  IND d   1      -3.182   0.709   0.941  0.00  0.00    -0.016 A 
ATOM      8  C8  IND d   1      -1.939   0.487   0.366  0.00  0.00    -0.047 A 
ATOM      9  C9  IND d   1      -0.780   1.115   0.839  0.00  0.00    -0.096 A 
ATOM     10  HN1 IND d   1      -2.106  -0.762  -1.194  0.00  0.00     0.298 HD
ENDROOT
TORSDOF 0
ENDMDL
