MODEL 1
REMARK minimizedAffinity -3.39398813
REMARK minimizedRMSD -1
REMARK  0 active torsions:
REMARK  status: ('A' for Active; 'I' for Inactive)
ROOT
ATOM      1  N1  IND d   1       0.449   1.083  -0.085  0.00  0.00    -0.196 N 
ATOM      2  C2  IND d   1      -0.465   0.069  -0.010  0.00  0.00     0.054 A 
ATOM      3  C3  IND d   1       0.159  -1.130  -0.053  0.00  0.00    -0.031 A 
ATOM      4  C4  IND d   1       2.676  -1.662  -0.142  0.00  0.00     0.051 A 
ATOM      5  C5  IND d   1       3.900  -1.066  -0.261  0.00  0.00    -0.031 A 
ATOM      6  C6  IND d   1       4.039   0.306  -0.326  0.00  0.00     0.015 A 
ATOM      7  C7  IND d   1       2.955   1.136  -0.262  0.00  0.00    -0.016 A 
ATOM      8  C8  IND d   1       1.710   0.533  -0.149  0.00  0.00    -0.047 A 
ATOM      9  C9  IND d   1       1.560  -0.860  -0.126  0.00  0.00    -0.096 A 
ATOM     10  HN1 IND d   1       0.267   1.923  -0.091  0.00  0.00     0.298 HD
ENDROOT
TORSDOF 0
ENDMDL
