MODEL 1
REMARK minimizedAffinity 1.42000437
REMARK minimizedRMSD -1
REMARK  0 active torsions:
REMARK  status: ('A' for Active; 'I' for Inactive)
ROOT
ATOM      1  N1  IND d   1       2.317  -3.179  -3.010  0.00  0.00    -0.196 N 
ATOM      2  C2  IND d   1       3.502  -2.857  -2.411  0.00  0.00     0.054 A 
ATOM      3  C3  IND d   1       3.282  -2.116  -1.301  0.00  0.00    -0.031 A 
ATOM      4  C4  IND d   1       1.054  -1.402  -0.227  0.00  0.00     0.051 A 
ATOM      5  C5  IND d   1      -0.297  -1.428  -0.430  0.00  0.00    -0.031 A 
ATOM      6  C6  IND d   1      -0.858  -2.055  -1.525  0.00  0.00     0.015 A 
ATOM      7  C7  IND d   1      -0.085  -2.691  -2.455  0.00  0.00    -0.016 A 
ATOM      8  C8  IND d   1       1.288  -2.660  -2.255  0.00  0.00    -0.047 A 
ATOM      9  C9  IND d   1       1.865  -1.989  -1.169  0.00  0.00    -0.096 A 
ATOM     10  HN1 IND d   1       2.228  -3.630  -3.737  0.00  0.00     0.298 HD
ENDROOT
TORSDOF 0
ENDMDL
