MODEL 1
REMARK minimizedAffinity 3.1645546
REMARK minimizedRMSD -1
REMARK  0 active torsions:
REMARK  status: ('A' for Active; 'I' for Inactive)
ROOT
ATOM      1  N1  IND d   1      -0.288   1.763  -0.231  0.00  0.00    -0.196 N 
ATOM      2  C2  IND d   1       0.570   1.776   0.834  0.00  0.00     0.054 A 
ATOM      3  C3  IND d   1       1.069   0.538   1.051  0.00  0.00    -0.031 A 
ATOM      4  C4  IND d   1       0.695  -1.633  -0.281  0.00  0.00     0.051 A 
ATOM      5  C5  IND d   1      -0.034  -2.151  -1.314  0.00  0.00    -0.031 A 
ATOM      6  C6  IND d   1      -0.901  -1.374  -2.056  0.00  0.00     0.015 A 
ATOM      7  C7  IND d   1      -1.062  -0.043  -1.798  0.00  0.00    -0.016 A 
ATOM      8  C8  IND d   1      -0.329   0.485  -0.745  0.00  0.00    -0.047 A 
ATOM      9  C9  IND d   1       0.520  -0.307   0.039  0.00  0.00    -0.096 A 
ATOM     10  HN1 IND d   1      -0.728   2.439  -0.530  0.00  0.00     0.298 HD
ENDROOT
TORSDOF 0
ENDMDL
