MODEL 1
REMARK minimizedAffinity -5.07815647
REMARK minimizedRMSD -1
REMARK  2 active torsions:
REMARK  status: ('A' for Active; 'I' for Inactive)
REMARK    1  A    between atoms: C1_2  and  C2_3 
REMARK    2  A    between atoms: C2_3  and  C3_4 
ROOT
ATOM      1  C3  UNL d   1      -0.315  -0.489   0.502  0.00  0.00    -0.075 A 
ATOM      2  C4  UNL d   1      -1.553   0.154   0.652  0.00  0.00     0.002 A 
ATOM      3  C5  UNL d   1      -2.598  -0.470   1.334  0.00  0.00     0.002 A 
ATOM      4  C6  UNL d   1      -2.423  -1.746   1.865  0.00  0.00    -0.004 A 
ATOM      5  C7  UNL d   1      -1.204  -2.401   1.708  0.00  0.00     0.002 A 
ATOM      6  C8  UNL d   1      -0.155  -1.778   1.030  0.00  0.00     0.002 A 
ENDROOT
BRANCH   1   7
ATOM      7  C2  UNL d   1       0.829   0.192  -0.209  0.00  0.00     0.056 C 
BRANCH   7   8
ATOM      8  C1  UNL d   1       0.555   1.656  -0.572  0.00  0.00     0.007 C 
ATOM      9  C   UNL d   1       1.439   2.171  -1.699  0.00  0.00     0.009 C 
ENDBRANCH   7   8
ENDBRANCH   1   7
TORSDOF 2
ENDMDL
