MODEL 1
REMARK minimizedAffinity -2.71886778
REMARK minimizedRMSD -1
REMARK  2 active torsions:
REMARK  status: ('A' for Active; 'I' for Inactive)
REMARK    1  A    between atoms: C1_2  and  C2_3 
REMARK    2  A    between atoms: C2_3  and  C3_4 
ROOT
ATOM      1  C3  UNL d   1       0.267   0.203  -0.054  0.00  0.00    -0.075 A 
ATOM      2  C4  UNL d   1      -1.036   0.051   0.442  0.00  0.00     0.002 A 
ATOM      3  C5  UNL d   1      -1.470  -1.182   0.928  0.00  0.00     0.002 A 
ATOM      4  C6  UNL d   1      -0.612  -2.280   0.915  0.00  0.00    -0.004 A 
ATOM      5  C7  UNL d   1       0.679  -2.145   0.409  0.00  0.00     0.002 A 
ATOM      6  C8  UNL d   1       1.117  -0.911  -0.074  0.00  0.00     0.002 A 
ENDROOT
BRANCH   1   7
ATOM      7  C2  UNL d   1       0.753   1.543  -0.555  0.00  0.00     0.056 C 
BRANCH   7   8
ATOM      8  C1  UNL d   1       1.360   1.500  -1.961  0.00  0.00     0.007 C 
ATOM      9  C   UNL d   1       0.437   2.067  -3.031  0.00  0.00     0.009 C 
ENDBRANCH   7   8
ENDBRANCH   1   7
TORSDOF 2
ENDMDL
