MODEL 1
REMARK minimizedAffinity -2.58002687
REMARK minimizedRMSD -1
REMARK  2 active torsions:
REMARK  status: ('A' for Active; 'I' for Inactive)
REMARK    1  A    between atoms: C1_2  and  C2_3 
REMARK    2  A    between atoms: C2_3  and  C3_4 
ROOT
ATOM      1  C3  UNL d   1       0.071   0.120   0.208  0.00  0.00    -0.075 A 
ATOM      2  C4  UNL d   1       0.366  -1.215   0.519  0.00  0.00     0.002 A 
ATOM      3  C5  UNL d   1      -0.439  -1.930   1.406  0.00  0.00     0.002 A 
ATOM      4  C6  UNL d   1      -1.541  -1.319   1.999  0.00  0.00    -0.004 A 
ATOM      5  C7  UNL d   1      -1.834   0.012   1.710  0.00  0.00     0.002 A 
ATOM      6  C8  UNL d   1      -1.033   0.729   0.819  0.00  0.00     0.002 A 
ENDROOT
BRANCH   1   7
ATOM      7  C2  UNL d   1       0.921   0.891  -0.774  0.00  0.00     0.056 C 
BRANCH   7   8
ATOM      8  C1  UNL d   1       0.449   0.781  -2.228  0.00  0.00     0.007 C 
ATOM      9  C   UNL d   1       0.859   1.973  -3.083  0.00  0.00     0.009 C 
ENDBRANCH   7   8
ENDBRANCH   1   7
TORSDOF 2
ENDMDL
