MODEL 1
REMARK minimizedAffinity -4.19409132
REMARK minimizedRMSD -1
REMARK  2 active torsions:
REMARK  status: ('A' for Active; 'I' for Inactive)
REMARK    1  A    between atoms: C1_2  and  C2_3 
REMARK    2  A    between atoms: C2_3  and  C3_4 
ROOT
ATOM      1  C3  UNL d   1      -0.052  -0.405   0.158  0.00  0.00    -0.075 A 
ATOM      2  C4  UNL d   1      -0.880   0.516   0.816  0.00  0.00     0.002 A 
ATOM      3  C5  UNL d   1      -0.807   1.876   0.514  0.00  0.00     0.002 A 
ATOM      4  C6  UNL d   1       0.100   2.333  -0.440  0.00  0.00    -0.004 A 
ATOM      5  C7  UNL d   1       0.939   1.430  -1.087  0.00  0.00     0.002 A 
ATOM      6  C8  UNL d   1       0.865   0.068  -0.790  0.00  0.00     0.002 A 
ENDROOT
BRANCH   1   7
ATOM      7  C2  UNL d   1      -0.146  -1.882   0.459  0.00  0.00     0.056 C 
BRANCH   7   8
ATOM      8  C1  UNL d   1      -0.684  -2.200   1.858  0.00  0.00     0.007 C 
ATOM      9  C   UNL d   1      -2.101  -2.756   1.845  0.00  0.00     0.009 C 
ENDBRANCH   7   8
ENDBRANCH   1   7
TORSDOF 2
ENDMDL
