MODEL 1
REMARK minimizedAffinity -1.77535665
REMARK minimizedRMSD -1
REMARK  2 active torsions:
REMARK  status: ('A' for Active; 'I' for Inactive)
REMARK    1  A    between atoms: C1_2  and  C2_3 
REMARK    2  A    between atoms: C2_3  and  C3_4 
ROOT
ATOM      1  C3  UNL d   1       0.511   1.359  -1.186  0.00  0.00    -0.075 A 
ATOM      2  C4  UNL d   1      -0.506   1.772  -2.060  0.00  0.00     0.002 A 
ATOM      3  C5  UNL d   1      -0.192   2.392  -3.269  0.00  0.00     0.002 A 
ATOM      4  C6  UNL d   1       1.139   2.617  -3.616  0.00  0.00    -0.004 A 
ATOM      5  C7  UNL d   1       2.156   2.226  -2.748  0.00  0.00     0.002 A 
ATOM      6  C8  UNL d   1       1.845   1.601  -1.539  0.00  0.00     0.002 A 
ENDROOT
BRANCH   1   7
ATOM      7  C2  UNL d   1       0.179   0.661   0.111  0.00  0.00     0.056 C 
BRANCH   7   8
ATOM      8  C1  UNL d   1       1.199  -0.404   0.525  0.00  0.00     0.007 C 
ATOM      9  C   UNL d   1       0.879  -1.788  -0.024  0.00  0.00     0.009 C 
ENDBRANCH   7   8
ENDBRANCH   1   7
TORSDOF 2
ENDMDL
