MODEL 1
REMARK minimizedAffinity -3.54798961
REMARK minimizedRMSD -1
REMARK  2 active torsions:
REMARK  status: ('A' for Active; 'I' for Inactive)
REMARK    1  A    between atoms: C1_2  and  C2_3 
REMARK    2  A    between atoms: C2_3  and  C3_4 
ROOT
ATOM      1  C3  UNL d   1       0.192   0.454  -0.186  0.00  0.00    -0.075 A 
ATOM      2  C4  UNL d   1       1.184  -0.524  -0.349  0.00  0.00     0.002 A 
ATOM      3  C5  UNL d   1       1.103  -1.737   0.336  0.00  0.00     0.002 A 
ATOM      4  C6  UNL d   1       0.038  -1.982   1.200  0.00  0.00    -0.004 A 
ATOM      5  C7  UNL d   1      -0.944  -1.011   1.383  0.00  0.00     0.002 A 
ATOM      6  C8  UNL d   1      -0.868   0.201   0.695  0.00  0.00     0.002 A 
ENDROOT
BRANCH   1   7
ATOM      7  C2  UNL d   1       0.258   1.756  -0.947  0.00  0.00     0.056 C 
BRANCH   7   8
ATOM      8  C1  UNL d   1       1.335   1.787  -2.037  0.00  0.00     0.007 C 
ATOM      9  C   UNL d   1       0.895   2.524  -3.295  0.00  0.00     0.009 C 
ENDBRANCH   7   8
ENDBRANCH   1   7
TORSDOF 2
ENDMDL
