MODEL 1
REMARK minimizedAffinity -4.41222429
REMARK minimizedRMSD -1
REMARK  2 active torsions:
REMARK  status: ('A' for Active; 'I' for Inactive)
REMARK    1  A    between atoms: C1_2  and  C2_3 
REMARK    2  A    between atoms: C2_3  and  C3_4 
ROOT
ATOM      1  C3  UNL d   1      -1.180  -0.972   0.501  0.00  0.00    -0.075 A 
ATOM      2  C4  UNL d   1      -2.122  -0.148   1.134  0.00  0.00     0.002 A 
ATOM      3  C5  UNL d   1      -3.086  -0.696   1.981  0.00  0.00     0.002 A 
ATOM      4  C6  UNL d   1      -3.127  -2.071   2.197  0.00  0.00    -0.004 A 
ATOM      5  C7  UNL d   1      -2.207  -2.901   1.560  0.00  0.00     0.002 A 
ATOM      6  C8  UNL d   1      -1.239  -2.356   0.715  0.00  0.00     0.002 A 
ENDROOT
BRANCH   1   7
ATOM      7  C2  UNL d   1      -0.116  -0.383  -0.394  0.00  0.00     0.056 C 
BRANCH   7   8
ATOM      8  C1  UNL d   1       1.141   0.077   0.352  0.00  0.00     0.007 C 
ATOM      9  C   UNL d   1       1.947  -1.074   0.937  0.00  0.00     0.009 C 
ENDBRANCH   7   8
ENDBRANCH   1   7
TORSDOF 2
ENDMDL
