MODEL 1
REMARK minimizedAffinity -5.55756998
REMARK minimizedRMSD -1
REMARK  2 active torsions:
REMARK  status: ('A' for Active; 'I' for Inactive)
REMARK    1  A    between atoms: C1_2  and  C2_3 
REMARK    2  A    between atoms: C2_3  and  C3_4 
ROOT
ATOM      1  C3  UNL d   1      -0.207  -0.298   0.650  0.00  0.00    -0.075 A 
ATOM      2  C4  UNL d   1      -0.243  -1.643   1.045  0.00  0.00     0.002 A 
ATOM      3  C5  UNL d   1      -1.430  -2.215   1.505  0.00  0.00     0.002 A 
ATOM      4  C6  UNL d   1      -2.591  -1.449   1.584  0.00  0.00    -0.004 A 
ATOM      5  C7  UNL d   1      -2.563  -0.107   1.209  0.00  0.00     0.002 A 
ATOM      6  C8  UNL d   1      -1.378   0.467   0.745  0.00  0.00     0.002 A 
ENDROOT
BRANCH   1   7
ATOM      7  C2  UNL d   1       1.067   0.319   0.124  0.00  0.00     0.056 C 
BRANCH   7   8
ATOM      8  C1  UNL d   1       0.844   1.414  -0.924  0.00  0.00     0.007 C 
ATOM      9  C   UNL d   1       2.074   1.687  -1.779  0.00  0.00     0.009 C 
ENDBRANCH   7   8
ENDBRANCH   1   7
TORSDOF 2
ENDMDL
