MODEL 1
REMARK minimizedAffinity -3.82231283
REMARK minimizedRMSD -1
REMARK  2 active torsions:
REMARK  status: ('A' for Active; 'I' for Inactive)
REMARK    1  A    between atoms: C1_2  and  C2_3 
REMARK    2  A    between atoms: C2_3  and  C3_4 
ROOT
ATOM      1  C3  UNL d   1      -0.042   0.118   0.170  0.00  0.00    -0.075 A 
ATOM      2  C4  UNL d   1       0.306  -1.217   0.419  0.00  0.00     0.002 A 
ATOM      3  C5  UNL d   1      -0.581  -2.068   1.079  0.00  0.00     0.002 A 
ATOM      4  C6  UNL d   1      -1.820  -1.594   1.505  0.00  0.00    -0.004 A 
ATOM      5  C7  UNL d   1      -2.169  -0.265   1.277  0.00  0.00     0.002 A 
ATOM      6  C8  UNL d   1      -1.285   0.588   0.614  0.00  0.00     0.002 A 
ENDROOT
BRANCH   1   7
ATOM      7  C2  UNL d   1       0.901   1.037  -0.570  0.00  0.00     0.056 C 
BRANCH   7   8
ATOM      8  C1  UNL d   1       0.429   1.415  -1.977  0.00  0.00     0.007 C 
ATOM      9  C   UNL d   1       1.513   2.075  -2.818  0.00  0.00     0.009 C 
ENDBRANCH   7   8
ENDBRANCH   1   7
TORSDOF 2
ENDMDL
