MODEL 1
REMARK minimizedAffinity -5.81853056
REMARK minimizedRMSD -1
REMARK  2 active torsions:
REMARK  status: ('A' for Active; 'I' for Inactive)
REMARK    1  A    between atoms: C1_2  and  C2_3 
REMARK    2  A    between atoms: C2_3  and  C3_4 
ROOT
ATOM      1  C3  UNL d   1      -0.480  -1.117   0.709  0.00  0.00    -0.075 A 
ATOM      2  C4  UNL d   1      -1.376  -1.528  -0.289  0.00  0.00     0.002 A 
ATOM      3  C5  UNL d   1      -2.496  -2.294   0.035  0.00  0.00     0.002 A 
ATOM      4  C6  UNL d   1      -2.728  -2.667   1.357  0.00  0.00    -0.004 A 
ATOM      5  C7  UNL d   1      -1.836  -2.280   2.354  0.00  0.00     0.002 A 
ATOM      6  C8  UNL d   1      -0.717  -1.509   2.033  0.00  0.00     0.002 A 
ENDROOT
BRANCH   1   7
ATOM      7  C2  UNL d   1       0.718  -0.263   0.368  0.00  0.00     0.056 C 
BRANCH   7   8
ATOM      8  C1  UNL d   1       0.367   1.176  -0.023  0.00  0.00     0.007 C 
ATOM      9  C   UNL d   1       0.715   1.508  -1.468  0.00  0.00     0.009 C 
ENDBRANCH   7   8
ENDBRANCH   1   7
TORSDOF 2
ENDMDL
