MODEL 1
REMARK minimizedAffinity 7.12621832
REMARK minimizedRMSD -1
REMARK  0 active torsions:
REMARK  status: ('A' for Active; 'I' for Inactive)
ROOT
ATOM      1  C   UNL d   1       3.746   6.000   5.785  0.00  0.00     0.078 C 
ATOM      2  C1  UNL d   1       2.840   5.152   4.942  0.00  0.00    -0.077 A 
ATOM      3  C2  UNL d   1       3.219   3.863   4.549  0.00  0.00    -0.001 A 
ATOM      4  C3  UNL d   1       2.369   3.089   3.757  0.00  0.00     0.003 A 
ATOM      5  C4  UNL d   1       1.137   3.596   3.349  0.00  0.00    -0.005 A 
ATOM      6  C5  UNL d   1       0.753   4.879   3.733  0.00  0.00     0.003 A 
ATOM      7  C6  UNL d   1       1.601   5.655   4.526  0.00  0.00    -0.001 A 
ENDROOT
TORSDOF 0
ENDMDL
