MODEL 1
REMARK minimizedAffinity 13.1056576
REMARK minimizedRMSD -1
REMARK  0 active torsions:
REMARK  status: ('A' for Active; 'I' for Inactive)
ROOT
ATOM      1  C   UNL d   1       5.937   3.483   1.144  0.00  0.00     0.078 C 
ATOM      2  C1  UNL d   1       5.956   2.317   0.202  0.00  0.00    -0.077 A 
ATOM      3  C2  UNL d   1       5.951   2.510  -1.185  0.00  0.00    -0.001 A 
ATOM      4  C3  UNL d   1       5.959   1.415  -2.050  0.00  0.00     0.003 A 
ATOM      5  C4  UNL d   1       5.972   0.119  -1.538  0.00  0.00    -0.005 A 
ATOM      6  C5  UNL d   1       5.975  -0.083  -0.160  0.00  0.00     0.003 A 
ATOM      7  C6  UNL d   1       5.967   1.011   0.707  0.00  0.00    -0.001 A 
ENDROOT
TORSDOF 0
ENDMDL
