MODEL 1
REMARK minimizedAffinity 3.51351571
REMARK minimizedRMSD -1
REMARK  0 active torsions:
REMARK  status: ('A' for Active; 'I' for Inactive)
ROOT
ATOM      1  C   UNL d   1      -5.999   0.859  -4.457  0.00  0.00     0.078 C 
ATOM      2  C1  UNL d   1      -4.749   1.435  -3.862  0.00  0.00    -0.077 A 
ATOM      3  C2  UNL d   1      -4.110   2.534  -4.449  0.00  0.00    -0.001 A 
ATOM      4  C3  UNL d   1      -2.942   3.054  -3.889  0.00  0.00     0.003 A 
ATOM      5  C4  UNL d   1      -2.401   2.480  -2.740  0.00  0.00    -0.005 A 
ATOM      6  C5  UNL d   1      -3.029   1.385  -2.150  0.00  0.00     0.003 A 
ATOM      7  C6  UNL d   1      -4.197   0.864  -2.708  0.00  0.00    -0.001 A 
ENDROOT
TORSDOF 0
ENDMDL
