MODEL 1
REMARK minimizedAffinity 12.0099754
REMARK minimizedRMSD -1
REMARK  0 active torsions:
REMARK  status: ('A' for Active; 'I' for Inactive)
ROOT
ATOM      1  C   UNL d   1      -1.465   2.618  -3.421  0.00  0.00     0.078 C 
ATOM      2  C1  UNL d   1      -1.947   1.465  -2.591  0.00  0.00    -0.077 A 
ATOM      3  C2  UNL d   1      -1.657   0.144  -2.954  0.00  0.00    -0.001 A 
ATOM      4  C3  UNL d   1      -2.120  -0.919  -2.178  0.00  0.00     0.003 A 
ATOM      5  C4  UNL d   1      -2.877  -0.673  -1.034  0.00  0.00    -0.005 A 
ATOM      6  C5  UNL d   1      -3.172   0.638  -0.666  0.00  0.00     0.003 A 
ATOM      7  C6  UNL d   1      -2.710   1.703  -1.441  0.00  0.00    -0.001 A 
ENDROOT
TORSDOF 0
ENDMDL
