MODEL 1
REMARK minimizedAffinity 8.12317085
REMARK minimizedRMSD -1
REMARK  0 active torsions:
REMARK  status: ('A' for Active; 'I' for Inactive)
ROOT
ATOM      1  C   UNL d   1       5.158  -2.143   0.112  0.00  0.00     0.078 C 
ATOM      2  C1  UNL d   1       3.730  -2.522   0.369  0.00  0.00    -0.077 A 
ATOM      3  C2  UNL d   1       3.177  -3.677  -0.197  0.00  0.00    -0.001 A 
ATOM      4  C3  UNL d   1       1.844  -4.013   0.043  0.00  0.00     0.003 A 
ATOM      5  C4  UNL d   1       1.051  -3.197   0.848  0.00  0.00    -0.005 A 
ATOM      6  C5  UNL d   1       1.592  -2.044   1.414  0.00  0.00     0.003 A 
ATOM      7  C6  UNL d   1       2.925  -1.707   1.175  0.00  0.00    -0.001 A 
ENDROOT
TORSDOF 0
ENDMDL
