MODEL 1
REMARK minimizedAffinity 6.47536898
REMARK minimizedRMSD -1
REMARK  0 active torsions:
REMARK  status: ('A' for Active; 'I' for Inactive)
ROOT
ATOM      1  C   UNL d   1       3.292  -4.741   0.642  0.00  0.00     0.078 C 
ATOM      2  C1  UNL d   1       2.571  -3.513   1.113  0.00  0.00    -0.077 A 
ATOM      3  C2  UNL d   1       2.808  -2.982   2.386  0.00  0.00    -0.001 A 
ATOM      4  C3  UNL d   1       2.123  -1.844   2.815  0.00  0.00     0.003 A 
ATOM      5  C4  UNL d   1       1.194  -1.229   1.978  0.00  0.00    -0.005 A 
ATOM      6  C5  UNL d   1       0.950  -1.753   0.710  0.00  0.00     0.003 A 
ATOM      7  C6  UNL d   1       1.634  -2.890   0.279  0.00  0.00    -0.001 A 
ENDROOT
TORSDOF 0
ENDMDL
