MODEL 1
REMARK minimizedAffinity 5.73251009
REMARK minimizedRMSD -1
REMARK  0 active torsions:
REMARK  status: ('A' for Active; 'I' for Inactive)
ROOT
ATOM      1  C   UNL d   1       4.887  -5.989   5.999  0.00  0.00     0.078 C 
ATOM      2  C1  UNL d   1       4.654  -4.683   5.301  0.00  0.00    -0.077 A 
ATOM      3  C2  UNL d   1       4.722  -3.470   5.999  0.00  0.00    -0.001 A 
ATOM      4  C3  UNL d   1       4.493  -2.262   5.339  0.00  0.00     0.003 A 
ATOM      5  C4  UNL d   1       4.193  -2.254   3.978  0.00  0.00    -0.005 A 
ATOM      6  C5  UNL d   1       4.121  -3.456   3.276  0.00  0.00     0.003 A 
ATOM      7  C6  UNL d   1       4.349  -4.665   3.934  0.00  0.00    -0.001 A 
ENDROOT
TORSDOF 0
ENDMDL
