MODEL 1
REMARK minimizedAffinity 8.02278423
REMARK minimizedRMSD -1
REMARK  0 active torsions:
REMARK  status: ('A' for Active; 'I' for Inactive)
ROOT
ATOM      1  C   UNL d   1      -0.742   2.662  -3.334  0.00  0.00     0.078 C 
ATOM      2  C1  UNL d   1      -1.627   1.641  -2.684  0.00  0.00    -0.077 A 
ATOM      3  C2  UNL d   1      -2.958   1.938  -2.366  0.00  0.00    -0.001 A 
ATOM      4  C3  UNL d   1      -3.768   0.981  -1.752  0.00  0.00     0.003 A 
ATOM      5  C4  UNL d   1      -3.255  -0.279  -1.450  0.00  0.00    -0.005 A 
ATOM      6  C5  UNL d   1      -1.932  -0.583  -1.760  0.00  0.00     0.003 A 
ATOM      7  C6  UNL d   1      -1.120   0.373  -2.374  0.00  0.00    -0.001 A 
ENDROOT
TORSDOF 0
ENDMDL
