MODEL 1
REMARK minimizedAffinity 10.5571299
REMARK minimizedRMSD -1
REMARK  0 active torsions:
REMARK  status: ('A' for Active; 'I' for Inactive)
ROOT
ATOM      1  C   UNL d   1       5.993  -1.691  -2.601  0.00  0.00     0.078 C 
ATOM      2  C1  UNL d   1       5.427  -0.689  -3.563  0.00  0.00    -0.077 A 
ATOM      3  C2  UNL d   1       4.337  -1.011  -4.381  0.00  0.00    -0.001 A 
ATOM      4  C3  UNL d   1       3.827  -0.071  -5.279  0.00  0.00     0.003 A 
ATOM      5  C4  UNL d   1       4.401   1.195  -5.367  0.00  0.00    -0.005 A 
ATOM      6  C5  UNL d   1       5.487   1.523  -4.559  0.00  0.00     0.003 A 
ATOM      7  C6  UNL d   1       5.999   0.585  -3.661  0.00  0.00    -0.001 A 
ENDROOT
TORSDOF 0
ENDMDL
