MODEL 1
REMARK minimizedAffinity 5.69865942
REMARK minimizedRMSD -1
REMARK  0 active torsions:
REMARK  status: ('A' for Active; 'I' for Inactive)
ROOT
ATOM      1  C   UNL d   1       5.374   5.985  -5.898  0.00  0.00     0.078 C 
ATOM      2  C1  UNL d   1       4.054   5.280  -5.800  0.00  0.00    -0.077 A 
ATOM      3  C2  UNL d   1       3.988   3.909  -5.523  0.00  0.00    -0.001 A 
ATOM      4  C3  UNL d   1       2.752   3.265  -5.444  0.00  0.00     0.003 A 
ATOM      5  C4  UNL d   1       1.574   3.982  -5.641  0.00  0.00    -0.005 A 
ATOM      6  C5  UNL d   1       1.631   5.346  -5.920  0.00  0.00     0.003 A 
ATOM      7  C6  UNL d   1       2.865   5.993  -5.999  0.00  0.00    -0.001 A 
ENDROOT
TORSDOF 0
ENDMDL
