MODEL 1
REMARK minimizedAffinity 8.70551682
REMARK minimizedRMSD -1
REMARK  1 active torsions:
REMARK  status: ('A' for Active; 'I' for Inactive)
REMARK    1  A    between atoms: C1_2  and  C2_3 
ROOT
ATOM      1  C2  UNL d   1       0.672   2.465   1.256  0.00  0.00    -0.073 A 
ATOM      2  C3  UNL d   1       0.348   3.805   1.013  0.00  0.00    -0.002 A 
ATOM      3  C4  UNL d   1       0.037   4.232  -0.278  0.00  0.00     0.004 A 
ATOM      4  C5  UNL d   1       0.039   3.325  -1.337  0.00  0.00    -0.004 A 
ATOM      5  C6  UNL d   1       0.347   1.979  -1.113  0.00  0.00    -0.075 A 
ATOM      6  C7  UNL d   1       0.356   0.991  -2.242  0.00  0.00     0.076 C 
ATOM      7  C8  UNL d   1       0.662   1.558   0.186  0.00  0.00     0.001 A 
ENDROOT
BRANCH   1   8
ATOM      8  C1  UNL d   1       1.003   1.997   2.650  0.00  0.00     0.053 C 
ATOM      9  C   UNL d   1       0.275   0.711   3.007  0.00  0.00     0.018 C 
ENDBRANCH   1   8
TORSDOF 1
ENDMDL
