MODEL 1
REMARK minimizedAffinity 2.25843501
REMARK minimizedRMSD -1
REMARK  1 active torsions:
REMARK  status: ('A' for Active; 'I' for Inactive)
REMARK    1  A    between atoms: C1_2  and  C2_3 
ROOT
ATOM      1  C2  UNL d   1       0.911   2.430   0.768  0.00  0.00    -0.073 A 
ATOM      2  C3  UNL d   1       0.777   1.633  -0.375  0.00  0.00    -0.002 A 
ATOM      3  C4  UNL d   1       0.538   0.264  -0.255  0.00  0.00     0.004 A 
ATOM      4  C5  UNL d   1       0.422  -0.321   1.006  0.00  0.00    -0.004 A 
ATOM      5  C6  UNL d   1       0.541   0.460   2.159  0.00  0.00    -0.075 A 
ATOM      6  C7  UNL d   1       0.422  -0.154   3.523  0.00  0.00     0.076 C 
ATOM      7  C8  UNL d   1       0.784   1.834   2.031  0.00  0.00     0.001 A 
ENDROOT
BRANCH   1   8
ATOM      8  C1  UNL d   1       1.163   3.910   0.643  0.00  0.00     0.053 C 
ATOM      9  C   UNL d   1       0.978   4.402  -0.783  0.00  0.00     0.018 C 
ENDBRANCH   1   8
TORSDOF 1
ENDMDL
