MODEL 1
REMARK minimizedAffinity -2.53612399
REMARK minimizedRMSD -1
REMARK  2 active torsions:
REMARK  status: ('A' for Active; 'I' for Inactive)
REMARK    1  A    between atoms: C2'_3  and  C1'_4 
REMARK    2  A    between atoms: C1'_4  and  C1_5 
ROOT
ATOM      1  C1  I4B d   1       0.167   0.763  -0.669  0.00  0.00    -0.075 A 
ATOM      2  C2  I4B d   1      -1.137   0.964  -0.291  0.00  0.00     0.003 A 
ATOM      3  C3  I4B d   1      -1.853  -0.061   0.373  0.00  0.00     0.002 A 
ATOM      4  C4  I4B d   1      -1.247  -1.281   0.592  0.00  0.00    -0.004 A 
ATOM      5  C5  I4B d   1       0.083  -1.476   0.229  0.00  0.00     0.002 A 
ATOM      6  C6  I4B d   1       0.798  -0.444  -0.394  0.00  0.00     0.003 A 
ENDROOT
BRANCH   1   7
ATOM      7  C1' I4B d   1       0.883   1.855  -1.397  0.00  0.00     0.060 C 
BRANCH   7   8
ATOM      8  C2' I4B d   1       0.282   1.964  -2.784  0.00  0.00    -0.013 C 
ATOM      9  C4' I4B d   1      -0.265   3.344  -3.034  0.00  0.00     0.013 C 
ATOM     10  C3' I4B d   1       1.348   1.614  -3.779  0.00  0.00     0.013 C 
ENDBRANCH   7   8
ENDBRANCH   1   7
TORSDOF 2
ENDMDL
