MODEL 1
REMARK minimizedAffinity -4.35304689
REMARK minimizedRMSD -1
REMARK  2 active torsions:
REMARK  status: ('A' for Active; 'I' for Inactive)
REMARK    1  A    between atoms: C2'_3  and  C1'_4 
REMARK    2  A    between atoms: C1'_4  and  C1_5 
ROOT
ATOM      1  C1  I4B d   1       1.412   2.027  -1.151  0.00  0.00    -0.075 A 
ATOM      2  C2  I4B d   1       2.741   2.354  -1.248  0.00  0.00     0.003 A 
ATOM      3  C3  I4B d   1       3.299   2.707  -2.501  0.00  0.00     0.002 A 
ATOM      4  C4  I4B d   1       2.507   2.673  -3.631  0.00  0.00    -0.004 A 
ATOM      5  C5  I4B d   1       1.154   2.364  -3.527  0.00  0.00     0.002 A 
ATOM      6  C6  I4B d   1       0.600   2.051  -2.277  0.00  0.00     0.003 A 
ENDROOT
BRANCH   1   7
ATOM      7  C1' I4B d   1       0.863   1.627   0.182  0.00  0.00     0.060 C 
BRANCH   7   8
ATOM      8  C2' I4B d   1      -0.242   0.617  -0.052  0.00  0.00    -0.013 C 
ATOM      9  C4' I4B d   1       0.239  -0.787   0.206  0.00  0.00     0.013 C 
ATOM     10  C3' I4B d   1      -1.389   0.970   0.847  0.00  0.00     0.013 C 
ENDBRANCH   7   8
ENDBRANCH   1   7
TORSDOF 2
ENDMDL
