MODEL 1
REMARK minimizedAffinity 2.01491356
REMARK minimizedRMSD -1
REMARK  2 active torsions:
REMARK  status: ('A' for Active; 'I' for Inactive)
REMARK    1  A    between atoms: C2'_3  and  C1'_4 
REMARK    2  A    between atoms: C1'_4  and  C1_5 
ROOT
ATOM      1  C1  I4B d   1      -0.474  -0.134  -1.503  0.00  0.00    -0.075 A 
ATOM      2  C2  I4B d   1      -0.362   0.961  -0.684  0.00  0.00     0.003 A 
ATOM      3  C3  I4B d   1      -1.022   0.984   0.569  0.00  0.00     0.002 A 
ATOM      4  C4  I4B d   1      -1.819  -0.081   0.938  0.00  0.00    -0.004 A 
ATOM      5  C5  I4B d   1      -1.913  -1.200   0.115  0.00  0.00     0.002 A 
ATOM      6  C6  I4B d   1      -1.227  -1.233  -1.107  0.00  0.00     0.003 A 
ENDROOT
BRANCH   1   7
ATOM      7  C1' I4B d   1       0.209  -0.112  -2.834  0.00  0.00     0.060 C 
BRANCH   7   8
ATOM      8  C2' I4B d   1       0.702   1.300  -3.081  0.00  0.00    -0.013 C 
ATOM      9  C4' I4B d   1       2.195   1.330  -3.273  0.00  0.00     0.013 C 
ATOM     10  C3' I4B d   1      -0.010   1.833  -4.289  0.00  0.00     0.013 C 
ENDBRANCH   7   8
ENDBRANCH   1   7
TORSDOF 2
ENDMDL
