MODEL 1
REMARK minimizedAffinity 1.41579425
REMARK minimizedRMSD -1
REMARK  2 active torsions:
REMARK  status: ('A' for Active; 'I' for Inactive)
REMARK    1  A    between atoms: C2'_3  and  C1'_4 
REMARK    2  A    between atoms: C1'_4  and  C1_5 
ROOT
ATOM      1  C1  I4B d   1       3.835   2.518  -1.517  0.00  0.00    -0.075 A 
ATOM      2  C2  I4B d   1       2.477   2.348  -1.610  0.00  0.00     0.003 A 
ATOM      3  C3  I4B d   1       1.885   1.999  -2.848  0.00  0.00     0.002 A 
ATOM      4  C4  I4B d   1       2.678   1.880  -3.971  0.00  0.00    -0.004 A 
ATOM      5  C5  I4B d   1       4.059   2.030  -3.870  0.00  0.00     0.002 A 
ATOM      6  C6  I4B d   1       4.643   2.339  -2.633  0.00  0.00     0.003 A 
ENDROOT
BRANCH   1   7
ATOM      7  C1' I4B d   1       4.423   2.919  -0.201  0.00  0.00     0.060 C 
BRANCH   7   8
ATOM      8  C2' I4B d   1       3.427   2.562   0.883  0.00  0.00    -0.013 C 
ATOM      9  C4' I4B d   1       3.871   1.347   1.654  0.00  0.00     0.013 C 
ATOM     10  C3' I4B d   1       3.279   3.751   1.785  0.00  0.00     0.013 C 
ENDBRANCH   7   8
ENDBRANCH   1   7
TORSDOF 2
ENDMDL
