MODEL 1
REMARK minimizedAffinity -1.42343163
REMARK minimizedRMSD -1
REMARK  2 active torsions:
REMARK  status: ('A' for Active; 'I' for Inactive)
REMARK    1  A    between atoms: C2'_3  and  C1'_4 
REMARK    2  A    between atoms: C1'_4  and  C1_5 
ROOT
ATOM      1  C1  I4B d   1       2.145   0.261   1.078  0.00  0.00    -0.075 A 
ATOM      2  C2  I4B d   1       2.984  -0.630   1.699  0.00  0.00     0.003 A 
ATOM      3  C3  I4B d   1       4.163  -0.173   2.337  0.00  0.00     0.002 A 
ATOM      4  C4  I4B d   1       4.488   1.167   2.286  0.00  0.00    -0.004 A 
ATOM      5  C5  I4B d   1       3.624   2.072   1.676  0.00  0.00     0.002 A 
ATOM      6  C6  I4B d   1       2.439   1.618   1.079  0.00  0.00     0.003 A 
ENDROOT
BRANCH   1   7
ATOM      7  C1' I4B d   1       0.925  -0.260   0.386  0.00  0.00     0.060 C 
BRANCH   7   8
ATOM      8  C2' I4B d   1      -0.018   0.904   0.164  0.00  0.00    -0.013 C 
ATOM      9  C4' I4B d   1       0.066   1.412  -1.251  0.00  0.00     0.013 C 
ATOM     10  C3' I4B d   1      -1.407   0.443   0.493  0.00  0.00     0.013 C 
ENDBRANCH   7   8
ENDBRANCH   1   7
TORSDOF 2
ENDMDL
