MODEL 1
REMARK minimizedAffinity 0.969033897
REMARK minimizedRMSD -1
REMARK  2 active torsions:
REMARK  status: ('A' for Active; 'I' for Inactive)
REMARK    1  A    between atoms: C2'_3  and  C1'_4 
REMARK    2  A    between atoms: C1'_4  and  C1_5 
ROOT
ATOM      1  C1  I4B d   1      -0.114   1.326  -1.103  0.00  0.00    -0.075 A 
ATOM      2  C2  I4B d   1      -0.366  -0.019  -0.996  0.00  0.00     0.003 A 
ATOM      3  C3  I4B d   1      -1.316  -0.494  -0.059  0.00  0.00     0.002 A 
ATOM      4  C4  I4B d   1      -1.948   0.400   0.781  0.00  0.00    -0.004 A 
ATOM      5  C5  I4B d   1      -1.708   1.766   0.656  0.00  0.00     0.002 A 
ATOM      6  C6  I4B d   1      -0.794   2.233  -0.300  0.00  0.00     0.003 A 
ENDROOT
BRANCH   1   7
ATOM      7  C1' I4B d   1       0.919   1.791  -2.080  0.00  0.00     0.060 C 
BRANCH   7   8
ATOM      8  C2' I4B d   1       0.206   2.198  -3.354  0.00  0.00    -0.013 C 
ATOM      9  C4' I4B d   1      -0.233   3.638  -3.296  0.00  0.00     0.013 C 
ATOM     10  C3' I4B d   1       1.140   1.963  -4.503  0.00  0.00     0.013 C 
ENDBRANCH   7   8
ENDBRANCH   1   7
TORSDOF 2
ENDMDL
