MODEL 1
REMARK minimizedAffinity -3.45716715
REMARK minimizedRMSD -1
REMARK  2 active torsions:
REMARK  status: ('A' for Active; 'I' for Inactive)
REMARK    1  A    between atoms: C2'_3  and  C1'_4 
REMARK    2  A    between atoms: C1'_4  and  C1_5 
ROOT
ATOM      1  C1  I4B d   1       0.923   1.605  -1.520  0.00  0.00    -0.075 A 
ATOM      2  C2  I4B d   1       2.276   1.812  -1.422  0.00  0.00     0.003 A 
ATOM      3  C3  I4B d   1       3.010   2.270  -2.543  0.00  0.00     0.002 A 
ATOM      4  C4  I4B d   1       2.364   2.459  -3.748  0.00  0.00    -0.004 A 
ATOM      5  C5  I4B d   1       0.988   2.271  -3.839  0.00  0.00     0.002 A 
ATOM      6  C6  I4B d   1       0.260   1.853  -2.715  0.00  0.00     0.003 A 
ENDROOT
BRANCH   1   7
ATOM      7  C1' I4B d   1       0.184   1.090  -0.326  0.00  0.00     0.060 C 
BRANCH   7   8
ATOM      8  C2' I4B d   1       0.038  -0.410  -0.479  0.00  0.00    -0.013 C 
ATOM      9  C4' I4B d   1       1.023  -1.146   0.391  0.00  0.00     0.013 C 
ATOM     10  C3' I4B d   1      -1.374  -0.776  -0.128  0.00  0.00     0.013 C 
ENDBRANCH   7   8
ENDBRANCH   1   7
TORSDOF 2
ENDMDL
