MODEL 1
REMARK minimizedAffinity -1.5070734
REMARK minimizedRMSD -1
REMARK  2 active torsions:
REMARK  status: ('A' for Active; 'I' for Inactive)
REMARK    1  A    between atoms: C2'_3  and  C1'_4 
REMARK    2  A    between atoms: C1'_4  and  C1_5 
ROOT
ATOM      1  C1  I4B d   1       1.147   0.534   0.185  0.00  0.00    -0.075 A 
ATOM      2  C2  I4B d   1       1.838   1.684   0.475  0.00  0.00     0.003 A 
ATOM      3  C3  I4B d   1       3.127   1.615   1.057  0.00  0.00     0.002 A 
ATOM      4  C4  I4B d   1       3.663   0.384   1.376  0.00  0.00    -0.004 A 
ATOM      5  C5  I4B d   1       2.971  -0.782   1.061  0.00  0.00     0.002 A 
ATOM      6  C6  I4B d   1       1.711  -0.708   0.450  0.00  0.00     0.003 A 
ENDROOT
BRANCH   1   7
ATOM      7  C1' I4B d   1      -0.226   0.644  -0.398  0.00  0.00     0.060 C 
BRANCH   7   8
ATOM      8  C2' I4B d   1      -1.206   0.812   0.744  0.00  0.00    -0.013 C 
ATOM      9  C4' I4B d   1      -1.773   2.207   0.776  0.00  0.00     0.013 C 
ATOM     10  C3' I4B d   1      -2.292  -0.209   0.577  0.00  0.00     0.013 C 
ENDBRANCH   7   8
ENDBRANCH   1   7
TORSDOF 2
ENDMDL
