MODEL 1
REMARK minimizedAffinity -3.55999565
REMARK minimizedRMSD -1
REMARK  2 active torsions:
REMARK  status: ('A' for Active; 'I' for Inactive)
REMARK    1  A    between atoms: C2'_3  and  C1'_4 
REMARK    2  A    between atoms: C1'_4  and  C1_5 
ROOT
ATOM      1  C1  I4B d   1       0.327   0.470   0.242  0.00  0.00    -0.075 A 
ATOM      2  C2  I4B d   1      -0.058  -0.782  -0.168  0.00  0.00     0.003 A 
ATOM      3  C3  I4B d   1      -1.404  -1.196  -0.025  0.00  0.00     0.002 A 
ATOM      4  C4  I4B d   1      -2.315  -0.351   0.575  0.00  0.00    -0.004 A 
ATOM      5  C5  I4B d   1      -1.928   0.927   0.970  0.00  0.00     0.002 A 
ATOM      6  C6  I4B d   1      -0.601   1.345   0.792  0.00  0.00     0.003 A 
ENDROOT
BRANCH   1   7
ATOM      7  C1' I4B d   1       1.764   0.863   0.107  0.00  0.00     0.060 C 
BRANCH   7   8
ATOM      8  C2' I4B d   1       2.471   0.499   1.397  0.00  0.00    -0.013 C 
ATOM      9  C4' I4B d   1       3.045  -0.892   1.331  0.00  0.00     0.013 C 
ATOM     10  C3' I4B d   1       3.546   1.517   1.639  0.00  0.00     0.013 C 
ENDBRANCH   7   8
ENDBRANCH   1   7
TORSDOF 2
ENDMDL
