MODEL 1
REMARK minimizedAffinity -2.36058569
REMARK minimizedRMSD -1
REMARK  1 active torsions:
REMARK  status: ('A' for Active; 'I' for Inactive)
REMARK    1  A    between atoms: C1_2  and  C2_3 
ROOT
ATOM      1  C2  UNL d   1       0.619   0.147  -1.337  0.00  0.00    -0.073 A 
ATOM      2  C3  UNL d   1       1.357  -0.958  -0.899  0.00  0.00    -0.002 A 
ATOM      3  C4  UNL d   1       1.659  -1.112   0.455  0.00  0.00     0.004 A 
ATOM      4  C5  UNL d   1       1.221  -0.168   1.384  0.00  0.00    -0.004 A 
ATOM      5  C6  UNL d   1       0.473   0.937   0.967  0.00  0.00    -0.075 A 
ATOM      6  C7  UNL d   1      -0.004   1.963   1.953  0.00  0.00     0.076 C 
ATOM      7  C8  UNL d   1       0.176   1.086  -0.394  0.00  0.00     0.001 A 
ENDROOT
BRANCH   1   8
ATOM      8  C1  UNL d   1       0.285   0.314  -2.797  0.00  0.00     0.053 C 
ATOM      9  C   UNL d   1       1.470   0.831  -3.597  0.00  0.00     0.018 C 
ENDBRANCH   1   8
TORSDOF 1
ENDMDL
