MODEL 1
REMARK minimizedAffinity -1.79405212
REMARK minimizedRMSD -1
REMARK  1 active torsions:
REMARK  status: ('A' for Active; 'I' for Inactive)
REMARK    1  A    between atoms: C1_2  and  C2_3 
ROOT
ATOM      1  C2  UNL d   1       0.130   0.433  -0.122  0.00  0.00    -0.073 A 
ATOM      2  C3  UNL d   1       0.350   0.329   1.256  0.00  0.00    -0.002 A 
ATOM      3  C4  UNL d   1      -0.718   0.419   2.149  0.00  0.00     0.004 A 
ATOM      4  C5  UNL d   1      -2.016   0.606   1.674  0.00  0.00    -0.004 A 
ATOM      5  C6  UNL d   1      -2.258   0.700   0.300  0.00  0.00    -0.075 A 
ATOM      6  C7  UNL d   1      -3.648   0.903  -0.227  0.00  0.00     0.076 C 
ATOM      7  C8  UNL d   1      -1.179   0.611  -0.590  0.00  0.00     0.001 A 
ENDROOT
BRANCH   1   8
ATOM      8  C1  UNL d   1       1.280   0.329  -1.090  0.00  0.00     0.053 C 
ATOM      9  C   UNL d   1       0.881   0.749  -2.496  0.00  0.00     0.018 C 
ENDBRANCH   1   8
TORSDOF 1
ENDMDL
