MODEL 1
REMARK minimizedAffinity -3.53663611
REMARK minimizedRMSD -1
REMARK  1 active torsions:
REMARK  status: ('A' for Active; 'I' for Inactive)
REMARK    1  A    between atoms: C1_2  and  C2_3 
ROOT
ATOM      1  C2  UNL d   1       0.071  -0.019  -1.347  0.00  0.00    -0.073 A 
ATOM      2  C3  UNL d   1      -1.241   0.309  -0.985  0.00  0.00    -0.002 A 
ATOM      3  C4  UNL d   1      -1.632   0.272   0.354  0.00  0.00     0.004 A 
ATOM      4  C5  UNL d   1      -0.717  -0.085   1.344  0.00  0.00    -0.004 A 
ATOM      5  C6  UNL d   1       0.602  -0.404   1.003  0.00  0.00    -0.075 A 
ATOM      6  C7  UNL d   1       1.598  -0.793   2.055  0.00  0.00     0.076 C 
ATOM      7  C8  UNL d   1       0.986  -0.368  -0.344  0.00  0.00     0.001 A 
ENDROOT
BRANCH   1   8
ATOM      8  C1  UNL d   1       0.500   0.026  -2.791  0.00  0.00     0.053 C 
ATOM      9  C   UNL d   1       1.982   0.333  -2.936  0.00  0.00     0.018 C 
ENDBRANCH   1   8
TORSDOF 1
ENDMDL
