MODEL 1
REMARK minimizedAffinity -1.20086658
REMARK minimizedRMSD -1
REMARK  1 active torsions:
REMARK  status: ('A' for Active; 'I' for Inactive)
REMARK    1  A    between atoms: C1_2  and  C2_3 
ROOT
ATOM      1  C2  UNL d   1      -0.482   0.500  -5.262  0.00  0.00    -0.073 A 
ATOM      2  C3  UNL d   1      -0.474  -0.888  -5.442  0.00  0.00    -0.002 A 
ATOM      3  C4  UNL d   1       0.702  -1.544  -5.807  0.00  0.00     0.004 A 
ATOM      4  C5  UNL d   1       1.882  -0.822  -5.989  0.00  0.00    -0.004 A 
ATOM      5  C6  UNL d   1       1.896   0.564  -5.803  0.00  0.00    -0.075 A 
ATOM      6  C7  UNL d   1       3.156   1.355  -5.997  0.00  0.00     0.076 C 
ATOM      7  C8  UNL d   1       0.711   1.216  -5.439  0.00  0.00     0.001 A 
ENDROOT
BRANCH   1   8
ATOM      8  C1  UNL d   1      -1.748   1.213  -4.862  0.00  0.00     0.053 C 
ATOM      9  C   UNL d   1      -2.989   0.402  -5.198  0.00  0.00     0.018 C 
ENDBRANCH   1   8
TORSDOF 1
ENDMDL
