MODEL 1
REMARK minimizedAffinity -4.66139507
REMARK minimizedRMSD -1
REMARK  1 active torsions:
REMARK  status: ('A' for Active; 'I' for Inactive)
REMARK    1  A    between atoms: C1_2  and  C2_3 
ROOT
ATOM      1  C2  UNL d   1       0.092   0.773   0.534  0.00  0.00    -0.073 A 
ATOM      2  C3  UNL d   1       0.350  -0.597   0.659  0.00  0.00    -0.002 A 
ATOM      3  C4  UNL d   1       0.813  -1.329  -0.435  0.00  0.00     0.004 A 
ATOM      4  C5  UNL d   1       1.028  -0.699  -1.661  0.00  0.00    -0.004 A 
ATOM      5  C6  UNL d   1       0.787   0.671  -1.802  0.00  0.00    -0.075 A 
ATOM      6  C7  UNL d   1       1.012   1.363  -3.114  0.00  0.00     0.076 C 
ATOM      7  C8  UNL d   1       0.320   1.399  -0.699  0.00  0.00     0.001 A 
ENDROOT
BRANCH   1   8
ATOM      8  C1  UNL d   1      -0.402   1.569   1.715  0.00  0.00     0.053 C 
ATOM      9  C   UNL d   1      -1.362   0.769   2.580  0.00  0.00     0.018 C 
ENDBRANCH   1   8
TORSDOF 1
ENDMDL
