MODEL 1
REMARK minimizedAffinity -4.7677598
REMARK minimizedRMSD -1
REMARK  1 active torsions:
REMARK  status: ('A' for Active; 'I' for Inactive)
REMARK    1  A    between atoms: C1_2  and  C2_3 
ROOT
ATOM      1  C2  UNL d   1       0.553   0.093   1.592  0.00  0.00    -0.073 A 
ATOM      2  C3  UNL d   1       0.217   0.742   2.785  0.00  0.00    -0.002 A 
ATOM      3  C4  UNL d   1      -1.057   1.285   2.958  0.00  0.00     0.004 A 
ATOM      4  C5  UNL d   1      -2.009   1.179   1.944  0.00  0.00    -0.004 A 
ATOM      5  C6  UNL d   1      -1.696   0.524   0.749  0.00  0.00    -0.075 A 
ATOM      6  C7  UNL d   1      -2.708   0.403  -0.352  0.00  0.00     0.076 C 
ATOM      7  C8  UNL d   1      -0.414  -0.017   0.582  0.00  0.00     0.001 A 
ENDROOT
BRANCH   1   8
ATOM      8  C1  UNL d   1       1.925  -0.500   1.403  0.00  0.00     0.053 C 
ATOM      9  C   UNL d   1       1.965  -1.489   0.249  0.00  0.00     0.018 C 
ENDBRANCH   1   8
TORSDOF 1
ENDMDL
