MODEL 1
REMARK minimizedAffinity -4.33924437
REMARK minimizedRMSD -1
REMARK  1 active torsions:
REMARK  status: ('A' for Active; 'I' for Inactive)
REMARK    1  A    between atoms: C1_2  and  C2_3 
ROOT
ATOM      1  C2  UNL d   1      -0.162  -0.030  -0.247  0.00  0.00    -0.073 A 
ATOM      2  C3  UNL d   1       0.699  -1.103   0.010  0.00  0.00    -0.002 A 
ATOM      3  C4  UNL d   1       1.601  -1.532  -0.965  0.00  0.00     0.004 A 
ATOM      4  C5  UNL d   1       1.655  -0.890  -2.202  0.00  0.00    -0.004 A 
ATOM      5  C6  UNL d   1       0.811   0.192  -2.474  0.00  0.00    -0.075 A 
ATOM      6  C7  UNL d   1       0.856   0.892  -3.800  0.00  0.00     0.076 C 
ATOM      7  C8  UNL d   1      -0.093   0.615  -1.490  0.00  0.00     0.001 A 
ENDROOT
BRANCH   1   8
ATOM      8  C1  UNL d   1      -1.133   0.441   0.805  0.00  0.00     0.053 C 
ATOM      9  C   UNL d   1      -0.422   1.003   2.025  0.00  0.00     0.018 C 
ENDBRANCH   1   8
TORSDOF 1
ENDMDL
