MODEL 1
REMARK minimizedAffinity -4.11549139
REMARK minimizedRMSD -1
REMARK  1 active torsions:
REMARK  status: ('A' for Active; 'I' for Inactive)
REMARK    1  A    between atoms: C1_2  and  C2_3 
ROOT
ATOM      1  C2  UNL d   1      -0.121   1.067   0.382  0.00  0.00    -0.073 A 
ATOM      2  C3  UNL d   1       0.207  -0.183   0.917  0.00  0.00    -0.002 A 
ATOM      3  C4  UNL d   1       0.672  -1.205   0.088  0.00  0.00     0.004 A 
ATOM      4  C5  UNL d   1       0.819  -0.985  -1.282  0.00  0.00    -0.004 A 
ATOM      5  C6  UNL d   1       0.507   0.262  -1.833  0.00  0.00    -0.075 A 
ATOM      6  C7  UNL d   1       0.658   0.515  -3.305  0.00  0.00     0.076 C 
ATOM      7  C8  UNL d   1       0.039   1.282  -0.994  0.00  0.00     0.001 A 
ENDROOT
BRANCH   1   8
ATOM      8  C1  UNL d   1      -0.617   2.175   1.275  0.00  0.00     0.053 C 
ATOM      9  C   UNL d   1      -1.331   1.639   2.506  0.00  0.00     0.018 C 
ENDBRANCH   1   8
TORSDOF 1
ENDMDL
