MODEL 1
REMARK minimizedAffinity 5.23696852
REMARK minimizedRMSD -1
REMARK  1 active torsions:
REMARK  status: ('A' for Active; 'I' for Inactive)
REMARK    1  A    between atoms: N_2  and  C1_3 
ROOT
ATOM      1  C1  UNL d   1      -1.313  -0.318   1.366  0.00  0.00     0.143 A 
ATOM      2  C2  UNL d   1      -0.384   0.536   1.971  0.00  0.00    -0.057 A 
ATOM      3  C3  UNL d   1       0.070   0.307   3.275  0.00  0.00     0.033 A 
ATOM      4  C4  UNL d   1      -0.420  -0.767   4.011  0.00  0.00    -0.042 A 
ATOM      5  C5  UNL d   1      -1.363  -1.614   3.439  0.00  0.00     0.033 A 
ATOM      6  C6  UNL d   1      -1.808  -1.384   2.133  0.00  0.00    -0.057 A 
ENDROOT
BRANCH   1   7
ATOM      7  N   UNL d   1      -1.877  -0.088   0.109  0.00  0.00    -0.732 N 
ATOM      8  C   UNL d   1      -1.039   0.223  -1.029  0.00  0.00     0.284 C 
ATOM      9  H3  UNL d   1      -2.639  -0.730  -0.099  0.00  0.00     0.395 HD
ENDBRANCH   1   7
TORSDOF 1
ENDMDL
