MODEL 1
REMARK minimizedAffinity 0.675809801
REMARK minimizedRMSD -1
REMARK  1 active torsions:
REMARK  status: ('A' for Active; 'I' for Inactive)
REMARK    1  A    between atoms: N_2  and  C1_3 
ROOT
ATOM      1  C1  UNL d   1       0.665  -0.393   2.840  0.00  0.00     0.143 A 
ATOM      2  C2  UNL d   1       0.115   0.527   1.941  0.00  0.00    -0.057 A 
ATOM      3  C3  UNL d   1      -1.228   0.448   1.552  0.00  0.00     0.033 A 
ATOM      4  C4  UNL d   1      -2.039  -0.573   2.034  0.00  0.00    -0.042 A 
ATOM      5  C5  UNL d   1      -1.507  -1.514   2.909  0.00  0.00     0.033 A 
ATOM      6  C6  UNL d   1      -0.168  -1.426   3.299  0.00  0.00    -0.057 A 
ENDROOT
BRANCH   1   7
ATOM      7  N   UNL d   1       2.017  -0.427   3.189  0.00  0.00    -0.732 N 
ATOM      8  C   UNL d   1       3.043  -0.375   2.169  0.00  0.00     0.284 C 
ATOM      9  H3  UNL d   1       2.220   0.136   4.012  0.00  0.00     0.395 HD
ENDBRANCH   1   7
TORSDOF 1
ENDMDL
