MODEL 1
REMARK minimizedAffinity -2.55490446
REMARK minimizedRMSD -1
REMARK  1 active torsions:
REMARK  status: ('A' for Active; 'I' for Inactive)
REMARK    1  A    between atoms: N_2  and  C1_3 
ROOT
ATOM      1  C1  UNL d   1      -1.271  -0.126   1.186  0.00  0.00     0.143 A 
ATOM      2  C2  UNL d   1      -0.263  -0.308   2.139  0.00  0.00    -0.057 A 
ATOM      3  C3  UNL d   1      -0.557  -0.357   3.507  0.00  0.00     0.033 A 
ATOM      4  C4  UNL d   1      -1.866  -0.194   3.950  0.00  0.00    -0.042 A 
ATOM      5  C5  UNL d   1      -2.881   0.013   3.022  0.00  0.00     0.033 A 
ATOM      6  C6  UNL d   1      -2.581   0.054   1.657  0.00  0.00    -0.057 A 
ENDROOT
BRANCH   1   7
ATOM      7  N   UNL d   1      -1.029   0.030  -0.181  0.00  0.00    -0.732 N 
ATOM      8  C   UNL d   1       0.193   0.648  -0.648  0.00  0.00     0.284 C 
ATOM      9  H3  UNL d   1      -1.317  -0.783  -0.721  0.00  0.00     0.395 HD
ENDBRANCH   1   7
TORSDOF 1
ENDMDL
