MODEL 1
REMARK minimizedAffinity 7.28988552
REMARK minimizedRMSD -1
REMARK  1 active torsions:
REMARK  status: ('A' for Active; 'I' for Inactive)
REMARK    1  A    between atoms: N_2  and  C1_3 
ROOT
ATOM      1  C1  UNL d   1      -0.632   0.425   1.236  0.00  0.00     0.143 A 
ATOM      2  C2  UNL d   1      -0.538  -0.293   2.433  0.00  0.00    -0.057 A 
ATOM      3  C3  UNL d   1       0.705  -0.601   2.999  0.00  0.00     0.033 A 
ATOM      4  C4  UNL d   1       1.881  -0.221   2.360  0.00  0.00    -0.042 A 
ATOM      5  C5  UNL d   1       1.811   0.472   1.156  0.00  0.00     0.033 A 
ATOM      6  C6  UNL d   1       0.567   0.782   0.600  0.00  0.00    -0.057 A 
ENDROOT
BRANCH   1   7
ATOM      7  N   UNL d   1      -1.835   0.677   0.573  0.00  0.00    -0.732 N 
ATOM      8  C   UNL d   1      -1.978   0.374  -0.835  0.00  0.00     0.284 C 
ATOM      9  H3  UNL d   1      -2.647   0.432   1.135  0.00  0.00     0.395 HD
ENDBRANCH   1   7
TORSDOF 1
ENDMDL
