MODEL 1
REMARK minimizedAffinity -2.97741771
REMARK minimizedRMSD -1
REMARK  1 active torsions:
REMARK  status: ('A' for Active; 'I' for Inactive)
REMARK    1  A    between atoms: N_2  and  C1_3 
ROOT
ATOM      1  C1  UNL d   1       5.859  -3.743   4.045  0.00  0.00     0.143 A 
ATOM      2  C2  UNL d   1       5.943  -2.906   5.164  0.00  0.00    -0.057 A 
ATOM      3  C3  UNL d   1       5.998  -1.514   5.027  0.00  0.00     0.033 A 
ATOM      4  C4  UNL d   1       6.000  -0.933   3.763  0.00  0.00    -0.042 A 
ATOM      5  C5  UNL d   1       5.942  -1.746   2.637  0.00  0.00     0.033 A 
ATOM      6  C6  UNL d   1       5.880  -3.135   2.780  0.00  0.00    -0.057 A 
ENDROOT
BRANCH   1   7
ATOM      7  N   UNL d   1       5.901  -5.137   4.112  0.00  0.00    -0.732 N 
ATOM      8  C   UNL d   1       5.450  -5.943   2.997  0.00  0.00     0.284 C 
ATOM      9  H3  UNL d   1       6.750  -5.480   4.555  0.00  0.00     0.395 HD
ENDBRANCH   1   7
TORSDOF 1
ENDMDL
