MODEL 1
REMARK minimizedAffinity 7.12603188
REMARK minimizedRMSD -1
REMARK  1 active torsions:
REMARK  status: ('A' for Active; 'I' for Inactive)
REMARK    1  A    between atoms: N_2  and  C1_3 
ROOT
ATOM      1  C1  UNL d   1      -0.402   0.072   2.754  0.00  0.00     0.143 A 
ATOM      2  C2  UNL d   1      -0.961   0.449   1.528  0.00  0.00    -0.057 A 
ATOM      3  C3  UNL d   1      -1.933  -0.340   0.900  0.00  0.00     0.033 A 
ATOM      4  C4  UNL d   1      -2.343  -1.538   1.475  0.00  0.00    -0.042 A 
ATOM      5  C5  UNL d   1      -1.783  -1.945   2.680  0.00  0.00     0.033 A 
ATOM      6  C6  UNL d   1      -0.818  -1.150   3.306  0.00  0.00    -0.057 A 
ENDROOT
BRANCH   1   7
ATOM      7  N   UNL d   1       0.638   0.763   3.380  0.00  0.00    -0.732 N 
ATOM      8  C   UNL d   1       1.995   0.654   2.889  0.00  0.00     0.284 C 
ATOM      9  H3  UNL d   1       0.369   1.706   3.653  0.00  0.00     0.395 HD
ENDBRANCH   1   7
TORSDOF 1
ENDMDL
