MODEL 1
REMARK minimizedAffinity 0.72391355
REMARK minimizedRMSD -1
REMARK  1 active torsions:
REMARK  status: ('A' for Active; 'I' for Inactive)
REMARK    1  A    between atoms: N_2  and  C1_3 
ROOT
ATOM      1  C1  UNL d   1      -1.403   0.116   1.167  0.00  0.00     0.143 A 
ATOM      2  C2  UNL d   1      -0.436   0.906   1.797  0.00  0.00    -0.057 A 
ATOM      3  C3  UNL d   1      -0.038   0.653   3.115  0.00  0.00     0.033 A 
ATOM      4  C4  UNL d   1      -0.624  -0.380   3.839  0.00  0.00    -0.042 A 
ATOM      5  C5  UNL d   1      -1.605  -1.163   3.241  0.00  0.00     0.033 A 
ATOM      6  C6  UNL d   1      -1.994  -0.909   1.922  0.00  0.00    -0.057 A 
ENDROOT
BRANCH   1   7
ATOM      7  N   UNL d   1      -1.912   0.378  -0.108  0.00  0.00    -0.732 N 
ATOM      8  C   UNL d   1      -1.026   0.721  -1.199  0.00  0.00     0.284 C 
ATOM      9  H3  UNL d   1      -2.661  -0.261  -0.366  0.00  0.00     0.395 HD
ENDBRANCH   1   7
TORSDOF 1
ENDMDL
