MODEL 1
REMARK minimizedAffinity -0.599458754
REMARK minimizedRMSD -1
REMARK  1 active torsions:
REMARK  status: ('A' for Active; 'I' for Inactive)
REMARK    1  A    between atoms: N_2  and  C1_3 
ROOT
ATOM      1  C1  UNL d   1       2.782   3.617  -2.388  0.00  0.00     0.143 A 
ATOM      2  C2  UNL d   1       3.940   2.883  -2.667  0.00  0.00    -0.057 A 
ATOM      3  C3  UNL d   1       4.769   3.217  -3.745  0.00  0.00     0.033 A 
ATOM      4  C4  UNL d   1       4.437   4.277  -4.583  0.00  0.00    -0.042 A 
ATOM      5  C5  UNL d   1       3.278   5.004  -4.339  0.00  0.00     0.033 A 
ATOM      6  C6  UNL d   1       2.458   4.670  -3.258  0.00  0.00    -0.057 A 
ENDROOT
BRANCH   1   7
ATOM      7  N   UNL d   1       1.865   3.274  -1.391  0.00  0.00    -0.732 N 
ATOM      8  C   UNL d   1       2.277   3.197  -0.006  0.00  0.00     0.284 C 
ATOM      9  H3  UNL d   1       0.957   3.712  -1.531  0.00  0.00     0.395 HD
ENDBRANCH   1   7
TORSDOF 1
ENDMDL
