MODEL 1
REMARK minimizedAffinity 15.0324993
REMARK minimizedRMSD -1
REMARK  1 active torsions:
REMARK  status: ('A' for Active; 'I' for Inactive)
REMARK    1  A    between atoms: N_2  and  C1_3 
ROOT
ATOM      1  C1  UNL d   1       2.579   3.088  -5.433  0.00  0.00     0.143 A 
ATOM      2  C2  UNL d   1       1.322   3.669  -5.629  0.00  0.00    -0.057 A 
ATOM      3  C3  UNL d   1       0.949   4.838  -4.953  0.00  0.00     0.033 A 
ATOM      4  C4  UNL d   1       1.820   5.431  -4.045  0.00  0.00    -0.042 A 
ATOM      5  C5  UNL d   1       3.065   4.856  -3.816  0.00  0.00     0.033 A 
ATOM      6  C6  UNL d   1       3.433   3.693  -4.498  0.00  0.00    -0.057 A 
ENDROOT
BRANCH   1   7
ATOM      7  N   UNL d   1       2.970   1.873  -6.000  0.00  0.00    -0.732 N 
ATOM      8  C   UNL d   1       2.078   0.733  -5.991  0.00  0.00     0.284 C 
ATOM      9  H3  UNL d   1       3.477   1.997  -6.874  0.00  0.00     0.395 HD
ENDBRANCH   1   7
TORSDOF 1
ENDMDL
