MODEL 1
REMARK minimizedAffinity 5.46996355
REMARK minimizedRMSD -1
REMARK  1 active torsions:
REMARK  status: ('A' for Active; 'I' for Inactive)
REMARK    1  A    between atoms: N_2  and  C1_3 
ROOT
ATOM      1  C1  UNL d   1      -2.327   0.220   0.366  0.00  0.00     0.143 A 
ATOM      2  C2  UNL d   1      -1.155   0.093   1.119  0.00  0.00    -0.057 A 
ATOM      3  C3  UNL d   1      -1.139   0.376   2.490  0.00  0.00     0.033 A 
ATOM      4  C4  UNL d   1      -2.292   0.822   3.128  0.00  0.00    -0.042 A 
ATOM      5  C5  UNL d   1      -3.462   0.980   2.394  0.00  0.00     0.033 A 
ATOM      6  C6  UNL d   1      -3.473   0.689   1.027  0.00  0.00    -0.057 A 
ENDROOT
BRANCH   1   7
ATOM      7  N   UNL d   1      -2.384   0.049  -1.019  0.00  0.00    -0.732 N 
ATOM      8  C   UNL d   1      -1.644  -1.017  -1.661  0.00  0.00     0.284 C 
ATOM      9  H3  UNL d   1      -3.321   0.186  -1.390  0.00  0.00     0.395 HD
ENDBRANCH   1   7
TORSDOF 1
ENDMDL
