MODEL 1
REMARK minimizedAffinity 2.21839738
REMARK minimizedRMSD -1
REMARK  1 active torsions:
REMARK  status: ('A' for Active; 'I' for Inactive)
REMARK    1  A    between atoms: N_2  and  C1_3 
ROOT
ATOM      1  C1  UNL d   1      -1.449   1.391   4.017  0.00  0.00     0.143 A 
ATOM      2  C2  UNL d   1      -2.352   0.454   4.530  0.00  0.00    -0.057 A 
ATOM      3  C3  UNL d   1      -2.051  -0.914   4.541  0.00  0.00     0.033 A 
ATOM      4  C4  UNL d   1      -0.850  -1.372   4.010  0.00  0.00    -0.042 A 
ATOM      5  C5  UNL d   1       0.052  -0.461   3.472  0.00  0.00     0.033 A 
ATOM      6  C6  UNL d   1      -0.251   0.904   3.470  0.00  0.00    -0.057 A 
ENDROOT
BRANCH   1   7
ATOM      7  N   UNL d   1      -1.731   2.753   3.888  0.00  0.00    -0.732 N 
ATOM      8  C   UNL d   1      -3.055   3.262   4.176  0.00  0.00     0.284 C 
ATOM      9  H3  UNL d   1      -0.976   3.341   4.232  0.00  0.00     0.395 HD
ENDBRANCH   1   7
TORSDOF 1
ENDMDL
