MODEL 1
REMARK minimizedAffinity 5.76939726
REMARK minimizedRMSD -1
REMARK  1 active torsions:
REMARK  status: ('A' for Active; 'I' for Inactive)
REMARK    1  A    between atoms: N_2  and  C1_3 
ROOT
ATOM      1  C1  UNL d   1      -0.154  -1.831   3.279  0.00  0.00     0.143 A 
ATOM      2  C2  UNL d   1       0.763  -0.776   3.333  0.00  0.00    -0.057 A 
ATOM      3  C3  UNL d   1       0.370   0.542   3.071  0.00  0.00     0.033 A 
ATOM      4  C4  UNL d   1      -0.946   0.825   2.721  0.00  0.00    -0.042 A 
ATOM      5  C5  UNL d   1      -1.869  -0.211   2.637  0.00  0.00     0.033 A 
ATOM      6  C6  UNL d   1      -1.472  -1.524   2.906  0.00  0.00    -0.057 A 
ENDROOT
BRANCH   1   7
ATOM      7  N   UNL d   1       0.196  -3.175   3.433  0.00  0.00    -0.732 N 
ATOM      8  C   UNL d   1       0.479  -3.999   2.278  0.00  0.00     0.284 C 
ATOM      9  H3  UNL d   1       0.829  -3.324   4.215  0.00  0.00     0.395 HD
ENDBRANCH   1   7
TORSDOF 1
ENDMDL
