MODEL 1
REMARK minimizedAffinity 2.21203971
REMARK minimizedRMSD -1
REMARK  1 active torsions:
REMARK  status: ('A' for Active; 'I' for Inactive)
REMARK    1  A    between atoms: N_2  and  C1_3 
ROOT
ATOM      1  C1  UNL d   1      -1.512  -0.385   1.666  0.00  0.00     0.143 A 
ATOM      2  C2  UNL d   1      -0.190  -0.630   2.052  0.00  0.00    -0.057 A 
ATOM      3  C3  UNL d   1       0.126  -1.004   3.364  0.00  0.00     0.033 A 
ATOM      4  C4  UNL d   1      -0.876  -1.113   4.323  0.00  0.00    -0.042 A 
ATOM      5  C5  UNL d   1      -2.194  -0.851   3.967  0.00  0.00     0.033 A 
ATOM      6  C6  UNL d   1      -2.504  -0.484   2.654  0.00  0.00    -0.057 A 
ENDROOT
BRANCH   1   7
ATOM      7  N   UNL d   1      -1.879   0.086   0.403  0.00  0.00    -0.732 N 
ATOM      8  C   UNL d   1      -0.917   0.125  -0.677  0.00  0.00     0.284 C 
ATOM      9  H3  UNL d   1      -2.805  -0.231   0.124  0.00  0.00     0.395 HD
ENDBRANCH   1   7
TORSDOF 1
ENDMDL
