MODEL 1
REMARK minimizedAffinity 6.77541447
REMARK minimizedRMSD -1
REMARK  1 active torsions:
REMARK  status: ('A' for Active; 'I' for Inactive)
REMARK    1  A    between atoms: N_2  and  C1_3 
ROOT
ATOM      1  C1  UNL d   1      -1.491  -0.223   1.476  0.00  0.00     0.143 A 
ATOM      2  C2  UNL d   1      -0.357   0.494   1.873  0.00  0.00    -0.057 A 
ATOM      3  C3  UNL d   1       0.157   0.378   3.170  0.00  0.00     0.033 A 
ATOM      4  C4  UNL d   1      -0.473  -0.437   4.105  0.00  0.00    -0.042 A 
ATOM      5  C5  UNL d   1      -1.615  -1.140   3.739  0.00  0.00     0.033 A 
ATOM      6  C6  UNL d   1      -2.120  -1.025   2.440  0.00  0.00    -0.057 A 
ENDROOT
BRANCH   1   7
ATOM      7  N   UNL d   1      -2.108  -0.075   0.231  0.00  0.00    -0.732 N 
ATOM      8  C   UNL d   1      -1.335   0.294  -0.935  0.00  0.00     0.284 C 
ATOM      9  H3  UNL d   1      -2.807  -0.794   0.056  0.00  0.00     0.395 HD
ENDBRANCH   1   7
TORSDOF 1
ENDMDL
