MODEL 1
REMARK minimizedAffinity 4.94033766
REMARK minimizedRMSD -1
REMARK  1 active torsions:
REMARK  status: ('A' for Active; 'I' for Inactive)
REMARK    1  A    between atoms: N_2  and  C1_3 
ROOT
ATOM      1  C1  UNL d   1       0.932  -0.072   0.971  0.00  0.00     0.143 A 
ATOM      2  C2  UNL d   1      -0.189   0.381   0.267  0.00  0.00    -0.057 A 
ATOM      3  C3  UNL d   1      -1.276   0.965   0.930  0.00  0.00     0.033 A 
ATOM      4  C4  UNL d   1      -1.272   1.080   2.316  0.00  0.00    -0.042 A 
ATOM      5  C5  UNL d   1      -0.180   0.614   3.038  0.00  0.00     0.033 A 
ATOM      6  C6  UNL d   1       0.905   0.038   2.370  0.00  0.00    -0.057 A 
ENDROOT
BRANCH   1   7
ATOM      7  N   UNL d   1       2.000  -0.750   0.379  0.00  0.00    -0.732 N 
ATOM      8  C   UNL d   1       1.808  -2.058  -0.209  0.00  0.00     0.284 C 
ATOM      9  H3  UNL d   1       2.598  -0.133  -0.165  0.00  0.00     0.395 HD
ENDBRANCH   1   7
TORSDOF 1
ENDMDL
