MODEL 1
REMARK minimizedAffinity 9.36347198
REMARK minimizedRMSD -1
REMARK  1 active torsions:
REMARK  status: ('A' for Active; 'I' for Inactive)
REMARK    1  A    between atoms: N_2  and  C1_3 
ROOT
ATOM      1  C1  UNL d   1       0.003   1.829   2.015  0.00  0.00     0.143 A 
ATOM      2  C2  UNL d   1       0.724   1.938   3.209  0.00  0.00    -0.057 A 
ATOM      3  C3  UNL d   1       2.080   2.287   3.209  0.00  0.00     0.033 A 
ATOM      4  C4  UNL d   1       2.748   2.504   2.008  0.00  0.00    -0.042 A 
ATOM      5  C5  UNL d   1       2.058   2.376   0.808  0.00  0.00     0.033 A 
ATOM      6  C6  UNL d   1       0.702   2.034   0.816  0.00  0.00    -0.057 A 
ENDROOT
BRANCH   1   7
ATOM      7  N   UNL d   1      -1.321   1.390   1.944  0.00  0.00    -0.732 N 
ATOM      8  C   UNL d   1      -1.664   0.022   2.272  0.00  0.00     0.284 C 
ATOM      9  H3  UNL d   1      -1.979   2.080   2.301  0.00  0.00     0.395 HD
ENDBRANCH   1   7
TORSDOF 1
ENDMDL
