MODEL 1
REMARK minimizedAffinity 6.99291563
REMARK minimizedRMSD -1
REMARK  0 active torsions:
REMARK  status: ('A' for Active; 'I' for Inactive)
ROOT
ATOM      1  C   UNL d   1      -2.612  -0.570   1.715  0.00  0.00    -0.002 A 
ATOM      2  C1  UNL d   1      -2.440  -1.847   2.231  0.00  0.00     0.010 A 
ATOM      3  C2  UNL d   1      -2.137  -2.918   1.389  0.00  0.00     0.041 A 
ATOM      4  C3  UNL d   1      -2.007  -2.683   0.006  0.00  0.00    -0.075 A 
ATOM      5  S   UNL d   1      -1.639  -3.842  -1.216  0.00  0.00     0.015 SA
ATOM      6  C4  UNL d   1      -1.700  -2.670  -2.452  0.00  0.00     0.022 A 
ATOM      7  C5  UNL d   1      -1.993  -1.419  -1.962  0.00  0.00     0.026 A 
ATOM      8  C6  UNL d   1      -2.174  -1.406  -0.537  0.00  0.00    -0.082 A 
ATOM      9  C7  UNL d   1      -2.482  -0.340   0.343  0.00  0.00     0.045 A 
ENDROOT
TORSDOF 0
ENDMDL
