MODEL 1
REMARK minimizedAffinity 11.6279755
REMARK minimizedRMSD -1
REMARK  0 active torsions:
REMARK  status: ('A' for Active; 'I' for Inactive)
ROOT
ATOM      1  C   UNL d   1      -1.665  -3.738   0.372  0.00  0.00    -0.002 A 
ATOM      2  C1  UNL d   1      -1.595  -3.398  -0.972  0.00  0.00     0.010 A 
ATOM      3  C2  UNL d   1      -2.278  -2.282  -1.459  0.00  0.00     0.041 A 
ATOM      4  C3  UNL d   1      -3.037  -1.503  -0.563  0.00  0.00    -0.075 A 
ATOM      5  S   UNL d   1      -3.956  -0.092  -0.933  0.00  0.00     0.015 SA
ATOM      6  C4  UNL d   1      -4.460   0.094   0.684  0.00  0.00     0.022 A 
ATOM      7  C5  UNL d   1      -3.951  -0.888   1.500  0.00  0.00     0.026 A 
ATOM      8  C6  UNL d   1      -3.121  -1.825   0.795  0.00  0.00    -0.082 A 
ATOM      9  C7  UNL d   1      -2.419  -2.963   1.257  0.00  0.00     0.045 A 
ENDROOT
TORSDOF 0
ENDMDL
