MODEL 1
REMARK minimizedAffinity 5.24453688
REMARK minimizedRMSD -1
REMARK  0 active torsions:
REMARK  status: ('A' for Active; 'I' for Inactive)
ROOT
ATOM      1  C   UNL d   1       0.079  -1.199   5.945  0.00  0.00    -0.002 A 
ATOM      2  C1  UNL d   1      -1.298  -1.372   5.963  0.00  0.00     0.010 A 
ATOM      3  C2  UNL d   1      -1.852  -2.653   5.977  0.00  0.00     0.041 A 
ATOM      4  C3  UNL d   1      -0.992  -3.768   5.973  0.00  0.00    -0.075 A 
ATOM      5  S   UNL d   1      -1.445  -5.431   5.988  0.00  0.00     0.015 SA
ATOM      6  C4  UNL d   1       0.178  -5.951   5.971  0.00  0.00     0.022 A 
ATOM      7  C5  UNL d   1       1.057  -4.895   5.954  0.00  0.00     0.026 A 
ATOM      8  C6  UNL d   1       0.398  -3.619   5.956  0.00  0.00    -0.082 A 
ATOM      9  C7  UNL d   1       0.930  -2.307   5.942  0.00  0.00     0.045 A 
ENDROOT
TORSDOF 0
ENDMDL
