MODEL 1
REMARK minimizedAffinity 14.553895
REMARK minimizedRMSD -1
REMARK  0 active torsions:
REMARK  status: ('A' for Active; 'I' for Inactive)
ROOT
ATOM      1  C   UNL d   1       5.061   0.451   3.000  0.00  0.00    -0.002 A 
ATOM      2  C1  UNL d   1       5.968   1.447   2.667  0.00  0.00     0.010 A 
ATOM      3  C2  UNL d   1       5.999   1.976   1.375  0.00  0.00     0.041 A 
ATOM      4  C3  UNL d   1       5.092   1.484   0.415  0.00  0.00    -0.075 A 
ATOM      5  S   UNL d   1       4.946   1.982  -1.229  0.00  0.00     0.015 SA
ATOM      6  C4  UNL d   1       3.676   0.886  -1.526  0.00  0.00     0.022 A 
ATOM      7  C5  UNL d   1       3.358   0.149  -0.410  0.00  0.00     0.026 A 
ATOM      8  C6  UNL d   1       4.169   0.482   0.728  0.00  0.00    -0.082 A 
ATOM      9  C7  UNL d   1       4.164  -0.035   2.046  0.00  0.00     0.045 A 
ENDROOT
TORSDOF 0
ENDMDL
