MODEL 1
REMARK minimizedAffinity 11.1169806
REMARK minimizedRMSD -1
REMARK  0 active torsions:
REMARK  status: ('A' for Active; 'I' for Inactive)
ROOT
ATOM      1  C   UNL d   1       5.272   1.217  -1.847  0.00  0.00    -0.002 A 
ATOM      2  C1  UNL d   1       4.005   0.658  -1.752  0.00  0.00     0.010 A 
ATOM      3  C2  UNL d   1       3.441   0.385  -0.504  0.00  0.00     0.041 A 
ATOM      4  C3  UNL d   1       4.178   0.689   0.657  0.00  0.00    -0.075 A 
ATOM      5  S   UNL d   1       3.688   0.443   2.292  0.00  0.00     0.015 SA
ATOM      6  C4  UNL d   1       5.148   1.075   2.903  0.00  0.00     0.022 A 
ATOM      7  C5  UNL d   1       6.000   1.469   1.898  0.00  0.00     0.026 A 
ATOM      8  C6  UNL d   1       5.454   1.253   0.587  0.00  0.00    -0.082 A 
ATOM      9  C7  UNL d   1       5.999   1.517  -0.692  0.00  0.00     0.045 A 
ENDROOT
TORSDOF 0
ENDMDL
