MODEL 1
REMARK minimizedAffinity 14.2658272
REMARK minimizedRMSD -1
REMARK  0 active torsions:
REMARK  status: ('A' for Active; 'I' for Inactive)
ROOT
ATOM      1  C   UNL d   1       3.000   3.104   4.486  0.00  0.00    -0.002 A 
ATOM      2  C1  UNL d   1       2.096   2.084   4.227  0.00  0.00     0.010 A 
ATOM      3  C2  UNL d   1       2.477   0.970   3.477  0.00  0.00     0.041 A 
ATOM      4  C3  UNL d   1       3.796   0.896   2.988  0.00  0.00    -0.075 A 
ATOM      5  S   UNL d   1       4.486  -0.374   2.048  0.00  0.00     0.015 SA
ATOM      6  C4  UNL d   1       5.999   0.408   1.968  0.00  0.00     0.022 A 
ATOM      7  C5  UNL d   1       5.995   1.609   2.637  0.00  0.00     0.026 A 
ATOM      8  C6  UNL d   1       4.725   1.910   3.237  0.00  0.00    -0.082 A 
ATOM      9  C7  UNL d   1       4.308   3.027   3.999  0.00  0.00     0.045 A 
ENDROOT
TORSDOF 0
ENDMDL
