MODEL 1
REMARK minimizedAffinity 12.4340658
REMARK minimizedRMSD -1
REMARK  0 active torsions:
REMARK  status: ('A' for Active; 'I' for Inactive)
ROOT
ATOM      1  C   UNL d   1      -0.656  -5.875  -0.614  0.00  0.00    -0.002 A 
ATOM      2  C1  UNL d   1      -0.938  -5.489   0.689  0.00  0.00     0.010 A 
ATOM      3  C2  UNL d   1      -1.325  -4.178   0.973  0.00  0.00     0.041 A 
ATOM      4  C3  UNL d   1      -1.427  -3.253  -0.084  0.00  0.00    -0.075 A 
ATOM      5  S   UNL d   1      -1.883  -1.594   0.026  0.00  0.00     0.015 SA
ATOM      6  C4  UNL d   1      -1.716  -1.359  -1.654  0.00  0.00     0.022 A 
ATOM      7  C5  UNL d   1      -1.321  -2.507  -2.298  0.00  0.00     0.026 A 
ATOM      8  C6  UNL d   1      -1.149  -3.618  -1.405  0.00  0.00    -0.082 A 
ATOM      9  C7  UNL d   1      -0.758  -4.955  -1.660  0.00  0.00     0.045 A 
ENDROOT
TORSDOF 0
ENDMDL
