MODEL 1
REMARK minimizedAffinity -3.7790823
REMARK minimizedRMSD -1
REMARK  2 active torsions:
REMARK  status: ('A' for Active; 'I' for Inactive)
REMARK    1  A    between atoms: C1_2  and  C2_3 
REMARK    2  A    between atoms: C2_3  and  C3_4 
ROOT
ATOM      1  C3  UNL d   1       0.083   0.233  -0.003  0.00  0.00    -0.075 A 
ATOM      2  C4  UNL d   1      -0.957  -0.644   0.338  0.00  0.00     0.002 A 
ATOM      3  C5  UNL d   1      -1.267  -0.890   1.676  0.00  0.00     0.002 A 
ATOM      4  C6  UNL d   1      -0.536  -0.271   2.688  0.00  0.00    -0.004 A 
ATOM      5  C7  UNL d   1       0.510   0.589   2.361  0.00  0.00     0.002 A 
ATOM      6  C8  UNL d   1       0.819   0.840   1.023  0.00  0.00     0.002 A 
ENDROOT
BRANCH   1   7
ATOM      7  C2  UNL d   1       0.404   0.525  -1.449  0.00  0.00     0.056 C 
BRANCH   7   8
ATOM      8  C1  UNL d   1       0.027  -0.605  -2.413  0.00  0.00     0.007 C 
ATOM      9  C   UNL d   1       1.054  -0.820  -3.517  0.00  0.00     0.009 C 
ENDBRANCH   7   8
ENDBRANCH   1   7
TORSDOF 2
ENDMDL
