MODEL 1
REMARK minimizedAffinity -5.1945281
REMARK minimizedRMSD -1
REMARK  2 active torsions:
REMARK  status: ('A' for Active; 'I' for Inactive)
REMARK    1  A    between atoms: C1_2  and  C2_3 
REMARK    2  A    between atoms: C2_3  and  C3_4 
ROOT
ATOM      1  C3  UNL d   1      -1.276   0.657   3.385  0.00  0.00    -0.075 A 
ATOM      2  C4  UNL d   1      -1.659   1.895   3.921  0.00  0.00     0.002 A 
ATOM      3  C5  UNL d   1      -0.705   2.877   4.189  0.00  0.00     0.002 A 
ATOM      4  C6  UNL d   1       0.643   2.630   3.935  0.00  0.00    -0.004 A 
ATOM      5  C7  UNL d   1       1.036   1.398   3.419  0.00  0.00     0.002 A 
ATOM      6  C8  UNL d   1       0.083   0.415   3.145  0.00  0.00     0.002 A 
ENDROOT
BRANCH   1   7
ATOM      7  C2  UNL d   1      -2.307  -0.399   3.066  0.00  0.00     0.056 C 
BRANCH   7   8
ATOM      8  C1  UNL d   1      -3.160  -0.085   1.832  0.00  0.00     0.007 C 
ATOM      9  C   UNL d   1      -2.359  -0.071   0.536  0.00  0.00     0.009 C 
ENDBRANCH   7   8
ENDBRANCH   1   7
TORSDOF 2
ENDMDL
