MODEL 1
REMARK minimizedAffinity -6.26760387
REMARK minimizedRMSD -1
REMARK  2 active torsions:
REMARK  status: ('A' for Active; 'I' for Inactive)
REMARK    1  A    between atoms: C1_2  and  C2_3 
REMARK    2  A    between atoms: C2_3  and  C3_4 
ROOT
ATOM      1  C3  UNL d   1      -1.163  -0.116   0.167  0.00  0.00    -0.075 A 
ATOM      2  C4  UNL d   1      -0.213  -0.340   1.173  0.00  0.00     0.002 A 
ATOM      3  C5  UNL d   1      -0.594  -0.363   2.515  0.00  0.00     0.002 A 
ATOM      4  C6  UNL d   1      -1.925  -0.151   2.868  0.00  0.00    -0.004 A 
ATOM      5  C7  UNL d   1      -2.874   0.090   1.878  0.00  0.00     0.002 A 
ATOM      6  C8  UNL d   1      -2.497   0.108   0.534  0.00  0.00     0.002 A 
ENDROOT
BRANCH   1   7
ATOM      7  C2  UNL d   1      -0.762  -0.120  -1.289  0.00  0.00     0.056 C 
BRANCH   7   8
ATOM      8  C1  UNL d   1       0.745   0.031  -1.522  0.00  0.00     0.007 C 
ATOM      9  C   UNL d   1       1.216  -0.596  -2.827  0.00  0.00     0.009 C 
ENDBRANCH   7   8
ENDBRANCH   1   7
TORSDOF 2
ENDMDL
