MODEL 1
REMARK minimizedAffinity -4.62110996
REMARK minimizedRMSD -1
REMARK  2 active torsions:
REMARK  status: ('A' for Active; 'I' for Inactive)
REMARK    1  A    between atoms: C1_2  and  C2_3 
REMARK    2  A    between atoms: C2_3  and  C3_4 
ROOT
ATOM      1  C3  UNL d   1       0.057   0.262  -0.231  0.00  0.00    -0.075 A 
ATOM      2  C4  UNL d   1       1.179   0.432   0.593  0.00  0.00     0.002 A 
ATOM      3  C5  UNL d   1       1.102   0.161   1.959  0.00  0.00     0.002 A 
ATOM      4  C6  UNL d   1      -0.097  -0.271   2.521  0.00  0.00    -0.004 A 
ATOM      5  C7  UNL d   1      -1.223  -0.428   1.715  0.00  0.00     0.002 A 
ATOM      6  C8  UNL d   1      -1.148  -0.163   0.347  0.00  0.00     0.002 A 
ENDROOT
BRANCH   1   7
ATOM      7  C2  UNL d   1       0.141   0.524  -1.715  0.00  0.00     0.056 C 
BRANCH   7   8
ATOM      8  C1  UNL d   1       1.260  -0.247  -2.422  0.00  0.00     0.007 C 
ATOM      9  C   UNL d   1       0.744  -1.301  -3.392  0.00  0.00     0.009 C 
ENDBRANCH   7   8
ENDBRANCH   1   7
TORSDOF 2
ENDMDL
