MODEL 1
REMARK minimizedAffinity -2.1821208
REMARK minimizedRMSD -1
REMARK  2 active torsions:
REMARK  status: ('A' for Active; 'I' for Inactive)
REMARK    1  A    between atoms: C1_2  and  C2_3 
REMARK    2  A    between atoms: C2_3  and  C3_4 
ROOT
ATOM      1  C3  UNL d   1      -0.993  -0.521   1.062  0.00  0.00    -0.075 A 
ATOM      2  C4  UNL d   1       0.262  -0.510   0.435  0.00  0.00     0.002 A 
ATOM      3  C5  UNL d   1       0.387  -0.096  -0.891  0.00  0.00     0.002 A 
ATOM      4  C6  UNL d   1      -0.738   0.303  -1.609  0.00  0.00    -0.004 A 
ATOM      5  C7  UNL d   1      -1.991   0.280  -1.002  0.00  0.00     0.002 A 
ATOM      6  C8  UNL d   1      -2.120  -0.130   0.326  0.00  0.00     0.002 A 
ENDROOT
BRANCH   1   7
ATOM      7  C2  UNL d   1      -1.132  -0.940   2.506  0.00  0.00     0.056 C 
BRANCH   7   8
ATOM      8  C1  UNL d   1      -1.091   0.225   3.500  0.00  0.00     0.007 C 
ATOM      9  C   UNL d   1       0.044   1.204   3.232  0.00  0.00     0.009 C 
ENDBRANCH   7   8
ENDBRANCH   1   7
TORSDOF 2
ENDMDL
