MODEL 1
REMARK minimizedAffinity -4.228971
REMARK minimizedRMSD -1
REMARK  2 active torsions:
REMARK  status: ('A' for Active; 'I' for Inactive)
REMARK    1  A    between atoms: C1_2  and  C2_3 
REMARK    2  A    between atoms: C2_3  and  C3_4 
ROOT
ATOM      1  C3  UNL d   1       3.785   1.037  -3.854  0.00  0.00    -0.075 A 
ATOM      2  C4  UNL d   1       4.919   1.094  -3.031  0.00  0.00     0.002 A 
ATOM      3  C5  UNL d   1       6.000   1.909  -3.370  0.00  0.00     0.002 A 
ATOM      4  C6  UNL d   1       5.965   2.667  -4.537  0.00  0.00    -0.004 A 
ATOM      5  C7  UNL d   1       4.851   2.606  -5.371  0.00  0.00     0.002 A 
ATOM      6  C8  UNL d   1       3.766   1.795  -5.033  0.00  0.00     0.002 A 
ENDROOT
BRANCH   1   7
ATOM      7  C2  UNL d   1       2.600   0.180  -3.479  0.00  0.00     0.056 C 
BRANCH   7   8
ATOM      8  C1  UNL d   1       2.768  -1.303  -3.823  0.00  0.00     0.007 C 
ATOM      9  C   UNL d   1       1.527  -1.918  -4.455  0.00  0.00     0.009 C 
ENDBRANCH   7   8
ENDBRANCH   1   7
TORSDOF 2
ENDMDL
