MODEL 1
REMARK minimizedAffinity -2.01882291
REMARK minimizedRMSD -1
REMARK  2 active torsions:
REMARK  status: ('A' for Active; 'I' for Inactive)
REMARK    1  A    between atoms: C1_2  and  C2_3 
REMARK    2  A    between atoms: C2_3  and  C3_4 
ROOT
ATOM      1  C3  UNL d   1      -0.465  -0.220  -0.863  0.00  0.00    -0.075 A 
ATOM      2  C4  UNL d   1      -1.840  -0.068  -0.631  0.00  0.00     0.002 A 
ATOM      3  C5  UNL d   1      -2.355  -0.170   0.661  0.00  0.00     0.002 A 
ATOM      4  C6  UNL d   1      -1.507  -0.435   1.734  0.00  0.00    -0.004 A 
ATOM      5  C7  UNL d   1      -0.142  -0.605   1.513  0.00  0.00     0.002 A 
ATOM      6  C8  UNL d   1       0.377  -0.499   0.222  0.00  0.00     0.002 A 
ENDROOT
BRANCH   1   7
ATOM      7  C2  UNL d   1       0.104  -0.082  -2.255  0.00  0.00     0.056 C 
BRANCH   7   8
ATOM      8  C1  UNL d   1       0.266  -1.412  -2.998  0.00  0.00     0.007 C 
ATOM      9  C   UNL d   1       1.682  -1.646  -3.508  0.00  0.00     0.009 C 
ENDBRANCH   7   8
ENDBRANCH   1   7
TORSDOF 2
ENDMDL
