MODEL 1
REMARK minimizedAffinity -2.65231085
REMARK minimizedRMSD -1
REMARK  2 active torsions:
REMARK  status: ('A' for Active; 'I' for Inactive)
REMARK    1  A    between atoms: C1_2  and  C2_3 
REMARK    2  A    between atoms: C2_3  and  C3_4 
ROOT
ATOM      1  C3  UNL d   1       0.216   0.275   0.186  0.00  0.00    -0.075 A 
ATOM      2  C4  UNL d   1       1.143   0.243   1.238  0.00  0.00     0.002 A 
ATOM      3  C5  UNL d   1       0.795  -0.307   2.472  0.00  0.00     0.002 A 
ATOM      4  C6  UNL d   1      -0.484  -0.822   2.673  0.00  0.00    -0.004 A 
ATOM      5  C7  UNL d   1      -1.418  -0.780   1.640  0.00  0.00     0.002 A 
ATOM      6  C8  UNL d   1      -1.071  -0.235   0.403  0.00  0.00     0.002 A 
ENDROOT
BRANCH   1   7
ATOM      7  C2  UNL d   1       0.596   0.842  -1.161  0.00  0.00     0.056 C 
BRANCH   7   8
ATOM      8  C1  UNL d   1       1.049  -0.213  -2.176  0.00  0.00     0.007 C 
ATOM      9  C   UNL d   1       2.379   0.123  -2.838  0.00  0.00     0.009 C 
ENDBRANCH   7   8
ENDBRANCH   1   7
TORSDOF 2
ENDMDL
