MODEL 1
REMARK minimizedAffinity 3.63400531
REMARK minimizedRMSD -1
REMARK  2 active torsions:
REMARK  status: ('A' for Active; 'I' for Inactive)
REMARK    1  A    between atoms: C1_2  and  C2_3 
REMARK    2  A    between atoms: C2_3  and  C3_4 
ROOT
ATOM      1  C3  UNL d   1       0.593   0.785   1.982  0.00  0.00    -0.075 A 
ATOM      2  C4  UNL d   1       1.630  -0.060   2.404  0.00  0.00     0.002 A 
ATOM      3  C5  UNL d   1       1.370  -1.392   2.730  0.00  0.00     0.002 A 
ATOM      4  C6  UNL d   1       0.072  -1.892   2.650  0.00  0.00    -0.004 A 
ATOM      5  C7  UNL d   1      -0.968  -1.057   2.248  0.00  0.00     0.002 A 
ATOM      6  C8  UNL d   1      -0.711   0.274   1.916  0.00  0.00     0.002 A 
ENDROOT
BRANCH   1   7
ATOM      7  C2  UNL d   1       0.872   2.218   1.599  0.00  0.00     0.056 C 
BRANCH   7   8
ATOM      8  C1  UNL d   1       1.312   2.400   0.142  0.00  0.00     0.007 C 
ATOM      9  C   UNL d   1       2.499   3.341  -0.013  0.00  0.00     0.009 C 
ENDBRANCH   7   8
ENDBRANCH   1   7
TORSDOF 2
ENDMDL
