MODEL 1
REMARK minimizedAffinity -5.31367922
REMARK minimizedRMSD -1
REMARK  2 active torsions:
REMARK  status: ('A' for Active; 'I' for Inactive)
REMARK    1  A    between atoms: C1_2  and  C2_3 
REMARK    2  A    between atoms: C2_3  and  C3_4 
ROOT
ATOM      1  C3  UNL d   1      -1.026   0.109   0.713  0.00  0.00    -0.075 A 
ATOM      2  C4  UNL d   1      -0.027  -0.155   1.662  0.00  0.00     0.002 A 
ATOM      3  C5  UNL d   1      -0.363  -0.427   2.988  0.00  0.00     0.002 A 
ATOM      4  C6  UNL d   1      -1.699  -0.429   3.385  0.00  0.00    -0.004 A 
ATOM      5  C7  UNL d   1      -2.698  -0.152   2.455  0.00  0.00     0.002 A 
ATOM      6  C8  UNL d   1      -2.365   0.116   1.126  0.00  0.00     0.002 A 
ENDROOT
BRANCH   1   7
ATOM      7  C2  UNL d   1      -0.671   0.375  -0.730  0.00  0.00     0.056 C 
BRANCH   7   8
ATOM      8  C1  UNL d   1       0.835   0.352  -1.016  0.00  0.00     0.007 C 
ATOM      9  C   UNL d   1       1.183  -0.297  -2.349  0.00  0.00     0.009 C 
ENDBRANCH   7   8
ENDBRANCH   1   7
TORSDOF 2
ENDMDL
