MODEL 1
REMARK minimizedAffinity -5.72432518
REMARK minimizedRMSD -1
REMARK  2 active torsions:
REMARK  status: ('A' for Active; 'I' for Inactive)
REMARK    1  A    between atoms: C1_2  and  C2_3 
REMARK    2  A    between atoms: C2_3  and  C3_4 
ROOT
ATOM      1  C3  UNL d   1       2.975  -0.659  -3.786  0.00  0.00    -0.075 A 
ATOM      2  C4  UNL d   1       2.107   0.367  -3.389  0.00  0.00     0.002 A 
ATOM      3  C5  UNL d   1       0.751   0.109  -3.185  0.00  0.00     0.002 A 
ATOM      4  C6  UNL d   1       0.245  -1.173  -3.385  0.00  0.00    -0.004 A 
ATOM      5  C7  UNL d   1       1.096  -2.197  -3.796  0.00  0.00     0.002 A 
ATOM      6  C8  UNL d   1       2.454  -1.943  -3.996  0.00  0.00     0.002 A 
ENDROOT
BRANCH   1   7
ATOM      7  C2  UNL d   1       4.449  -0.393  -3.980  0.00  0.00     0.056 C 
BRANCH   7   8
ATOM      8  C1  UNL d   1       4.851   1.071  -3.774  0.00  0.00     0.007 C 
ATOM      9  C   UNL d   1       5.523   1.687  -4.994  0.00  0.00     0.009 C 
ENDBRANCH   7   8
ENDBRANCH   1   7
TORSDOF 2
ENDMDL
