MODEL 1
REMARK minimizedAffinity -0.933870196
REMARK minimizedRMSD -1
REMARK  2 active torsions:
REMARK  status: ('A' for Active; 'I' for Inactive)
REMARK    1  A    between atoms: C1_2  and  C2_3 
REMARK    2  A    between atoms: C2_3  and  C3_4 
ROOT
ATOM      1  C3  UNL d   1      -0.120  -0.607   0.152  0.00  0.00    -0.075 A 
ATOM      2  C4  UNL d   1       1.151  -0.853   0.692  0.00  0.00     0.002 A 
ATOM      3  C5  UNL d   1       1.562  -0.208   1.858  0.00  0.00     0.002 A 
ATOM      4  C6  UNL d   1       0.714   0.698   2.493  0.00  0.00    -0.004 A 
ATOM      5  C7  UNL d   1      -0.544   0.962   1.956  0.00  0.00     0.002 A 
ATOM      6  C8  UNL d   1      -0.959   0.314   0.791  0.00  0.00     0.002 A 
ENDROOT
BRANCH   1   7
ATOM      7  C2  UNL d   1      -0.582  -1.325  -1.094  0.00  0.00     0.056 C 
BRANCH   7   8
ATOM      8  C1  UNL d   1      -0.129  -0.663  -2.399  0.00  0.00     0.007 C 
ATOM      9  C   UNL d   1       0.796  -1.543  -3.230  0.00  0.00     0.009 C 
ENDBRANCH   7   8
ENDBRANCH   1   7
TORSDOF 2
ENDMDL
