MODEL 1
REMARK minimizedAffinity -0.403333962
REMARK minimizedRMSD -1
REMARK  2 active torsions:
REMARK  status: ('A' for Active; 'I' for Inactive)
REMARK    1  A    between atoms: C1_2  and  C2_3 
REMARK    2  A    between atoms: C2_3  and  C3_4 
ROOT
ATOM      1  C3  UNL d   1      -1.603  -0.118   2.259  0.00  0.00    -0.075 A 
ATOM      2  C4  UNL d   1      -0.676   0.835   1.814  0.00  0.00     0.002 A 
ATOM      3  C5  UNL d   1       0.693   0.625   1.984  0.00  0.00     0.002 A 
ATOM      4  C6  UNL d   1       1.151  -0.533   2.609  0.00  0.00    -0.004 A 
ATOM      5  C7  UNL d   1       0.238  -1.479   3.069  0.00  0.00     0.002 A 
ATOM      6  C8  UNL d   1      -1.132  -1.274   2.897  0.00  0.00     0.002 A 
ENDROOT
BRANCH   1   7
ATOM      7  C2  UNL d   1      -3.084   0.090   2.052  0.00  0.00     0.056 C 
BRANCH   7   8
ATOM      8  C1  UNL d   1      -3.424   1.172   1.022  0.00  0.00     0.007 C 
ATOM      9  C   UNL d   1      -4.888   1.162   0.601  0.00  0.00     0.009 C 
ENDBRANCH   7   8
ENDBRANCH   1   7
TORSDOF 2
ENDMDL
