MODEL 1
REMARK minimizedAffinity 0.919175327
REMARK minimizedRMSD -1
REMARK  2 active torsions:
REMARK  status: ('A' for Active; 'I' for Inactive)
REMARK    1  A    between atoms: C1_2  and  C2_3 
REMARK    2  A    between atoms: C2_3  and  C3_4 
ROOT
ATOM      1  C3  UNL d   1      -0.303   0.647   0.166  0.00  0.00    -0.075 A 
ATOM      2  C4  UNL d   1      -0.906  -0.079   1.204  0.00  0.00     0.002 A 
ATOM      3  C5  UNL d   1      -0.393  -0.020   2.500  0.00  0.00     0.002 A 
ATOM      4  C6  UNL d   1       0.732   0.754   2.773  0.00  0.00    -0.004 A 
ATOM      5  C7  UNL d   1       1.348   1.467   1.747  0.00  0.00     0.002 A 
ATOM      6  C8  UNL d   1       0.835   1.414   0.450  0.00  0.00     0.002 A 
ENDROOT
BRANCH   1   7
ATOM      7  C2  UNL d   1      -0.871   0.612  -1.233  0.00  0.00     0.056 C 
BRANCH   7   8
ATOM      8  C1  UNL d   1       0.150   0.230  -2.310  0.00  0.00     0.007 C 
ATOM      9  C   UNL d   1      -0.355  -0.846  -3.261  0.00  0.00     0.009 C 
ENDBRANCH   7   8
ENDBRANCH   1   7
TORSDOF 2
ENDMDL
