MODEL 1
REMARK minimizedAffinity 2.35943818
REMARK minimizedRMSD -1
REMARK  2 active torsions:
REMARK  status: ('A' for Active; 'I' for Inactive)
REMARK    1  A    between atoms: C1_2  and  C2_3 
REMARK    2  A    between atoms: C2_3  and  C3_4 
ROOT
ATOM      1  C3  UNL d   1      -0.950  -0.026   1.687  0.00  0.00    -0.075 A 
ATOM      2  C4  UNL d   1      -0.228   0.765   2.592  0.00  0.00     0.002 A 
ATOM      3  C5  UNL d   1       1.040   0.372   3.022  0.00  0.00     0.002 A 
ATOM      4  C6  UNL d   1       1.596  -0.819   2.562  0.00  0.00    -0.004 A 
ATOM      5  C7  UNL d   1       0.881  -1.621   1.675  0.00  0.00     0.002 A 
ATOM      6  C8  UNL d   1      -0.386  -1.228   1.240  0.00  0.00     0.002 A 
ENDROOT
BRANCH   1   7
ATOM      7  C2  UNL d   1      -2.310   0.408   1.195  0.00  0.00     0.056 C 
BRANCH   7   8
ATOM      8  C1  UNL d   1      -3.278   0.811   2.313  0.00  0.00     0.007 C 
ATOM      9  C   UNL d   1      -4.529   1.511   1.800  0.00  0.00     0.009 C 
ENDBRANCH   7   8
ENDBRANCH   1   7
TORSDOF 2
ENDMDL
