MODEL 1
REMARK minimizedAffinity -3.57015562
REMARK minimizedRMSD -1
REMARK  1 active torsions:
REMARK  status: ('A' for Active; 'I' for Inactive)
REMARK    1  A    between atoms: C1_2  and  C2_3 
ROOT
ATOM      1  C2  UNL d   1      -0.583   1.617  -2.444  0.00  0.00    -0.076 A 
ATOM      2  C3  UNL d   1       0.627   2.332  -2.467  0.00  0.00     0.004 A 
ATOM      3  C4  UNL d   1       0.637   3.725  -2.513  0.00  0.00    -0.003 A 
ATOM      4  C5  UNL d   1      -0.563   4.426  -2.537  0.00  0.00     0.000 A 
ATOM      5  C6  UNL d   1      -1.773   3.734  -2.496  0.00  0.00     0.000 A 
ATOM      6  C7  UNL d   1      -1.801   2.330  -2.433  0.00  0.00    -0.073 A 
ATOM      7  C8  UNL d   1      -3.134   1.635  -2.398  0.00  0.00     0.078 C 
ENDROOT
BRANCH   1   8
ATOM      8  C1  UNL d   1      -0.532   0.106  -2.421  0.00  0.00     0.053 C 
ATOM      9  C   UNL d   1      -0.059  -0.440  -1.083  0.00  0.00     0.018 C 
ENDBRANCH   1   8
TORSDOF 1
ENDMDL
