MODEL 1
REMARK minimizedAffinity -0.216487169
REMARK minimizedRMSD -1
REMARK  1 active torsions:
REMARK  status: ('A' for Active; 'I' for Inactive)
REMARK    1  A    between atoms: C1_2  and  C2_3 
ROOT
ATOM      1  C2  UNL d   1      -0.321  -1.439   2.194  0.00  0.00    -0.076 A 
ATOM      2  C3  UNL d   1      -1.378  -1.307   1.277  0.00  0.00     0.004 A 
ATOM      3  C4  UNL d   1      -1.297  -0.410   0.213  0.00  0.00    -0.003 A 
ATOM      4  C5  UNL d   1      -0.158   0.370   0.049  0.00  0.00     0.000 A 
ATOM      5  C6  UNL d   1       0.908   0.239   0.939  0.00  0.00     0.000 A 
ATOM      6  C7  UNL d   1       0.849  -0.672   2.008  0.00  0.00    -0.073 A 
ATOM      7  C8  UNL d   1       2.025  -0.768   2.941  0.00  0.00     0.078 C 
ENDROOT
BRANCH   1   8
ATOM      8  C1  UNL d   1      -0.476  -2.409   3.343  0.00  0.00     0.053 C 
ATOM      9  C   UNL d   1      -1.090  -3.732   2.911  0.00  0.00     0.018 C 
ENDBRANCH   1   8
TORSDOF 1
ENDMDL
