MODEL 1
REMARK minimizedAffinity -2.78051591
REMARK minimizedRMSD -1
REMARK  1 active torsions:
REMARK  status: ('A' for Active; 'I' for Inactive)
REMARK    1  A    between atoms: C1_2  and  C2_3 
ROOT
ATOM      1  C2  UNL d   1       0.450  -0.689   1.090  0.00  0.00    -0.076 A 
ATOM      2  C3  UNL d   1       1.346  -1.158   0.112  0.00  0.00     0.004 A 
ATOM      3  C4  UNL d   1       1.006  -1.139  -1.239  0.00  0.00    -0.003 A 
ATOM      4  C5  UNL d   1      -0.234  -0.651  -1.636  0.00  0.00     0.000 A 
ATOM      5  C6  UNL d   1      -1.128  -0.167  -0.682  0.00  0.00     0.000 A 
ATOM      6  C7  UNL d   1      -0.795  -0.163   0.684  0.00  0.00    -0.073 A 
ATOM      7  C8  UNL d   1      -1.799   0.366   1.670  0.00  0.00     0.078 C 
ENDROOT
BRANCH   1   8
ATOM      8  C1  UNL d   1       0.863  -0.759   2.543  0.00  0.00     0.053 C 
ATOM      9  C   UNL d   1       2.091   0.086   2.841  0.00  0.00     0.018 C 
ENDBRANCH   1   8
TORSDOF 1
ENDMDL
