MODEL 1
REMARK minimizedAffinity 2.69940782
REMARK minimizedRMSD -1
REMARK  1 active torsions:
REMARK  status: ('A' for Active; 'I' for Inactive)
REMARK    1  A    between atoms: C1_2  and  C2_3 
ROOT
ATOM      1  C2  UNL d   1      -3.182   1.501  -3.473  0.00  0.00    -0.076 A 
ATOM      2  C3  UNL d   1      -3.378   0.552  -2.455  0.00  0.00     0.004 A 
ATOM      3  C4  UNL d   1      -3.977  -0.677  -2.725  0.00  0.00    -0.003 A 
ATOM      4  C5  UNL d   1      -4.390  -0.978  -4.018  0.00  0.00     0.000 A 
ATOM      5  C6  UNL d   1      -4.187  -0.056  -5.044  0.00  0.00     0.000 A 
ATOM      6  C7  UNL d   1      -3.570   1.182  -4.792  0.00  0.00    -0.073 A 
ATOM      7  C8  UNL d   1      -3.382   2.141  -5.935  0.00  0.00     0.078 C 
ENDROOT
BRANCH   1   8
ATOM      8  C1  UNL d   1      -2.552   2.828  -3.116  0.00  0.00     0.053 C 
ATOM      9  C   UNL d   1      -1.046   2.725  -2.925  0.00  0.00     0.018 C 
ENDBRANCH   1   8
TORSDOF 1
ENDMDL
