MODEL 1
REMARK minimizedAffinity 2.96242833
REMARK minimizedRMSD -1
REMARK  1 active torsions:
REMARK  status: ('A' for Active; 'I' for Inactive)
REMARK    1  A    between atoms: C1_2  and  C2_3 
ROOT
ATOM      1  C2  UNL d   1       0.331  -0.402   2.187  0.00  0.00    -0.076 A 
ATOM      2  C3  UNL d   1      -0.876  -0.061   2.822  0.00  0.00     0.004 A 
ATOM      3  C4  UNL d   1      -2.103  -0.279   2.197  0.00  0.00    -0.003 A 
ATOM      4  C5  UNL d   1      -2.142  -0.843   0.926  0.00  0.00     0.000 A 
ATOM      5  C6  UNL d   1      -0.955  -1.203   0.289  0.00  0.00     0.000 A 
ATOM      6  C7  UNL d   1       0.289  -1.004   0.912  0.00  0.00    -0.073 A 
ATOM      7  C8  UNL d   1       1.537  -1.406   0.176  0.00  0.00     0.078 C 
ENDROOT
BRANCH   1   8
ATOM      8  C1  UNL d   1       1.631  -0.116   2.904  0.00  0.00     0.053 C 
ATOM      9  C   UNL d   1       1.887  -1.079   4.053  0.00  0.00     0.018 C 
ENDBRANCH   1   8
TORSDOF 1
ENDMDL
