MODEL 1
REMARK minimizedAffinity -5.50754929
REMARK minimizedRMSD -1
REMARK  1 active torsions:
REMARK  status: ('A' for Active; 'I' for Inactive)
REMARK    1  A    between atoms: C1_2  and  C2_3 
ROOT
ATOM      1  C2  UNL d   1       0.782  -0.246   1.056  0.00  0.00    -0.076 A 
ATOM      2  C3  UNL d   1      -0.515   0.272   0.895  0.00  0.00     0.004 A 
ATOM      3  C4  UNL d   1      -1.098   0.366  -0.367  0.00  0.00    -0.003 A 
ATOM      4  C5  UNL d   1      -0.395  -0.057  -1.489  0.00  0.00     0.000 A 
ATOM      5  C6  UNL d   1       0.886  -0.590  -1.346  0.00  0.00     0.000 A 
ATOM      6  C7  UNL d   1       1.483  -0.707  -0.079  0.00  0.00    -0.073 A 
ATOM      7  C8  UNL d   1       2.869  -1.283   0.016  0.00  0.00     0.078 C 
ENDROOT
BRANCH   1   8
ATOM      8  C1  UNL d   1       1.374  -0.299   2.447  0.00  0.00     0.053 C 
ATOM      9  C   UNL d   1       0.684  -1.322   3.335  0.00  0.00     0.018 C 
ENDBRANCH   1   8
TORSDOF 1
ENDMDL
