MODEL 1
REMARK minimizedAffinity -3.65485525
REMARK minimizedRMSD -1
REMARK  1 active torsions:
REMARK  status: ('A' for Active; 'I' for Inactive)
REMARK    1  A    between atoms: C1_2  and  C2_3 
ROOT
ATOM      1  C2  UNL d   1      -0.373  -0.057  -0.056  0.00  0.00    -0.076 A 
ATOM      2  C3  UNL d   1      -1.382   0.431   0.792  0.00  0.00     0.004 A 
ATOM      3  C4  UNL d   1      -1.307   0.253   2.172  0.00  0.00    -0.003 A 
ATOM      4  C5  UNL d   1      -0.221  -0.415   2.727  0.00  0.00     0.000 A 
ATOM      5  C6  UNL d   1       0.798  -0.890   1.902  0.00  0.00     0.000 A 
ATOM      6  C7  UNL d   1       0.746  -0.705   0.510  0.00  0.00    -0.073 A 
ATOM      7  C8  UNL d   1       1.870  -1.243  -0.333  0.00  0.00     0.078 C 
ENDROOT
BRANCH   1   8
ATOM      8  C1  UNL d   1      -0.521   0.142  -1.548  0.00  0.00     0.053 C 
ATOM      9  C   UNL d   1      -1.073   1.515  -1.901  0.00  0.00     0.018 C 
ENDBRANCH   1   8
TORSDOF 1
ENDMDL
