MODEL 1
REMARK minimizedAffinity -3.61256528
REMARK minimizedRMSD -1
REMARK  1 active torsions:
REMARK  status: ('A' for Active; 'I' for Inactive)
REMARK    1  A    between atoms: C1_2  and  C2_3 
ROOT
ATOM      1  C2  UNL d   1      -0.262   0.369   0.028  0.00  0.00    -0.076 A 
ATOM      2  C3  UNL d   1      -1.065   0.714   1.129  0.00  0.00     0.004 A 
ATOM      3  C4  UNL d   1      -0.733   0.296   2.417  0.00  0.00    -0.003 A 
ATOM      4  C5  UNL d   1       0.406  -0.473   2.625  0.00  0.00     0.000 A 
ATOM      5  C6  UNL d   1       1.224  -0.810   1.546  0.00  0.00     0.000 A 
ATOM      6  C7  UNL d   1       0.913  -0.383   0.244  0.00  0.00    -0.073 A 
ATOM      7  C8  UNL d   1       1.827  -0.780  -0.883  0.00  0.00     0.078 C 
ENDROOT
BRANCH   1   8
ATOM      8  C1  UNL d   1      -0.686   0.827  -1.349  0.00  0.00     0.053 C 
ATOM      9  C   UNL d   1      -0.294   2.270  -1.629  0.00  0.00     0.018 C 
ENDBRANCH   1   8
TORSDOF 1
ENDMDL
