MODEL 1
REMARK minimizedAffinity 10.7003765
REMARK minimizedRMSD -1
REMARK  0 active torsions:
REMARK  status: ('A' for Active; 'I' for Inactive)
ROOT
ATOM      1  C   UNL d   1      -5.291   5.997   3.939  0.00  0.00     0.172 C 
ATOM      2  N   UNL d   1      -5.104   5.690   2.540  0.00  0.00    -0.070 N 
ATOM      3  C1  UNL d   1      -4.019   5.052   2.001  0.00  0.00    -0.004 A 
ATOM      4  C2  UNL d   1      -4.222   4.951   0.641  0.00  0.00    -0.047 A 
ATOM      5  C3  UNL d   1      -5.471   5.550   0.353  0.00  0.00    -0.047 A 
ATOM      6  C4  UNL d   1      -5.995   6.000   1.547  0.00  0.00    -0.004 A 
ENDROOT
TORSDOF 0
ENDMDL
