MODEL 1
REMARK minimizedAffinity 5.18496037
REMARK minimizedRMSD -1
REMARK  0 active torsions:
REMARK  status: ('A' for Active; 'I' for Inactive)
ROOT
ATOM      1  C   UNL d   1      -5.357   5.998   4.274  0.00  0.00     0.172 C 
ATOM      2  N   UNL d   1      -4.932   5.991   2.894  0.00  0.00    -0.070 N 
ATOM      3  C1  UNL d   1      -5.761   5.993   1.803  0.00  0.00    -0.004 A 
ATOM      4  C2  UNL d   1      -4.972   5.986   0.674  0.00  0.00    -0.047 A 
ATOM      5  C3  UNL d   1      -3.622   5.977   1.100  0.00  0.00    -0.047 A 
ATOM      6  C4  UNL d   1      -3.627   5.981   2.479  0.00  0.00    -0.004 A 
ENDROOT
TORSDOF 0
ENDMDL
