MODEL 1
REMARK minimizedAffinity 8.81446648
REMARK minimizedRMSD -1
REMARK  0 active torsions:
REMARK  status: ('A' for Active; 'I' for Inactive)
ROOT
ATOM      1  C   UNL d   1       1.487  -3.912  -1.266  0.00  0.00     0.172 C 
ATOM      2  N   UNL d   1       2.133  -2.998  -0.354  0.00  0.00    -0.070 N 
ATOM      3  C1  UNL d   1       3.239  -3.275   0.404  0.00  0.00    -0.004 A 
ATOM      4  C2  UNL d   1       3.542  -2.147   1.136  0.00  0.00    -0.047 A 
ATOM      5  C3  UNL d   1       2.584  -1.159   0.807  0.00  0.00    -0.047 A 
ATOM      6  C4  UNL d   1       1.724  -1.712  -0.117  0.00  0.00    -0.004 A 
ENDROOT
TORSDOF 0
ENDMDL
