MODEL 1
REMARK minimizedAffinity 5.29829645
REMARK minimizedRMSD -1
REMARK  0 active torsions:
REMARK  status: ('A' for Active; 'I' for Inactive)
ROOT
ATOM      1  C   UNL d   1      -5.784   5.999   3.196  0.00  0.00     0.172 C 
ATOM      2  N   UNL d   1      -5.209   5.982   1.871  0.00  0.00    -0.070 N 
ATOM      3  C1  UNL d   1      -5.912   5.950   0.696  0.00  0.00    -0.004 A 
ATOM      4  C2  UNL d   1      -5.003   5.944  -0.339  0.00  0.00    -0.047 A 
ATOM      5  C3  UNL d   1      -3.709   5.974   0.233  0.00  0.00    -0.047 A 
ATOM      6  C4  UNL d   1      -3.866   5.997   1.602  0.00  0.00    -0.004 A 
ENDROOT
TORSDOF 0
ENDMDL
