MODEL 1
REMARK minimizedAffinity 0.682075322
REMARK minimizedRMSD -1
REMARK  0 active torsions:
REMARK  status: ('A' for Active; 'I' for Inactive)
ROOT
ATOM      1  C   UNL d   1      -4.948   2.289  -4.656  0.00  0.00     0.172 C 
ATOM      2  N   UNL d   1      -3.982   3.360  -4.586  0.00  0.00    -0.070 N 
ATOM      3  C1  UNL d   1      -4.223   4.673  -4.890  0.00  0.00    -0.004 A 
ATOM      4  C2  UNL d   1      -3.052   5.373  -4.697  0.00  0.00    -0.047 A 
ATOM      5  C3  UNL d   1      -2.073   4.448  -4.263  0.00  0.00    -0.047 A 
ATOM      6  C4  UNL d   1      -2.676   3.209  -4.203  0.00  0.00    -0.004 A 
ENDROOT
TORSDOF 0
ENDMDL
