MODEL 1
REMARK minimizedAffinity 13.7051888
REMARK minimizedRMSD -1
REMARK  0 active torsions:
REMARK  status: ('A' for Active; 'I' for Inactive)
ROOT
ATOM      1  C   UNL d   1       1.545   3.968   0.836  0.00  0.00     0.172 C 
ATOM      2  N   UNL d   1       1.124   2.890   1.699  0.00  0.00    -0.070 N 
ATOM      3  C1  UNL d   1       1.570   2.668   2.974  0.00  0.00    -0.004 A 
ATOM      4  C2  UNL d   1       0.929   1.547   3.456  0.00  0.00    -0.047 A 
ATOM      5  C3  UNL d   1       0.069   1.078   2.435  0.00  0.00    -0.047 A 
ATOM      6  C4  UNL d   1       0.210   1.928   1.358  0.00  0.00    -0.004 A 
ENDROOT
TORSDOF 0
ENDMDL
