MODEL 1
REMARK minimizedAffinity 7.49445295
REMARK minimizedRMSD -1
REMARK  0 active torsions:
REMARK  status: ('A' for Active; 'I' for Inactive)
ROOT
ATOM      1  C   UNL d   1       1.521  -3.759  -0.775  0.00  0.00     0.172 C 
ATOM      2  N   UNL d   1       2.441  -2.922  -0.042  0.00  0.00    -0.070 N 
ATOM      3  C1  UNL d   1       3.482  -3.365   0.729  0.00  0.00    -0.004 A 
ATOM      4  C2  UNL d   1       4.117  -2.261   1.256  0.00  0.00    -0.047 A 
ATOM      5  C3  UNL d   1       3.432  -1.115   0.787  0.00  0.00    -0.047 A 
ATOM      6  C4  UNL d   1       2.399  -1.553  -0.015  0.00  0.00    -0.004 A 
ENDROOT
TORSDOF 0
ENDMDL
