MODEL 1
REMARK minimizedAffinity 3.85843396
REMARK minimizedRMSD -1
REMARK  0 active torsions:
REMARK  status: ('A' for Active; 'I' for Inactive)
ROOT
ATOM      1  C   UNL d   1       5.256  -5.785   0.746  0.00  0.00     0.172 C 
ATOM      2  N   UNL d   1       5.016  -4.361   0.736  0.00  0.00    -0.070 N 
ATOM      3  C1  UNL d   1       3.786  -3.759   0.723  0.00  0.00    -0.004 A 
ATOM      4  C2  UNL d   1       3.984  -2.395   0.717  0.00  0.00    -0.047 A 
ATOM      5  C3  UNL d   1       5.381  -2.170   0.726  0.00  0.00    -0.047 A 
ATOM      6  C4  UNL d   1       5.996  -3.404   0.737  0.00  0.00    -0.004 A 
ENDROOT
TORSDOF 0
ENDMDL
