MODEL 1
REMARK minimizedAffinity 4.97800207
REMARK minimizedRMSD -1
REMARK  0 active torsions:
REMARK  status: ('A' for Active; 'I' for Inactive)
ROOT
ATOM      1  C   UNL d   1      -5.969  -4.163   2.090  0.00  0.00     0.172 C 
ATOM      2  N   UNL d   1      -5.979  -4.643   3.452  0.00  0.00    -0.070 N 
ATOM      3  C1  UNL d   1      -5.994  -5.957   3.835  0.00  0.00    -0.004 A 
ATOM      4  C2  UNL d   1      -5.999  -5.995   5.213  0.00  0.00    -0.047 A 
ATOM      5  C3  UNL d   1      -5.988  -4.657   5.674  0.00  0.00    -0.047 A 
ATOM      6  C4  UNL d   1      -5.976  -3.840   4.563  0.00  0.00    -0.004 A 
ENDROOT
TORSDOF 0
ENDMDL
