MODEL 1
REMARK minimizedAffinity 2.81486702
REMARK minimizedRMSD -1
REMARK  0 active torsions:
REMARK  status: ('A' for Active; 'I' for Inactive)
ROOT
ATOM      1  C   UNL d   1      -5.998  -3.960   1.248  0.00  0.00     0.172 C 
ATOM      2  N   UNL d   1      -5.989  -4.530   2.575  0.00  0.00    -0.070 N 
ATOM      3  C1  UNL d   1      -5.999  -5.868   2.868  0.00  0.00    -0.004 A 
ATOM      4  C2  UNL d   1      -5.984  -5.999   4.240  0.00  0.00    -0.047 A 
ATOM      5  C3  UNL d   1      -5.967  -4.695   4.790  0.00  0.00    -0.047 A 
ATOM      6  C4  UNL d   1      -5.970  -3.805   3.737  0.00  0.00    -0.004 A 
ENDROOT
TORSDOF 0
ENDMDL
