MODEL 1
REMARK minimizedAffinity 5.18841314
REMARK minimizedRMSD -1
REMARK  0 active torsions:
REMARK  status: ('A' for Active; 'I' for Inactive)
ROOT
ATOM      1  C   UNL d   1       1.580  -0.217   2.583  0.00  0.00     0.172 C 
ATOM      2  N   UNL d   1       2.549  -1.031   1.888  0.00  0.00    -0.070 N 
ATOM      3  C1  UNL d   1       3.898  -1.041   2.122  0.00  0.00    -0.004 A 
ATOM      4  C2  UNL d   1       4.470  -1.948   1.256  0.00  0.00    -0.047 A 
ATOM      5  C3  UNL d   1       3.428  -2.502   0.474  0.00  0.00    -0.047 A 
ATOM      6  C4  UNL d   1       2.250  -1.916   0.886  0.00  0.00    -0.004 A 
ENDROOT
TORSDOF 0
ENDMDL
