MODEL 1
REMARK minimizedAffinity 8.60117531
REMARK minimizedRMSD -1
REMARK  0 active torsions:
REMARK  status: ('A' for Active; 'I' for Inactive)
ROOT
ATOM      1  C   UNL d   1      -1.465   2.862  -3.030  0.00  0.00     0.172 C 
ATOM      2  N   UNL d   1      -0.611   2.938  -1.868  0.00  0.00    -0.070 N 
ATOM      3  C1  UNL d   1      -0.694   2.135  -0.762  0.00  0.00    -0.004 A 
ATOM      4  C2  UNL d   1       0.293   2.525   0.118  0.00  0.00    -0.047 A 
ATOM      5  C3  UNL d   1       0.993   3.600  -0.480  0.00  0.00    -0.047 A 
ATOM      6  C4  UNL d   1       0.412   3.835  -1.709  0.00  0.00    -0.004 A 
ENDROOT
TORSDOF 0
ENDMDL
