MODEL 1
REMARK minimizedAffinity 2.31441784
REMARK minimizedRMSD -1
REMARK  0 active torsions:
REMARK  status: ('A' for Active; 'I' for Inactive)
ROOT
ATOM      1  C   UNL d   1      -0.919   2.084   1.257  0.00  0.00     0.172 C 
ATOM      2  N   UNL d   1      -0.447   3.017   0.261  0.00  0.00    -0.070 N 
ATOM      3  C1  UNL d   1      -0.786   4.342   0.183  0.00  0.00    -0.004 A 
ATOM      4  C2  UNL d   1      -0.128   4.883  -0.900  0.00  0.00    -0.047 A 
ATOM      5  C3  UNL d   1       0.633   3.848  -1.494  0.00  0.00    -0.047 A 
ATOM      6  C4  UNL d   1       0.417   2.704  -0.755  0.00  0.00    -0.004 A 
ENDROOT
TORSDOF 0
ENDMDL
