MODEL 1
REMARK minimizedAffinity 8.93966675
REMARK minimizedRMSD -1
REMARK  0 active torsions:
REMARK  status: ('A' for Active; 'I' for Inactive)
ROOT
ATOM      1  C   UNL d   1       5.991  -4.727  -2.330  0.00  0.00     0.172 C 
ATOM      2  N   UNL d   1       5.749  -4.880  -0.915  0.00  0.00    -0.070 N 
ATOM      3  C1  UNL d   1       5.238  -5.996  -0.308  0.00  0.00    -0.004 A 
ATOM      4  C2  UNL d   1       5.162  -5.744   1.045  0.00  0.00    -0.047 A 
ATOM      5  C3  UNL d   1       5.644  -4.431   1.258  0.00  0.00    -0.047 A 
ATOM      6  C4  UNL d   1       6.000  -3.919   0.029  0.00  0.00    -0.004 A 
ENDROOT
TORSDOF 0
ENDMDL
