MODEL 1
REMARK minimizedAffinity 9.9367733
REMARK minimizedRMSD -1
REMARK  0 active torsions:
REMARK  status: ('A' for Active; 'I' for Inactive)
ROOT
ATOM      1  C   UNL d   1       1.513  -4.264  -5.387  0.00  0.00     0.172 C 
ATOM      2  N   UNL d   1       1.482  -4.673  -4.002  0.00  0.00    -0.070 N 
ATOM      3  C1  UNL d   1       1.354  -5.960  -3.552  0.00  0.00    -0.004 A 
ATOM      4  C2  UNL d   1       1.368  -5.929  -2.174  0.00  0.00    -0.047 A 
ATOM      5  C3  UNL d   1       1.509  -4.576  -1.783  0.00  0.00    -0.047 A 
ATOM      6  C4  UNL d   1       1.577  -3.820  -2.934  0.00  0.00    -0.004 A 
ENDROOT
TORSDOF 0
ENDMDL
