MODEL 1
REMARK minimizedAffinity 12.68612
REMARK minimizedRMSD -1
REMARK  0 active torsions:
REMARK  status: ('A' for Active; 'I' for Inactive)
ROOT
ATOM      1  C   UNL d   1       5.999  -2.380   1.210  0.00  0.00     0.172 C 
ATOM      2  N   UNL d   1       5.933  -3.813   1.045  0.00  0.00    -0.070 N 
ATOM      3  C1  UNL d   1       5.798  -4.727   2.055  0.00  0.00    -0.004 A 
ATOM      4  C2  UNL d   1       5.776  -5.983   1.487  0.00  0.00    -0.047 A 
ATOM      5  C3  UNL d   1       5.903  -5.817   0.088  0.00  0.00    -0.047 A 
ATOM      6  C4  UNL d   1       5.999  -4.464  -0.159  0.00  0.00    -0.004 A 
ENDROOT
TORSDOF 0
ENDMDL
