MODEL 1
REMARK minimizedAffinity 6.52015448
REMARK minimizedRMSD -1
REMARK  0 active torsions:
REMARK  status: ('A' for Active; 'I' for Inactive)
ROOT
ATOM      1  C   UNL d   1      -0.289   1.434   0.749  0.00  0.00     0.172 C 
ATOM      2  N   UNL d   1      -0.157   2.673   0.020  0.00  0.00    -0.070 N 
ATOM      3  C1  UNL d   1      -0.164   2.802  -1.343  0.00  0.00    -0.004 A 
ATOM      4  C2  UNL d   1      -0.015   4.140  -1.641  0.00  0.00    -0.047 A 
ATOM      5  C3  UNL d   1       0.086   4.838  -0.415  0.00  0.00    -0.047 A 
ATOM      6  C4  UNL d   1      -0.006   3.907   0.597  0.00  0.00    -0.004 A 
ENDROOT
TORSDOF 0
ENDMDL
