MODEL 1
REMARK minimizedAffinity -4.68665123
REMARK minimizedRMSD -1
REMARK  1 active torsions:
REMARK  status: ('A' for Active; 'I' for Inactive)
REMARK    1  A    between atoms: C1_2  and  C2_3 
ROOT
ATOM      1  C2  UNL d   1       0.476  -0.986  -0.349  0.00  0.00    -0.081 A 
ATOM      2  C3  UNL d   1       0.148  -1.134   1.005  0.00  0.00     0.006 A 
ATOM      3  C4  UNL d   1      -0.613  -0.163   1.659  0.00  0.00     0.002 A 
ATOM      4  C5  UNL d   1      -1.066   0.967   0.969  0.00  0.00    -0.080 A 
ATOM      5  C6  UNL d   1      -1.910   2.002   1.652  0.00  0.00     0.076 C 
ATOM      6  C7  UNL d   1      -0.724   1.124  -0.378  0.00  0.00     0.002 A 
ATOM      7  C8  UNL d   1       0.039   0.153  -1.032  0.00  0.00     0.006 A 
ENDROOT
BRANCH   1   8
ATOM      8  C1  UNL d   1       1.243  -2.063  -1.073  0.00  0.00     0.054 C 
ATOM      9  C   UNL d   1       0.386  -2.729  -2.140  0.00  0.00     0.018 C 
ENDBRANCH   1   8
TORSDOF 1
ENDMDL
