MODEL 1
REMARK minimizedAffinity -1.63319135
REMARK minimizedRMSD -1
REMARK  1 active torsions:
REMARK  status: ('A' for Active; 'I' for Inactive)
REMARK    1  A    between atoms: C1_2  and  C2_3 
ROOT
ATOM      1  C2  UNL d   1       0.730  -1.375  -0.222  0.00  0.00    -0.081 A 
ATOM      2  C3  UNL d   1       0.463  -1.599   1.134  0.00  0.00     0.006 A 
ATOM      3  C4  UNL d   1      -0.161  -0.616   1.905  0.00  0.00     0.002 A 
ATOM      4  C5  UNL d   1      -0.536   0.603   1.332  0.00  0.00    -0.080 A 
ATOM      5  C6  UNL d   1      -1.235   1.655   2.142  0.00  0.00     0.076 C 
ATOM      6  C7  UNL d   1      -0.254   0.835  -0.018  0.00  0.00     0.002 A 
ATOM      7  C8  UNL d   1       0.370  -0.148  -0.790  0.00  0.00     0.006 A 
ENDROOT
BRANCH   1   8
ATOM      8  C1  UNL d   1       1.344  -2.458  -1.072  0.00  0.00     0.054 C 
ATOM      9  C   UNL d   1       0.413  -2.868  -2.204  0.00  0.00     0.018 C 
ENDBRANCH   1   8
TORSDOF 1
ENDMDL
