MODEL 1
REMARK minimizedAffinity -2.55723953
REMARK minimizedRMSD -1
REMARK  1 active torsions:
REMARK  status: ('A' for Active; 'I' for Inactive)
REMARK    1  A    between atoms: C1_2  and  C2_3 
ROOT
ATOM      1  C2  UNL d   1       0.570  -1.278  -0.764  0.00  0.00    -0.081 A 
ATOM      2  C3  UNL d   1      -0.062  -1.803   0.369  0.00  0.00     0.006 A 
ATOM      3  C4  UNL d   1      -0.644  -0.953   1.313  0.00  0.00     0.002 A 
ATOM      4  C5  UNL d   1      -0.610   0.434   1.136  0.00  0.00    -0.080 A 
ATOM      5  C6  UNL d   1      -1.257   1.356   2.126  0.00  0.00     0.076 C 
ATOM      6  C7  UNL d   1       0.037   0.960   0.012  0.00  0.00     0.002 A 
ATOM      7  C8  UNL d   1       0.619   0.111  -0.932  0.00  0.00     0.006 A 
ENDROOT
BRANCH   1   8
ATOM      8  C1  UNL d   1       1.142  -2.193  -1.817  0.00  0.00     0.054 C 
ATOM      9  C   UNL d   1       0.322  -3.469  -1.944  0.00  0.00     0.018 C 
ENDBRANCH   1   8
TORSDOF 1
ENDMDL
