MODEL 1
REMARK minimizedAffinity -2.9942708
REMARK minimizedRMSD -1
REMARK  1 active torsions:
REMARK  status: ('A' for Active; 'I' for Inactive)
REMARK    1  A    between atoms: C1_2  and  C2_3 
ROOT
ATOM      1  C2  UNL d   1       0.583  -0.574  -0.598  0.00  0.00    -0.081 A 
ATOM      2  C3  UNL d   1       0.427  -0.856   0.764  0.00  0.00     0.006 A 
ATOM      3  C4  UNL d   1      -0.248   0.036   1.600  0.00  0.00     0.002 A 
ATOM      4  C5  UNL d   1      -0.786   1.222   1.087  0.00  0.00    -0.080 A 
ATOM      5  C6  UNL d   1      -1.539   2.174   1.967  0.00  0.00     0.076 C 
ATOM      6  C7  UNL d   1      -0.615   1.512  -0.271  0.00  0.00     0.002 A 
ATOM      7  C8  UNL d   1       0.061   0.621  -1.107  0.00  0.00     0.006 A 
ENDROOT
BRANCH   1   8
ATOM      8  C1  UNL d   1       1.254  -1.564  -1.515  0.00  0.00     0.054 C 
ATOM      9  C   UNL d   1       0.242  -2.516  -2.137  0.00  0.00     0.018 C 
ENDBRANCH   1   8
TORSDOF 1
ENDMDL
