MODEL 1
REMARK minimizedAffinity -5.48075151
REMARK minimizedRMSD -1
REMARK  1 active torsions:
REMARK  status: ('A' for Active; 'I' for Inactive)
REMARK    1  A    between atoms: C1_2  and  C2_3 
ROOT
ATOM      1  C2  UNL d   1      -0.399  -0.342   0.541  0.00  0.00    -0.081 A 
ATOM      2  C3  UNL d   1      -1.390  -0.719  -0.374  0.00  0.00     0.006 A 
ATOM      3  C4  UNL d   1      -1.078  -1.547  -1.454  0.00  0.00     0.002 A 
ATOM      4  C5  UNL d   1       0.226  -2.019  -1.634  0.00  0.00    -0.080 A 
ATOM      5  C6  UNL d   1       0.568  -2.933  -2.773  0.00  0.00     0.076 C 
ATOM      6  C7  UNL d   1       1.220  -1.629  -0.730  0.00  0.00     0.002 A 
ATOM      7  C8  UNL d   1       0.909  -0.800   0.350  0.00  0.00     0.006 A 
ENDROOT
BRANCH   1   8
ATOM      8  C1  UNL d   1      -0.746   0.498   1.744  0.00  0.00     0.054 C 
ATOM      9  C   UNL d   1      -2.081   1.204   1.559  0.00  0.00     0.018 C 
ENDBRANCH   1   8
TORSDOF 1
ENDMDL
