MODEL 1
REMARK minimizedAffinity -5.50038242
REMARK minimizedRMSD -1
REMARK  1 active torsions:
REMARK  status: ('A' for Active; 'I' for Inactive)
REMARK    1  A    between atoms: C1_2  and  C2_3 
ROOT
ATOM      1  C2  UNL d   1       0.662  -0.554  -0.233  0.00  0.00    -0.081 A 
ATOM      2  C3  UNL d   1      -0.051  -0.796   0.947  0.00  0.00     0.006 A 
ATOM      3  C4  UNL d   1      -0.883   0.187   1.488  0.00  0.00     0.002 A 
ATOM      4  C5  UNL d   1      -1.022   1.426   0.853  0.00  0.00    -0.080 A 
ATOM      5  C6  UNL d   1      -1.935   2.480   1.406  0.00  0.00     0.076 C 
ATOM      6  C7  UNL d   1      -0.297   1.675  -0.317  0.00  0.00     0.002 A 
ATOM      7  C8  UNL d   1       0.536   0.692  -0.858  0.00  0.00     0.006 A 
ENDROOT
BRANCH   1   8
ATOM      8  C1  UNL d   1       1.509  -1.635  -0.853  0.00  0.00     0.054 C 
ATOM      9  C   UNL d   1       0.695  -2.496  -1.808  0.00  0.00     0.018 C 
ENDBRANCH   1   8
TORSDOF 1
ENDMDL
