MODEL 1
REMARK minimizedAffinity -4.91096973
REMARK minimizedRMSD -1
REMARK  1 active torsions:
REMARK  status: ('A' for Active; 'I' for Inactive)
REMARK    1  A    between atoms: C1_2  and  C2_3 
ROOT
ATOM      1  C2  UNL d   1       0.605  -0.288  -0.512  0.00  0.00    -0.081 A 
ATOM      2  C3  UNL d   1       0.206  -0.640   0.783  0.00  0.00     0.006 A 
ATOM      3  C4  UNL d   1      -0.745   0.124   1.463  0.00  0.00     0.002 A 
ATOM      4  C5  UNL d   1      -1.320   1.246   0.857  0.00  0.00    -0.080 A 
ATOM      5  C6  UNL d   1      -2.365   2.057   1.564  0.00  0.00     0.076 C 
ATOM      6  C7  UNL d   1      -0.908   1.608  -0.431  0.00  0.00     0.002 A 
ATOM      7  C8  UNL d   1       0.044   0.845  -1.111  0.00  0.00     0.006 A 
ENDROOT
BRANCH   1   8
ATOM      8  C1  UNL d   1       1.584  -1.146  -1.273  0.00  0.00     0.054 C 
ATOM      9  C   UNL d   1       1.104  -2.588  -1.359  0.00  0.00     0.018 C 
ENDBRANCH   1   8
TORSDOF 1
ENDMDL
