MODEL 1
REMARK minimizedAffinity -5.13041735
REMARK minimizedRMSD -1
REMARK  1 active torsions:
REMARK  status: ('A' for Active; 'I' for Inactive)
REMARK    1  A    between atoms: C1_2  and  C2_3 
ROOT
ATOM      1  C2  UNL d   1       0.653  -1.178  -0.194  0.00  0.00    -0.081 A 
ATOM      2  C3  UNL d   1      -0.038  -1.359   1.011  0.00  0.00     0.006 A 
ATOM      3  C4  UNL d   1      -0.823  -0.331   1.538  0.00  0.00     0.002 A 
ATOM      4  C5  UNL d   1      -0.937   0.891   0.867  0.00  0.00    -0.080 A 
ATOM      5  C6  UNL d   1      -1.800   1.992   1.406  0.00  0.00     0.076 C 
ATOM      6  C7  UNL d   1      -0.233   1.078  -0.328  0.00  0.00     0.002 A 
ATOM      7  C8  UNL d   1       0.553   0.051  -0.855  0.00  0.00     0.006 A 
ENDROOT
BRANCH   1   8
ATOM      8  C1  UNL d   1       1.449  -2.307  -0.798  0.00  0.00     0.054 C 
ATOM      9  C   UNL d   1       0.554  -3.258  -1.581  0.00  0.00     0.018 C 
ENDBRANCH   1   8
TORSDOF 1
ENDMDL
