MODEL 1
REMARK minimizedAffinity -4.41042137
REMARK minimizedRMSD -1
REMARK  1 active torsions:
REMARK  status: ('A' for Active; 'I' for Inactive)
REMARK    1  A    between atoms: C1_2  and  C2_3 
ROOT
ATOM      1  C2  UNL d   1       0.402  -0.681  -0.455  0.00  0.00    -0.081 A 
ATOM      2  C3  UNL d   1       0.103  -0.785   0.909  0.00  0.00     0.006 A 
ATOM      3  C4  UNL d   1      -0.671   0.190   1.542  0.00  0.00     0.002 A 
ATOM      4  C5  UNL d   1      -1.165   1.282   0.820  0.00  0.00    -0.080 A 
ATOM      5  C6  UNL d   1      -2.022   2.321   1.480  0.00  0.00     0.076 C 
ATOM      6  C7  UNL d   1      -0.852   1.397  -0.539  0.00  0.00     0.002 A 
ATOM      7  C8  UNL d   1      -0.077   0.422  -1.172  0.00  0.00     0.006 A 
ENDROOT
BRANCH   1   8
ATOM      8  C1  UNL d   1       1.182  -1.765  -1.154  0.00  0.00     0.054 C 
ATOM      9  C   UNL d   1       0.273  -2.638  -2.007  0.00  0.00     0.018 C 
ENDBRANCH   1   8
TORSDOF 1
ENDMDL
