MODEL 1
REMARK minimizedAffinity -3.90435195
REMARK minimizedRMSD -1
REMARK  1 active torsions:
REMARK  status: ('A' for Active; 'I' for Inactive)
REMARK    1  A    between atoms: C1_2  and  C2_3 
ROOT
ATOM      1  C2  UNL d   1       0.208  -0.440  -0.004  0.00  0.00    -0.081 A 
ATOM      2  C3  UNL d   1       0.037  -0.320   1.381  0.00  0.00     0.006 A 
ATOM      3  C4  UNL d   1      -0.814   0.655   1.907  0.00  0.00     0.002 A 
ATOM      4  C5  UNL d   1      -1.512   1.521   1.059  0.00  0.00    -0.080 A 
ATOM      5  C6  UNL d   1      -2.451   2.552   1.610  0.00  0.00     0.076 C 
ATOM      6  C7  UNL d   1      -1.328   1.412  -0.324  0.00  0.00     0.002 A 
ATOM      7  C8  UNL d   1      -0.478   0.438  -0.851  0.00  0.00     0.006 A 
ENDROOT
BRANCH   1   8
ATOM      8  C1  UNL d   1       1.074  -1.533  -0.577  0.00  0.00     0.054 C 
ATOM      9  C   UNL d   1       0.387  -2.228  -1.745  0.00  0.00     0.018 C 
ENDBRANCH   1   8
TORSDOF 1
ENDMDL
