MODEL 1
REMARK minimizedAffinity -3.56231046
REMARK minimizedRMSD -1
REMARK  1 active torsions:
REMARK  status: ('A' for Active; 'I' for Inactive)
REMARK    1  A    between atoms: C1_2  and  C2_3 
ROOT
ATOM      1  C2  UNL d   1       1.001  -1.473  -0.636  0.00  0.00    -0.081 A 
ATOM      2  C3  UNL d   1       0.553  -1.087   0.633  0.00  0.00     0.006 A 
ATOM      3  C4  UNL d   1      -0.119   0.125   0.809  0.00  0.00     0.002 A 
ATOM      4  C5  UNL d   1      -0.361   0.966  -0.282  0.00  0.00    -0.080 A 
ATOM      5  C6  UNL d   1      -1.108   2.256  -0.113  0.00  0.00     0.076 C 
ATOM      6  C7  UNL d   1       0.102   0.589  -1.547  0.00  0.00     0.002 A 
ATOM      7  C8  UNL d   1       0.774  -0.622  -1.723  0.00  0.00     0.006 A 
ENDROOT
BRANCH   1   8
ATOM      8  C1  UNL d   1       1.669  -2.809  -0.839  0.00  0.00     0.054 C 
ATOM      9  C   UNL d   1       0.696  -3.834  -1.404  0.00  0.00     0.018 C 
ENDBRANCH   1   8
TORSDOF 1
ENDMDL
