MODEL 1
REMARK minimizedAffinity 30.0228367
REMARK minimizedRMSD -1
REMARK  0 active torsions:
REMARK  status: ('A' for Active; 'I' for Inactive)
ROOT
ATOM      1  C   UNL d   1      -2.300   2.254  -2.850  0.00  0.00     0.124 A 
ATOM      2  C1  UNL d   1      -2.514   1.042  -2.210  0.00  0.00     0.062 A 
ATOM      3  C2  UNL d   1      -3.569   0.222  -2.598  0.00  0.00     0.162 A 
ATOM      4  C3  UNL d   1      -4.418   0.611  -3.635  0.00  0.00    -0.034 A 
ATOM      5  C4  UNL d   1      -4.197   1.832  -4.273  0.00  0.00     0.162 A 
ATOM      6  C5  UNL d   1      -3.141   2.648  -3.881  0.00  0.00     0.062 A 
ATOM      7  F   UNL d   1      -2.936   3.820  -4.501  0.00  0.00    -0.097 F 
ATOM      8  F1  UNL d   1      -4.994   2.237  -5.273  0.00  0.00    -0.096 F 
ATOM      9  I   UNL d   1      -5.997  -0.613  -4.219  0.00  0.00    -0.060 I 
ATOM     10  F2  UNL d   1      -3.753  -0.945  -1.962  0.00  0.00    -0.096 F 
ATOM     11  F3  UNL d   1      -1.703   0.659  -1.213  0.00  0.00    -0.097 F 
ATOM     12  F4  UNL d   1      -1.285   3.042  -2.473  0.00  0.00    -0.092 F 
ENDROOT
TORSDOF 0
ENDMDL
