MODEL 1
REMARK minimizedAffinity 28.2741127
REMARK minimizedRMSD -1
REMARK  0 active torsions:
REMARK  status: ('A' for Active; 'I' for Inactive)
ROOT
ATOM      1  C   UNL d   1       2.261  -4.240   0.495  0.00  0.00     0.124 A 
ATOM      2  C1  UNL d   1       2.058  -2.900   0.795  0.00  0.00     0.062 A 
ATOM      3  C2  UNL d   1       3.123  -2.005   0.754  0.00  0.00     0.162 A 
ATOM      4  C3  UNL d   1       4.401  -2.447   0.409  0.00  0.00    -0.034 A 
ATOM      5  C4  UNL d   1       4.597  -3.796   0.109  0.00  0.00     0.162 A 
ATOM      6  C5  UNL d   1       3.529  -4.686   0.152  0.00  0.00     0.062 A 
ATOM      7  F   UNL d   1       3.727  -5.981  -0.139  0.00  0.00    -0.097 F 
ATOM      8  F1  UNL d   1       5.812  -4.254  -0.226  0.00  0.00    -0.096 F 
ATOM      9  I   UNL d   1       5.996  -1.111   0.347  0.00  0.00    -0.060 I 
ATOM     10  F2  UNL d   1       2.899  -0.716   1.049  0.00  0.00    -0.096 F 
ATOM     11  F3  UNL d   1       0.834  -2.466   1.127  0.00  0.00    -0.097 F 
ATOM     12  F4  UNL d   1       1.234  -5.099   0.536  0.00  0.00    -0.092 F 
ENDROOT
TORSDOF 0
ENDMDL
