MODEL 1
REMARK minimizedAffinity 18.3975334
REMARK minimizedRMSD -1
REMARK  0 active torsions:
REMARK  status: ('A' for Active; 'I' for Inactive)
ROOT
ATOM      1  C   UNL d   1       3.047  -3.379   0.656  0.00  0.00     0.124 A 
ATOM      2  C1  UNL d   1       2.084  -4.378   0.635  0.00  0.00     0.062 A 
ATOM      3  C2  UNL d   1       0.767  -4.089   0.984  0.00  0.00     0.162 A 
ATOM      4  C3  UNL d   1       0.406  -2.794   1.355  0.00  0.00    -0.034 A 
ATOM      5  C4  UNL d   1       1.381  -1.795   1.375  0.00  0.00     0.162 A 
ATOM      6  C5  UNL d   1       2.695  -2.089   1.026  0.00  0.00     0.062 A 
ATOM      7  F   UNL d   1       3.624  -1.122   1.047  0.00  0.00    -0.097 F 
ATOM      8  F1  UNL d   1       1.068  -0.539   1.727  0.00  0.00    -0.096 F 
ATOM      9  I   UNL d   1      -1.561  -2.357   1.877  0.00  0.00    -0.060 I 
ATOM     10  F2  UNL d   1      -0.143  -5.074   0.954  0.00  0.00    -0.096 F 
ATOM     11  F3  UNL d   1       2.421  -5.626   0.279  0.00  0.00    -0.097 F 
ATOM     12  F4  UNL d   1       4.313  -3.660   0.322  0.00  0.00    -0.092 F 
ENDROOT
TORSDOF 0
ENDMDL
