MODEL 1
REMARK minimizedAffinity 20.9842644
REMARK minimizedRMSD -1
REMARK  0 active torsions:
REMARK  status: ('A' for Active; 'I' for Inactive)
ROOT
ATOM      1  C   UNL d   1      -3.372   3.942  -3.633  0.00  0.00     0.124 A 
ATOM      2  C1  UNL d   1      -4.450   3.725  -4.481  0.00  0.00     0.062 A 
ATOM      3  C2  UNL d   1      -4.957   2.440  -4.654  0.00  0.00     0.162 A 
ATOM      4  C3  UNL d   1      -4.387   1.362  -3.978  0.00  0.00    -0.034 A 
ATOM      5  C4  UNL d   1      -3.302   1.587  -3.128  0.00  0.00     0.162 A 
ATOM      6  C5  UNL d   1      -2.800   2.873  -2.958  0.00  0.00     0.062 A 
ATOM      7  F   UNL d   1      -1.758   3.081  -2.139  0.00  0.00    -0.097 F 
ATOM      8  F1  UNL d   1      -2.731   0.573  -2.462  0.00  0.00    -0.096 F 
ATOM      9  I   UNL d   1      -5.142  -0.561  -4.234  0.00  0.00    -0.060 I 
ATOM     10  F2  UNL d   1      -5.999   2.260  -5.479  0.00  0.00    -0.096 F 
ATOM     11  F3  UNL d   1      -5.004   4.756  -5.135  0.00  0.00    -0.097 F 
ATOM     12  F4  UNL d   1      -2.886   5.179  -3.469  0.00  0.00    -0.092 F 
ENDROOT
TORSDOF 0
ENDMDL
