MODEL 1
REMARK minimizedAffinity 17.3781357
REMARK minimizedRMSD -1
REMARK  0 active torsions:
REMARK  status: ('A' for Active; 'I' for Inactive)
ROOT
ATOM      1  C   UNL d   1       1.702  -2.154   0.527  0.00  0.00     0.124 A 
ATOM      2  C1  UNL d   1       2.562  -3.244   0.562  0.00  0.00     0.062 A 
ATOM      3  C2  UNL d   1       3.366  -3.465   1.676  0.00  0.00     0.162 A 
ATOM      4  C3  UNL d   1       3.315  -2.595   2.766  0.00  0.00    -0.034 A 
ATOM      5  C4  UNL d   1       2.449  -1.501   2.723  0.00  0.00     0.162 A 
ATOM      6  C5  UNL d   1       1.646  -1.285   1.607  0.00  0.00     0.062 A 
ATOM      7  F   UNL d   1       0.817  -0.231   1.575  0.00  0.00    -0.097 F 
ATOM      8  F1  UNL d   1       2.374  -0.646   3.753  0.00  0.00    -0.096 F 
ATOM      9  I   UNL d   1       4.516  -2.923   4.433  0.00  0.00    -0.060 I 
ATOM     10  F2  UNL d   1       4.187  -4.526   1.683  0.00  0.00    -0.096 F 
ATOM     11  F3  UNL d   1       2.618  -4.085  -0.480  0.00  0.00    -0.097 F 
ATOM     12  F4  UNL d   1       0.930  -1.943  -0.546  0.00  0.00    -0.092 F 
ENDROOT
TORSDOF 0
ENDMDL
