MODEL 1
REMARK minimizedAffinity 19.8136635
REMARK minimizedRMSD -1
REMARK  0 active torsions:
REMARK  status: ('A' for Active; 'I' for Inactive)
ROOT
ATOM      1  C   UNL d   1       5.964   3.879  -0.107  0.00  0.00     0.124 A 
ATOM      2  C1  UNL d   1       5.979   3.300   1.155  0.00  0.00     0.062 A 
ATOM      3  C2  UNL d   1       5.975   1.915   1.290  0.00  0.00     0.162 A 
ATOM      4  C3  UNL d   1       5.955   1.098   0.159  0.00  0.00    -0.034 A 
ATOM      5  C4  UNL d   1       5.938   1.687  -1.106  0.00  0.00     0.162 A 
ATOM      6  C5  UNL d   1       5.943   3.072  -1.236  0.00  0.00     0.062 A 
ATOM      7  F   UNL d   1       5.928   3.629  -2.456  0.00  0.00    -0.097 F 
ATOM      8  F1  UNL d   1       5.919   0.931  -2.214  0.00  0.00    -0.096 F 
ATOM      9  I   UNL d   1       5.948  -0.974   0.357  0.00  0.00    -0.060 I 
ATOM     10  F2  UNL d   1       5.990   1.384   2.521  0.00  0.00    -0.096 F 
ATOM     11  F3  UNL d   1       5.998   4.078   2.247  0.00  0.00    -0.097 F 
ATOM     12  F4  UNL d   1       5.967   5.212  -0.234  0.00  0.00    -0.092 F 
ENDROOT
TORSDOF 0
ENDMDL
