MODEL 1
REMARK minimizedAffinity 27.7231903
REMARK minimizedRMSD -1
REMARK  0 active torsions:
REMARK  status: ('A' for Active; 'I' for Inactive)
ROOT
ATOM      1  C   UNL d   1      -3.118   0.977  -2.371  0.00  0.00     0.124 A 
ATOM      2  C1  UNL d   1      -4.220   0.365  -2.951  0.00  0.00     0.062 A 
ATOM      3  C2  UNL d   1      -4.939   1.018  -3.949  0.00  0.00     0.162 A 
ATOM      4  C3  UNL d   1      -4.556   2.291  -4.373  0.00  0.00    -0.034 A 
ATOM      5  C4  UNL d   1      -3.447   2.900  -3.784  0.00  0.00     0.162 A 
ATOM      6  C5  UNL d   1      -2.732   2.243  -2.788  0.00  0.00     0.062 A 
ATOM      7  F   UNL d   1      -1.667   2.836  -2.228  0.00  0.00    -0.097 F 
ATOM      8  F1  UNL d   1      -3.052   4.123  -4.169  0.00  0.00    -0.096 F 
ATOM      9  I   UNL d   1      -5.628   3.270  -5.865  0.00  0.00    -0.060 I 
ATOM     10  F2  UNL d   1      -6.000   0.403  -4.492  0.00  0.00    -0.096 F 
ATOM     11  F3  UNL d   1      -4.595  -0.858  -2.549  0.00  0.00    -0.097 F 
ATOM     12  F4  UNL d   1      -2.429   0.347  -1.411  0.00  0.00    -0.092 F 
ENDROOT
TORSDOF 0
ENDMDL
