MODEL 1
REMARK minimizedAffinity 17.2343712
REMARK minimizedRMSD -1
REMARK  0 active torsions:
REMARK  status: ('A' for Active; 'I' for Inactive)
ROOT
ATOM      1  C   UNL d   1       5.983   4.169   0.490  0.00  0.00     0.124 A 
ATOM      2  C1  UNL d   1       5.982   3.394  -0.662  0.00  0.00     0.062 A 
ATOM      3  C2  UNL d   1       5.987   2.005  -0.570  0.00  0.00     0.162 A 
ATOM      4  C3  UNL d   1       5.992   1.381   0.677  0.00  0.00    -0.034 A 
ATOM      5  C4  UNL d   1       5.995   2.168   1.831  0.00  0.00     0.162 A 
ATOM      6  C5  UNL d   1       5.990   3.556   1.734  0.00  0.00     0.062 A 
ATOM      7  F   UNL d   1       5.991   4.303   2.848  0.00  0.00    -0.097 F 
ATOM      8  F1  UNL d   1       6.000   1.601   3.047  0.00  0.00    -0.096 F 
ATOM      9  I   UNL d   1       6.000  -0.695   0.818  0.00  0.00    -0.060 I 
ATOM     10  F2  UNL d   1       5.985   1.281  -1.700  0.00  0.00    -0.096 F 
ATOM     11  F3  UNL d   1       5.976   3.984  -1.866  0.00  0.00    -0.097 F 
ATOM     12  F4  UNL d   1       5.979   5.505   0.399  0.00  0.00    -0.092 F 
ENDROOT
TORSDOF 0
ENDMDL
