MODEL 1
REMARK minimizedAffinity 29.7880535
REMARK minimizedRMSD -1
REMARK  0 active torsions:
REMARK  status: ('A' for Active; 'I' for Inactive)
ROOT
ATOM      1  C   UNL d   1       2.546   2.438  -4.337  0.00  0.00     0.124 A 
ATOM      2  C1  UNL d   1       3.875   2.157  -4.623  0.00  0.00     0.062 A 
ATOM      3  C2  UNL d   1       4.720   3.163  -5.082  0.00  0.00     0.162 A 
ATOM      4  C3  UNL d   1       4.239   4.461  -5.258  0.00  0.00    -0.034 A 
ATOM      5  C4  UNL d   1       2.901   4.736  -4.969  0.00  0.00     0.162 A 
ATOM      6  C5  UNL d   1       2.060   3.727  -4.510  0.00  0.00     0.062 A 
ATOM      7  F   UNL d   1       0.777   4.000  -4.234  0.00  0.00    -0.097 F 
ATOM      8  F1  UNL d   1       2.405   5.972  -5.127  0.00  0.00    -0.096 F 
ATOM      9  I   UNL d   1       5.499   5.968  -5.945  0.00  0.00    -0.060 I 
ATOM     10  F2  UNL d   1       5.999   2.863  -5.351  0.00  0.00    -0.096 F 
ATOM     11  F3  UNL d   1       4.346   0.913  -4.457  0.00  0.00    -0.097 F 
ATOM     12  F4  UNL d   1       1.735   1.468  -3.895  0.00  0.00    -0.092 F 
ENDROOT
TORSDOF 0
ENDMDL
