MODEL 1
REMARK minimizedAffinity 19.5127506
REMARK minimizedRMSD -1
REMARK  0 active torsions:
REMARK  status: ('A' for Active; 'I' for Inactive)
ROOT
ATOM      1  C   UNL d   1      -2.968   1.874  -4.136  0.00  0.00     0.124 A 
ATOM      2  C1  UNL d   1      -2.045   1.320  -5.012  0.00  0.00     0.062 A 
ATOM      3  C2  UNL d   1      -0.780   1.886  -5.145  0.00  0.00     0.162 A 
ATOM      4  C3  UNL d   1      -0.430   3.011  -4.399  0.00  0.00    -0.034 A 
ATOM      5  C4  UNL d   1      -1.364   3.563  -3.521  0.00  0.00     0.162 A 
ATOM      6  C5  UNL d   1      -2.627   2.994  -3.391  0.00  0.00     0.062 A 
ATOM      7  F   UNL d   1      -3.518   3.530  -2.544  0.00  0.00    -0.097 F 
ATOM      8  F1  UNL d   1      -1.061   4.644  -2.788  0.00  0.00    -0.096 F 
ATOM      9  I   UNL d   1       1.460   3.859  -4.595  0.00  0.00    -0.060 I 
ATOM     10  F2  UNL d   1       0.093   1.330  -5.999  0.00  0.00    -0.096 F 
ATOM     11  F3  UNL d   1      -2.372   0.238  -5.734  0.00  0.00    -0.097 F 
ATOM     12  F4  UNL d   1      -4.185   1.328  -4.011  0.00  0.00    -0.092 F 
ENDROOT
TORSDOF 0
ENDMDL
