MODEL 1
REMARK minimizedAffinity 11.0863867
REMARK minimizedRMSD -1
REMARK  0 active torsions:
REMARK  status: ('A' for Active; 'I' for Inactive)
ROOT
ATOM      1  C   UNL d   1       0.415  -1.437   1.742  0.00  0.00     0.124 A 
ATOM      2  C1  UNL d   1       1.779  -1.186   1.715  0.00  0.00     0.062 A 
ATOM      3  C2  UNL d   1       2.641  -2.066   1.067  0.00  0.00     0.162 A 
ATOM      4  C3  UNL d   1       2.140  -3.207   0.440  0.00  0.00    -0.034 A 
ATOM      5  C4  UNL d   1       0.766  -3.454   0.472  0.00  0.00     0.162 A 
ATOM      6  C5  UNL d   1      -0.090  -2.571   1.121  0.00  0.00     0.062 A 
ATOM      7  F   UNL d   1      -1.409  -2.816   1.146  0.00  0.00    -0.097 F 
ATOM      8  F1  UNL d   1       0.251  -4.541  -0.121  0.00  0.00    -0.096 F 
ATOM      9  I   UNL d   1       3.425  -4.527  -0.530  0.00  0.00    -0.060 I 
ATOM     10  F2  UNL d   1       3.955  -1.798   1.057  0.00  0.00    -0.096 F 
ATOM     11  F3  UNL d   1       2.270  -0.092   2.315  0.00  0.00    -0.097 F 
ATOM     12  F4  UNL d   1      -0.412  -0.589   2.367  0.00  0.00    -0.092 F 
ENDROOT
TORSDOF 0
ENDMDL
