MODEL 1
REMARK minimizedAffinity 4.03335333
REMARK minimizedRMSD -1
REMARK  0 active torsions:
REMARK  status: ('A' for Active; 'I' for Inactive)
ROOT
ATOM      1  C   UNL d   1       2.965  -3.576   0.051  0.00  0.00     0.124 A 
ATOM      2  C1  UNL d   1       3.152  -2.299   0.563  0.00  0.00     0.062 A 
ATOM      3  C2  UNL d   1       2.061  -1.456   0.756  0.00  0.00     0.162 A 
ATOM      4  C3  UNL d   1       0.773  -1.888   0.438  0.00  0.00    -0.034 A 
ATOM      5  C4  UNL d   1       0.593  -3.173  -0.077  0.00  0.00     0.162 A 
ATOM      6  C5  UNL d   1       1.687  -4.012  -0.268  0.00  0.00     0.062 A 
ATOM      7  F   UNL d   1       1.504  -5.245  -0.762  0.00  0.00    -0.097 F 
ATOM      8  F1  UNL d   1      -0.631  -3.620  -0.393  0.00  0.00    -0.096 F 
ATOM      9  I   UNL d   1      -0.860  -0.630   0.725  0.00  0.00    -0.060 I 
ATOM     10  F2  UNL d   1       2.271  -0.228   1.252  0.00  0.00    -0.096 F 
ATOM     11  F3  UNL d   1       4.386  -1.876   0.871  0.00  0.00    -0.097 F 
ATOM     12  F4  UNL d   1       4.016  -4.385  -0.135  0.00  0.00    -0.092 F 
ENDROOT
TORSDOF 0
ENDMDL
