MODEL 1
REMARK minimizedAffinity 4.24878883
REMARK minimizedRMSD -1
REMARK  0 active torsions:
REMARK  status: ('A' for Active; 'I' for Inactive)
ROOT
ATOM      1  C   UNL d   1       0.606  -0.721   0.768  0.00  0.00     0.124 A 
ATOM      2  C1  UNL d   1       1.971  -0.545   0.589  0.00  0.00     0.062 A 
ATOM      3  C2  UNL d   1       2.771  -1.619   0.212  0.00  0.00     0.162 A 
ATOM      4  C3  UNL d   1       2.209  -2.880   0.011  0.00  0.00    -0.034 A 
ATOM      5  C4  UNL d   1       0.836  -3.049   0.194  0.00  0.00     0.162 A 
ATOM      6  C5  UNL d   1       0.040  -1.972   0.571  0.00  0.00     0.062 A 
ATOM      7  F   UNL d   1      -1.279  -2.145   0.744  0.00  0.00    -0.097 F 
ATOM      8  F1  UNL d   1       0.262  -4.248   0.010  0.00  0.00    -0.096 F 
ATOM      9  I   UNL d   1       3.403  -4.489  -0.553  0.00  0.00    -0.060 I 
ATOM     10  F2  UNL d   1       4.087  -1.420   0.045  0.00  0.00    -0.096 F 
ATOM     11  F3  UNL d   1       2.520   0.663   0.779  0.00  0.00    -0.097 F 
ATOM     12  F4  UNL d   1      -0.162   0.314   1.132  0.00  0.00    -0.092 F 
ENDROOT
TORSDOF 0
ENDMDL
