MODEL 1
REMARK minimizedAffinity 2.74522972
REMARK minimizedRMSD -1
REMARK  0 active torsions:
REMARK  status: ('A' for Active; 'I' for Inactive)
ROOT
ATOM      1  C   UNL d   1       0.488  -0.761   0.846  0.00  0.00     0.124 A 
ATOM      2  C1  UNL d   1       1.856  -0.540   0.922  0.00  0.00     0.062 A 
ATOM      3  C2  UNL d   1       2.748  -1.567   0.624  0.00  0.00     0.162 A 
ATOM      4  C3  UNL d   1       2.275  -2.823   0.247  0.00  0.00    -0.034 A 
ATOM      5  C4  UNL d   1       0.897  -3.038   0.174  0.00  0.00     0.162 A 
ATOM      6  C5  UNL d   1       0.010  -2.009   0.472  0.00  0.00     0.062 A 
ATOM      7  F   UNL d   1      -1.312  -2.224   0.399  0.00  0.00    -0.097 F 
ATOM      8  F1  UNL d   1       0.408  -4.234  -0.185  0.00  0.00    -0.096 F 
ATOM      9  I   UNL d   1       3.605  -4.361  -0.199  0.00  0.00    -0.060 I 
ATOM     10  F2  UNL d   1       4.065  -1.325   0.706  0.00  0.00    -0.096 F 
ATOM     11  F3  UNL d   1       2.321   0.664   1.283  0.00  0.00    -0.097 F 
ATOM     12  F4  UNL d   1      -0.368   0.228   1.134  0.00  0.00    -0.092 F 
ENDROOT
TORSDOF 0
ENDMDL
