MODEL 1
REMARK minimizedAffinity 14.112524
REMARK minimizedRMSD -1
REMARK  0 active torsions:
REMARK  status: ('A' for Active; 'I' for Inactive)
ROOT
ATOM      1  C   UNL d   1      -0.125  -2.452   0.138  0.00  0.00     0.124 A 
ATOM      2  C1  UNL d   1       0.261  -3.631  -0.483  0.00  0.00     0.062 A 
ATOM      3  C2  UNL d   1       1.591  -4.041  -0.443  0.00  0.00     0.162 A 
ATOM      4  C3  UNL d   1       2.545  -3.270   0.222  0.00  0.00    -0.034 A 
ATOM      5  C4  UNL d   1       2.149  -2.085   0.844  0.00  0.00     0.162 A 
ATOM      6  C5  UNL d   1       0.819  -1.680   0.801  0.00  0.00     0.062 A 
ATOM      7  F   UNL d   1       0.447  -0.540   1.401  0.00  0.00    -0.097 F 
ATOM      8  F1  UNL d   1       3.040  -1.320   1.492  0.00  0.00    -0.096 F 
ATOM      9  I   UNL d   1       4.534  -3.879   0.285  0.00  0.00    -0.060 I 
ATOM     10  F2  UNL d   1       1.936  -5.185  -1.052  0.00  0.00    -0.096 F 
ATOM     11  F3  UNL d   1      -0.648  -4.378  -1.125  0.00  0.00    -0.097 F 
ATOM     12  F4  UNL d   1      -1.405  -2.060   0.096  0.00  0.00    -0.092 F 
ENDROOT
TORSDOF 0
ENDMDL
