MODEL 1
REMARK minimizedAffinity 4.11595917
REMARK minimizedRMSD -1
REMARK  0 active torsions:
REMARK  status: ('A' for Active; 'I' for Inactive)
ROOT
ATOM      1  C   UNL d   1       0.053  -0.497   0.961  0.00  0.00     0.124 A 
ATOM      2  C1  UNL d   1      -0.585  -1.715   0.775  0.00  0.00     0.062 A 
ATOM      3  C2  UNL d   1       0.159  -2.864   0.526  0.00  0.00     0.162 A 
ATOM      4  C3  UNL d   1       1.551  -2.801   0.461  0.00  0.00    -0.034 A 
ATOM      5  C4  UNL d   1       2.186  -1.571   0.647  0.00  0.00     0.162 A 
ATOM      6  C5  UNL d   1       1.437  -0.426   0.897  0.00  0.00     0.062 A 
ATOM      7  F   UNL d   1       2.056   0.751   1.075  0.00  0.00    -0.097 F 
ATOM      8  F1  UNL d   1       3.523  -1.475   0.591  0.00  0.00    -0.096 F 
ATOM      9  I   UNL d   1       2.668  -4.517   0.088  0.00  0.00    -0.060 I 
ATOM     10  F2  UNL d   1      -0.484  -4.028   0.350  0.00  0.00    -0.096 F 
ATOM     11  F3  UNL d   1      -1.923  -1.786   0.836  0.00  0.00    -0.097 F 
ATOM     12  F4  UNL d   1      -0.666   0.608   1.200  0.00  0.00    -0.092 F 
ENDROOT
TORSDOF 0
ENDMDL
