MODEL 1
REMARK minimizedAffinity 3.68539691
REMARK minimizedRMSD -1
REMARK  0 active torsions:
REMARK  status: ('A' for Active; 'I' for Inactive)
ROOT
ATOM      1  C   UNL d   1       0.771  -0.614   1.228  0.00  0.00     0.124 A 
ATOM      2  C1  UNL d   1       2.156  -0.516   1.228  0.00  0.00     0.062 A 
ATOM      3  C2  UNL d   1       2.936  -1.633   0.946  0.00  0.00     0.162 A 
ATOM      4  C3  UNL d   1       2.334  -2.859   0.661  0.00  0.00    -0.034 A 
ATOM      5  C4  UNL d   1       0.941  -2.950   0.664  0.00  0.00     0.162 A 
ATOM      6  C5  UNL d   1       0.165  -1.830   0.946  0.00  0.00     0.062 A 
ATOM      7  F   UNL d   1      -1.172  -1.927   0.946  0.00  0.00    -0.097 F 
ATOM      8  F1  UNL d   1       0.330  -4.112   0.394  0.00  0.00    -0.096 F 
ATOM      9  I   UNL d   1       3.498  -4.532   0.239  0.00  0.00    -0.060 I 
ATOM     10  F2  UNL d   1       4.272  -1.510   0.953  0.00  0.00    -0.096 F 
ATOM     11  F3  UNL d   1       2.744   0.658   1.501  0.00  0.00    -0.097 F 
ATOM     12  F4  UNL d   1       0.023   0.463   1.500  0.00  0.00    -0.092 F 
ENDROOT
TORSDOF 0
ENDMDL
