MODEL 1
REMARK minimizedAffinity 12.2911549
REMARK minimizedRMSD -1
REMARK  0 active torsions:
REMARK  status: ('A' for Active; 'I' for Inactive)
ROOT
ATOM      1  C   UNL d   1       2.003  -2.472   0.330  0.00  0.00     0.124 A 
ATOM      2  C1  UNL d   1       3.225  -2.164  -0.253  0.00  0.00     0.062 A 
ATOM      3  C2  UNL d   1       4.196  -3.149  -0.405  0.00  0.00     0.162 A 
ATOM      4  C3  UNL d   1       3.949  -4.453   0.025  0.00  0.00    -0.034 A 
ATOM      5  C4  UNL d   1       2.718  -4.755   0.611  0.00  0.00     0.162 A 
ATOM      6  C5  UNL d   1       1.751  -3.766   0.761  0.00  0.00     0.062 A 
ATOM      7  F   UNL d   1       0.572  -4.066   1.324  0.00  0.00    -0.097 F 
ATOM      8  F1  UNL d   1       2.448  -5.998   1.035  0.00  0.00    -0.096 F 
ATOM      9  I   UNL d   1       5.398  -5.930  -0.202  0.00  0.00    -0.060 I 
ATOM     10  F2  UNL d   1       5.367  -2.823  -0.972  0.00  0.00    -0.096 F 
ATOM     11  F3  UNL d   1       3.471  -0.913  -0.669  0.00  0.00    -0.097 F 
ATOM     12  F4  UNL d   1       1.071  -1.521   0.476  0.00  0.00    -0.092 F 
ENDROOT
TORSDOF 0
ENDMDL
