MODEL 1
REMARK minimizedAffinity 5.95794201
REMARK minimizedRMSD -1
REMARK  0 active torsions:
REMARK  status: ('A' for Active; 'I' for Inactive)
ROOT
ATOM      1  C   UNL d   1       0.434  -0.906   1.110  0.00  0.00     0.124 A 
ATOM      2  C1  UNL d   1       0.023  -2.108   0.551  0.00  0.00     0.062 A 
ATOM      3  C2  UNL d   1       0.963  -3.065   0.178  0.00  0.00     0.162 A 
ATOM      4  C3  UNL d   1       2.324  -2.823   0.363  0.00  0.00    -0.034 A 
ATOM      5  C4  UNL d   1       2.730  -1.611   0.924  0.00  0.00     0.162 A 
ATOM      6  C5  UNL d   1       1.787  -0.659   1.296  0.00  0.00     0.062 A 
ATOM      7  F   UNL d   1       2.186   0.502   1.836  0.00  0.00    -0.097 F 
ATOM      8  F1  UNL d   1       4.031  -1.347   1.116  0.00  0.00    -0.096 F 
ATOM      9  I   UNL d   1       3.733  -4.250  -0.194  0.00  0.00    -0.060 I 
ATOM     10  F2  UNL d   1       0.537  -4.217  -0.359  0.00  0.00    -0.096 F 
ATOM     11  F3  UNL d   1      -1.283  -2.349   0.370  0.00  0.00    -0.097 F 
ATOM     12  F4  UNL d   1      -0.472   0.013   1.468  0.00  0.00    -0.092 F 
ENDROOT
TORSDOF 0
ENDMDL
