MODEL 1
REMARK minimizedAffinity 2.93184566
REMARK minimizedRMSD -1
REMARK  0 active torsions:
REMARK  status: ('A' for Active; 'I' for Inactive)
ROOT
ATOM      1  C   UNL d   1       0.286  -1.017   1.107  0.00  0.00     0.124 A 
ATOM      2  C1  UNL d   1       1.650  -0.839   1.289  0.00  0.00     0.062 A 
ATOM      3  C2  UNL d   1       2.546  -1.816   0.864  0.00  0.00     0.162 A 
ATOM      4  C3  UNL d   1       2.081  -2.980   0.253  0.00  0.00    -0.034 A 
ATOM      5  C4  UNL d   1       0.707  -3.152   0.074  0.00  0.00     0.162 A 
ATOM      6  C5  UNL d   1      -0.185  -2.173   0.500  0.00  0.00     0.062 A 
ATOM      7  F   UNL d   1      -1.503  -2.347   0.323  0.00  0.00    -0.097 F 
ATOM      8  F1  UNL d   1       0.225  -4.259  -0.510  0.00  0.00    -0.096 F 
ATOM      9  I   UNL d   1       3.417  -4.443  -0.383  0.00  0.00    -0.060 I 
ATOM     10  F2  UNL d   1       3.859  -1.617   1.053  0.00  0.00    -0.096 F 
ATOM     11  F3  UNL d   1       2.107   0.277   1.875  0.00  0.00    -0.097 F 
ATOM     12  F4  UNL d   1      -0.574  -0.076   1.517  0.00  0.00    -0.092 F 
ENDROOT
TORSDOF 0
ENDMDL
