MODEL 1
REMARK minimizedAffinity -0.254519463
REMARK minimizedRMSD -1
REMARK  0 active torsions:
REMARK  status: ('A' for Active; 'I' for Inactive)
ROOT
ATOM      1  C   UNL d   1       0.059  -0.611   1.128  0.00  0.00     0.124 A 
ATOM      2  C1  UNL d   1       1.397  -0.319   0.902  0.00  0.00     0.062 A 
ATOM      3  C2  UNL d   1       2.268  -1.316   0.474  0.00  0.00     0.162 A 
ATOM      4  C3  UNL d   1       1.805  -2.616   0.270  0.00  0.00    -0.034 A 
ATOM      5  C4  UNL d   1       0.458  -2.902   0.501  0.00  0.00     0.162 A 
ATOM      6  C5  UNL d   1      -0.409  -1.902   0.928  0.00  0.00     0.062 A 
ATOM      7  F   UNL d   1      -1.701  -2.186   1.147  0.00  0.00    -0.097 F 
ATOM      8  F1  UNL d   1      -0.021  -4.141   0.315  0.00  0.00    -0.096 F 
ATOM      9  I   UNL d   1       3.105  -4.110  -0.369  0.00  0.00    -0.060 I 
ATOM     10  F2  UNL d   1       3.556  -1.006   0.263  0.00  0.00    -0.096 F 
ATOM     11  F3  UNL d   1       1.852   0.927   1.095  0.00  0.00    -0.097 F 
ATOM     12  F4  UNL d   1      -0.777   0.351   1.540  0.00  0.00    -0.092 F 
ENDROOT
TORSDOF 0
ENDMDL
