MODEL 1
REMARK minimizedAffinity 7.72069359
REMARK minimizedRMSD -1
REMARK  0 active torsions:
REMARK  status: ('A' for Active; 'I' for Inactive)
ROOT
ATOM      1  C   UNL d   1       3.946  -3.516  -0.236  0.00  0.00     0.124 A 
ATOM      2  C1  UNL d   1       3.791  -2.191   0.148  0.00  0.00     0.062 A 
ATOM      3  C2  UNL d   1       2.519  -1.662   0.340  0.00  0.00     0.162 A 
ATOM      4  C3  UNL d   1       1.389  -2.459   0.150  0.00  0.00    -0.034 A 
ATOM      5  C4  UNL d   1       1.553  -3.790  -0.237  0.00  0.00     0.162 A 
ATOM      6  C5  UNL d   1       2.827  -4.314  -0.429  0.00  0.00     0.062 A 
ATOM      7  F   UNL d   1       2.975  -5.594  -0.800  0.00  0.00    -0.097 F 
ATOM      8  F1  UNL d   1       0.489  -4.584  -0.429  0.00  0.00    -0.096 F 
ATOM      9  I   UNL d   1      -0.516  -1.672   0.437  0.00  0.00    -0.060 I 
ATOM     10  F2  UNL d   1       2.399  -0.379   0.712  0.00  0.00    -0.096 F 
ATOM     11  F3  UNL d   1       4.871  -1.418   0.333  0.00  0.00    -0.097 F 
ATOM     12  F4  UNL d   1       5.172  -4.022  -0.422  0.00  0.00    -0.092 F 
ENDROOT
TORSDOF 0
ENDMDL
