MODEL 1
REMARK minimizedAffinity 18.5749626
REMARK minimizedRMSD -1
REMARK  0 active torsions:
REMARK  status: ('A' for Active; 'I' for Inactive)
ROOT
ATOM      1  C   UNL d   1       1.590  -2.665   0.065  0.00  0.00     0.124 A 
ATOM      2  C1  UNL d   1       1.689  -4.046  -0.038  0.00  0.00     0.062 A 
ATOM      3  C2  UNL d   1       2.935  -4.664   0.018  0.00  0.00     0.162 A 
ATOM      4  C3  UNL d   1       4.092  -3.902   0.180  0.00  0.00    -0.034 A 
ATOM      5  C4  UNL d   1       3.984  -2.514   0.282  0.00  0.00     0.162 A 
ATOM      6  C5  UNL d   1       2.737  -1.901   0.225  0.00  0.00     0.062 A 
ATOM      7  F   UNL d   1       2.643  -0.567   0.325  0.00  0.00    -0.097 F 
ATOM      8  F1  UNL d   1       5.076  -1.751   0.439  0.00  0.00    -0.096 F 
ATOM      9  I   UNL d   1       5.957  -4.823   0.266  0.00  0.00    -0.060 I 
ATOM     10  F2  UNL d   1       3.001  -6.000  -0.084  0.00  0.00    -0.096 F 
ATOM     11  F3  UNL d   1       0.582  -4.786  -0.194  0.00  0.00    -0.097 F 
ATOM     12  F4  UNL d   1       0.390  -2.073   0.009  0.00  0.00    -0.092 F 
ENDROOT
TORSDOF 0
ENDMDL
