MODEL 1
REMARK minimizedAffinity -1.59084225
REMARK minimizedRMSD -1
REMARK  0 active torsions:
REMARK  status: ('A' for Active; 'I' for Inactive)
ROOT
ATOM      1  C   UNL d   1      -0.038  -3.146   0.071  0.00  0.00     0.124 A 
ATOM      2  C1  UNL d   1      -0.674  -2.058   0.653  0.00  0.00     0.062 A 
ATOM      3  C2  UNL d   1       0.074  -0.992   1.145  0.00  0.00     0.162 A 
ATOM      4  C3  UNL d   1       1.466  -1.008   1.056  0.00  0.00    -0.034 A 
ATOM      5  C4  UNL d   1       2.098  -2.107   0.471  0.00  0.00     0.162 A 
ATOM      6  C5  UNL d   1       1.346  -3.170  -0.019  0.00  0.00     0.062 A 
ATOM      7  F   UNL d   1       1.962  -4.221  -0.581  0.00  0.00    -0.097 F 
ATOM      8  F1  UNL d   1       3.434  -2.155   0.370  0.00  0.00    -0.096 F 
ATOM      9  I   UNL d   1       2.587   0.584   1.791  0.00  0.00    -0.060 I 
ATOM     10  F2  UNL d   1      -0.566   0.047   1.701  0.00  0.00    -0.096 F 
ATOM     11  F3  UNL d   1      -2.011  -2.033   0.742  0.00  0.00    -0.097 F 
ATOM     12  F4  UNL d   1      -0.760  -4.171  -0.401  0.00  0.00    -0.092 F 
ENDROOT
TORSDOF 0
ENDMDL
