MODEL 1
REMARK minimizedAffinity 4.34840107
REMARK minimizedRMSD -1
REMARK  0 active torsions:
REMARK  status: ('A' for Active; 'I' for Inactive)
ROOT
ATOM      1  C   UNL d   1      -0.510  -1.595   0.635  0.00  0.00     0.124 A 
ATOM      2  C1  UNL d   1       0.190  -2.698   0.166  0.00  0.00     0.062 A 
ATOM      3  C2  UNL d   1       1.543  -2.590  -0.140  0.00  0.00     0.162 A 
ATOM      4  C3  UNL d   1       2.207  -1.374   0.022  0.00  0.00    -0.034 A 
ATOM      5  C4  UNL d   1       1.496  -0.269   0.494  0.00  0.00     0.162 A 
ATOM      6  C5  UNL d   1       0.143  -0.382   0.799  0.00  0.00     0.062 A 
ATOM      7  F   UNL d   1      -0.531   0.685   1.252  0.00  0.00    -0.097 F 
ATOM      8  F1  UNL d   1       2.103   0.916   0.662  0.00  0.00    -0.096 F 
ATOM      9  I   UNL d   1       4.230  -1.208  -0.435  0.00  0.00    -0.060 I 
ATOM     10  F2  UNL d   1       2.194  -3.672  -0.592  0.00  0.00    -0.096 F 
ATOM     11  F3  UNL d   1      -0.440  -3.871   0.006  0.00  0.00    -0.097 F 
ATOM     12  F4  UNL d   1      -1.812  -1.701   0.928  0.00  0.00    -0.092 F 
ENDROOT
TORSDOF 0
ENDMDL
