MODEL 1
REMARK minimizedAffinity 1.20257258
REMARK minimizedRMSD -1
REMARK  0 active torsions:
REMARK  status: ('A' for Active; 'I' for Inactive)
ROOT
ATOM      1  C   UNL d   1      -0.200  -0.909   1.074  0.00  0.00     0.124 A 
ATOM      2  C1  UNL d   1      -0.724  -2.167   0.810  0.00  0.00     0.062 A 
ATOM      3  C2  UNL d   1       0.105  -3.189   0.356  0.00  0.00     0.162 A 
ATOM      4  C3  UNL d   1       1.467  -2.958   0.164  0.00  0.00    -0.034 A 
ATOM      5  C4  UNL d   1       1.986  -1.690   0.431  0.00  0.00     0.162 A 
ATOM      6  C5  UNL d   1       1.154  -0.672   0.884  0.00  0.00     0.062 A 
ATOM      7  F   UNL d   1       1.662   0.543   1.139  0.00  0.00    -0.097 F 
ATOM      8  F1  UNL d   1       3.291  -1.433   0.257  0.00  0.00    -0.096 F 
ATOM      9  I   UNL d   1       2.710  -4.483  -0.515  0.00  0.00    -0.060 I 
ATOM     10  F2  UNL d   1      -0.428  -4.395   0.108  0.00  0.00    -0.096 F 
ATOM     11  F3  UNL d   1      -2.032  -2.399   0.991  0.00  0.00    -0.097 F 
ATOM     12  F4  UNL d   1      -1.000   0.073   1.509  0.00  0.00    -0.092 F 
ENDROOT
TORSDOF 0
ENDMDL
