MODEL 1
REMARK minimizedAffinity -3.9224174
REMARK minimizedRMSD -1
REMARK  0 active torsions:
REMARK  status: ('A' for Active; 'I' for Inactive)
ROOT
ATOM      1  C4' PXY d   1      -1.028  -2.046   0.368  0.00  0.00     0.077 C 
ATOM      2  C1' PXY d   1       1.665   3.068   0.452  0.00  0.00     0.077 C 
ATOM      3  C1  PXY d   1       0.948   1.733   0.425  0.00  0.00    -0.082 A 
ATOM      4  C2  PXY d   1       1.324   0.772   1.254  0.00  0.00     0.003 A 
ATOM      5  C3  PXY d   1       0.707  -0.453   1.221  0.00  0.00     0.003 A 
ATOM      6  C4  PXY d   1      -0.339  -0.679   0.367  0.00  0.00    -0.082 A 
ATOM      7  C5  PXY d   1      -0.735   0.300  -0.474  0.00  0.00     0.003 A 
ATOM      8  C6  PXY d   1      -0.069   1.522  -0.453  0.00  0.00     0.003 A 
ENDROOT
TORSDOF 0
ENDMDL
