MODEL 1
REMARK minimizedAffinity -4.34648037
REMARK minimizedRMSD -1
REMARK  0 active torsions:
REMARK  status: ('A' for Active; 'I' for Inactive)
ROOT
ATOM      1  C4' PXY d   1       1.094   2.517   0.482  0.00  0.00     0.077 C 
ATOM      2  C1' PXY d   1      -1.648  -2.567   0.261  0.00  0.00     0.077 C 
ATOM      3  C1  PXY d   1      -0.923  -1.237   0.308  0.00  0.00    -0.082 A 
ATOM      4  C2  PXY d   1      -0.729  -0.638   1.472  0.00  0.00     0.003 A 
ATOM      5  C3  PXY d   1      -0.104   0.581   1.529  0.00  0.00     0.003 A 
ATOM      6  C4  PXY d   1       0.375   1.168   0.388  0.00  0.00    -0.082 A 
ATOM      7  C5  PXY d   1       0.191   0.558  -0.802  0.00  0.00     0.003 A 
ATOM      8  C6  PXY d   1      -0.483  -0.659  -0.843  0.00  0.00     0.003 A 
ENDROOT
TORSDOF 0
ENDMDL
