MODEL 1
REMARK minimizedAffinity -2.12747002
REMARK minimizedRMSD -1
REMARK  0 active torsions:
REMARK  status: ('A' for Active; 'I' for Inactive)
ROOT
ATOM      1  C4' PXY d   1       0.077   1.510   0.023  0.00  0.00     0.077 C 
ATOM      2  C1' PXY d   1       0.141  -4.270   0.056  0.00  0.00     0.077 C 
ATOM      3  C1  PXY d   1       0.112  -2.754   0.052  0.00  0.00    -0.082 A 
ATOM      4  C2  PXY d   1       0.907  -2.087  -0.769  0.00  0.00     0.003 A 
ATOM      5  C3  PXY d   1       0.917  -0.716  -0.763  0.00  0.00     0.003 A 
ATOM      6  C4  PXY d   1       0.066  -0.021   0.054  0.00  0.00    -0.082 A 
ATOM      7  C5  PXY d   1      -0.755  -0.694   0.887  0.00  0.00     0.003 A 
ATOM      8  C6  PXY d   1      -0.721  -2.086   0.895  0.00  0.00     0.003 A 
ENDROOT
TORSDOF 0
ENDMDL
