MODEL 1
REMARK minimizedAffinity -1.64159417
REMARK minimizedRMSD -1
REMARK  0 active torsions:
REMARK  status: ('A' for Active; 'I' for Inactive)
ROOT
ATOM      1  C4' PXY d   1      -0.076   2.725   0.316  0.00  0.00     0.077 C 
ATOM      2  C1' PXY d   1      -0.897  -2.996   0.233  0.00  0.00     0.077 C 
ATOM      3  C1  PXY d   1      -0.671  -1.497   0.248  0.00  0.00    -0.082 A 
ATOM      4  C2  PXY d   1      -1.213  -0.763   1.206  0.00  0.00     0.003 A 
ATOM      5  C3  PXY d   1      -1.045   0.598   1.216  0.00  0.00     0.003 A 
ATOM      6  C4  PXY d   1      -0.270   1.207   0.267  0.00  0.00    -0.082 A 
ATOM      7  C5  PXY d   1       0.296   0.464  -0.707  0.00  0.00     0.003 A 
ATOM      8  C6  PXY d   1       0.080  -0.911  -0.724  0.00  0.00     0.003 A 
ENDROOT
TORSDOF 0
ENDMDL
