MODEL 1
REMARK minimizedAffinity -4.30796289
REMARK minimizedRMSD -1
REMARK  0 active torsions:
REMARK  status: ('A' for Active; 'I' for Inactive)
ROOT
ATOM      1  C4' PXY d   1      -0.323  -3.567   0.387  0.00  0.00     0.077 C 
ATOM      2  C1' PXY d   1       0.591   2.073  -0.487  0.00  0.00     0.077 C 
ATOM      3  C1  PXY d   1       0.354   0.592  -0.270  0.00  0.00    -0.082 A 
ATOM      4  C2  PXY d   1      -0.411   0.192   0.733  0.00  0.00     0.003 A 
ATOM      5  C3  PXY d   1      -0.610  -1.145   0.962  0.00  0.00     0.003 A 
ATOM      6  C4  PXY d   1      -0.064  -2.081   0.125  0.00  0.00    -0.082 A 
ATOM      7  C5  PXY d   1       0.709  -1.680  -0.907  0.00  0.00     0.003 A 
ATOM      8  C6  PXY d   1       0.932  -0.320  -1.098  0.00  0.00     0.003 A 
ENDROOT
TORSDOF 0
ENDMDL
