MODEL 1
REMARK minimizedAffinity -1.8380686
REMARK minimizedRMSD -1
REMARK  0 active torsions:
REMARK  status: ('A' for Active; 'I' for Inactive)
ROOT
ATOM      1  C4' PXY d   1       0.295   2.925   0.492  0.00  0.00     0.077 C 
ATOM      2  C1' PXY d   1      -0.353  -2.765  -0.291  0.00  0.00     0.077 C 
ATOM      3  C1  PXY d   1      -0.172  -1.273  -0.093  0.00  0.00    -0.082 A 
ATOM      4  C2  PXY d   1      -0.679  -0.690   0.981  0.00  0.00     0.003 A 
ATOM      5  C3  PXY d   1      -0.553   0.664   1.160  0.00  0.00     0.003 A 
ATOM      6  C4  PXY d   1       0.145   1.420   0.256  0.00  0.00    -0.082 A 
ATOM      7  C5  PXY d   1       0.674   0.830  -0.837  0.00  0.00     0.003 A 
ATOM      8  C6  PXY d   1       0.500  -0.539  -1.020  0.00  0.00     0.003 A 
ENDROOT
TORSDOF 0
ENDMDL
