MODEL 1
REMARK minimizedAffinity -0.672098041
REMARK minimizedRMSD -1
REMARK  0 active torsions:
REMARK  status: ('A' for Active; 'I' for Inactive)
ROOT
ATOM      1  C4' PXY d   1       6.000  -3.373   1.883  0.00  0.00     0.077 C 
ATOM      2  C1' PXY d   1       4.876  -2.163  -3.656  0.00  0.00     0.077 C 
ATOM      3  C1  PXY d   1       5.170  -2.493  -2.206  0.00  0.00    -0.082 A 
ATOM      4  C2  PXY d   1       4.880  -1.612  -1.263  0.00  0.00     0.003 A 
ATOM      5  C3  PXY d   1       5.169  -1.881   0.050  0.00  0.00     0.003 A 
ATOM      6  C4  PXY d   1       5.711  -3.087   0.407  0.00  0.00    -0.082 A 
ATOM      7  C5  PXY d   1       6.000  -3.995  -0.549  0.00  0.00     0.003 A 
ATOM      8  C6  PXY d   1       5.737  -3.686  -1.880  0.00  0.00     0.003 A 
ENDROOT
TORSDOF 0
ENDMDL
