MODEL 1
REMARK minimizedAffinity -0.6276021
REMARK minimizedRMSD -1
REMARK  0 active torsions:
REMARK  status: ('A' for Active; 'I' for Inactive)
ROOT
ATOM      1  C4' PXY d   1       0.739   2.675  -0.032  0.00  0.00     0.077 C 
ATOM      2  C1' PXY d   1      -1.280  -2.742  -0.023  0.00  0.00     0.077 C 
ATOM      3  C1  PXY d   1      -0.742  -1.325  -0.035  0.00  0.00    -0.082 A 
ATOM      4  C2  PXY d   1      -0.846  -0.576   1.051  0.00  0.00     0.003 A 
ATOM      5  C3  PXY d   1      -0.394   0.718   1.047  0.00  0.00     0.003 A 
ATOM      6  C4  PXY d   1       0.219   1.235  -0.063  0.00  0.00    -0.082 A 
ATOM      7  C5  PXY d   1       0.338   0.474  -1.171  0.00  0.00     0.003 A 
ATOM      8  C6  PXY d   1      -0.164  -0.824  -1.161  0.00  0.00     0.003 A 
ENDROOT
TORSDOF 0
ENDMDL
