MODEL 1
REMARK minimizedAffinity -2.28322124
REMARK minimizedRMSD -1
REMARK  0 active torsions:
REMARK  status: ('A' for Active; 'I' for Inactive)
ROOT
ATOM      1  C4' PXY d   1       0.504   1.848  -0.391  0.00  0.00     0.077 C 
ATOM      2  C1' PXY d   1      -0.820  -3.771  -0.684  0.00  0.00     0.077 C 
ATOM      3  C1  PXY d   1      -0.481  -2.295  -0.598  0.00  0.00    -0.082 A 
ATOM      4  C2  PXY d   1       0.059  -1.686  -1.640  0.00  0.00     0.003 A 
ATOM      5  C3  PXY d   1       0.401  -0.360  -1.569  0.00  0.00     0.003 A 
ATOM      6  C4  PXY d   1       0.138   0.363  -0.436  0.00  0.00    -0.082 A 
ATOM      7  C5  PXY d   1      -0.424  -0.249   0.628  0.00  0.00     0.003 A 
ATOM      8  C6  PXY d   1      -0.725  -1.606   0.549  0.00  0.00     0.003 A 
ENDROOT
TORSDOF 0
ENDMDL
