MODEL 1
REMARK minimizedAffinity -2.97077751
REMARK minimizedRMSD -1
REMARK  0 active torsions:
REMARK  status: ('A' for Active; 'I' for Inactive)
ROOT
ATOM      1  C4' PXY d   1      -1.924  -0.328   2.302  0.00  0.00     0.077 C 
ATOM      2  C1' PXY d   1       0.686  -0.785  -2.835  0.00  0.00     0.077 C 
ATOM      3  C1  PXY d   1      -0.002  -0.677  -1.489  0.00  0.00    -0.082 A 
ATOM      4  C2  PXY d   1      -0.358   0.511  -1.029  0.00  0.00     0.003 A 
ATOM      5  C3  PXY d   1      -0.953   0.630   0.201  0.00  0.00     0.003 A 
ATOM      6  C4  PXY d   1      -1.235  -0.485   0.944  0.00  0.00    -0.082 A 
ATOM      7  C5  PXY d   1      -0.884  -1.702   0.477  0.00  0.00     0.003 A 
ATOM      8  C6  PXY d   1      -0.244  -1.797  -0.755  0.00  0.00     0.003 A 
ENDROOT
TORSDOF 0
ENDMDL
