MODEL 1
REMARK minimizedAffinity -3.60576701
REMARK minimizedRMSD -1
REMARK  0 active torsions:
REMARK  status: ('A' for Active; 'I' for Inactive)
ROOT
ATOM      1  C4' PXY d   1      -0.808  -1.207   0.345  0.00  0.00     0.077 C 
ATOM      2  C1' PXY d   1       2.245   3.701   0.428  0.00  0.00     0.077 C 
ATOM      3  C1  PXY d   1       1.435   2.420   0.398  0.00  0.00    -0.082 A 
ATOM      4  C2  PXY d   1       1.559   1.545   1.383  0.00  0.00     0.003 A 
ATOM      5  C3  PXY d   1       0.858   0.367   1.357  0.00  0.00     0.003 A 
ATOM      6  C4  PXY d   1      -0.018   0.105   0.338  0.00  0.00    -0.082 A 
ATOM      7  C5  PXY d   1      -0.158   0.997  -0.666  0.00  0.00     0.003 A 
ATOM      8  C6  PXY d   1       0.593   2.168  -0.641  0.00  0.00     0.003 A 
ENDROOT
TORSDOF 0
ENDMDL
