MODEL 1
REMARK minimizedAffinity -3.36316323
REMARK minimizedRMSD -1
REMARK  0 active torsions:
REMARK  status: ('A' for Active; 'I' for Inactive)
ROOT
ATOM      1  C4' PXY d   1      -0.674  -3.525  -0.737  0.00  0.00     0.077 C 
ATOM      2  C1' PXY d   1       0.169   2.101   0.289  0.00  0.00     0.077 C 
ATOM      3  C1  PXY d   1      -0.051   0.623   0.033  0.00  0.00    -0.082 A 
ATOM      4  C2  PXY d   1       0.266   0.109  -1.144  0.00  0.00     0.003 A 
ATOM      5  C3  PXY d   1       0.044  -1.219  -1.404  0.00  0.00     0.003 A 
ATOM      6  C4  PXY d   1      -0.460  -2.040  -0.431  0.00  0.00    -0.082 A 
ATOM      7  C5  PXY d   1      -0.777  -1.525   0.776  0.00  0.00     0.003 A 
ATOM      8  C6  PXY d   1      -0.582  -0.166   1.006  0.00  0.00     0.003 A 
ENDROOT
TORSDOF 0
ENDMDL
