MODEL 1
REMARK minimizedAffinity -2.73210979
REMARK minimizedRMSD -1
REMARK  0 active torsions:
REMARK  status: ('A' for Active; 'I' for Inactive)
ROOT
ATOM      1  C4' PXY d   1      -0.053   2.746   0.345  0.00  0.00     0.077 C 
ATOM      2  C1' PXY d   1      -0.490  -2.999  -0.121  0.00  0.00     0.077 C 
ATOM      3  C1  PXY d   1      -0.366  -1.493  -0.007  0.00  0.00    -0.082 A 
ATOM      4  C2  PXY d   1      -0.801  -0.881   1.082  0.00  0.00     0.003 A 
ATOM      5  C3  PXY d   1      -0.725   0.484   1.188  0.00  0.00     0.003 A 
ATOM      6  C4  PXY d   1      -0.149   1.225   0.191  0.00  0.00    -0.082 A 
ATOM      7  C5  PXY d   1       0.307   0.607  -0.919  0.00  0.00     0.003 A 
ATOM      8  C6  PXY d   1       0.183  -0.775  -1.025  0.00  0.00     0.003 A 
ENDROOT
TORSDOF 0
ENDMDL
