MODEL 1
REMARK minimizedAffinity -1.80501604
REMARK minimizedRMSD -1
REMARK  0 active torsions:
REMARK  status: ('A' for Active; 'I' for Inactive)
ROOT
ATOM      1  C4' PXY d   1       1.714   2.962   0.818  0.00  0.00     0.077 C 
ATOM      2  C1' PXY d   1      -1.099  -2.087   0.703  0.00  0.00     0.077 C 
ATOM      3  C1  PXY d   1      -0.353  -0.767   0.724  0.00  0.00    -0.082 A 
ATOM      4  C2  PXY d   1      -0.400  -0.006   1.805  0.00  0.00     0.003 A 
ATOM      5  C3  PXY d   1       0.242   1.205   1.830  0.00  0.00     0.003 A 
ATOM      6  C4  PXY d   1       0.984   1.617   0.756  0.00  0.00    -0.082 A 
ATOM      7  C5  PXY d   1       1.046   0.842  -0.347  0.00  0.00     0.003 A 
ATOM      8  C6  PXY d   1       0.353  -0.365  -0.367  0.00  0.00     0.003 A 
ENDROOT
TORSDOF 0
ENDMDL
