MODEL 1
REMARK minimizedAffinity -0.967214942
REMARK minimizedRMSD -1
REMARK  0 active torsions:
REMARK  status: ('A' for Active; 'I' for Inactive)
ROOT
ATOM      1  C4' PXY d   1       0.269   2.741   0.383  0.00  0.00     0.077 C 
ATOM      2  C1' PXY d   1      -0.779  -2.942   0.209  0.00  0.00     0.077 C 
ATOM      3  C1  PXY d   1      -0.494  -1.453   0.246  0.00  0.00    -0.082 A 
ATOM      4  C2  PXY d   1      -0.882  -0.739   1.290  0.00  0.00     0.003 A 
ATOM      5  C3  PXY d   1      -0.661   0.614   1.326  0.00  0.00     0.003 A 
ATOM      6  C4  PXY d   1       0.011   1.233   0.307  0.00  0.00    -0.082 A 
ATOM      7  C5  PXY d   1       0.420   0.510  -0.757  0.00  0.00     0.003 A 
ATOM      8  C6  PXY d   1       0.149  -0.855  -0.793  0.00  0.00     0.003 A 
ENDROOT
TORSDOF 0
ENDMDL
