MODEL 1
REMARK minimizedAffinity -1.7465204
REMARK minimizedRMSD -1
REMARK  0 active torsions:
REMARK  status: ('A' for Active; 'I' for Inactive)
ROOT
ATOM      1  C4' PXY d   1       0.392   2.725   0.108  0.00  0.00     0.077 C 
ATOM      2  C1' PXY d   1      -1.017  -2.857   0.627  0.00  0.00     0.077 C 
ATOM      3  C1  PXY d   1      -0.637  -1.397   0.484  0.00  0.00    -0.082 A 
ATOM      4  C2  PXY d   1      -1.006  -0.530   1.413  0.00  0.00     0.003 A 
ATOM      5  C3  PXY d   1      -0.699   0.800   1.283  0.00  0.00     0.003 A 
ATOM      6  C4  PXY d   1       0.039   1.239   0.217  0.00  0.00    -0.082 A 
ATOM      7  C5  PXY d   1       0.428   0.360  -0.731  0.00  0.00     0.003 A 
ATOM      8  C6  PXY d   1       0.071  -0.979  -0.601  0.00  0.00     0.003 A 
ENDROOT
TORSDOF 0
ENDMDL
