MODEL 1
REMARK minimizedAffinity -1.95801938
REMARK minimizedRMSD -1
REMARK  0 active torsions:
REMARK  status: ('A' for Active; 'I' for Inactive)
ROOT
ATOM      1  C4' PXY d   1       0.520   2.702   0.079  0.00  0.00     0.077 C 
ATOM      2  C1' PXY d   1      -1.750  -2.548   0.920  0.00  0.00     0.077 C 
ATOM      3  C1  PXY d   1      -1.143  -1.176   0.698  0.00  0.00    -0.082 A 
ATOM      4  C2  PXY d   1      -1.757  -0.105   1.173  0.00  0.00     0.003 A 
ATOM      5  C3  PXY d   1      -1.238   1.145   0.954  0.00  0.00     0.003 A 
ATOM      6  C4  PXY d   1      -0.052   1.296   0.287  0.00  0.00    -0.082 A 
ATOM      7  C5  PXY d   1       0.585   0.207  -0.192  0.00  0.00     0.003 A 
ATOM      8  C6  PXY d   1       0.021  -1.050   0.005  0.00  0.00     0.003 A 
ENDROOT
TORSDOF 0
ENDMDL
