MODEL 1
REMARK minimizedAffinity -3.33319306
REMARK minimizedRMSD -1
REMARK  0 active torsions:
REMARK  status: ('A' for Active; 'I' for Inactive)
ROOT
ATOM      1  C4' PXY d   1       1.303   2.512  -0.438  0.00  0.00     0.077 C 
ATOM      2  C1' PXY d   1      -0.799  -2.869  -0.239  0.00  0.00     0.077 C 
ATOM      3  C1  PXY d   1      -0.242  -1.460  -0.303  0.00  0.00    -0.082 A 
ATOM      4  C2  PXY d   1      -0.050  -0.782   0.817  0.00  0.00     0.003 A 
ATOM      5  C3  PXY d   1       0.423   0.505   0.775  0.00  0.00     0.003 A 
ATOM      6  C4  PXY d   1       0.752   1.084  -0.421  0.00  0.00    -0.082 A 
ATOM      7  C5  PXY d   1       0.569   0.394  -1.567  0.00  0.00     0.003 A 
ATOM      8  C6  PXY d   1       0.049  -0.896  -1.506  0.00  0.00     0.003 A 
ENDROOT
TORSDOF 0
ENDMDL
