MODEL 1
REMARK minimizedAffinity -2.84875584
REMARK minimizedRMSD -1
REMARK  0 active torsions:
REMARK  status: ('A' for Active; 'I' for Inactive)
ROOT
ATOM      1  C4' PXY d   1       0.985  -1.809  -3.646  0.00  0.00     0.077 C 
ATOM      2  C1' PXY d   1      -0.951  -0.353   1.603  0.00  0.00     0.077 C 
ATOM      3  C1  PXY d   1      -0.443  -0.748   0.230  0.00  0.00    -0.082 A 
ATOM      4  C2  PXY d   1       0.180   0.148  -0.519  0.00  0.00     0.003 A 
ATOM      5  C3  PXY d   1       0.618  -0.183  -1.775  0.00  0.00     0.003 A 
ATOM      6  C4  PXY d   1       0.463  -1.458  -2.250  0.00  0.00    -0.082 A 
ATOM      7  C5  PXY d   1      -0.162  -2.380  -1.487  0.00  0.00     0.003 A 
ATOM      8  C6  PXY d   1      -0.636  -2.013  -0.231  0.00  0.00     0.003 A 
ENDROOT
TORSDOF 0
ENDMDL
