MODEL 1
REMARK minimizedAffinity -4.70292377
REMARK minimizedRMSD -1
REMARK  0 active torsions:
REMARK  status: ('A' for Active; 'I' for Inactive)
ROOT
ATOM      1  C4' PXY d   1       0.531   1.242   0.475  0.00  0.00     0.077 C 
ATOM      2  C1' PXY d   1      -0.684  -4.122  -1.304  0.00  0.00     0.077 C 
ATOM      3  C1  PXY d   1      -0.374  -2.716  -0.828  0.00  0.00    -0.082 A 
ATOM      4  C2  PXY d   1       0.111  -1.829  -1.681  0.00  0.00     0.003 A 
ATOM      5  C3  PXY d   1       0.427  -0.563  -1.259  0.00  0.00     0.003 A 
ATOM      6  C4  PXY d   1       0.195  -0.185   0.036  0.00  0.00    -0.082 A 
ATOM      7  C5  PXY d   1      -0.310  -1.082   0.910  0.00  0.00     0.003 A 
ATOM      8  C6  PXY d   1      -0.586  -2.374   0.472  0.00  0.00     0.003 A 
ENDROOT
TORSDOF 0
ENDMDL
