MODEL 1
REMARK minimizedAffinity 5.64912367
REMARK minimizedRMSD -1
REMARK  0 active torsions:
REMARK  status: ('A' for Active; 'I' for Inactive)
ROOT
ATOM      1  C2' OXE d   1      -0.381   1.378  -1.379  0.00  0.00     0.078 C 
ATOM      2  C1' OXE d   1      -1.150   3.417   0.391  0.00  0.00     0.078 C 
ATOM      3  C1  OXE d   1       0.039   2.569   0.768  0.00  0.00    -0.078 A 
ATOM      4  C2  OXE d   1       0.379   1.544  -0.081  0.00  0.00    -0.078 A 
ATOM      5  C3  OXE d   1       1.501   0.767   0.192  0.00  0.00     0.003 A 
ATOM      6  C4  OXE d   1       2.193   0.920   1.399  0.00  0.00    -0.002 A 
ATOM      7  C5  OXE d   1       1.838   1.932   2.297  0.00  0.00    -0.002 A 
ATOM      8  C6  OXE d   1       0.792   2.791   1.978  0.00  0.00     0.003 A 
ENDROOT
TORSDOF 0
ENDMDL
