MODEL 1
REMARK minimizedAffinity 7.61153984
REMARK minimizedRMSD -1
REMARK  0 active torsions:
REMARK  status: ('A' for Active; 'I' for Inactive)
ROOT
ATOM      1  C2' OXE d   1      -2.978   3.327   2.850  0.00  0.00     0.078 C 
ATOM      2  C1' OXE d   1      -1.553   1.756   1.012  0.00  0.00     0.078 C 
ATOM      3  C1  OXE d   1      -3.042   1.540   1.116  0.00  0.00    -0.078 A 
ATOM      4  C2  OXE d   1      -3.724   2.280   2.051  0.00  0.00    -0.078 A 
ATOM      5  C3  OXE d   1      -5.107   2.160   2.150  0.00  0.00     0.003 A 
ATOM      6  C4  OXE d   1      -5.788   1.183   1.415  0.00  0.00    -0.002 A 
ATOM      7  C5  OXE d   1      -5.106   0.390   0.485  0.00  0.00    -0.002 A 
ATOM      8  C6  OXE d   1      -3.743   0.585   0.293  0.00  0.00     0.003 A 
ENDROOT
TORSDOF 0
ENDMDL
