MODEL 1
REMARK minimizedAffinity 4.45765877
REMARK minimizedRMSD -1
REMARK  0 active torsions:
REMARK  status: ('A' for Active; 'I' for Inactive)
ROOT
ATOM      1  C2' OXE d   1       4.461  -1.107   1.468  0.00  0.00     0.078 C 
ATOM      2  C1' OXE d   1       2.837  -2.347  -0.457  0.00  0.00     0.078 C 
ATOM      3  C1  OXE d   1       2.559  -0.902  -0.127  0.00  0.00    -0.078 A 
ATOM      4  C2  OXE d   1       3.328  -0.317   0.850  0.00  0.00    -0.078 A 
ATOM      5  C3  OXE d   1       3.149   1.030   1.154  0.00  0.00     0.003 A 
ATOM      6  C4  OXE d   1       2.092   1.751   0.584  0.00  0.00    -0.002 A 
ATOM      7  C5  OXE d   1       1.272   1.162  -0.384  0.00  0.00    -0.002 A 
ATOM      8  C6  OXE d   1       1.518  -0.148  -0.781  0.00  0.00     0.003 A 
ENDROOT
TORSDOF 0
ENDMDL
