MODEL 1
REMARK minimizedAffinity 7.00086546
REMARK minimizedRMSD -1
REMARK  0 active torsions:
REMARK  status: ('A' for Active; 'I' for Inactive)
ROOT
ATOM      1  C2' OXE d   1      -5.482   2.288  -2.140  0.00  0.00     0.078 C 
ATOM      2  C1' OXE d   1      -4.064   3.726  -4.090  0.00  0.00     0.078 C 
ATOM      3  C1  OXE d   1      -4.407   2.288  -4.387  0.00  0.00    -0.078 A 
ATOM      4  C2  OXE d   1      -5.059   1.578  -3.408  0.00  0.00    -0.078 A 
ATOM      5  C3  OXE d   1      -5.447   0.264  -3.651  0.00  0.00     0.003 A 
ATOM      6  C4  OXE d   1      -5.043  -0.389  -4.823  0.00  0.00    -0.002 A 
ATOM      7  C5  OXE d   1      -4.343   0.304  -5.816  0.00  0.00    -0.002 A 
ATOM      8  C6  OXE d   1      -4.055   1.652  -5.632  0.00  0.00     0.003 A 
ENDROOT
TORSDOF 0
ENDMDL
