MODEL 1
REMARK minimizedAffinity 0.854653299
REMARK minimizedRMSD -1
REMARK  0 active torsions:
REMARK  status: ('A' for Active; 'I' for Inactive)
ROOT
ATOM      1  C2' OXE d   1      -4.154  -1.546  -2.316  0.00  0.00     0.078 C 
ATOM      2  C1' OXE d   1      -5.395   0.245  -0.547  0.00  0.00     0.078 C 
ATOM      3  C1  OXE d   1      -5.309   0.638  -2.000  0.00  0.00    -0.078 A 
ATOM      4  C2  OXE d   1      -4.659  -0.223  -2.851  0.00  0.00    -0.078 A 
ATOM      5  C3  OXE d   1      -4.600   0.065  -4.211  0.00  0.00     0.003 A 
ATOM      6  C4  OXE d   1      -5.061   1.295  -4.696  0.00  0.00    -0.002 A 
ATOM      7  C5  OXE d   1      -5.691   2.205  -3.840  0.00  0.00    -0.002 A 
ATOM      8  C6  OXE d   1      -5.861   1.874  -2.500  0.00  0.00     0.003 A 
ENDROOT
TORSDOF 0
ENDMDL
