MODEL 1
REMARK minimizedAffinity 4.65996408
REMARK minimizedRMSD -1
REMARK  0 active torsions:
REMARK  status: ('A' for Active; 'I' for Inactive)
ROOT
ATOM      1  C2' OXE d   1      -5.924   2.255  -4.338  0.00  0.00     0.078 C 
ATOM      2  C1' OXE d   1      -5.635  -0.282  -5.505  0.00  0.00     0.078 C 
ATOM      3  C1  OXE d   1      -4.706   0.082  -4.375  0.00  0.00    -0.078 A 
ATOM      4  C2  OXE d   1      -4.823   1.343  -3.841  0.00  0.00    -0.078 A 
ATOM      5  C3  OXE d   1      -4.027   1.710  -2.760  0.00  0.00     0.003 A 
ATOM      6  C4  OXE d   1      -3.004   0.865  -2.312  0.00  0.00    -0.002 A 
ATOM      7  C5  OXE d   1      -2.842  -0.408  -2.869  0.00  0.00    -0.002 A 
ATOM      8  C6  OXE d   1      -3.709  -0.830  -3.870  0.00  0.00     0.003 A 
ENDROOT
TORSDOF 0
ENDMDL
