MODEL 1
REMARK minimizedAffinity 1.99784887
REMARK minimizedRMSD -1
REMARK  1 active torsions:
REMARK  status: ('A' for Active; 'I' for Inactive)
REMARK    1  A    between atoms: C1_2  and  C2_3 
ROOT
ATOM      1  C2  UNL d   1       2.565   2.654  -5.941  0.00  0.00    -0.081 A 
ATOM      2  C3  UNL d   1       2.260   4.020  -5.991  0.00  0.00     0.006 A 
ATOM      3  C4  UNL d   1       3.280   4.973  -5.997  0.00  0.00     0.002 A 
ATOM      4  C5  UNL d   1       4.621   4.578  -5.960  0.00  0.00    -0.080 A 
ATOM      5  C6  UNL d   1       5.727   5.591  -5.997  0.00  0.00     0.076 C 
ATOM      6  C7  UNL d   1       4.926   3.214  -5.892  0.00  0.00     0.002 A 
ATOM      7  C8  UNL d   1       3.906   2.260  -5.886  0.00  0.00     0.006 A 
ENDROOT
BRANCH   1   8
ATOM      8  C1  UNL d   1       1.469   1.621  -5.999  0.00  0.00     0.054 C 
ATOM      9  C   UNL d   1       0.093   2.272  -5.972  0.00  0.00     0.018 C 
ENDBRANCH   1   8
TORSDOF 1
ENDMDL
