MODEL 1
REMARK minimizedAffinity 7.28941822
REMARK minimizedRMSD -1
REMARK  1 active torsions:
REMARK  status: ('A' for Active; 'I' for Inactive)
REMARK    1  A    between atoms: C1_2  and  C2_3 
ROOT
ATOM      1  C2  UNL d   1       1.861   3.570  -5.876  0.00  0.00    -0.081 A 
ATOM      2  C3  UNL d   1       3.120   2.958  -5.866  0.00  0.00     0.006 A 
ATOM      3  C4  UNL d   1       4.283   3.731  -5.917  0.00  0.00     0.002 A 
ATOM      4  C5  UNL d   1       4.207   5.126  -5.971  0.00  0.00    -0.080 A 
ATOM      5  C6  UNL d   1       5.448   5.968  -5.996  0.00  0.00     0.076 C 
ATOM      6  C7  UNL d   1       2.949   5.737  -5.999  0.00  0.00     0.002 A 
ATOM      7  C8  UNL d   1       1.785   4.966  -5.949  0.00  0.00     0.006 A 
ENDROOT
BRANCH   1   8
ATOM      8  C1  UNL d   1       0.606   2.744  -5.756  0.00  0.00     0.054 C 
ATOM      9  C   UNL d   1      -0.459   3.469  -4.946  0.00  0.00     0.018 C 
ENDBRANCH   1   8
TORSDOF 1
ENDMDL
