MODEL 1
REMARK minimizedAffinity 9.25642204
REMARK minimizedRMSD -1
REMARK  1 active torsions:
REMARK  status: ('A' for Active; 'I' for Inactive)
REMARK    1  A    between atoms: C1_2  and  C2_3 
ROOT
ATOM      1  C2  UNL d   1       4.165  -3.787   2.476  0.00  0.00    -0.081 A 
ATOM      2  C3  UNL d   1       4.490  -5.146   2.381  0.00  0.00     0.006 A 
ATOM      3  C4  UNL d   1       4.880  -5.862   3.516  0.00  0.00     0.002 A 
ATOM      4  C5  UNL d   1       4.943  -5.233   4.764  0.00  0.00    -0.080 A 
ATOM      5  C6  UNL d   1       5.330  -5.998   5.995  0.00  0.00     0.076 C 
ATOM      6  C7  UNL d   1       4.635  -3.872   4.856  0.00  0.00     0.002 A 
ATOM      7  C8  UNL d   1       4.247  -3.155   3.722  0.00  0.00     0.006 A 
ENDROOT
BRANCH   1   8
ATOM      8  C1  UNL d   1       3.683  -3.028   1.266  0.00  0.00     0.054 C 
ATOM      9  C   UNL d   1       2.163  -2.943   1.236  0.00  0.00     0.018 C 
ENDBRANCH   1   8
TORSDOF 1
ENDMDL
