MODEL 1
REMARK minimizedAffinity 5.72687197
REMARK minimizedRMSD -1
REMARK  1 active torsions:
REMARK  status: ('A' for Active; 'I' for Inactive)
REMARK    1  A    between atoms: C1_2  and  C2_3 
ROOT
ATOM      1  C2  UNL d   1       1.638   3.634  -5.938  0.00  0.00    -0.081 A 
ATOM      2  C3  UNL d   1       2.229   2.365  -5.957  0.00  0.00     0.006 A 
ATOM      3  C4  UNL d   1       3.620   2.232  -5.987  0.00  0.00     0.002 A 
ATOM      4  C5  UNL d   1       4.441   3.364  -5.991  0.00  0.00    -0.080 A 
ATOM      5  C6  UNL d   1       5.935   3.235  -5.993  0.00  0.00     0.076 C 
ATOM      6  C7  UNL d   1       3.850   4.633  -5.991  0.00  0.00     0.002 A 
ATOM      7  C8  UNL d   1       2.460   4.766  -5.961  0.00  0.00     0.006 A 
ENDROOT
BRANCH   1   8
ATOM      8  C1  UNL d   1       0.141   3.781  -5.841  0.00  0.00     0.054 C 
ATOM      9  C   UNL d   1      -0.391   3.179  -4.548  0.00  0.00     0.018 C 
ENDBRANCH   1   8
TORSDOF 1
ENDMDL
