MODEL 1
REMARK minimizedAffinity 5.06435204
REMARK minimizedRMSD -1
REMARK  1 active torsions:
REMARK  status: ('A' for Active; 'I' for Inactive)
REMARK    1  A    between atoms: C1_2  and  C2_3 
ROOT
ATOM      1  C2  UNL d   1       2.104   3.645  -5.651  0.00  0.00    -0.081 A 
ATOM      2  C3  UNL d   1       2.056   5.038  -5.522  0.00  0.00     0.006 A 
ATOM      3  C4  UNL d   1       3.223   5.799  -5.621  0.00  0.00     0.002 A 
ATOM      4  C5  UNL d   1       4.456   5.181  -5.858  0.00  0.00    -0.080 A 
ATOM      5  C6  UNL d   1       5.712   5.989  -5.996  0.00  0.00     0.076 C 
ATOM      6  C7  UNL d   1       4.507   3.788  -5.969  0.00  0.00     0.002 A 
ATOM      7  C8  UNL d   1       3.340   3.026  -5.870  0.00  0.00     0.006 A 
ENDROOT
BRANCH   1   8
ATOM      8  C1  UNL d   1       0.839   2.827  -5.609  0.00  0.00     0.054 C 
ATOM      9  C   UNL d   1       1.108   1.372  -5.969  0.00  0.00     0.018 C 
ENDBRANCH   1   8
TORSDOF 1
ENDMDL
