MODEL 1
REMARK minimizedAffinity 12.6291265
REMARK minimizedRMSD -1
REMARK  1 active torsions:
REMARK  status: ('A' for Active; 'I' for Inactive)
REMARK    1  A    between atoms: C1_2  and  C2_3 
ROOT
ATOM      1  C2  UNL d   1      -4.386   2.287   4.588  0.00  0.00    -0.081 A 
ATOM      2  C3  UNL d   1      -3.330   1.892   3.757  0.00  0.00     0.006 A 
ATOM      3  C4  UNL d   1      -3.574   1.498   2.439  0.00  0.00     0.002 A 
ATOM      4  C5  UNL d   1      -4.877   1.500   1.928  0.00  0.00    -0.080 A 
ATOM      5  C6  UNL d   1      -5.150   1.108   0.507  0.00  0.00     0.076 C 
ATOM      6  C7  UNL d   1      -5.934   1.877   2.763  0.00  0.00     0.002 A 
ATOM      7  C8  UNL d   1      -5.690   2.271   4.081  0.00  0.00     0.006 A 
ENDROOT
BRANCH   1   8
ATOM      8  C1  UNL d   1      -4.118   2.774   5.989  0.00  0.00     0.054 C 
ATOM      9  C   UNL d   1      -3.747   4.251   6.000  0.00  0.00     0.018 C 
ENDBRANCH   1   8
TORSDOF 1
ENDMDL
