MODEL 1
REMARK minimizedAffinity -2.90967679
REMARK minimizedRMSD -1
REMARK  0 active torsions:
REMARK  status: ('A' for Active; 'I' for Inactive)
ROOT
ATOM      1  C1  BNZ d   1       1.779   1.295  -1.566  0.00  0.00     0.000 A 
ATOM      2  C2  BNZ d   1       0.776   1.607  -0.687  0.00  0.00     0.000 A 
ATOM      3  C3  BNZ d   1       0.134   0.627   0.018  0.00  0.00     0.000 A 
ATOM      4  C4  BNZ d   1       0.467  -0.664  -0.187  0.00  0.00     0.000 A 
ATOM      5  C5  BNZ d   1       1.469  -0.994  -1.077  0.00  0.00     0.000 A 
ATOM      6  C6  BNZ d   1       2.140  -0.003  -1.755  0.00  0.00     0.000 A 
ENDROOT
TORSDOF 0
ENDMDL
