MODEL 1
REMARK minimizedAffinity -2.16228414
REMARK minimizedRMSD -1
REMARK  0 active torsions:
REMARK  status: ('A' for Active; 'I' for Inactive)
ROOT
ATOM      1  C1  BNZ d   1      -3.030   1.503   3.717  0.00  0.00     0.000 A 
ATOM      2  C2  BNZ d   1      -2.615   0.232   3.421  0.00  0.00     0.000 A 
ATOM      3  C3  BNZ d   1      -3.032  -0.393   2.279  0.00  0.00     0.000 A 
ATOM      4  C4  BNZ d   1      -3.894   0.238   1.455  0.00  0.00     0.000 A 
ATOM      5  C5  BNZ d   1      -4.329   1.516   1.744  0.00  0.00     0.000 A 
ATOM      6  C6  BNZ d   1      -3.876   2.157   2.875  0.00  0.00     0.000 A 
ENDROOT
TORSDOF 0
ENDMDL
