MODEL 1
REMARK minimizedAffinity -4.25878286
REMARK minimizedRMSD -1
REMARK  0 active torsions:
REMARK  status: ('A' for Active; 'I' for Inactive)
ROOT
ATOM      1  C1  BNZ d   1       2.138   1.082  -1.140  0.00  0.00     0.000 A 
ATOM      2  C2  BNZ d   1       2.215   0.123  -2.114  0.00  0.00     0.000 A 
ATOM      3  C3  BNZ d   1       1.187  -0.756  -2.314  0.00  0.00     0.000 A 
ATOM      4  C4  BNZ d   1       0.102  -0.699  -1.515  0.00  0.00     0.000 A 
ATOM      5  C5  BNZ d   1       0.014   0.256  -0.522  0.00  0.00     0.000 A 
ATOM      6  C6  BNZ d   1       1.034   1.163  -0.350  0.00  0.00     0.000 A 
ENDROOT
TORSDOF 0
ENDMDL
