MODEL 1
REMARK minimizedAffinity -4.74185991
REMARK minimizedRMSD -1
REMARK  0 active torsions:
REMARK  status: ('A' for Active; 'I' for Inactive)
ROOT
ATOM      1  C1  BNZ d   1       2.166   1.423  -1.601  0.00  0.00     0.000 A 
ATOM      2  C2  BNZ d   1       1.833   0.709  -2.720  0.00  0.00     0.000 A 
ATOM      3  C3  BNZ d   1       0.677  -0.020  -2.768  0.00  0.00     0.000 A 
ATOM      4  C4  BNZ d   1      -0.122  -0.066  -1.682  0.00  0.00     0.000 A 
ATOM      5  C5  BNZ d   1       0.205   0.641  -0.543  0.00  0.00     0.000 A 
ATOM      6  C6  BNZ d   1       1.349   1.405  -0.513  0.00  0.00     0.000 A 
ENDROOT
TORSDOF 0
ENDMDL
