MODEL 1
REMARK minimizedAffinity -2.09330344
REMARK minimizedRMSD -1
REMARK  0 active torsions:
REMARK  status: ('A' for Active; 'I' for Inactive)
ROOT
ATOM      1  C1  BNZ d   1       1.016  -0.750  -1.720  0.00  0.00     0.000 A 
ATOM      2  C2  BNZ d   1      -0.067  -0.637  -0.889  0.00  0.00     0.000 A 
ATOM      3  C3  BNZ d   1      -0.105   0.322   0.084  0.00  0.00     0.000 A 
ATOM      4  C4  BNZ d   1       0.954   1.140   0.251  0.00  0.00     0.000 A 
ATOM      5  C5  BNZ d   1       2.057   1.033  -0.573  0.00  0.00     0.000 A 
ATOM      6  C6  BNZ d   1       2.076   0.092  -1.576  0.00  0.00     0.000 A 
ENDROOT
TORSDOF 0
ENDMDL
