MODEL 1
REMARK minimizedAffinity -4.93549061
REMARK minimizedRMSD -1
REMARK  0 active torsions:
REMARK  status: ('A' for Active; 'I' for Inactive)
ROOT
ATOM      1  C1  BNZ d   1      -0.394  -0.045  -1.900  0.00  0.00     0.000 A 
ATOM      2  C2  BNZ d   1       0.664  -0.129  -2.765  0.00  0.00     0.000 A 
ATOM      3  C3  BNZ d   1       1.870   0.432  -2.453  0.00  0.00     0.000 A 
ATOM      4  C4  BNZ d   1       2.007   1.109  -1.295  0.00  0.00     0.000 A 
ATOM      5  C5  BNZ d   1       0.947   1.211  -0.415  0.00  0.00     0.000 A 
ATOM      6  C6  BNZ d   1      -0.255   0.612  -0.716  0.00  0.00     0.000 A 
ENDROOT
TORSDOF 0
ENDMDL
