MODEL 1
REMARK minimizedAffinity -2.97367406
REMARK minimizedRMSD -1
REMARK  0 active torsions:
REMARK  status: ('A' for Active; 'I' for Inactive)
ROOT
ATOM      1  C1  BNZ d   1      -3.395   4.234  -5.958  0.00  0.00     0.000 A 
ATOM      2  C2  BNZ d   1      -4.417   3.324  -5.997  0.00  0.00     0.000 A 
ATOM      3  C3  BNZ d   1      -5.721   3.733  -5.948  0.00  0.00     0.000 A 
ATOM      4  C4  BNZ d   1      -5.999   5.047  -5.820  0.00  0.00     0.000 A 
ATOM      5  C5  BNZ d   1      -4.979   5.976  -5.769  0.00  0.00     0.000 A 
ATOM      6  C6  BNZ d   1      -3.669   5.564  -5.858  0.00  0.00     0.000 A 
ENDROOT
TORSDOF 0
ENDMDL
