MODEL 1
REMARK minimizedAffinity -3.7241888
REMARK minimizedRMSD -1
REMARK  0 active torsions:
REMARK  status: ('A' for Active; 'I' for Inactive)
ROOT
ATOM      1  C1  BNZ d   1       0.108  -2.056   0.051  0.00  0.00     0.000 A 
ATOM      2  C2  BNZ d   1       0.266  -1.317  -1.091  0.00  0.00     0.000 A 
ATOM      3  C3  BNZ d   1       0.273   0.049  -1.046  0.00  0.00     0.000 A 
ATOM      4  C4  BNZ d   1       0.083   0.674   0.134  0.00  0.00     0.000 A 
ATOM      5  C5  BNZ d   1      -0.087  -0.057   1.293  0.00  0.00     0.000 A 
ATOM      6  C6  BNZ d   1      -0.054  -1.432   1.249  0.00  0.00     0.000 A 
ENDROOT
TORSDOF 0
ENDMDL
