MODEL 1
REMARK minimizedAffinity -1.88044393
REMARK minimizedRMSD -1
REMARK  0 active torsions:
REMARK  status: ('A' for Active; 'I' for Inactive)
ROOT
ATOM      1  C1  BNZ d   1       2.484   0.298  -1.524  0.00  0.00     0.000 A 
ATOM      2  C2  BNZ d   1       1.527  -0.518  -0.982  0.00  0.00     0.000 A 
ATOM      3  C3  BNZ d   1       0.642  -0.039  -0.057  0.00  0.00     0.000 A 
ATOM      4  C4  BNZ d   1       0.740   1.241   0.354  0.00  0.00     0.000 A 
ATOM      5  C5  BNZ d   1       1.705   2.074  -0.176  0.00  0.00     0.000 A 
ATOM      6  C6  BNZ d   1       2.570   1.599  -1.136  0.00  0.00     0.000 A 
ENDROOT
TORSDOF 0
ENDMDL
