MODEL 1
REMARK minimizedAffinity -4.12878418
REMARK minimizedRMSD -1
REMARK  0 active torsions:
REMARK  status: ('A' for Active; 'I' for Inactive)
ROOT
ATOM      1  C1  BNZ d   1       1.441  -0.903  -0.905  0.00  0.00     0.000 A 
ATOM      2  C2  BNZ d   1       0.607  -0.641   0.149  0.00  0.00     0.000 A 
ATOM      3  C3  BNZ d   1       0.350   0.645   0.535  0.00  0.00     0.000 A 
ATOM      4  C4  BNZ d   1       0.958   1.664  -0.106  0.00  0.00     0.000 A 
ATOM      5  C5  BNZ d   1       1.809   1.416  -1.164  0.00  0.00     0.000 A 
ATOM      6  C6  BNZ d   1       2.035   0.122  -1.575  0.00  0.00     0.000 A 
ENDROOT
TORSDOF 0
ENDMDL
