MODEL 1
REMARK minimizedAffinity -4.4772048
REMARK minimizedRMSD -1
REMARK  0 active torsions:
REMARK  status: ('A' for Active; 'I' for Inactive)
ROOT
ATOM      1  C1  BNZ d   1       1.994   0.953  -1.626  0.00  0.00     0.000 A 
ATOM      2  C2  BNZ d   1       1.281   1.507  -0.596  0.00  0.00     0.000 A 
ATOM      3  C3  BNZ d   1       0.641   0.716   0.316  0.00  0.00     0.000 A 
ATOM      4  C4  BNZ d   1       0.681  -0.624   0.175  0.00  0.00     0.000 A 
ATOM      5  C5  BNZ d   1       1.387  -1.197  -0.863  0.00  0.00     0.000 A 
ATOM      6  C6  BNZ d   1       2.063  -0.399  -1.758  0.00  0.00     0.000 A 
ENDROOT
TORSDOF 0
ENDMDL
