MODEL 1
REMARK minimizedAffinity -2.48675036
REMARK minimizedRMSD -1
REMARK  0 active torsions:
REMARK  status: ('A' for Active; 'I' for Inactive)
ROOT
ATOM      1  C1  BNZ d   1       1.209   1.221  -0.653  0.00  0.00     0.000 A 
ATOM      2  C2  BNZ d   1       2.448   0.652  -0.787  0.00  0.00     0.000 A 
ATOM      3  C3  BNZ d   1       2.981   0.419  -2.024  0.00  0.00     0.000 A 
ATOM      4  C4  BNZ d   1       2.260   0.717  -3.124  0.00  0.00     0.000 A 
ATOM      5  C5  BNZ d   1       1.006   1.282  -3.005  0.00  0.00     0.000 A 
ATOM      6  C6  BNZ d   1       0.488   1.551  -1.759  0.00  0.00     0.000 A 
ENDROOT
TORSDOF 0
ENDMDL
