MODEL 1
REMARK minimizedAffinity -2.79192376
REMARK minimizedRMSD -1
REMARK  0 active torsions:
REMARK  status: ('A' for Active; 'I' for Inactive)
ROOT
ATOM      1  C1  BNZ d   1       0.443  -0.077  -0.107  0.00  0.00     0.000 A 
ATOM      2  C2  BNZ d   1       0.492  -1.437  -0.255  0.00  0.00     0.000 A 
ATOM      3  C3  BNZ d   1       1.567  -2.039  -0.847  0.00  0.00     0.000 A 
ATOM      4  C4  BNZ d   1       2.572  -1.278  -1.326  0.00  0.00     0.000 A 
ATOM      5  C5  BNZ d   1       2.533   0.096  -1.193  0.00  0.00     0.000 A 
ATOM      6  C6  BNZ d   1       1.467   0.695  -0.562  0.00  0.00     0.000 A 
ENDROOT
TORSDOF 0
ENDMDL
