MODEL 1
REMARK minimizedAffinity -3.30491662
REMARK minimizedRMSD -1
REMARK  0 active torsions:
REMARK  status: ('A' for Active; 'I' for Inactive)
ROOT
ATOM      1  C1  BNZ d   1      -3.561  -0.290   1.402  0.00  0.00     0.000 A 
ATOM      2  C2  BNZ d   1      -2.316  -0.530   1.921  0.00  0.00     0.000 A 
ATOM      3  C3  BNZ d   1      -1.610   0.467   2.535  0.00  0.00     0.000 A 
ATOM      4  C4  BNZ d   1      -2.131   1.709   2.593  0.00  0.00     0.000 A 
ATOM      5  C5  BNZ d   1      -3.381   1.969   2.067  0.00  0.00     0.000 A 
ATOM      6  C6  BNZ d   1      -4.105   0.954   1.484  0.00  0.00     0.000 A 
ENDROOT
TORSDOF 0
ENDMDL
