MODEL 1
REMARK minimizedAffinity -3.84956932
REMARK minimizedRMSD -1
REMARK  0 active torsions:
REMARK  status: ('A' for Active; 'I' for Inactive)
ROOT
ATOM      1  C1  BNZ d   1      -1.070   0.134   1.828  0.00  0.00     0.000 A 
ATOM      2  C2  BNZ d   1      -1.167  -0.202   0.504  0.00  0.00     0.000 A 
ATOM      3  C3  BNZ d   1      -2.370  -0.152  -0.143  0.00  0.00     0.000 A 
ATOM      4  C4  BNZ d   1      -3.478   0.196   0.542  0.00  0.00     0.000 A 
ATOM      5  C5  BNZ d   1      -3.398   0.529   1.879  0.00  0.00     0.000 A 
ATOM      6  C6  BNZ d   1      -2.179   0.514   2.519  0.00  0.00     0.000 A 
ENDROOT
TORSDOF 0
ENDMDL
