MODEL 1
REMARK minimizedAffinity -4.6799674
REMARK minimizedRMSD -1
REMARK  0 active torsions:
REMARK  status: ('A' for Active; 'I' for Inactive)
ROOT
ATOM      1  C2' OXE d   1       0.719  -2.260   1.357  0.00  0.00     0.078 C 
ATOM      2  C1' OXE d   1      -1.725  -3.272   0.419  0.00  0.00     0.078 C 
ATOM      3  C1  OXE d   1      -1.250  -1.953  -0.138  0.00  0.00    -0.078 A 
ATOM      4  C2  OXE d   1      -0.076  -1.443   0.361  0.00  0.00    -0.078 A 
ATOM      5  C3  OXE d   1       0.436  -0.257  -0.157  0.00  0.00     0.003 A 
ATOM      6  C4  OXE d   1      -0.311   0.498  -1.071  0.00  0.00    -0.002 A 
ATOM      7  C5  OXE d   1      -1.528   0.015  -1.562  0.00  0.00    -0.002 A 
ATOM      8  C6  OXE d   1      -1.990  -1.226  -1.139  0.00  0.00     0.003 A 
ENDROOT
TORSDOF 0
ENDMDL
