MODEL 1
REMARK minimizedAffinity -1.87540472
REMARK minimizedRMSD -1
REMARK  0 active torsions:
REMARK  status: ('A' for Active; 'I' for Inactive)
ROOT
ATOM      1  C2' OXE d   1       1.486  -0.164   0.210  0.00  0.00     0.078 C 
ATOM      2  C1' OXE d   1      -0.184  -1.975   1.555  0.00  0.00     0.078 C 
ATOM      3  C1  OXE d   1      -0.728  -1.300   0.320  0.00  0.00    -0.078 A 
ATOM      4  C2  OXE d   1       0.080  -0.380  -0.305  0.00  0.00    -0.078 A 
ATOM      5  C3  OXE d   1      -0.352   0.231  -1.478  0.00  0.00     0.003 A 
ATOM      6  C4  OXE d   1      -1.658   0.033  -1.942  0.00  0.00    -0.002 A 
ATOM      7  C5  OXE d   1      -2.511  -0.870  -1.298  0.00  0.00    -0.002 A 
ATOM      8  C6  OXE d   1      -2.047  -1.575  -0.193  0.00  0.00     0.003 A 
ENDROOT
TORSDOF 0
ENDMDL
