MODEL 1
REMARK minimizedAffinity -3.01026392
REMARK minimizedRMSD -1
REMARK  0 active torsions:
REMARK  status: ('A' for Active; 'I' for Inactive)
ROOT
ATOM      1  C2' OXE d   1       1.155  -0.414  -0.404  0.00  0.00     0.078 C 
ATOM      2  C1' OXE d   1      -0.853   1.433   0.257  0.00  0.00     0.078 C 
ATOM      3  C1  OXE d   1       0.582   1.880   0.380  0.00  0.00    -0.078 A 
ATOM      4  C2  OXE d   1       1.559   0.955   0.099  0.00  0.00    -0.078 A 
ATOM      5  C3  OXE d   1       2.898   1.331   0.144  0.00  0.00     0.003 A 
ATOM      6  C4  OXE d   1       3.264   2.596   0.619  0.00  0.00    -0.002 A 
ATOM      7  C5  OXE d   1       2.286   3.541   0.948  0.00  0.00    -0.002 A 
ATOM      8  C6  OXE d   1       0.943   3.214   0.794  0.00  0.00     0.003 A 
ENDROOT
TORSDOF 0
ENDMDL
