MODEL 1
REMARK minimizedAffinity 0.134982705
REMARK minimizedRMSD -1
REMARK  0 active torsions:
REMARK  status: ('A' for Active; 'I' for Inactive)
ROOT
ATOM      1  C2' OXE d   1       2.062   1.496   0.602  0.00  0.00     0.078 C 
ATOM      2  C1' OXE d   1       1.272  -1.168   1.005  0.00  0.00     0.078 C 
ATOM      3  C1  OXE d   1       0.429  -0.315   0.090  0.00  0.00    -0.078 A 
ATOM      4  C2  OXE d   1       0.796   1.000  -0.064  0.00  0.00    -0.078 A 
ATOM      5  C3  OXE d   1       0.085   1.816  -0.939  0.00  0.00     0.003 A 
ATOM      6  C4  OXE d   1      -1.091   1.353  -1.543  0.00  0.00    -0.002 A 
ATOM      7  C5  OXE d   1      -1.504   0.028  -1.368  0.00  0.00    -0.002 A 
ATOM      8  C6  OXE d   1      -0.734  -0.829  -0.590  0.00  0.00     0.003 A 
ENDROOT
TORSDOF 0
ENDMDL
