MODEL 1
REMARK minimizedAffinity -1.18454397
REMARK minimizedRMSD -1
REMARK  0 active torsions:
REMARK  status: ('A' for Active; 'I' for Inactive)
ROOT
ATOM      1  C2' OXE d   1      -1.336   1.272  -0.098  0.00  0.00     0.078 C 
ATOM      2  C1' OXE d   1       0.319  -0.512  -1.498  0.00  0.00     0.078 C 
ATOM      3  C1  OXE d   1       0.949   0.332  -0.419  0.00  0.00    -0.078 A 
ATOM      4  C2  OXE d   1       0.142   1.236   0.229  0.00  0.00    -0.078 A 
ATOM      5  C3  OXE d   1       0.660   2.000   1.271  0.00  0.00     0.003 A 
ATOM      6  C4  OXE d   1       2.029   1.967   1.561  0.00  0.00    -0.002 A 
ATOM      7  C5  OXE d   1       2.877   1.082   0.886  0.00  0.00    -0.002 A 
ATOM      8  C6  OXE d   1       2.346   0.229  -0.075  0.00  0.00     0.003 A 
ENDROOT
TORSDOF 0
ENDMDL
