MODEL 1
REMARK minimizedAffinity -2.88774967
REMARK minimizedRMSD -1
REMARK  0 active torsions:
REMARK  status: ('A' for Active; 'I' for Inactive)
ROOT
ATOM      1  C2' OXE d   1       1.960   1.686   1.687  0.00  0.00     0.078 C 
ATOM      2  C1' OXE d   1       2.302  -0.904   0.661  0.00  0.00     0.078 C 
ATOM      3  C1  OXE d   1       1.091  -0.124   0.213  0.00  0.00    -0.078 A 
ATOM      4  C2  OXE d   1       0.907   1.125   0.756  0.00  0.00    -0.078 A 
ATOM      5  C3  OXE d   1      -0.163   1.909   0.335  0.00  0.00     0.003 A 
ATOM      6  C4  OXE d   1      -1.138   1.378  -0.519  0.00  0.00    -0.002 A 
ATOM      7  C5  OXE d   1      -0.991   0.093  -1.052  0.00  0.00    -0.002 A 
ATOM      8  C6  OXE d   1       0.138  -0.653  -0.731  0.00  0.00     0.003 A 
ENDROOT
TORSDOF 0
ENDMDL
