MODEL 1
REMARK minimizedAffinity -1.97590578
REMARK minimizedRMSD -1
REMARK  0 active torsions:
REMARK  status: ('A' for Active; 'I' for Inactive)
ROOT
ATOM      1  C2' OXE d   1       1.985  -0.719   0.568  0.00  0.00     0.078 C 
ATOM      2  C1' OXE d   1       2.258   2.070   0.406  0.00  0.00     0.078 C 
ATOM      3  C1  OXE d   1       1.029   1.447  -0.207  0.00  0.00    -0.078 A 
ATOM      4  C2  OXE d   1       0.926   0.077  -0.164  0.00  0.00    -0.078 A 
ATOM      5  C3  OXE d   1      -0.213  -0.545  -0.666  0.00  0.00     0.003 A 
ATOM      6  C4  OXE d   1      -1.183   0.198  -1.350  0.00  0.00    -0.002 A 
ATOM      7  C5  OXE d   1      -1.079   1.590  -1.440  0.00  0.00    -0.002 A 
ATOM      8  C6  OXE d   1      -0.003   2.233  -0.838  0.00  0.00     0.003 A 
ENDROOT
TORSDOF 0
ENDMDL
