MODEL 1
REMARK minimizedAffinity -2.89780807
REMARK minimizedRMSD -1
REMARK  0 active torsions:
REMARK  status: ('A' for Active; 'I' for Inactive)
ROOT
ATOM      1  C2' OXE d   1      -1.929  -0.737  -1.726  0.00  0.00     0.078 C 
ATOM      2  C1' OXE d   1      -0.528   1.326  -3.015  0.00  0.00     0.078 C 
ATOM      3  C1  OXE d   1      -0.034   0.879  -1.662  0.00  0.00    -0.078 A 
ATOM      4  C2  OXE d   1      -0.753  -0.099  -1.018  0.00  0.00    -0.078 A 
ATOM      5  C3  OXE d   1      -0.309  -0.587   0.208  0.00  0.00     0.003 A 
ATOM      6  C4  OXE d   1       0.773   0.016   0.861  0.00  0.00    -0.002 A 
ATOM      7  C5  OXE d   1       1.496   1.040   0.240  0.00  0.00    -0.002 A 
ATOM      8  C6  OXE d   1       1.132   1.453  -1.037  0.00  0.00     0.003 A 
ENDROOT
TORSDOF 0
ENDMDL
