MODEL 1
REMARK minimizedAffinity -2.14161038
REMARK minimizedRMSD -1
REMARK  0 active torsions:
REMARK  status: ('A' for Active; 'I' for Inactive)
ROOT
ATOM      1  C2' OXE d   1      -1.182   0.433  -1.669  0.00  0.00     0.078 C 
ATOM      2  C1' OXE d   1       1.061   0.215   0.004  0.00  0.00     0.078 C 
ATOM      3  C1  OXE d   1       0.008  -0.861   0.096  0.00  0.00    -0.078 A 
ATOM      4  C2  OXE d   1      -1.108  -0.721  -0.693  0.00  0.00    -0.078 A 
ATOM      5  C3  OXE d   1      -2.085  -1.714  -0.688  0.00  0.00     0.003 A 
ATOM      6  C4  OXE d   1      -2.014  -2.773   0.225  0.00  0.00    -0.002 A 
ATOM      7  C5  OXE d   1      -0.905  -2.912   1.066  0.00  0.00    -0.002 A 
ATOM      8  C6  OXE d   1       0.133  -1.990   0.984  0.00  0.00     0.003 A 
ENDROOT
TORSDOF 0
ENDMDL
