MODEL 1
REMARK minimizedAffinity -0.895632327
REMARK minimizedRMSD -1
REMARK  0 active torsions:
REMARK  status: ('A' for Active; 'I' for Inactive)
ROOT
ATOM      1  C2' OXE d   1       1.217   0.815   0.079  0.00  0.00     0.078 C 
ATOM      2  C1' OXE d   1      -0.703   1.889  -1.664  0.00  0.00     0.078 C 
ATOM      3  C1  OXE d   1      -0.995   0.549  -1.036  0.00  0.00    -0.078 A 
ATOM      4  C2  OXE d   1      -0.029   0.010  -0.221  0.00  0.00    -0.078 A 
ATOM      5  C3  OXE d   1      -0.270  -1.198   0.428  0.00  0.00     0.003 A 
ATOM      6  C4  OXE d   1      -1.421  -1.941   0.138  0.00  0.00    -0.002 A 
ATOM      7  C5  OXE d   1      -2.399  -1.428  -0.720  0.00  0.00    -0.002 A 
ATOM      8  C6  OXE d   1      -2.222  -0.168  -1.281  0.00  0.00     0.003 A 
ENDROOT
TORSDOF 0
ENDMDL
