MODEL 1
REMARK minimizedAffinity -2.70939183
REMARK minimizedRMSD -1
REMARK  0 active torsions:
REMARK  status: ('A' for Active; 'I' for Inactive)
ROOT
ATOM      1  C2' OXE d   1       0.935   0.116   0.363  0.00  0.00     0.078 C 
ATOM      2  C1' OXE d   1      -0.054  -2.223   1.560  0.00  0.00     0.078 C 
ATOM      3  C1  OXE d   1      -0.816  -1.656   0.388  0.00  0.00    -0.078 A 
ATOM      4  C2  OXE d   1      -0.350  -0.486  -0.162  0.00  0.00    -0.078 A 
ATOM      5  C3  OXE d   1      -0.984   0.051  -1.279  0.00  0.00     0.003 A 
ATOM      6  C4  OXE d   1      -2.178  -0.506  -1.752  0.00  0.00    -0.002 A 
ATOM      7  C5  OXE d   1      -2.691  -1.676  -1.182  0.00  0.00    -0.002 A 
ATOM      8  C6  OXE d   1      -2.001  -2.286  -0.141  0.00  0.00     0.003 A 
ENDROOT
TORSDOF 0
ENDMDL
