MODEL 1
REMARK minimizedAffinity -0.982188404
REMARK minimizedRMSD -1
REMARK  0 active torsions:
REMARK  status: ('A' for Active; 'I' for Inactive)
ROOT
ATOM      1  C2' OXE d   1       0.000  -1.884   1.828  0.00  0.00     0.078 C 
ATOM      2  C1' OXE d   1      -2.126  -3.202   0.555  0.00  0.00     0.078 C 
ATOM      3  C1  OXE d   1      -1.691  -1.869  -0.001  0.00  0.00    -0.078 A 
ATOM      4  C2  OXE d   1      -0.681  -1.209   0.657  0.00  0.00    -0.078 A 
ATOM      5  C3  OXE d   1      -0.205  -0.002   0.153  0.00  0.00     0.003 A 
ATOM      6  C4  OXE d   1      -0.847   0.619  -0.925  0.00  0.00    -0.002 A 
ATOM      7  C5  OXE d   1      -1.904  -0.017  -1.584  0.00  0.00    -0.002 A 
ATOM      8  C6  OXE d   1      -2.309  -1.279  -1.162  0.00  0.00     0.003 A 
ENDROOT
TORSDOF 0
ENDMDL
