MODEL 1
REMARK minimizedAffinity -1.54824686
REMARK minimizedRMSD -1
REMARK  0 active torsions:
REMARK  status: ('A' for Active; 'I' for Inactive)
ROOT
ATOM      1  C2' OXE d   1      -0.631  -2.790   1.728  0.00  0.00     0.078 C 
ATOM      2  C1' OXE d   1      -2.817  -3.078  -0.010  0.00  0.00     0.078 C 
ATOM      3  C1  OXE d   1      -1.897  -1.902  -0.225  0.00  0.00    -0.078 A 
ATOM      4  C2  OXE d   1      -0.857  -1.743   0.659  0.00  0.00    -0.078 A 
ATOM      5  C3  OXE d   1       0.053  -0.706   0.473  0.00  0.00     0.003 A 
ATOM      6  C4  OXE d   1      -0.169   0.264  -0.512  0.00  0.00    -0.002 A 
ATOM      7  C5  OXE d   1      -1.245   0.143  -1.398  0.00  0.00    -0.002 A 
ATOM      8  C6  OXE d   1      -2.092  -0.954  -1.295  0.00  0.00     0.003 A 
ENDROOT
TORSDOF 0
ENDMDL
