MODEL 1
REMARK minimizedAffinity -2.55297256
REMARK minimizedRMSD -1
REMARK  0 active torsions:
REMARK  status: ('A' for Active; 'I' for Inactive)
ROOT
ATOM      1  C2' OXE d   1      -1.921  -0.310  -1.382  0.00  0.00     0.078 C 
ATOM      2  C1' OXE d   1       0.541  -0.803  -2.638  0.00  0.00     0.078 C 
ATOM      3  C1  OXE d   1       0.551   0.001  -1.362  0.00  0.00    -0.078 A 
ATOM      4  C2  OXE d   1      -0.663   0.277  -0.779  0.00  0.00    -0.078 A 
ATOM      5  C3  OXE d   1      -0.706   0.969   0.428  0.00  0.00     0.003 A 
ATOM      6  C4  OXE d   1       0.461   1.516   0.974  0.00  0.00    -0.002 A 
ATOM      7  C5  OXE d   1       1.703   1.280   0.375  0.00  0.00    -0.002 A 
ATOM      8  C6  OXE d   1       1.770   0.490  -0.767  0.00  0.00     0.003 A 
ENDROOT
TORSDOF 0
ENDMDL
