MODEL 1
REMARK minimizedAffinity -2.9785006
REMARK minimizedRMSD -1
REMARK  0 active torsions:
REMARK  status: ('A' for Active; 'I' for Inactive)
ROOT
ATOM      1  C2' OXE d   1      -0.830   0.630  -0.737  0.00  0.00     0.078 C 
ATOM      2  C1' OXE d   1       1.249  -0.740   0.560  0.00  0.00     0.078 C 
ATOM      3  C1  OXE d   1       1.319   0.766   0.516  0.00  0.00    -0.078 A 
ATOM      4  C2  OXE d   1       0.321   1.426  -0.161  0.00  0.00    -0.078 A 
ATOM      5  C3  OXE d   1       0.308   2.818  -0.186  0.00  0.00     0.003 A 
ATOM      6  C4  OXE d   1       1.382   3.546   0.341  0.00  0.00    -0.002 A 
ATOM      7  C5  OXE d   1       2.428   2.892   1.000  0.00  0.00    -0.002 A 
ATOM      8  C6  OXE d   1       2.390   1.508   1.133  0.00  0.00     0.003 A 
ENDROOT
TORSDOF 0
ENDMDL
