MODEL 1
REMARK minimizedAffinity 0.140095711
REMARK minimizedRMSD -1
REMARK  0 active torsions:
REMARK  status: ('A' for Active; 'I' for Inactive)
ROOT
ATOM      1  C2' OXE d   1      -2.681  -2.648  -0.115  0.00  0.00     0.078 C 
ATOM      2  C1' OXE d   1      -1.908  -2.511  -2.810  0.00  0.00     0.078 C 
ATOM      3  C1  OXE d   1      -1.456  -1.403  -1.892  0.00  0.00    -0.078 A 
ATOM      4  C2  OXE d   1      -1.878  -1.454  -0.585  0.00  0.00    -0.078 A 
ATOM      5  C3  OXE d   1      -1.445  -0.486   0.317  0.00  0.00     0.003 A 
ATOM      6  C4  OXE d   1      -0.711   0.620  -0.128  0.00  0.00    -0.002 A 
ATOM      7  C5  OXE d   1      -0.305   0.712  -1.464  0.00  0.00    -0.002 A 
ATOM      8  C6  OXE d   1      -0.632  -0.311  -2.347  0.00  0.00     0.003 A 
ENDROOT
TORSDOF 0
ENDMDL
