MODEL 1
REMARK minimizedAffinity 4.79491138
REMARK minimizedRMSD -1
REMARK  2 active torsions:
REMARK  status: ('A' for Active; 'I' for Inactive)
REMARK    1  A    between atoms: C1_2  and  C2_3 
REMARK    2  A    between atoms: C2_3  and  C3_4 
ROOT
ATOM      1  C3  UNL d   1       0.317  -1.980   1.999  0.00  0.00    -0.075 A 
ATOM      2  C4  UNL d   1      -0.890  -1.267   2.024  0.00  0.00     0.002 A 
ATOM      3  C5  UNL d   1      -1.227  -0.408   0.978  0.00  0.00     0.002 A 
ATOM      4  C6  UNL d   1      -0.359  -0.242  -0.098  0.00  0.00    -0.004 A 
ATOM      5  C7  UNL d   1       0.851  -0.932  -0.126  0.00  0.00     0.002 A 
ATOM      6  C8  UNL d   1       1.189  -1.796   0.917  0.00  0.00     0.002 A 
ENDROOT
BRANCH   1   7
ATOM      7  C2  UNL d   1       0.675  -2.935   3.113  0.00  0.00     0.056 C 
BRANCH   7   8
ATOM      8  C1  UNL d   1      -0.402  -3.986   3.402  0.00  0.00     0.007 C 
ATOM      9  C   UNL d   1      -1.719  -3.383   3.871  0.00  0.00     0.009 C 
ENDBRANCH   7   8
ENDBRANCH   1   7
TORSDOF 2
ENDMDL
