MODEL 1
REMARK minimizedAffinity -0.853735626
REMARK minimizedRMSD -1
REMARK  2 active torsions:
REMARK  status: ('A' for Active; 'I' for Inactive)
REMARK    1  A    between atoms: C1_2  and  C2_3 
REMARK    2  A    between atoms: C2_3  and  C3_4 
ROOT
ATOM      1  C3  UNL d   1      -0.192  -2.437   2.648  0.00  0.00    -0.075 A 
ATOM      2  C4  UNL d   1       1.005  -2.830   2.033  0.00  0.00     0.002 A 
ATOM      3  C5  UNL d   1       1.330  -4.181   1.913  0.00  0.00     0.002 A 
ATOM      4  C6  UNL d   1       0.469  -5.155   2.415  0.00  0.00    -0.004 A 
ATOM      5  C7  UNL d   1      -0.715  -4.775   3.044  0.00  0.00     0.002 A 
ATOM      6  C8  UNL d   1      -1.044  -3.424   3.161  0.00  0.00     0.002 A 
ENDROOT
BRANCH   1   7
ATOM      7  C2  UNL d   1      -0.563  -0.977   2.755  0.00  0.00     0.056 C 
BRANCH   7   8
ATOM      8  C1  UNL d   1      -1.119  -0.379   1.458  0.00  0.00     0.007 C 
ATOM      9  C   UNL d   1      -0.136  -0.444   0.297  0.00  0.00     0.009 C 
ENDBRANCH   7   8
ENDBRANCH   1   7
TORSDOF 2
ENDMDL
