MODEL 1
REMARK minimizedAffinity -2.60381126
REMARK minimizedRMSD -1
REMARK  2 active torsions:
REMARK  status: ('A' for Active; 'I' for Inactive)
REMARK    1  A    between atoms: C1_2  and  C2_3 
REMARK    2  A    between atoms: C2_3  and  C3_4 
ROOT
ATOM      1  C3  UNL d   1      -0.773  -1.113   1.539  0.00  0.00    -0.075 A 
ATOM      2  C4  UNL d   1       0.341  -1.501   0.781  0.00  0.00     0.002 A 
ATOM      3  C5  UNL d   1       1.090  -2.621   1.144  0.00  0.00     0.002 A 
ATOM      4  C6  UNL d   1       0.742  -3.359   2.273  0.00  0.00    -0.004 A 
ATOM      5  C7  UNL d   1      -0.353  -2.973   3.043  0.00  0.00     0.002 A 
ATOM      6  C8  UNL d   1      -1.107  -1.856   2.679  0.00  0.00     0.002 A 
ENDROOT
BRANCH   1   7
ATOM      7  C2  UNL d   1      -1.605   0.081   1.134  0.00  0.00     0.056 C 
BRANCH   7   8
ATOM      8  C1  UNL d   1      -3.075  -0.011   1.558  0.00  0.00     0.007 C 
ATOM      9  C   UNL d   1      -3.952  -0.717   0.533  0.00  0.00     0.009 C 
ENDBRANCH   7   8
ENDBRANCH   1   7
TORSDOF 2
ENDMDL
