MODEL 1
REMARK minimizedAffinity -2.06969881
REMARK minimizedRMSD -1
REMARK  2 active torsions:
REMARK  status: ('A' for Active; 'I' for Inactive)
REMARK    1  A    between atoms: C1_2  and  C2_3 
REMARK    2  A    between atoms: C2_3  and  C3_4 
ROOT
ATOM      1  C3  UNL d   1       0.922   2.944  -3.282  0.00  0.00    -0.075 A 
ATOM      2  C4  UNL d   1       1.052   1.761  -4.023  0.00  0.00     0.002 A 
ATOM      3  C5  UNL d   1       2.286   1.118  -4.122  0.00  0.00     0.002 A 
ATOM      4  C6  UNL d   1       3.406   1.655  -3.490  0.00  0.00    -0.004 A 
ATOM      5  C7  UNL d   1       3.292   2.839  -2.765  0.00  0.00     0.002 A 
ATOM      6  C8  UNL d   1       2.057   3.481  -2.662  0.00  0.00     0.002 A 
ENDROOT
BRANCH   1   7
ATOM      7  C2  UNL d   1      -0.418   3.628  -3.148  0.00  0.00     0.056 C 
BRANCH   7   8
ATOM      8  C1  UNL d   1      -1.422   2.866  -2.277  0.00  0.00     0.007 C 
ATOM      9  C   UNL d   1      -2.845   2.919  -2.817  0.00  0.00     0.009 C 
ENDBRANCH   7   8
ENDBRANCH   1   7
TORSDOF 2
ENDMDL
