MODEL 1
REMARK minimizedAffinity -0.105389975
REMARK minimizedRMSD -1
REMARK  0 active torsions:
REMARK  status: ('A' for Active; 'I' for Inactive)
ROOT
ATOM      1  C   UNL d   1       1.524   5.955  -5.925  0.00  0.00     0.077 C 
ATOM      2  C1  UNL d   1       0.628   5.964  -4.722  0.00  0.00    -0.074 A 
ATOM      3  C2  UNL d   1       1.160   5.981  -3.429  0.00  0.00    -0.005 A 
ATOM      4  C3  UNL d   1       0.314   5.999  -2.320  0.00  0.00     0.006 A 
ATOM      5  C4  UNL d   1      -1.071   5.999  -2.493  0.00  0.00    -0.005 A 
ATOM      6  C5  UNL d   1      -1.621   5.983  -3.778  0.00  0.00    -0.074 A 
ATOM      7  C6  UNL d   1      -3.107   5.993  -3.981  0.00  0.00     0.077 C 
ATOM      8  C7  UNL d   1      -0.765   5.973  -4.887  0.00  0.00    -0.001 A 
ENDROOT
TORSDOF 0
ENDMDL
