MODEL 1
REMARK minimizedAffinity -2.29479861
REMARK minimizedRMSD -1
REMARK  0 active torsions:
REMARK  status: ('A' for Active; 'I' for Inactive)
ROOT
ATOM      1  C   UNL d   1       5.253   1.815  -3.916  0.00  0.00     0.077 C 
ATOM      2  C1  UNL d   1       4.984   3.276  -4.118  0.00  0.00    -0.074 A 
ATOM      3  C2  UNL d   1       5.990   4.227  -3.915  0.00  0.00    -0.005 A 
ATOM      4  C3  UNL d   1       5.728   5.582  -4.116  0.00  0.00     0.006 A 
ATOM      5  C4  UNL d   1       4.460   6.000  -4.520  0.00  0.00    -0.005 A 
ATOM      6  C5  UNL d   1       3.442   5.064  -4.729  0.00  0.00    -0.074 A 
ATOM      7  C6  UNL d   1       2.076   5.496  -5.173  0.00  0.00     0.077 C 
ATOM      8  C7  UNL d   1       3.715   3.704  -4.532  0.00  0.00    -0.001 A 
ENDROOT
TORSDOF 0
ENDMDL
