MODEL 1
REMARK minimizedAffinity -1.32609057
REMARK minimizedRMSD -1
REMARK  0 active torsions:
REMARK  status: ('A' for Active; 'I' for Inactive)
ROOT
ATOM      1  C   UNL d   1       1.226   3.588  -2.451  0.00  0.00     0.077 C 
ATOM      2  C1  UNL d   1       1.406   2.918  -1.121  0.00  0.00    -0.074 A 
ATOM      3  C2  UNL d   1       2.328   3.406  -0.189  0.00  0.00    -0.005 A 
ATOM      4  C3  UNL d   1       2.477   2.778   1.048  0.00  0.00     0.006 A 
ATOM      5  C4  UNL d   1       1.707   1.659   1.365  0.00  0.00    -0.005 A 
ATOM      6  C5  UNL d   1       0.779   1.158   0.447  0.00  0.00    -0.074 A 
ATOM      7  C6  UNL d   1      -0.064  -0.038   0.776  0.00  0.00     0.077 C 
ATOM      8  C7  UNL d   1       0.630   1.798  -0.791  0.00  0.00    -0.001 A 
ENDROOT
TORSDOF 0
ENDMDL
