MODEL 1
REMARK minimizedAffinity -0.258692175
REMARK minimizedRMSD -1
REMARK  0 active torsions:
REMARK  status: ('A' for Active; 'I' for Inactive)
ROOT
ATOM      1  C   UNL d   1       5.872   3.109  -3.296  0.00  0.00     0.077 C 
ATOM      2  C1  UNL d   1       5.240   4.122  -4.203  0.00  0.00    -0.074 A 
ATOM      3  C2  UNL d   1       5.999   4.807  -5.157  0.00  0.00    -0.005 A 
ATOM      4  C3  UNL d   1       5.395   5.740  -5.999  0.00  0.00     0.006 A 
ATOM      5  C4  UNL d   1       4.027   5.998  -5.896  0.00  0.00    -0.005 A 
ATOM      6  C5  UNL d   1       3.252   5.322  -4.949  0.00  0.00    -0.074 A 
ATOM      7  C6  UNL d   1       1.779   5.580  -4.832  0.00  0.00     0.077 C 
ATOM      8  C7  UNL d   1       3.865   4.381  -4.111  0.00  0.00    -0.001 A 
ENDROOT
TORSDOF 0
ENDMDL
