MODEL 1
REMARK minimizedAffinity 3.27249193
REMARK minimizedRMSD -1
REMARK  0 active torsions:
REMARK  status: ('A' for Active; 'I' for Inactive)
ROOT
ATOM      1  C   UNL d   1       1.803  -2.190  -4.031  0.00  0.00     0.077 C 
ATOM      2  C1  UNL d   1       0.506  -1.563  -4.449  0.00  0.00    -0.074 A 
ATOM      3  C2  UNL d   1       0.485  -0.348  -5.140  0.00  0.00    -0.005 A 
ATOM      4  C3  UNL d   1      -0.728   0.218  -5.531  0.00  0.00     0.006 A 
ATOM      5  C4  UNL d   1      -1.931  -0.425  -5.235  0.00  0.00    -0.005 A 
ATOM      6  C5  UNL d   1      -1.930  -1.641  -4.545  0.00  0.00    -0.074 A 
ATOM      7  C6  UNL d   1      -3.213  -2.350  -4.228  0.00  0.00     0.077 C 
ATOM      8  C7  UNL d   1      -0.706  -2.207  -4.162  0.00  0.00    -0.001 A 
ENDROOT
TORSDOF 0
ENDMDL
