MODEL 1
REMARK minimizedAffinity -0.821145833
REMARK minimizedRMSD -1
REMARK  0 active torsions:
REMARK  status: ('A' for Active; 'I' for Inactive)
ROOT
ATOM      1  C   UNL d   1       1.107   5.997  -5.967  0.00  0.00     0.077 C 
ATOM      2  C1  UNL d   1       0.370   5.990  -4.661  0.00  0.00    -0.074 A 
ATOM      3  C2  UNL d   1       1.061   5.996  -3.445  0.00  0.00    -0.005 A 
ATOM      4  C3  UNL d   1       0.362   5.998  -2.239  0.00  0.00     0.006 A 
ATOM      5  C4  UNL d   1      -1.033   5.995  -2.235  0.00  0.00    -0.005 A 
ATOM      6  C5  UNL d   1      -1.742   5.990  -3.441  0.00  0.00    -0.074 A 
ATOM      7  C6  UNL d   1      -3.242   5.997  -3.455  0.00  0.00     0.077 C 
ATOM      8  C7  UNL d   1      -1.032   5.995  -4.649  0.00  0.00    -0.001 A 
ENDROOT
TORSDOF 0
ENDMDL
