MODEL 1
REMARK minimizedAffinity 0.140338168
REMARK minimizedRMSD -1
REMARK  0 active torsions:
REMARK  status: ('A' for Active; 'I' for Inactive)
ROOT
ATOM      1  C   UNL d   1       0.470   5.995  -6.000  0.00  0.00     0.077 C 
ATOM      2  C1  UNL d   1      -0.184   5.987  -4.650  0.00  0.00    -0.074 A 
ATOM      3  C2  UNL d   1       0.583   5.991  -3.480  0.00  0.00    -0.005 A 
ATOM      4  C3  UNL d   1      -0.039   5.994  -2.232  0.00  0.00     0.006 A 
ATOM      5  C4  UNL d   1      -1.432   5.992  -2.140  0.00  0.00    -0.005 A 
ATOM      6  C5  UNL d   1      -2.215   5.988  -3.299  0.00  0.00    -0.074 A 
ATOM      7  C6  UNL d   1      -3.712   5.996  -3.219  0.00  0.00     0.077 C 
ATOM      8  C7  UNL d   1      -1.582   5.993  -4.550  0.00  0.00    -0.001 A 
ENDROOT
TORSDOF 0
ENDMDL
