MODEL 1
REMARK minimizedAffinity -2.4024508
REMARK minimizedRMSD -1
REMARK  0 active torsions:
REMARK  status: ('A' for Active; 'I' for Inactive)
ROOT
ATOM      1  C   UNL d   1       1.333   5.100  -4.486  0.00  0.00     0.077 C 
ATOM      2  C1  UNL d   1       2.810   5.161  -4.740  0.00  0.00    -0.074 A 
ATOM      3  C2  UNL d   1       3.330   5.945  -5.775  0.00  0.00    -0.005 A 
ATOM      4  C3  UNL d   1       4.706   5.999  -5.993  0.00  0.00     0.006 A 
ATOM      5  C4  UNL d   1       5.576   5.270  -5.180  0.00  0.00    -0.005 A 
ATOM      6  C5  UNL d   1       5.074   4.482  -4.140  0.00  0.00    -0.074 A 
ATOM      7  C6  UNL d   1       5.995   3.701  -3.250  0.00  0.00     0.077 C 
ATOM      8  C7  UNL d   1       3.690   4.438  -3.922  0.00  0.00    -0.001 A 
ENDROOT
TORSDOF 0
ENDMDL
