MODEL 1
REMARK minimizedAffinity 8.77352524
REMARK minimizedRMSD -1
REMARK  0 active torsions:
REMARK  status: ('A' for Active; 'I' for Inactive)
ROOT
ATOM      1  C   UNL d   1       1.050   5.668  -2.696  0.00  0.00     0.077 C 
ATOM      2  C1  UNL d   1      -0.396   5.788  -3.077  0.00  0.00    -0.074 A 
ATOM      3  C2  UNL d   1      -0.784   5.835  -4.420  0.00  0.00    -0.005 A 
ATOM      4  C3  UNL d   1      -2.133   5.936  -4.759  0.00  0.00     0.006 A 
ATOM      5  C4  UNL d   1      -3.106   5.991  -3.761  0.00  0.00    -0.005 A 
ATOM      6  C5  UNL d   1      -2.737   5.944  -2.413  0.00  0.00    -0.074 A 
ATOM      7  C6  UNL d   1      -3.771   5.993  -1.327  0.00  0.00     0.077 C 
ATOM      8  C7  UNL d   1      -1.380   5.835  -2.080  0.00  0.00    -0.001 A 
ENDROOT
TORSDOF 0
ENDMDL
