MODEL 1
REMARK minimizedAffinity 5.43458509
REMARK minimizedRMSD -1
REMARK  0 active torsions:
REMARK  status: ('A' for Active; 'I' for Inactive)
ROOT
ATOM      1  C   UNL d   1       0.577   5.892  -5.864  0.00  0.00     0.077 C 
ATOM      2  C1  UNL d   1       1.828   5.326  -5.261  0.00  0.00    -0.074 A 
ATOM      3  C2  UNL d   1       1.776   4.229  -4.395  0.00  0.00    -0.005 A 
ATOM      4  C3  UNL d   1       2.950   3.708  -3.850  0.00  0.00     0.006 A 
ATOM      5  C4  UNL d   1       4.184   4.278  -4.163  0.00  0.00    -0.005 A 
ATOM      6  C5  UNL d   1       4.255   5.375  -5.027  0.00  0.00    -0.074 A 
ATOM      7  C6  UNL d   1       5.575   5.994  -5.382  0.00  0.00     0.077 C 
ATOM      8  C7  UNL d   1       3.073   5.889  -5.577  0.00  0.00    -0.001 A 
ENDROOT
TORSDOF 0
ENDMDL
