MODEL 1
REMARK minimizedAffinity 1.48253381
REMARK minimizedRMSD -1
REMARK  0 active torsions:
REMARK  status: ('A' for Active; 'I' for Inactive)
ROOT
ATOM      1  C   UNL d   1      -3.026   5.973  -3.038  0.00  0.00     0.077 C 
ATOM      2  C1  UNL d   1      -1.534   5.983  -3.184  0.00  0.00    -0.074 A 
ATOM      3  C2  UNL d   1      -0.702   5.978  -2.060  0.00  0.00    -0.005 A 
ATOM      4  C3  UNL d   1       0.685   5.977  -2.212  0.00  0.00     0.006 A 
ATOM      5  C4  UNL d   1       1.253   5.981  -3.487  0.00  0.00    -0.005 A 
ATOM      6  C5  UNL d   1       0.436   5.986  -4.622  0.00  0.00    -0.074 A 
ATOM      7  C6  UNL d   1       1.030   5.981  -5.999  0.00  0.00     0.077 C 
ATOM      8  C7  UNL d   1      -0.956   5.979  -4.462  0.00  0.00    -0.001 A 
ENDROOT
TORSDOF 0
ENDMDL
