MODEL 1
REMARK minimizedAffinity 5.1779933
REMARK minimizedRMSD -1
REMARK  0 active torsions:
REMARK  status: ('A' for Active; 'I' for Inactive)
ROOT
ATOM      1  C   UNL d   1       5.236   2.531  -4.274  0.00  0.00     0.077 C 
ATOM      2  C1  UNL d   1       4.592   3.747  -4.870  0.00  0.00    -0.074 A 
ATOM      3  C2  UNL d   1       5.354   4.867  -5.218  0.00  0.00    -0.005 A 
ATOM      4  C3  UNL d   1       4.743   5.987  -5.781  0.00  0.00     0.006 A 
ATOM      5  C4  UNL d   1       3.365   6.000  -6.000  0.00  0.00    -0.005 A 
ATOM      6  C5  UNL d   1       2.586   4.889  -5.659  0.00  0.00    -0.074 A 
ATOM      7  C6  UNL d   1       1.105   4.882  -5.897  0.00  0.00     0.077 C 
ATOM      8  C7  UNL d   1       3.209   3.765  -5.100  0.00  0.00    -0.001 A 
ENDROOT
TORSDOF 0
ENDMDL
