MODEL 1
REMARK minimizedAffinity -2.12485695
REMARK minimizedRMSD -1
REMARK  0 active torsions:
REMARK  status: ('A' for Active; 'I' for Inactive)
ROOT
ATOM      1  C   UNL d   1      -0.691   5.748  -5.998  0.00  0.00     0.077 C 
ATOM      2  C1  UNL d   1      -1.555   5.761  -4.772  0.00  0.00    -0.074 A 
ATOM      3  C2  UNL d   1      -2.930   6.000  -4.863  0.00  0.00    -0.005 A 
ATOM      4  C3  UNL d   1      -3.721   6.000  -3.715  0.00  0.00     0.006 A 
ATOM      5  C4  UNL d   1      -3.147   5.762  -2.466  0.00  0.00    -0.005 A 
ATOM      6  C5  UNL d   1      -1.774   5.520  -2.355  0.00  0.00    -0.074 A 
ATOM      7  C6  UNL d   1      -1.143   5.252  -1.021  0.00  0.00     0.077 C 
ATOM      8  C7  UNL d   1      -0.986   5.515  -3.514  0.00  0.00    -0.001 A 
ENDROOT
TORSDOF 0
ENDMDL
