MODEL 1
REMARK minimizedAffinity 1.50910032
REMARK minimizedRMSD -1
REMARK  0 active torsions:
REMARK  status: ('A' for Active; 'I' for Inactive)
ROOT
ATOM      1  C   UNL d   1      -0.061  -0.767   0.769  0.00  0.00     0.077 C 
ATOM      2  C1  UNL d   1       0.804   0.448   0.610  0.00  0.00    -0.074 A 
ATOM      3  C2  UNL d   1       1.750   0.788   1.581  0.00  0.00    -0.005 A 
ATOM      4  C3  UNL d   1       2.554   1.916   1.415  0.00  0.00     0.006 A 
ATOM      5  C4  UNL d   1       2.421   2.713   0.278  0.00  0.00    -0.005 A 
ATOM      6  C5  UNL d   1       1.481   2.387  -0.705  0.00  0.00    -0.074 A 
ATOM      7  C6  UNL d   1       1.331   3.227  -1.939  0.00  0.00     0.077 C 
ATOM      8  C7  UNL d   1       0.681   1.249  -0.534  0.00  0.00    -0.001 A 
ENDROOT
TORSDOF 0
ENDMDL
