MODEL 1
REMARK minimizedAffinity 4.81960201
REMARK minimizedRMSD -1
REMARK  0 active torsions:
REMARK  status: ('A' for Active; 'I' for Inactive)
ROOT
ATOM      1  C   UNL d   1       0.719   3.557  -1.309  0.00  0.00     0.077 C 
ATOM      2  C1  UNL d   1       0.746   2.595  -0.159  0.00  0.00    -0.074 A 
ATOM      3  C2  UNL d   1       1.348   2.941   1.055  0.00  0.00    -0.005 A 
ATOM      4  C3  UNL d   1       1.357   2.039   2.118  0.00  0.00     0.006 A 
ATOM      5  C4  UNL d   1       0.765   0.783   1.979  0.00  0.00    -0.005 A 
ATOM      6  C5  UNL d   1       0.157   0.419   0.773  0.00  0.00    -0.074 A 
ATOM      7  C6  UNL d   1      -0.492  -0.923   0.610  0.00  0.00     0.077 C 
ATOM      8  C7  UNL d   1       0.146   1.334  -0.288  0.00  0.00    -0.001 A 
ENDROOT
TORSDOF 0
ENDMDL
