MODEL 1
REMARK minimizedAffinity -0.119983107
REMARK minimizedRMSD -1
REMARK  0 active torsions:
REMARK  status: ('A' for Active; 'I' for Inactive)
ROOT
ATOM      1  C   UNL d   1      -4.193   5.998  -4.185  0.00  0.00     0.077 C 
ATOM      2  C1  UNL d   1      -2.715   5.915  -3.942  0.00  0.00    -0.074 A 
ATOM      3  C2  UNL d   1      -2.207   5.743  -2.650  0.00  0.00    -0.005 A 
ATOM      4  C3  UNL d   1      -0.831   5.658  -2.441  0.00  0.00     0.006 A 
ATOM      5  C4  UNL d   1       0.050   5.744  -3.520  0.00  0.00    -0.005 A 
ATOM      6  C5  UNL d   1      -0.439   5.915  -4.819  0.00  0.00    -0.074 A 
ATOM      7  C6  UNL d   1       0.494   5.999  -5.990  0.00  0.00     0.077 C 
ATOM      8  C7  UNL d   1      -1.824   5.993  -5.021  0.00  0.00    -0.001 A 
ENDROOT
TORSDOF 0
ENDMDL
