MODEL 1
REMARK minimizedAffinity -1.14785504
REMARK minimizedRMSD -1
REMARK  0 active torsions:
REMARK  status: ('A' for Active; 'I' for Inactive)
ROOT
ATOM      1  C   UNL d   1      -1.328   5.956  -2.195  0.00  0.00     0.077 C 
ATOM      2  C1  UNL d   1      -0.635   5.958  -3.525  0.00  0.00    -0.074 A 
ATOM      3  C2  UNL d   1      -1.366   5.986  -4.716  0.00  0.00    -0.005 A 
ATOM      4  C3  UNL d   1      -0.708   5.997  -5.946  0.00  0.00     0.006 A 
ATOM      5  C4  UNL d   1       0.687   5.982  -5.996  0.00  0.00    -0.005 A 
ATOM      6  C5  UNL d   1       1.435   5.955  -4.814  0.00  0.00    -0.074 A 
ATOM      7  C6  UNL d   1       2.934   5.948  -4.850  0.00  0.00     0.077 C 
ATOM      8  C7  UNL d   1       0.766   5.951  -3.583  0.00  0.00    -0.001 A 
ENDROOT
TORSDOF 0
ENDMDL
