MODEL 1
REMARK minimizedAffinity 3.5917213
REMARK minimizedRMSD -1
REMARK  1 active torsions:
REMARK  status: ('A' for Active; 'I' for Inactive)
REMARK    1  A    between atoms: C1_2  and  C2_3 
ROOT
ATOM      1  C2  UNL d   1      -2.265  -0.516   1.448  0.00  0.00    -0.077 A 
ATOM      2  C3  UNL d   1      -3.561   0.018   1.443  0.00  0.00     0.002 A 
ATOM      3  C4  UNL d   1      -3.756   1.400   1.444  0.00  0.00     0.002 A 
ATOM      4  C5  UNL d   1      -2.660   2.260   1.445  0.00  0.00    -0.004 A 
ATOM      5  C6  UNL d   1      -1.366   1.739   1.452  0.00  0.00     0.002 A 
ATOM      6  C7  UNL d   1      -1.170   0.358   1.453  0.00  0.00     0.002 A 
ENDROOT
BRANCH   1   7
ATOM      7  C1  UNL d   1      -2.053  -2.006   1.397  0.00  0.00     0.055 C 
ATOM      8  C   UNL d   1      -1.044  -2.386   0.322  0.00  0.00     0.019 C 
ENDBRANCH   1   7
TORSDOF 1
ENDMDL
