MODEL 1
REMARK minimizedAffinity 15.4274998
REMARK minimizedRMSD -1
REMARK  1 active torsions:
REMARK  status: ('A' for Active; 'I' for Inactive)
REMARK    1  A    between atoms: C1_2  and  C2_3 
ROOT
ATOM      1  C2  UNL d   1      -1.559  -2.542   0.846  0.00  0.00    -0.077 A 
ATOM      2  C3  UNL d   1      -2.732  -3.106   0.327  0.00  0.00     0.002 A 
ATOM      3  C4  UNL d   1      -3.942  -2.413   0.400  0.00  0.00     0.002 A 
ATOM      4  C5  UNL d   1      -3.990  -1.151   0.989  0.00  0.00    -0.004 A 
ATOM      5  C6  UNL d   1      -2.829  -0.582   1.511  0.00  0.00     0.002 A 
ATOM      6  C7  UNL d   1      -1.619  -1.274   1.439  0.00  0.00     0.002 A 
ENDROOT
BRANCH   1   7
ATOM      7  C1  UNL d   1      -0.244  -3.266   0.724  0.00  0.00     0.055 C 
ATOM      8  C   UNL d   1       0.231  -3.784   2.074  0.00  0.00     0.019 C 
ENDBRANCH   1   7
TORSDOF 1
ENDMDL
