MODEL 1
REMARK minimizedAffinity 8.84945297
REMARK minimizedRMSD -1
REMARK  1 active torsions:
REMARK  status: ('A' for Active; 'I' for Inactive)
REMARK    1  A    between atoms: C1_2  and  C2_3 
ROOT
ATOM      1  C2  UNL d   1      -2.901  -2.443  -5.415  0.00  0.00    -0.077 A 
ATOM      2  C3  UNL d   1      -2.972  -3.716  -5.999  0.00  0.00     0.002 A 
ATOM      3  C4  UNL d   1      -4.173  -4.427  -5.999  0.00  0.00     0.002 A 
ATOM      4  C5  UNL d   1      -5.313  -3.872  -5.421  0.00  0.00    -0.004 A 
ATOM      5  C6  UNL d   1      -5.252  -2.608  -4.835  0.00  0.00     0.002 A 
ATOM      6  C7  UNL d   1      -4.052  -1.896  -4.833  0.00  0.00     0.002 A 
ENDROOT
BRANCH   1   7
ATOM      7  C1  UNL d   1      -1.618  -1.654  -5.457  0.00  0.00     0.055 C 
ATOM      8  C   UNL d   1      -0.490  -2.393  -4.752  0.00  0.00     0.019 C 
ENDBRANCH   1   7
TORSDOF 1
ENDMDL
