MODEL 1
REMARK minimizedAffinity 6.4192009
REMARK minimizedRMSD -1
REMARK  1 active torsions:
REMARK  status: ('A' for Active; 'I' for Inactive)
REMARK    1  A    between atoms: C1_2  and  C2_3 
ROOT
ATOM      1  C2  UNL d   1      -2.859   2.089   2.032  0.00  0.00    -0.077 A 
ATOM      2  C3  UNL d   1      -3.456   0.952   2.597  0.00  0.00     0.002 A 
ATOM      3  C4  UNL d   1      -2.704  -0.203   2.818  0.00  0.00     0.002 A 
ATOM      4  C5  UNL d   1      -1.353  -0.233   2.482  0.00  0.00    -0.004 A 
ATOM      5  C6  UNL d   1      -0.751   0.891   1.918  0.00  0.00     0.002 A 
ATOM      6  C7  UNL d   1      -1.500   2.047   1.695  0.00  0.00     0.002 A 
ENDROOT
BRANCH   1   7
ATOM      7  C1  UNL d   1      -3.656   3.352   1.838  0.00  0.00     0.055 C 
ATOM      8  C   UNL d   1      -5.152   3.071   1.850  0.00  0.00     0.019 C 
ENDBRANCH   1   7
TORSDOF 1
ENDMDL
