MODEL 1
REMARK minimizedAffinity 13.2242374
REMARK minimizedRMSD -1
REMARK  1 active torsions:
REMARK  status: ('A' for Active; 'I' for Inactive)
REMARK    1  A    between atoms: C1_2  and  C2_3 
ROOT
ATOM      1  C2  UNL d   1       1.957   1.243  -2.384  0.00  0.00    -0.077 A 
ATOM      2  C3  UNL d   1       2.729   1.000  -3.529  0.00  0.00     0.002 A 
ATOM      3  C4  UNL d   1       2.466  -0.108  -4.337  0.00  0.00     0.002 A 
ATOM      4  C5  UNL d   1       1.428  -0.978  -4.011  0.00  0.00    -0.004 A 
ATOM      5  C6  UNL d   1       0.655  -0.746  -2.873  0.00  0.00     0.002 A 
ATOM      6  C7  UNL d   1       0.918   0.360  -2.064  0.00  0.00     0.002 A 
ENDROOT
BRANCH   1   7
ATOM      7  C1  UNL d   1       2.208   2.464  -1.539  0.00  0.00     0.055 C 
ATOM      8  C   UNL d   1       2.627   3.652  -2.393  0.00  0.00     0.019 C 
ENDBRANCH   1   7
TORSDOF 1
ENDMDL
