MODEL 1
REMARK minimizedAffinity 7.84753323
REMARK minimizedRMSD -1
REMARK  1 active torsions:
REMARK  status: ('A' for Active; 'I' for Inactive)
REMARK    1  A    between atoms: C1_2  and  C2_3 
ROOT
ATOM      1  C2  UNL d   1      -2.286  -0.832   0.925  0.00  0.00    -0.077 A 
ATOM      2  C3  UNL d   1      -1.213  -1.734   0.907  0.00  0.00     0.002 A 
ATOM      3  C4  UNL d   1      -1.375  -3.015   0.375  0.00  0.00     0.002 A 
ATOM      4  C5  UNL d   1      -2.608  -3.403  -0.146  0.00  0.00    -0.004 A 
ATOM      5  C6  UNL d   1      -3.682  -2.514  -0.131  0.00  0.00     0.002 A 
ATOM      6  C7  UNL d   1      -3.521  -1.234   0.402  0.00  0.00     0.002 A 
ENDROOT
BRANCH   1   7
ATOM      7  C1  UNL d   1      -2.099   0.566   1.454  0.00  0.00     0.055 C 
ATOM      8  C   UNL d   1      -0.990   0.621   2.494  0.00  0.00     0.019 C 
ENDBRANCH   1   7
TORSDOF 1
ENDMDL
