MODEL 1
REMARK minimizedAffinity 10.0732765
REMARK minimizedRMSD -1
REMARK  1 active torsions:
REMARK  status: ('A' for Active; 'I' for Inactive)
REMARK    1  A    between atoms: C1_2  and  C2_3 
ROOT
ATOM      1  C2  UNL d   1       2.489   0.586  -3.840  0.00  0.00    -0.077 A 
ATOM      2  C3  UNL d   1       2.875  -0.756  -3.971  0.00  0.00     0.002 A 
ATOM      3  C4  UNL d   1       3.668  -1.161  -5.046  0.00  0.00     0.002 A 
ATOM      4  C5  UNL d   1       4.086  -0.231  -5.996  0.00  0.00    -0.004 A 
ATOM      5  C6  UNL d   1       3.706   1.106  -5.875  0.00  0.00     0.002 A 
ATOM      6  C7  UNL d   1       2.912   1.512  -4.802  0.00  0.00     0.002 A 
ENDROOT
BRANCH   1   7
ATOM      7  C1  UNL d   1       1.675   1.034  -2.655  0.00  0.00     0.055 C 
ATOM      8  C   UNL d   1       2.163   2.373  -2.122  0.00  0.00     0.019 C 
ENDBRANCH   1   7
TORSDOF 1
ENDMDL
