MODEL 1
REMARK minimizedAffinity 5.98309803
REMARK minimizedRMSD -1
REMARK  1 active torsions:
REMARK  status: ('A' for Active; 'I' for Inactive)
REMARK    1  A    between atoms: C1_2  and  C2_3 
ROOT
ATOM      1  C2  UNL d   1       3.398   1.887  -5.138  0.00  0.00    -0.077 A 
ATOM      2  C3  UNL d   1       3.075   0.829  -5.999  0.00  0.00     0.002 A 
ATOM      3  C4  UNL d   1       2.629  -0.390  -5.483  0.00  0.00     0.002 A 
ATOM      4  C5  UNL d   1       2.498  -0.560  -4.107  0.00  0.00    -0.004 A 
ATOM      5  C6  UNL d   1       2.819   0.486  -3.243  0.00  0.00     0.002 A 
ATOM      6  C7  UNL d   1       3.266   1.704  -3.756  0.00  0.00     0.002 A 
ENDROOT
BRANCH   1   7
ATOM      7  C1  UNL d   1       3.833   3.218  -5.695  0.00  0.00     0.055 C 
ATOM      8  C   UNL d   1       5.287   3.511  -5.355  0.00  0.00     0.019 C 
ENDBRANCH   1   7
TORSDOF 1
ENDMDL
