MODEL 1
REMARK minimizedAffinity 2.69673777
REMARK minimizedRMSD -1
REMARK  1 active torsions:
REMARK  status: ('A' for Active; 'I' for Inactive)
REMARK    1  A    between atoms: C1_2  and  C2_3 
ROOT
ATOM      1  C2  UNL d   1       3.689   1.624  -5.450  0.00  0.00    -0.077 A 
ATOM      2  C3  UNL d   1       4.500   0.620  -5.999  0.00  0.00     0.002 A 
ATOM      3  C4  UNL d   1       4.372  -0.703  -5.573  0.00  0.00     0.002 A 
ATOM      4  C5  UNL d   1       3.432  -1.035  -4.599  0.00  0.00    -0.004 A 
ATOM      5  C6  UNL d   1       2.623  -0.044  -4.046  0.00  0.00     0.002 A 
ATOM      6  C7  UNL d   1       2.750   1.279  -4.470  0.00  0.00     0.002 A 
ENDROOT
BRANCH   1   7
ATOM      7  C1  UNL d   1       3.792   3.043  -5.944  0.00  0.00     0.055 C 
ATOM      8  C   UNL d   1       4.292   3.975  -4.850  0.00  0.00     0.019 C 
ENDBRANCH   1   7
TORSDOF 1
ENDMDL
