MODEL 1
REMARK minimizedAffinity 8.34215736
REMARK minimizedRMSD -1
REMARK  0 active torsions:
REMARK  status: ('A' for Active; 'I' for Inactive)
ROOT
ATOM      1  O1  BZF d   1       0.872   0.016  -6.000  0.00  0.00    -0.204 OA
ATOM      2  C2  BZF d   1      -0.341  -0.390  -5.479  0.00  0.00     0.174 A 
ATOM      3  C3  BZF d   1      -0.309  -0.386  -4.131  0.00  0.00    -0.012 A 
ATOM      4  C3A BZF d   1       0.977   0.138  -3.787  0.00  0.00    -0.107 A 
ATOM      5  C4  BZF d   1       1.597   0.400  -2.598  0.00  0.00     0.055 A 
ATOM      6  C5  BZF d   1       2.882   0.840  -2.607  0.00  0.00    -0.016 A 
ATOM      7  C6  BZF d   1       3.579   1.024  -3.783  0.00  0.00     0.022 A 
ATOM      8  C7  BZF d   1       3.005   0.783  -4.987  0.00  0.00     0.029 A 
ATOM      9  C7A BZF d   1       1.695   0.370  -4.983  0.00  0.00     0.058 A 
ENDROOT
TORSDOF 0
ENDMDL
