MODEL 1
REMARK minimizedAffinity 4.31599855
REMARK minimizedRMSD -1
REMARK  0 active torsions:
REMARK  status: ('A' for Active; 'I' for Inactive)
ROOT
ATOM      1  O1  BZF d   1       0.739   1.068  -4.508  0.00  0.00    -0.204 OA
ATOM      2  C2  BZF d   1      -0.241   0.167  -4.876  0.00  0.00     0.174 A 
ATOM      3  C3  BZF d   1      -0.447  -0.741  -3.900  0.00  0.00    -0.012 A 
ATOM      4  C3A BZF d   1       0.396  -0.329  -2.819  0.00  0.00    -0.107 A 
ATOM      5  C4  BZF d   1       0.622  -0.820  -1.565  0.00  0.00     0.055 A 
ATOM      6  C5  BZF d   1       1.562  -0.227  -0.783  0.00  0.00    -0.016 A 
ATOM      7  C6  BZF d   1       2.297   0.853  -1.225  0.00  0.00     0.022 A 
ATOM      8  C7  BZF d   1       2.105   1.379  -2.459  0.00  0.00     0.029 A 
ATOM      9  C7A BZF d   1       1.132   0.802  -3.239  0.00  0.00     0.058 A 
ENDROOT
TORSDOF 0
ENDMDL
