MODEL 1
REMARK minimizedAffinity 2.65311146
REMARK minimizedRMSD -1
REMARK  0 active torsions:
REMARK  status: ('A' for Active; 'I' for Inactive)
ROOT
ATOM      1  O1  BZF d   1       0.394  -1.314  -1.235  0.00  0.00    -0.204 OA
ATOM      2  C2  BZF d   1       1.285  -1.309  -0.179  0.00  0.00     0.174 A 
ATOM      3  C3  BZF d   1       2.415  -0.651  -0.511  0.00  0.00    -0.012 A 
ATOM      4  C3A BZF d   1       2.180  -0.138  -1.826  0.00  0.00    -0.107 A 
ATOM      5  C4  BZF d   1       2.926   0.615  -2.687  0.00  0.00     0.055 A 
ATOM      6  C5  BZF d   1       2.435   0.883  -3.925  0.00  0.00    -0.016 A 
ATOM      7  C6  BZF d   1       1.206   0.409  -4.337  0.00  0.00     0.022 A 
ATOM      8  C7  BZF d   1       0.428  -0.337  -3.516  0.00  0.00     0.029 A 
ATOM      9  C7A BZF d   1       0.907  -0.582  -2.253  0.00  0.00     0.058 A 
ENDROOT
TORSDOF 0
ENDMDL
