MODEL 1
REMARK minimizedAffinity 15.0180807
REMARK minimizedRMSD -1
REMARK  0 active torsions:
REMARK  status: ('A' for Active; 'I' for Inactive)
ROOT
ATOM      1  C   UNL d   1      -0.587   1.110   2.095  0.00  0.00     0.124 A 
ATOM      2  C1  UNL d   1      -1.337   1.968   2.887  0.00  0.00     0.062 A 
ATOM      3  C2  UNL d   1      -2.584   1.571   3.363  0.00  0.00     0.162 A 
ATOM      4  C3  UNL d   1      -3.088   0.309   3.048  0.00  0.00    -0.034 A 
ATOM      5  C4  UNL d   1      -2.328  -0.548   2.250  0.00  0.00     0.162 A 
ATOM      6  C5  UNL d   1      -1.083  -0.146   1.777  0.00  0.00     0.062 A 
ATOM      7  F   UNL d   1      -0.359  -0.976   1.011  0.00  0.00    -0.097 F 
ATOM      8  F1  UNL d   1      -2.782  -1.768   1.928  0.00  0.00    -0.096 F 
ATOM      9  I   UNL d   1      -4.951  -0.289   3.757  0.00  0.00    -0.060 I 
ATOM     10  F2  UNL d   1      -3.287   2.420   4.127  0.00  0.00    -0.096 F 
ATOM     11  F3  UNL d   1      -0.861   3.183   3.196  0.00  0.00    -0.097 F 
ATOM     12  F4  UNL d   1       0.611   1.496   1.638  0.00  0.00    -0.092 F 
ENDROOT
TORSDOF 0
ENDMDL
