MODEL 1
REMARK minimizedAffinity 19.2257748
REMARK minimizedRMSD -1
REMARK  0 active torsions:
REMARK  status: ('A' for Active; 'I' for Inactive)
ROOT
ATOM      1  C   UNL d   1      -4.780   1.021   3.613  0.00  0.00     0.124 A 
ATOM      2  C1  UNL d   1      -4.321  -0.149   3.026  0.00  0.00     0.062 A 
ATOM      3  C2  UNL d   1      -3.054  -0.194   2.451  0.00  0.00     0.162 A 
ATOM      4  C3  UNL d   1      -2.236   0.935   2.462  0.00  0.00    -0.034 A 
ATOM      5  C4  UNL d   1      -2.705   2.109   3.054  0.00  0.00     0.162 A 
ATOM      6  C5  UNL d   1      -3.972   2.149   3.627  0.00  0.00     0.062 A 
ATOM      7  F   UNL d   1      -4.413   3.281   4.195  0.00  0.00    -0.097 F 
ATOM      8  F1  UNL d   1      -1.944   3.214   3.083  0.00  0.00    -0.096 F 
ATOM      9  I   UNL d   1      -0.341   0.872   1.604  0.00  0.00    -0.060 I 
ATOM     10  F2  UNL d   1      -2.637  -1.339   1.890  0.00  0.00    -0.096 F 
ATOM     11  F3  UNL d   1      -5.101  -1.240   3.010  0.00  0.00    -0.097 F 
ATOM     12  F4  UNL d   1      -6.000   1.062   4.165  0.00  0.00    -0.092 F 
ENDROOT
TORSDOF 0
ENDMDL
