MODEL 1
REMARK minimizedAffinity 9.86058712
REMARK minimizedRMSD -1
REMARK  0 active torsions:
REMARK  status: ('A' for Active; 'I' for Inactive)
ROOT
ATOM      1  C   UNL d   1       0.731   0.148   0.974  0.00  0.00     0.124 A 
ATOM      2  C1  UNL d   1       0.396   1.202   0.135  0.00  0.00     0.062 A 
ATOM      3  C2  UNL d   1       1.274   2.270  -0.032  0.00  0.00     0.162 A 
ATOM      4  C3  UNL d   1       2.495   2.289   0.641  0.00  0.00    -0.034 A 
ATOM      5  C4  UNL d   1       2.825   1.226   1.484  0.00  0.00     0.162 A 
ATOM      6  C5  UNL d   1       1.945   0.161   1.647  0.00  0.00     0.062 A 
ATOM      7  F   UNL d   1       2.270  -0.856   2.458  0.00  0.00    -0.097 F 
ATOM      8  F1  UNL d   1       3.991   1.212   2.146  0.00  0.00    -0.096 F 
ATOM      9  I   UNL d   1       3.810   3.884   0.394  0.00  0.00    -0.060 I 
ATOM     10  F2  UNL d   1       0.924   3.275  -0.849  0.00  0.00    -0.096 F 
ATOM     11  F3  UNL d   1      -0.776   1.193  -0.516  0.00  0.00    -0.097 F 
ATOM     12  F4  UNL d   1      -0.115  -0.877   1.134  0.00  0.00    -0.092 F 
ENDROOT
TORSDOF 0
ENDMDL
