MODEL 1
REMARK minimizedAffinity 16.8086147
REMARK minimizedRMSD -1
REMARK  0 active torsions:
REMARK  status: ('A' for Active; 'I' for Inactive)
ROOT
ATOM      1  C   UNL d   1      -1.303  -0.028   2.971  0.00  0.00     0.124 A 
ATOM      2  C1  UNL d   1      -0.824  -1.284   2.626  0.00  0.00     0.062 A 
ATOM      3  C2  UNL d   1       0.096  -1.422   1.591  0.00  0.00     0.162 A 
ATOM      4  C3  UNL d   1       0.544  -0.300   0.893  0.00  0.00    -0.034 A 
ATOM      5  C4  UNL d   1       0.057   0.960   1.245  0.00  0.00     0.162 A 
ATOM      6  C5  UNL d   1      -0.862   1.093   2.281  0.00  0.00     0.062 A 
ATOM      7  F   UNL d   1      -1.324   2.307   2.613  0.00  0.00    -0.097 F 
ATOM      8  F1  UNL d   1       0.466   2.059   0.595  0.00  0.00    -0.096 F 
ATOM      9  I   UNL d   1       1.919  -0.503  -0.656  0.00  0.00    -0.060 I 
ATOM     10  F2  UNL d   1       0.542  -2.648   1.279  0.00  0.00    -0.096 F 
ATOM     11  F3  UNL d   1      -1.249  -2.368   3.291  0.00  0.00    -0.097 F 
ATOM     12  F4  UNL d   1      -2.188   0.102   3.968  0.00  0.00    -0.092 F 
ENDROOT
TORSDOF 0
ENDMDL
