MODEL 1
REMARK minimizedAffinity 15.6192188
REMARK minimizedRMSD -1
REMARK  0 active torsions:
REMARK  status: ('A' for Active; 'I' for Inactive)
ROOT
ATOM      1  C   UNL d   1      -0.960  -5.997   2.371  0.00  0.00     0.124 A 
ATOM      2  C1  UNL d   1      -1.389  -5.997   3.691  0.00  0.00     0.062 A 
ATOM      3  C2  UNL d   1      -0.461  -5.995   4.729  0.00  0.00     0.162 A 
ATOM      4  C3  UNL d   1       0.905  -5.994   4.450  0.00  0.00    -0.034 A 
ATOM      5  C4  UNL d   1       1.329  -5.996   3.120  0.00  0.00     0.162 A 
ATOM      6  C5  UNL d   1       0.398  -5.997   2.087  0.00  0.00     0.062 A 
ATOM      7  F   UNL d   1       0.814  -5.998   0.812  0.00  0.00    -0.097 F 
ATOM      8  F1  UNL d   1       2.636  -5.994   2.817  0.00  0.00    -0.096 F 
ATOM      9  I   UNL d   1       2.296  -5.992   5.999  0.00  0.00    -0.060 I 
ATOM     10  F2  UNL d   1      -0.904  -5.995   5.995  0.00  0.00    -0.096 F 
ATOM     11  F3  UNL d   1      -2.701  -5.998   3.968  0.00  0.00    -0.097 F 
ATOM     12  F4  UNL d   1      -1.855  -6.000   1.375  0.00  0.00    -0.092 F 
ENDROOT
TORSDOF 0
ENDMDL
