MODEL 1
REMARK minimizedAffinity 6.84508276
REMARK minimizedRMSD -1
REMARK  0 active torsions:
REMARK  status: ('A' for Active; 'I' for Inactive)
ROOT
ATOM      1  C   UNL d   1       1.517  -5.998   4.283  0.00  0.00     0.124 A 
ATOM      2  C1  UNL d   1       2.039  -5.999   2.998  0.00  0.00     0.062 A 
ATOM      3  C2  UNL d   1       1.189  -6.000   1.896  0.00  0.00     0.162 A 
ATOM      4  C3  UNL d   1      -0.195  -5.999   2.075  0.00  0.00    -0.034 A 
ATOM      5  C4  UNL d   1      -0.713  -5.999   3.371  0.00  0.00     0.162 A 
ATOM      6  C5  UNL d   1       0.141  -5.999   4.469  0.00  0.00     0.062 A 
ATOM      7  F   UNL d   1      -0.366  -5.998   5.710  0.00  0.00    -0.097 F 
ATOM      8  F1  UNL d   1      -2.038  -5.999   3.579  0.00  0.00    -0.096 F 
ATOM      9  I   UNL d   1      -1.470  -6.000   0.430  0.00  0.00    -0.060 I 
ATOM     10  F2  UNL d   1       1.722  -6.000   0.665  0.00  0.00    -0.096 F 
ATOM     11  F3  UNL d   1       3.368  -5.999   2.816  0.00  0.00    -0.097 F 
ATOM     12  F4  UNL d   1       2.337  -5.999   5.342  0.00  0.00    -0.092 F 
ENDROOT
TORSDOF 0
ENDMDL
