MODEL 1
REMARK minimizedAffinity 0.793828189
REMARK minimizedRMSD -1
REMARK  0 active torsions:
REMARK  status: ('A' for Active; 'I' for Inactive)
ROOT
ATOM      1  C   UNL d   1       1.722  -5.999   4.274  0.00  0.00     0.124 A 
ATOM      2  C1  UNL d   1       0.379  -5.999   4.624  0.00  0.00     0.062 A 
ATOM      3  C2  UNL d   1      -0.602  -5.999   3.637  0.00  0.00     0.162 A 
ATOM      4  C3  UNL d   1      -0.244  -6.000   2.289  0.00  0.00    -0.034 A 
ATOM      5  C4  UNL d   1       1.109  -5.999   1.944  0.00  0.00     0.162 A 
ATOM      6  C5  UNL d   1       2.086  -5.999   2.935  0.00  0.00     0.062 A 
ATOM      7  F   UNL d   1       3.383  -6.000   2.594  0.00  0.00    -0.097 F 
ATOM      8  F1  UNL d   1       1.489  -6.000   0.658  0.00  0.00    -0.096 F 
ATOM      9  I   UNL d   1      -1.708  -5.999   0.810  0.00  0.00    -0.060 I 
ATOM     10  F2  UNL d   1      -1.892  -5.999   4.005  0.00  0.00    -0.096 F 
ATOM     11  F3  UNL d   1       0.026  -5.998   5.918  0.00  0.00    -0.097 F 
ATOM     12  F4  UNL d   1       2.664  -5.999   5.226  0.00  0.00    -0.092 F 
ENDROOT
TORSDOF 0
ENDMDL
