MODEL 1
REMARK minimizedAffinity 16.1271553
REMARK minimizedRMSD -1
REMARK  0 active torsions:
REMARK  status: ('A' for Active; 'I' for Inactive)
ROOT
ATOM      1  C   UNL d   1       2.622  -0.639  -2.744  0.00  0.00     0.124 A 
ATOM      2  C1  UNL d   1       2.091  -0.969  -3.984  0.00  0.00     0.062 A 
ATOM      3  C2  UNL d   1       0.744  -1.301  -4.102  0.00  0.00     0.162 A 
ATOM      4  C3  UNL d   1      -0.081  -1.303  -2.977  0.00  0.00    -0.034 A 
ATOM      5  C4  UNL d   1       0.461  -0.972  -1.734  0.00  0.00     0.162 A 
ATOM      6  C5  UNL d   1       1.807  -0.641  -1.621  0.00  0.00     0.062 A 
ATOM      7  F   UNL d   1       2.319  -0.323  -0.423  0.00  0.00    -0.097 F 
ATOM      8  F1  UNL d   1      -0.304  -0.964  -0.633  0.00  0.00    -0.096 F 
ATOM      9  I   UNL d   1      -2.095  -1.799  -3.150  0.00  0.00    -0.060 I 
ATOM     10  F2  UNL d   1       0.258  -1.615  -5.312  0.00  0.00    -0.096 F 
ATOM     11  F3  UNL d   1       2.877  -0.969  -5.070  0.00  0.00    -0.097 F 
ATOM     12  F4  UNL d   1       3.919  -0.321  -2.633  0.00  0.00    -0.092 F 
ENDROOT
TORSDOF 0
ENDMDL
