MODEL 1
REMARK minimizedAffinity 25.807827
REMARK minimizedRMSD -1
REMARK  0 active torsions:
REMARK  status: ('A' for Active; 'I' for Inactive)
ROOT
ATOM      1  C   UNL d   1      -1.096  -0.223   1.750  0.00  0.00     0.124 A 
ATOM      2  C1  UNL d   1       0.085   0.504   1.693  0.00  0.00     0.062 A 
ATOM      3  C2  UNL d   1       0.877   0.464   0.549  0.00  0.00     0.162 A 
ATOM      4  C3  UNL d   1       0.490  -0.307  -0.548  0.00  0.00    -0.034 A 
ATOM      5  C4  UNL d   1      -0.698  -1.036  -0.482  0.00  0.00     0.162 A 
ATOM      6  C5  UNL d   1      -1.486  -0.992   0.663  0.00  0.00     0.062 A 
ATOM      7  F   UNL d   1      -2.627  -1.696   0.717  0.00  0.00    -0.097 F 
ATOM      8  F1  UNL d   1      -1.100  -1.787  -1.519  0.00  0.00    -0.096 F 
ATOM      9  I   UNL d   1       1.671  -0.370  -2.260  0.00  0.00    -0.060 I 
ATOM     10  F2  UNL d   1       2.013   1.176   0.521  0.00  0.00    -0.096 F 
ATOM     11  F3  UNL d   1       0.465   1.247   2.742  0.00  0.00    -0.097 F 
ATOM     12  F4  UNL d   1      -1.855  -0.183   2.853  0.00  0.00    -0.092 F 
ENDROOT
TORSDOF 0
ENDMDL
