MODEL 1
REMARK minimizedAffinity 20.3877354
REMARK minimizedRMSD -1
REMARK  0 active torsions:
REMARK  status: ('A' for Active; 'I' for Inactive)
ROOT
ATOM      1  C   UNL d   1       2.755   3.462  -0.116  0.00  0.00     0.124 A 
ATOM      2  C1  UNL d   1       1.536   3.108  -0.675  0.00  0.00     0.062 A 
ATOM      3  C2  UNL d   1       0.707   2.197  -0.027  0.00  0.00     0.162 A 
ATOM      4  C3  UNL d   1       1.094   1.634   1.188  0.00  0.00    -0.034 A 
ATOM      5  C4  UNL d   1       2.323   1.994   1.744  0.00  0.00     0.162 A 
ATOM      6  C5  UNL d   1       3.148   2.905   1.093  0.00  0.00     0.062 A 
ATOM      7  F   UNL d   1       4.326   3.246   1.635  0.00  0.00    -0.097 F 
ATOM      8  F1  UNL d   1       2.727   1.471   2.912  0.00  0.00    -0.096 F 
ATOM      9  I   UNL d   1      -0.142   0.270   2.160  0.00  0.00    -0.060 I 
ATOM     10  F2  UNL d   1      -0.467   1.873  -0.591  0.00  0.00    -0.096 F 
ATOM     11  F3  UNL d   1       1.154   3.645  -1.843  0.00  0.00    -0.097 F 
ATOM     12  F4  UNL d   1       3.552   4.339  -0.741  0.00  0.00    -0.092 F 
ENDROOT
TORSDOF 0
ENDMDL
