MODEL 1
REMARK minimizedAffinity 17.3951969
REMARK minimizedRMSD -1
REMARK  0 active torsions:
REMARK  status: ('A' for Active; 'I' for Inactive)
ROOT
ATOM      1  C   UNL d   1      -0.054   0.336   2.175  0.00  0.00     0.124 A 
ATOM      2  C1  UNL d   1      -0.899  -0.736   1.924  0.00  0.00     0.062 A 
ATOM      3  C2  UNL d   1      -1.344  -0.988   0.629  0.00  0.00     0.162 A 
ATOM      4  C3  UNL d   1      -0.944  -0.166  -0.425  0.00  0.00    -0.034 A 
ATOM      5  C4  UNL d   1      -0.095   0.911  -0.164  0.00  0.00     0.162 A 
ATOM      6  C5  UNL d   1       0.347   1.158   1.132  0.00  0.00     0.062 A 
ATOM      7  F   UNL d   1       1.163   2.195   1.373  0.00  0.00    -0.097 F 
ATOM      8  F1  UNL d   1       0.308   1.721  -1.154  0.00  0.00    -0.096 F 
ATOM      9  I   UNL d   1      -1.607  -0.539  -2.362  0.00  0.00    -0.060 I 
ATOM     10  F2  UNL d   1      -2.159  -2.031   0.415  0.00  0.00    -0.096 F 
ATOM     11  F3  UNL d   1      -1.288  -1.532   2.930  0.00  0.00    -0.097 F 
ATOM     12  F4  UNL d   1       0.372   0.576   3.422  0.00  0.00    -0.092 F 
ENDROOT
TORSDOF 0
ENDMDL
