MODEL 1
REMARK minimizedAffinity 12.7582607
REMARK minimizedRMSD -1
REMARK  0 active torsions:
REMARK  status: ('A' for Active; 'I' for Inactive)
ROOT
ATOM      1  C   UNL d   1      -0.611  -5.995   0.834  0.00  0.00     0.124 A 
ATOM      2  C1  UNL d   1      -1.539  -5.994   1.865  0.00  0.00     0.062 A 
ATOM      3  C2  UNL d   1      -1.113  -5.995   3.190  0.00  0.00     0.162 A 
ATOM      4  C3  UNL d   1       0.249  -5.996   3.492  0.00  0.00    -0.034 A 
ATOM      5  C4  UNL d   1       1.177  -5.998   2.449  0.00  0.00     0.162 A 
ATOM      6  C5  UNL d   1       0.746  -5.997   1.126  0.00  0.00     0.062 A 
ATOM      7  F   UNL d   1       1.644  -5.998   0.131  0.00  0.00    -0.097 F 
ATOM      8  F1  UNL d   1       2.494  -5.998   2.703  0.00  0.00    -0.096 F 
ATOM      9  I   UNL d   1       0.890  -5.997   5.472  0.00  0.00    -0.060 I 
ATOM     10  F2  UNL d   1      -2.032  -5.994   4.167  0.00  0.00    -0.096 F 
ATOM     11  F3  UNL d   1      -2.850  -5.993   1.586  0.00  0.00    -0.097 F 
ATOM     12  F4  UNL d   1      -1.023  -5.996  -0.440  0.00  0.00    -0.092 F 
ENDROOT
TORSDOF 0
ENDMDL
