MODEL 1
REMARK minimizedAffinity 8.11966801
REMARK minimizedRMSD -1
REMARK  0 active torsions:
REMARK  status: ('A' for Active; 'I' for Inactive)
ROOT
ATOM      1  C   UNL d   1      -2.546  -5.986   2.439  0.00  0.00     0.124 A 
ATOM      2  C1  UNL d   1      -2.114  -5.991   3.758  0.00  0.00     0.062 A 
ATOM      3  C2  UNL d   1      -0.753  -5.995   4.049  0.00  0.00     0.162 A 
ATOM      4  C3  UNL d   1       0.187  -5.993   3.018  0.00  0.00    -0.034 A 
ATOM      5  C4  UNL d   1      -0.255  -5.989   1.694  0.00  0.00     0.162 A 
ATOM      6  C5  UNL d   1      -1.617  -5.985   1.409  0.00  0.00     0.062 A 
ATOM      7  F   UNL d   1      -2.032  -5.981   0.134  0.00  0.00    -0.097 F 
ATOM      8  F1  UNL d   1       0.621  -5.987   0.679  0.00  0.00    -0.096 F 
ATOM      9  I   UNL d   1       2.223  -5.999   3.449  0.00  0.00    -0.060 I 
ATOM     10  F2  UNL d   1      -0.364  -5.999   5.333  0.00  0.00    -0.096 F 
ATOM     11  F3  UNL d   1      -3.010  -5.993   4.756  0.00  0.00    -0.097 F 
ATOM     12  F4  UNL d   1      -3.856  -5.983   2.162  0.00  0.00    -0.092 F 
ENDROOT
TORSDOF 0
ENDMDL
