MODEL 1
REMARK minimizedAffinity 8.54095364
REMARK minimizedRMSD -1
REMARK  0 active torsions:
REMARK  status: ('A' for Active; 'I' for Inactive)
ROOT
ATOM      1  C   UNL d   1      -1.197  -5.997   1.145  0.00  0.00     0.124 A 
ATOM      2  C1  UNL d   1      -1.958  -5.998   2.306  0.00  0.00     0.062 A 
ATOM      3  C2  UNL d   1      -1.336  -5.999   3.551  0.00  0.00     0.162 A 
ATOM      4  C3  UNL d   1       0.056  -5.997   3.643  0.00  0.00    -0.034 A 
ATOM      5  C4  UNL d   1       0.815  -5.997   2.471  0.00  0.00     0.162 A 
ATOM      6  C5  UNL d   1       0.189  -5.997   1.229  0.00  0.00     0.062 A 
ATOM      7  F   UNL d   1       0.926  -5.996   0.109  0.00  0.00    -0.097 F 
ATOM      8  F1  UNL d   1       2.155  -5.996   2.523  0.00  0.00    -0.096 F 
ATOM      9  I   UNL d   1       0.989  -5.998   5.503  0.00  0.00    -0.060 I 
ATOM     10  F2  UNL d   1      -2.097  -6.000   4.656  0.00  0.00    -0.096 F 
ATOM     11  F3  UNL d   1      -3.297  -6.000   2.228  0.00  0.00    -0.097 F 
ATOM     12  F4  UNL d   1      -1.798  -5.998  -0.051  0.00  0.00    -0.092 F 
ENDROOT
TORSDOF 0
ENDMDL
