MODEL 1
REMARK minimizedAffinity 6.70907307
REMARK minimizedRMSD -1
REMARK  0 active torsions:
REMARK  status: ('A' for Active; 'I' for Inactive)
ROOT
ATOM      1  C   UNL d   1      -1.801  -3.553  -4.287  0.00  0.00     0.124 A 
ATOM      2  C1  UNL d   1      -2.679  -2.658  -3.690  0.00  0.00     0.062 A 
ATOM      3  C2  UNL d   1      -2.206  -1.458  -3.166  0.00  0.00     0.162 A 
ATOM      4  C3  UNL d   1      -0.848  -1.146  -3.238  0.00  0.00    -0.034 A 
ATOM      5  C4  UNL d   1       0.028  -2.051  -3.839  0.00  0.00     0.162 A 
ATOM      6  C5  UNL d   1      -0.449  -3.249  -4.361  0.00  0.00     0.062 A 
ATOM      7  F   UNL d   1       0.400  -4.112  -4.937  0.00  0.00    -0.097 F 
ATOM      8  F1  UNL d   1       1.339  -1.782  -3.925  0.00  0.00    -0.096 F 
ATOM      9  I   UNL d   1      -0.137   0.647  -2.456  0.00  0.00    -0.060 I 
ATOM     10  F2  UNL d   1      -3.076  -0.612  -2.595  0.00  0.00    -0.096 F 
ATOM     11  F3  UNL d   1      -3.985  -2.950  -3.617  0.00  0.00    -0.097 F 
ATOM     12  F4  UNL d   1      -2.259  -4.707  -4.789  0.00  0.00    -0.092 F 
ENDROOT
TORSDOF 0
ENDMDL
