MODEL 1
REMARK minimizedAffinity 24.7189541
REMARK minimizedRMSD -1
REMARK  0 active torsions:
REMARK  status: ('A' for Active; 'I' for Inactive)
ROOT
ATOM      1  C   UNL d   1       3.551  -0.326  -3.561  0.00  0.00     0.124 A 
ATOM      2  C1  UNL d   1       2.473  -1.042  -3.058  0.00  0.00     0.062 A 
ATOM      3  C2  UNL d   1       1.632  -0.466  -2.111  0.00  0.00     0.162 A 
ATOM      4  C3  UNL d   1       1.865   0.834  -1.660  0.00  0.00    -0.034 A 
ATOM      5  C4  UNL d   1       2.951   1.547  -2.170  0.00  0.00     0.162 A 
ATOM      6  C5  UNL d   1       3.789   0.966  -3.117  0.00  0.00     0.062 A 
ATOM      7  F   UNL d   1       4.830   1.659  -3.602  0.00  0.00    -0.097 F 
ATOM      8  F1  UNL d   1       3.204   2.798  -1.759  0.00  0.00    -0.096 F 
ATOM      9  I   UNL d   1       0.609   1.699  -0.244  0.00  0.00    -0.060 I 
ATOM     10  F2  UNL d   1       0.598  -1.180  -1.642  0.00  0.00    -0.096 F 
ATOM     11  F3  UNL d   1       2.242  -2.291  -3.486  0.00  0.00    -0.097 F 
ATOM     12  F4  UNL d   1       4.360  -0.883  -4.472  0.00  0.00    -0.092 F 
ENDROOT
TORSDOF 0
ENDMDL
