MODEL 1
REMARK minimizedAffinity -4.89818144
REMARK minimizedRMSD -1
REMARK  1 active torsions:
REMARK  status: ('A' for Active; 'I' for Inactive)
REMARK    1  A    between atoms: C1_2  and  C2_3 
ROOT
ATOM      1  C2  UNL d   1      -0.656   1.155   0.523  0.00  0.00    -0.076 A 
ATOM      2  C3  UNL d   1      -1.251   1.309   1.787  0.00  0.00     0.004 A 
ATOM      3  C4  UNL d   1      -1.267   0.260   2.705  0.00  0.00    -0.003 A 
ATOM      4  C5  UNL d   1      -0.687  -0.960   2.374  0.00  0.00     0.000 A 
ATOM      5  C6  UNL d   1      -0.076  -1.124   1.131  0.00  0.00     0.000 A 
ATOM      6  C7  UNL d   1      -0.037  -0.072   0.200  0.00  0.00    -0.073 A 
ATOM      7  C8  UNL d   1       0.630  -0.307  -1.127  0.00  0.00     0.078 C 
ENDROOT
BRANCH   1   8
ATOM      8  C1  UNL d   1      -0.693   2.319  -0.442  0.00  0.00     0.053 C 
ATOM      9  C   UNL d   1      -1.033   3.633   0.244  0.00  0.00     0.018 C 
ENDBRANCH   1   8
TORSDOF 1
ENDMDL
