MODEL 1
REMARK minimizedAffinity -4.94928932
REMARK minimizedRMSD -1
REMARK  1 active torsions:
REMARK  status: ('A' for Active; 'I' for Inactive)
REMARK    1  A    between atoms: C1_2  and  C2_3 
ROOT
ATOM      1  C2  UNL d   1      -0.539   0.379   0.255  0.00  0.00    -0.076 A 
ATOM      2  C3  UNL d   1      -0.608   1.701  -0.219  0.00  0.00     0.004 A 
ATOM      3  C4  UNL d   1      -0.918   2.755   0.639  0.00  0.00    -0.003 A 
ATOM      4  C5  UNL d   1      -1.163   2.504   1.984  0.00  0.00     0.000 A 
ATOM      5  C6  UNL d   1      -1.081   1.201   2.475  0.00  0.00     0.000 A 
ATOM      6  C7  UNL d   1      -0.754   0.129   1.627  0.00  0.00    -0.073 A 
ATOM      7  C8  UNL d   1      -0.686  -1.256   2.208  0.00  0.00     0.078 C 
ENDROOT
BRANCH   1   8
ATOM      8  C1  UNL d   1      -0.226  -0.727  -0.728  0.00  0.00     0.053 C 
ATOM      9  C   UNL d   1       1.268  -0.978  -0.865  0.00  0.00     0.018 C 
ENDBRANCH   1   8
TORSDOF 1
ENDMDL
