MODEL 1
REMARK minimizedAffinity -1.92200005
REMARK minimizedRMSD -1
REMARK  1 active torsions:
REMARK  status: ('A' for Active; 'I' for Inactive)
REMARK    1  A    between atoms: C1_2  and  C2_3 
ROOT
ATOM      1  C2  UNL d   1       0.013  -0.717   0.086  0.00  0.00    -0.076 A 
ATOM      2  C3  UNL d   1       1.344  -0.735  -0.366  0.00  0.00     0.004 A 
ATOM      3  C4  UNL d   1       1.735  -1.569  -1.412  0.00  0.00    -0.003 A 
ATOM      4  C5  UNL d   1       0.802  -2.399  -2.023  0.00  0.00     0.000 A 
ATOM      5  C6  UNL d   1      -0.527  -2.381  -1.599  0.00  0.00     0.000 A 
ATOM      6  C7  UNL d   1      -0.941  -1.534  -0.557  0.00  0.00    -0.073 A 
ATOM      7  C8  UNL d   1      -2.385  -1.560  -0.136  0.00  0.00     0.078 C 
ENDROOT
BRANCH   1   8
ATOM      8  C1  UNL d   1      -0.346   0.189   1.242  0.00  0.00     0.053 C 
ATOM      9  C   UNL d   1      -1.088   1.439   0.794  0.00  0.00     0.018 C 
ENDBRANCH   1   8
TORSDOF 1
ENDMDL
