MODEL 1
REMARK minimizedAffinity -4.2653594
REMARK minimizedRMSD -1
REMARK  1 active torsions:
REMARK  status: ('A' for Active; 'I' for Inactive)
REMARK    1  A    between atoms: C1_2  and  C2_3 
ROOT
ATOM      1  C2  UNL d   1      -0.476   0.140   0.979  0.00  0.00    -0.076 A 
ATOM      2  C3  UNL d   1      -0.069   0.638  -0.271  0.00  0.00     0.004 A 
ATOM      3  C4  UNL d   1       0.564  -0.187  -1.200  0.00  0.00    -0.003 A 
ATOM      4  C5  UNL d   1       0.800  -1.523  -0.894  0.00  0.00     0.000 A 
ATOM      5  C6  UNL d   1       0.387  -2.037   0.335  0.00  0.00     0.000 A 
ATOM      6  C7  UNL d   1      -0.266  -1.223   1.276  0.00  0.00    -0.073 A 
ATOM      7  C8  UNL d   1      -0.684  -1.829   2.588  0.00  0.00     0.078 C 
ENDROOT
BRANCH   1   8
ATOM      8  C1  UNL d   1      -1.133   1.088   1.957  0.00  0.00     0.053 C 
ATOM      9  C   UNL d   1      -1.670   2.341   1.282  0.00  0.00     0.018 C 
ENDBRANCH   1   8
TORSDOF 1
ENDMDL
