MODEL 1
REMARK minimizedAffinity -1.47778308
REMARK minimizedRMSD -1
REMARK  1 active torsions:
REMARK  status: ('A' for Active; 'I' for Inactive)
REMARK    1  A    between atoms: C1_2  and  C2_3 
ROOT
ATOM      1  C2  UNL d   1      -0.548   1.053   0.867  0.00  0.00    -0.076 A 
ATOM      2  C3  UNL d   1      -0.370   1.776  -0.325  0.00  0.00     0.004 A 
ATOM      3  C4  UNL d   1       0.503   1.325  -1.314  0.00  0.00    -0.003 A 
ATOM      4  C5  UNL d   1       1.210   0.143  -1.128  0.00  0.00     0.000 A 
ATOM      5  C6  UNL d   1       1.032  -0.597   0.040  0.00  0.00     0.000 A 
ATOM      6  C7  UNL d   1       0.144  -0.165   1.040  0.00  0.00    -0.073 A 
ATOM      7  C8  UNL d   1      -0.005  -0.999   2.283  0.00  0.00     0.078 C 
ENDROOT
BRANCH   1   8
ATOM      8  C1  UNL d   1      -1.487   1.605   1.916  0.00  0.00     0.053 C 
ATOM      9  C   UNL d   1      -2.626   2.411   1.312  0.00  0.00     0.018 C 
ENDBRANCH   1   8
TORSDOF 1
ENDMDL
