MODEL 1
REMARK minimizedAffinity -4.41563082
REMARK minimizedRMSD -1
REMARK  1 active torsions:
REMARK  status: ('A' for Active; 'I' for Inactive)
REMARK    1  A    between atoms: C1_2  and  C2_3 
ROOT
ATOM      1  C2  UNL d   1      -0.856   0.345  -0.105  0.00  0.00    -0.076 A 
ATOM      2  C3  UNL d   1      -0.544   1.705  -0.272  0.00  0.00     0.004 A 
ATOM      3  C4  UNL d   1      -1.183   2.686   0.486  0.00  0.00    -0.003 A 
ATOM      4  C5  UNL d   1      -2.144   2.321   1.423  0.00  0.00     0.000 A 
ATOM      5  C6  UNL d   1      -2.452   0.975   1.614  0.00  0.00     0.000 A 
ATOM      6  C7  UNL d   1      -1.806  -0.027   0.870  0.00  0.00    -0.073 A 
ATOM      7  C8  UNL d   1      -2.182  -1.463   1.113  0.00  0.00     0.078 C 
ENDROOT
BRANCH   1   8
ATOM      8  C1  UNL d   1      -0.150  -0.672  -0.974  0.00  0.00     0.053 C 
ATOM      9  C   UNL d   1       1.213  -1.061  -0.424  0.00  0.00     0.018 C 
ENDBRANCH   1   8
TORSDOF 1
ENDMDL
