MODEL 1
REMARK minimizedAffinity -1.63970542
REMARK minimizedRMSD -1
REMARK  1 active torsions:
REMARK  status: ('A' for Active; 'I' for Inactive)
REMARK    1  A    between atoms: C1_2  and  C2_3 
ROOT
ATOM      1  C2  UNL d   1       0.513  -0.141   0.156  0.00  0.00    -0.076 A 
ATOM      2  C3  UNL d   1       0.088  -0.926   1.242  0.00  0.00     0.004 A 
ATOM      3  C4  UNL d   1      -0.714  -0.387   2.246  0.00  0.00    -0.003 A 
ATOM      4  C5  UNL d   1      -1.105   0.945   2.181  0.00  0.00     0.000 A 
ATOM      5  C6  UNL d   1      -0.708   1.734   1.102  0.00  0.00     0.000 A 
ATOM      6  C7  UNL d   1       0.088   1.202   0.072  0.00  0.00    -0.073 A 
ATOM      7  C8  UNL d   1       0.492   2.100  -1.064  0.00  0.00     0.078 C 
ENDROOT
BRANCH   1   8
ATOM      8  C1  UNL d   1       1.404  -0.772  -0.890  0.00  0.00     0.053 C 
ATOM      9  C   UNL d   1       1.133  -2.258  -1.066  0.00  0.00     0.018 C 
ENDBRANCH   1   8
TORSDOF 1
ENDMDL
