MODEL 1
REMARK minimizedAffinity -4.9854784
REMARK minimizedRMSD -1
REMARK  1 active torsions:
REMARK  status: ('A' for Active; 'I' for Inactive)
REMARK    1  A    between atoms: C1_2  and  C2_3 
ROOT
ATOM      1  C2  UNL d   1       0.333  -0.008  -0.223  0.00  0.00    -0.076 A 
ATOM      2  C3  UNL d   1      -0.156   1.013  -1.056  0.00  0.00     0.004 A 
ATOM      3  C4  UNL d   1      -1.095   1.932  -0.589  0.00  0.00    -0.003 A 
ATOM      4  C5  UNL d   1      -1.559   1.845   0.719  0.00  0.00     0.000 A 
ATOM      5  C6  UNL d   1      -1.071   0.849   1.565  0.00  0.00     0.000 A 
ATOM      6  C7  UNL d   1      -0.113  -0.075   1.115  0.00  0.00    -0.073 A 
ATOM      7  C8  UNL d   1       0.374  -1.132   2.068  0.00  0.00     0.078 C 
ENDROOT
BRANCH   1   8
ATOM      8  C1  UNL d   1       1.329  -0.993  -0.792  0.00  0.00     0.053 C 
ATOM      9  C   UNL d   1       0.658  -2.135  -1.540  0.00  0.00     0.018 C 
ENDBRANCH   1   8
TORSDOF 1
ENDMDL
