MODEL 1
REMARK minimizedAffinity -5.35466051
REMARK minimizedRMSD -1
REMARK  1 active torsions:
REMARK  status: ('A' for Active; 'I' for Inactive)
REMARK    1  A    between atoms: C1_2  and  C2_3 
ROOT
ATOM      1  C2  UNL d   1       0.383   0.142   0.647  0.00  0.00    -0.076 A 
ATOM      2  C3  UNL d   1      -0.444  -0.440   1.623  0.00  0.00     0.004 A 
ATOM      3  C4  UNL d   1      -1.559   0.237   2.115  0.00  0.00    -0.003 A 
ATOM      4  C5  UNL d   1      -1.867   1.506   1.636  0.00  0.00     0.000 A 
ATOM      5  C6  UNL d   1      -1.068   2.090   0.654  0.00  0.00     0.000 A 
ATOM      6  C7  UNL d   1       0.051   1.415   0.137  0.00  0.00    -0.073 A 
ATOM      7  C8  UNL d   1       0.881   2.096  -0.917  0.00  0.00     0.078 C 
ENDROOT
BRANCH   1   8
ATOM      8  C1  UNL d   1       1.594  -0.628   0.171  0.00  0.00     0.053 C 
ATOM      9  C   UNL d   1       1.251  -1.651  -0.901  0.00  0.00     0.018 C 
ENDBRANCH   1   8
TORSDOF 1
ENDMDL
