MODEL 1
REMARK minimizedAffinity -4.46232462
REMARK minimizedRMSD -1
REMARK  1 active torsions:
REMARK  status: ('A' for Active; 'I' for Inactive)
REMARK    1  A    between atoms: C1_2  and  C2_3 
ROOT
ATOM      1  C2  UNL d   1       0.781  -1.281  -0.463  0.00  0.00    -0.076 A 
ATOM      2  C3  UNL d   1       0.767  -0.429   0.654  0.00  0.00     0.004 A 
ATOM      3  C4  UNL d   1      -0.434  -0.002   1.217  0.00  0.00    -0.003 A 
ATOM      4  C5  UNL d   1      -1.643  -0.422   0.672  0.00  0.00     0.000 A 
ATOM      5  C6  UNL d   1      -1.648  -1.282  -0.426  0.00  0.00     0.000 A 
ATOM      6  C7  UNL d   1      -0.446  -1.734  -0.995  0.00  0.00    -0.073 A 
ATOM      7  C8  UNL d   1      -0.511  -2.656  -2.182  0.00  0.00     0.078 C 
ENDROOT
BRANCH   1   8
ATOM      8  C1  UNL d   1       2.114  -1.689  -1.047  0.00  0.00     0.053 C 
ATOM      9  C   UNL d   1       2.705  -0.620  -1.953  0.00  0.00     0.018 C 
ENDBRANCH   1   8
TORSDOF 1
ENDMDL
