MODEL 1
REMARK minimizedAffinity -5.89082479
REMARK minimizedRMSD -1
REMARK  0 active torsions:
REMARK  status: ('A' for Active; 'I' for Inactive)
ROOT
ATOM      1  C   UNL d   1       0.256   0.699  -0.067  0.00  0.00     0.078 C 
ATOM      2  C1  UNL d   1      -0.651  -0.318   0.559  0.00  0.00    -0.077 A 
ATOM      3  C2  UNL d   1      -1.824   0.070   1.217  0.00  0.00    -0.001 A 
ATOM      4  C3  UNL d   1      -2.654  -0.887   1.804  0.00  0.00     0.003 A 
ATOM      5  C4  UNL d   1      -2.319  -2.238   1.739  0.00  0.00    -0.005 A 
ATOM      6  C5  UNL d   1      -1.152  -2.633   1.089  0.00  0.00     0.003 A 
ATOM      7  C6  UNL d   1      -0.321  -1.678   0.501  0.00  0.00    -0.001 A 
ENDROOT
TORSDOF 0
ENDMDL
