MODEL 1
REMARK minimizedAffinity -4.4076333
REMARK minimizedRMSD -1
REMARK  0 active torsions:
REMARK  status: ('A' for Active; 'I' for Inactive)
ROOT
ATOM      1  C   UNL d   1      -2.161  -3.034   1.526  0.00  0.00     0.078 C 
ATOM      2  C1  UNL d   1      -1.207  -2.014   0.979  0.00  0.00    -0.077 A 
ATOM      3  C2  UNL d   1       0.159  -2.298   0.855  0.00  0.00    -0.001 A 
ATOM      4  C3  UNL d   1       1.036  -1.336   0.353  0.00  0.00     0.003 A 
ATOM      5  C4  UNL d   1       0.559  -0.083  -0.027  0.00  0.00    -0.005 A 
ATOM      6  C5  UNL d   1      -0.798   0.209   0.094  0.00  0.00     0.003 A 
ATOM      7  C6  UNL d   1      -1.678  -0.752   0.596  0.00  0.00    -0.001 A 
ENDROOT
TORSDOF 0
ENDMDL
