MODEL 1
REMARK minimizedAffinity -2.60139012
REMARK minimizedRMSD -1
REMARK  0 active torsions:
REMARK  status: ('A' for Active; 'I' for Inactive)
ROOT
ATOM      1  C   UNL d   1       0.007   0.726  -0.020  0.00  0.00     0.078 C 
ATOM      2  C1  UNL d   1       0.590   1.188  -1.322  0.00  0.00    -0.077 A 
ATOM      3  C2  UNL d   1      -0.058   0.929  -2.535  0.00  0.00    -0.001 A 
ATOM      4  C3  UNL d   1       0.501   1.357  -3.740  0.00  0.00     0.003 A 
ATOM      5  C4  UNL d   1       1.713   2.046  -3.744  0.00  0.00    -0.005 A 
ATOM      6  C5  UNL d   1       2.367   2.306  -2.541  0.00  0.00     0.003 A 
ATOM      7  C6  UNL d   1       1.809   1.879  -1.335  0.00  0.00    -0.001 A 
ENDROOT
TORSDOF 0
ENDMDL
