MODEL 1
REMARK minimizedAffinity -6.10739422
REMARK minimizedRMSD -1
REMARK  0 active torsions:
REMARK  status: ('A' for Active; 'I' for Inactive)
ROOT
ATOM      1  C   UNL d   1       0.076   1.275   0.006  0.00  0.00     0.078 C 
ATOM      2  C1  UNL d   1      -0.529   0.031   0.584  0.00  0.00    -0.077 A 
ATOM      3  C2  UNL d   1      -1.780   0.061   1.213  0.00  0.00    -0.001 A 
ATOM      4  C3  UNL d   1      -2.326  -1.103   1.755  0.00  0.00     0.003 A 
ATOM      5  C4  UNL d   1      -1.628  -2.307   1.674  0.00  0.00    -0.005 A 
ATOM      6  C5  UNL d   1      -0.382  -2.347   1.052  0.00  0.00     0.003 A 
ATOM      7  C6  UNL d   1       0.166  -1.183   0.510  0.00  0.00    -0.001 A 
ENDROOT
TORSDOF 0
ENDMDL
