MODEL 1
REMARK minimizedAffinity -5.86369038
REMARK minimizedRMSD -1
REMARK  0 active torsions:
REMARK  status: ('A' for Active; 'I' for Inactive)
ROOT
ATOM      1  C   UNL d   1      -1.983  -2.889   1.413  0.00  0.00     0.078 C 
ATOM      2  C1  UNL d   1      -1.463  -1.528   1.059  0.00  0.00    -0.077 A 
ATOM      3  C2  UNL d   1      -2.199  -0.374   1.359  0.00  0.00    -0.001 A 
ATOM      4  C3  UNL d   1      -1.707   0.886   1.014  0.00  0.00     0.003 A 
ATOM      5  C4  UNL d   1      -0.478   1.005   0.368  0.00  0.00    -0.005 A 
ATOM      6  C5  UNL d   1       0.260  -0.137   0.064  0.00  0.00     0.003 A 
ATOM      7  C6  UNL d   1      -0.230  -1.398   0.407  0.00  0.00    -0.001 A 
ENDROOT
TORSDOF 0
ENDMDL
