MODEL 1
REMARK minimizedAffinity -6.0233264
REMARK minimizedRMSD -1
REMARK  0 active torsions:
REMARK  status: ('A' for Active; 'I' for Inactive)
ROOT
ATOM      1  C   UNL d   1      -0.082   0.360  -0.633  0.00  0.00     0.078 C 
ATOM      2  C1  UNL d   1      -0.954  -0.514   0.218  0.00  0.00    -0.077 A 
ATOM      3  C2  UNL d   1      -0.793  -1.905   0.226  0.00  0.00    -0.001 A 
ATOM      4  C3  UNL d   1      -1.618  -2.707   1.016  0.00  0.00     0.003 A 
ATOM      5  C4  UNL d   1      -2.612  -2.127   1.802  0.00  0.00    -0.005 A 
ATOM      6  C5  UNL d   1      -2.782  -0.744   1.799  0.00  0.00     0.003 A 
ATOM      7  C6  UNL d   1      -1.958   0.059   1.010  0.00  0.00    -0.001 A 
ENDROOT
TORSDOF 0
ENDMDL
