MODEL 1
REMARK minimizedAffinity -5.9028306
REMARK minimizedRMSD -1
REMARK  0 active torsions:
REMARK  status: ('A' for Active; 'I' for Inactive)
ROOT
ATOM      1  C   UNL d   1       0.280   0.875  -0.380  0.00  0.00     0.078 C 
ATOM      2  C1  UNL d   1      -0.521  -0.106   0.422  0.00  0.00    -0.077 A 
ATOM      3  C2  UNL d   1      -1.608   0.314   1.198  0.00  0.00    -0.001 A 
ATOM      4  C3  UNL d   1      -2.339  -0.610   1.947  0.00  0.00     0.003 A 
ATOM      5  C4  UNL d   1      -1.990  -1.959   1.928  0.00  0.00    -0.005 A 
ATOM      6  C5  UNL d   1      -0.909  -2.386   1.160  0.00  0.00     0.003 A 
ATOM      7  C6  UNL d   1      -0.177  -1.464   0.411  0.00  0.00    -0.001 A 
ENDROOT
TORSDOF 0
ENDMDL
