MODEL 1
REMARK minimizedAffinity -6.06281137
REMARK minimizedRMSD -1
REMARK  0 active torsions:
REMARK  status: ('A' for Active; 'I' for Inactive)
ROOT
ATOM      1  C   UNL d   1       0.344   0.836  -0.263  0.00  0.00     0.078 C 
ATOM      2  C1  UNL d   1      -0.512  -0.213   0.382  0.00  0.00    -0.077 A 
ATOM      3  C2  UNL d   1      -1.708   0.128   1.026  0.00  0.00    -0.001 A 
ATOM      4  C3  UNL d   1      -2.489  -0.857   1.631  0.00  0.00     0.003 A 
ATOM      5  C4  UNL d   1      -2.083  -2.190   1.600  0.00  0.00    -0.005 A 
ATOM      6  C5  UNL d   1      -0.893  -2.538   0.964  0.00  0.00     0.003 A 
ATOM      7  C6  UNL d   1      -0.110  -1.555   0.358  0.00  0.00    -0.001 A 
ENDROOT
TORSDOF 0
ENDMDL
