MODEL 1
REMARK minimizedAffinity -5.83953857
REMARK minimizedRMSD -1
REMARK  0 active torsions:
REMARK  status: ('A' for Active; 'I' for Inactive)
ROOT
ATOM      1  C   UNL d   1      -0.090   0.764  -0.599  0.00  0.00     0.078 C 
ATOM      2  C1  UNL d   1      -0.814  -0.206   0.285  0.00  0.00    -0.077 A 
ATOM      3  C2  UNL d   1      -0.469  -1.563   0.302  0.00  0.00    -0.001 A 
ATOM      4  C3  UNL d   1      -1.158  -2.457   1.123  0.00  0.00     0.003 A 
ATOM      5  C4  UNL d   1      -2.198  -2.004   1.933  0.00  0.00    -0.005 A 
ATOM      6  C5  UNL d   1      -2.551  -0.656   1.921  0.00  0.00     0.003 A 
ATOM      7  C6  UNL d   1      -1.862   0.239   1.100  0.00  0.00    -0.001 A 
ENDROOT
TORSDOF 0
ENDMDL
