MODEL 1
REMARK minimizedAffinity -1.99778974
REMARK minimizedRMSD -1
REMARK  0 active torsions:
REMARK  status: ('A' for Active; 'I' for Inactive)
ROOT
ATOM      1  C   UNL d   1       0.426   1.935  -0.358  0.00  0.00     0.078 C 
ATOM      2  C1  UNL d   1       0.955   1.989  -1.760  0.00  0.00    -0.077 A 
ATOM      3  C2  UNL d   1       0.124   2.337  -2.832  0.00  0.00    -0.001 A 
ATOM      4  C3  UNL d   1       0.628   2.373  -4.133  0.00  0.00     0.003 A 
ATOM      5  C4  UNL d   1       1.964   2.062  -4.375  0.00  0.00    -0.005 A 
ATOM      6  C5  UNL d   1       2.799   1.713  -3.315  0.00  0.00     0.003 A 
ATOM      7  C6  UNL d   1       2.297   1.676  -2.013  0.00  0.00    -0.001 A 
ENDROOT
TORSDOF 0
ENDMDL
