MODEL 1
REMARK minimizedAffinity -4.55963421
REMARK minimizedRMSD -1
REMARK  0 active torsions:
REMARK  status: ('A' for Active; 'I' for Inactive)
ROOT
ATOM      1  C   UNL d   1      -3.281   0.889   2.181  0.00  0.00     0.078 C 
ATOM      2  C1  UNL d   1      -2.323  -0.197   1.790  0.00  0.00    -0.077 A 
ATOM      3  C2  UNL d   1      -1.444  -0.029   0.713  0.00  0.00    -0.001 A 
ATOM      4  C3  UNL d   1      -0.564  -1.052   0.354  0.00  0.00     0.003 A 
ATOM      5  C4  UNL d   1      -0.556  -2.249   1.067  0.00  0.00    -0.005 A 
ATOM      6  C5  UNL d   1      -1.428  -2.426   2.138  0.00  0.00     0.003 A 
ATOM      7  C6  UNL d   1      -2.309  -1.405   2.499  0.00  0.00    -0.001 A 
ENDROOT
TORSDOF 0
ENDMDL
