MODEL 1
REMARK minimizedAffinity -4.86646557
REMARK minimizedRMSD -1
REMARK  0 active torsions:
REMARK  status: ('A' for Active; 'I' for Inactive)
ROOT
ATOM      1  C   UNL d   1       0.387   0.022  -0.273  0.00  0.00     0.078 C 
ATOM      2  C1  UNL d   1      -0.792  -0.481   0.507  0.00  0.00    -0.077 A 
ATOM      3  C2  UNL d   1      -1.821   0.385   0.898  0.00  0.00    -0.001 A 
ATOM      4  C3  UNL d   1      -2.907  -0.095   1.631  0.00  0.00     0.003 A 
ATOM      5  C4  UNL d   1      -2.974  -1.442   1.981  0.00  0.00    -0.005 A 
ATOM      6  C5  UNL d   1      -1.954  -2.311   1.599  0.00  0.00     0.003 A 
ATOM      7  C6  UNL d   1      -0.867  -1.833   0.865  0.00  0.00    -0.001 A 
ENDROOT
TORSDOF 0
ENDMDL
