MODEL 1
REMARK minimizedAffinity 14.4655886
REMARK minimizedRMSD -1
REMARK  0 active torsions:
REMARK  status: ('A' for Active; 'I' for Inactive)
ROOT
ATOM      1  C2' OXE d   1      -4.555  -1.651   1.088  0.00  0.00     0.078 C 
ATOM      2  C1' OXE d   1      -4.944   1.034   1.810  0.00  0.00     0.078 C 
ATOM      3  C1  OXE d   1      -4.312   0.751   0.470  0.00  0.00    -0.078 A 
ATOM      4  C2  OXE d   1      -4.083  -0.565   0.145  0.00  0.00    -0.078 A 
ATOM      5  C3  OXE d   1      -3.553  -0.884  -1.102  0.00  0.00     0.003 A 
ATOM      6  C4  OXE d   1      -3.110   0.126  -1.963  0.00  0.00    -0.002 A 
ATOM      7  C5  OXE d   1      -3.297   1.473  -1.634  0.00  0.00    -0.002 A 
ATOM      8  C6  OXE d   1      -3.934   1.801  -0.443  0.00  0.00     0.003 A 
ENDROOT
TORSDOF 0
ENDMDL
