MODEL 1
REMARK minimizedAffinity 2.36240268
REMARK minimizedRMSD -1
REMARK  0 active torsions:
REMARK  status: ('A' for Active; 'I' for Inactive)
ROOT
ATOM      1  C2' OXE d   1       2.795  -2.289   0.985  0.00  0.00     0.078 C 
ATOM      2  C1' OXE d   1       1.422  -4.729   1.184  0.00  0.00     0.078 C 
ATOM      3  C1  OXE d   1       0.788  -3.513   1.811  0.00  0.00    -0.078 A 
ATOM      4  C2  OXE d   1       1.490  -2.332   1.749  0.00  0.00    -0.078 A 
ATOM      5  C3  OXE d   1       0.926  -1.168   2.263  0.00  0.00     0.003 A 
ATOM      6  C4  OXE d   1      -0.277  -1.218   2.977  0.00  0.00    -0.002 A 
ATOM      7  C5  OXE d   1      -0.988  -2.418   3.086  0.00  0.00    -0.002 A 
ATOM      8  C6  OXE d   1      -0.491  -3.563   2.474  0.00  0.00     0.003 A 
ENDROOT
TORSDOF 0
ENDMDL
