MODEL 1
REMARK minimizedAffinity 12.7396908
REMARK minimizedRMSD -1
REMARK  0 active torsions:
REMARK  status: ('A' for Active; 'I' for Inactive)
ROOT
ATOM      1  C2' OXE d   1       5.974  -5.944   5.627  0.00  0.00     0.078 C 
ATOM      2  C1' OXE d   1       3.193  -5.833   5.992  0.00  0.00     0.078 C 
ATOM      3  C1  OXE d   1       3.920  -4.539   5.727  0.00  0.00    -0.078 A 
ATOM      4  C2  OXE d   1       5.286  -4.596   5.596  0.00  0.00    -0.078 A 
ATOM      5  C3  OXE d   1       5.999  -3.439   5.296  0.00  0.00     0.003 A 
ATOM      6  C4  OXE d   1       5.357  -2.195   5.279  0.00  0.00    -0.002 A 
ATOM      7  C5  OXE d   1       3.971  -2.109   5.449  0.00  0.00    -0.002 A 
ATOM      8  C6  OXE d   1       3.234  -3.274   5.632  0.00  0.00     0.003 A 
ENDROOT
TORSDOF 0
ENDMDL
