MODEL 1
REMARK minimizedAffinity 4.95209885
REMARK minimizedRMSD -1
REMARK  0 active torsions:
REMARK  status: ('A' for Active; 'I' for Inactive)
ROOT
ATOM      1  C2' OXE d   1       4.835  -2.921   0.689  0.00  0.00     0.078 C 
ATOM      2  C1' OXE d   1       3.212  -5.132   0.094  0.00  0.00     0.078 C 
ATOM      3  C1  OXE d   1       2.530  -3.828   0.425  0.00  0.00    -0.078 A 
ATOM      4  C2  OXE d   1       3.331  -2.764   0.760  0.00  0.00    -0.078 A 
ATOM      5  C3  OXE d   1       2.756  -1.523   1.021  0.00  0.00     0.003 A 
ATOM      6  C4  OXE d   1       1.364  -1.388   1.094  0.00  0.00    -0.002 A 
ATOM      7  C5  OXE d   1       0.530  -2.470   0.795  0.00  0.00    -0.002 A 
ATOM      8  C6  OXE d   1       1.095  -3.683   0.418  0.00  0.00     0.003 A 
ENDROOT
TORSDOF 0
ENDMDL
