MODEL 1
REMARK minimizedAffinity 5.84751463
REMARK minimizedRMSD -1
REMARK  0 active torsions:
REMARK  status: ('A' for Active; 'I' for Inactive)
ROOT
ATOM      1  C2' OXE d   1      -0.111  -0.945   2.636  0.00  0.00     0.078 C 
ATOM      2  C1' OXE d   1      -0.255  -1.646  -0.079  0.00  0.00     0.078 C 
ATOM      3  C1  OXE d   1       0.987  -2.034   0.683  0.00  0.00    -0.078 A 
ATOM      4  C2  OXE d   1       1.069  -1.646   1.999  0.00  0.00    -0.078 A 
ATOM      5  C3  OXE d   1       2.169  -2.026   2.762  0.00  0.00     0.003 A 
ATOM      6  C4  OXE d   1       3.261  -2.665   2.163  0.00  0.00    -0.002 A 
ATOM      7  C5  OXE d   1       3.216  -3.034   0.814  0.00  0.00    -0.002 A 
ATOM      8  C6  OXE d   1       2.071  -2.764   0.073  0.00  0.00     0.003 A 
ENDROOT
TORSDOF 0
ENDMDL
