MODEL 1
REMARK minimizedAffinity 8.8883791
REMARK minimizedRMSD -1
REMARK  0 active torsions:
REMARK  status: ('A' for Active; 'I' for Inactive)
ROOT
ATOM      1  C2' OXE d   1       2.931  -5.748   5.969  0.00  0.00     0.078 C 
ATOM      2  C1' OXE d   1       5.727  -5.998   5.993  0.00  0.00     0.078 C 
ATOM      3  C1  OXE d   1       5.146  -4.631   5.736  0.00  0.00    -0.078 A 
ATOM      4  C2  OXE d   1       3.777  -4.526   5.680  0.00  0.00    -0.078 A 
ATOM      5  C3  OXE d   1       3.187  -3.278   5.500  0.00  0.00     0.003 A 
ATOM      6  C4  OXE d   1       3.976  -2.155   5.223  0.00  0.00    -0.002 A 
ATOM      7  C5  OXE d   1       5.372  -2.247   5.236  0.00  0.00    -0.002 A 
ATOM      8  C6  OXE d   1       5.972  -3.466   5.532  0.00  0.00     0.003 A 
ENDROOT
TORSDOF 0
ENDMDL
