MODEL 1
REMARK minimizedAffinity 5.71219969
REMARK minimizedRMSD -1
REMARK  3 active torsions:
REMARK  status: ('A' for Active; 'I' for Inactive)
REMARK    1  A    between atoms: C3'_2  and  C2'_3 
REMARK    2  A    between atoms: C2'_3  and  C1'_4 
REMARK    3  A    between atoms: C1'_4  and  C1_5 
ROOT
ATOM      1  C1  N4B d   1       3.729  -5.103  -2.115  0.00  0.00    -0.075 A 
ATOM      2  C2  N4B d   1       4.881  -5.628  -1.488  0.00  0.00     0.002 A 
ATOM      3  C3  N4B d   1       6.000  -5.910  -2.232  0.00  0.00     0.002 A 
ATOM      4  C4  N4B d   1       5.985  -5.693  -3.602  0.00  0.00    -0.004 A 
ATOM      5  C5  N4B d   1       4.878  -5.162  -4.196  0.00  0.00     0.002 A 
ATOM      6  C6  N4B d   1       3.747  -4.871  -3.460  0.00  0.00     0.002 A 
ENDROOT
BRANCH   1   7
ATOM      7  C1' N4B d   1       2.453  -4.861  -1.357  0.00  0.00     0.057 C 
BRANCH   7   8
ATOM      8  C2' N4B d   1       1.283  -4.849  -2.337  0.00  0.00     0.009 C 
BRANCH   8   9
ATOM      9  C3' N4B d   1       0.031  -4.251  -1.720  0.00  0.00     0.004 C 
ATOM     10  C4' N4B d   1      -1.079  -5.249  -1.575  0.00  0.00     0.003 C 
ENDBRANCH   8   9
ENDBRANCH   7   8
ENDBRANCH   1   7
TORSDOF 3
ENDMDL
