MODEL 1
REMARK minimizedAffinity 10.5519476
REMARK minimizedRMSD -1
REMARK  3 active torsions:
REMARK  status: ('A' for Active; 'I' for Inactive)
REMARK    1  A    between atoms: C3'_2  and  C2'_3 
REMARK    2  A    between atoms: C2'_3  and  C1'_4 
REMARK    3  A    between atoms: C1'_4  and  C1_5 
ROOT
ATOM      1  C1  N4B d   1       2.503   1.630   1.900  0.00  0.00    -0.075 A 
ATOM      2  C2  N4B d   1       2.988   2.121   0.668  0.00  0.00     0.002 A 
ATOM      3  C3  N4B d   1       2.109   2.453  -0.333  0.00  0.00     0.002 A 
ATOM      4  C4  N4B d   1       0.747   2.285  -0.133  0.00  0.00    -0.004 A 
ATOM      5  C5  N4B d   1       0.285   1.835   1.070  0.00  0.00     0.002 A 
ATOM      6  C6  N4B d   1       1.157   1.501   2.086  0.00  0.00     0.002 A 
ENDROOT
BRANCH   1   7
ATOM      7  C1' N4B d   1       3.430   1.173   2.993  0.00  0.00     0.057 C 
BRANCH   7   8
ATOM      8  C2' N4B d   1       4.088   2.391   3.634  0.00  0.00     0.009 C 
BRANCH   8   9
ATOM      9  C3' N4B d   1       5.463   2.067   4.192  0.00  0.00     0.004 C 
ATOM     10  C4' N4B d   1       5.990   3.139   5.099  0.00  0.00     0.003 C 
ENDBRANCH   8   9
ENDBRANCH   7   8
ENDBRANCH   1   7
TORSDOF 3
ENDMDL
