MODEL 1
REMARK minimizedAffinity 3.04430199
REMARK minimizedRMSD -1
REMARK  3 active torsions:
REMARK  status: ('A' for Active; 'I' for Inactive)
REMARK    1  A    between atoms: C3'_2  and  C2'_3 
REMARK    2  A    between atoms: C2'_3  and  C1'_4 
REMARK    3  A    between atoms: C1'_4  and  C1_5 
ROOT
ATOM      1  C1  N4B d   1      -3.361   3.336  -5.573  0.00  0.00    -0.075 A 
ATOM      2  C2  N4B d   1      -3.688   2.162  -4.861  0.00  0.00     0.002 A 
ATOM      3  C3  N4B d   1      -5.002   1.865  -4.593  0.00  0.00     0.002 A 
ATOM      4  C4  N4B d   1      -6.000   2.733  -5.011  0.00  0.00    -0.004 A 
ATOM      5  C5  N4B d   1      -5.677   3.852  -5.721  0.00  0.00     0.002 A 
ATOM      6  C6  N4B d   1      -4.361   4.161  -6.000  0.00  0.00     0.002 A 
ENDROOT
BRANCH   1   7
ATOM      7  C1' N4B d   1      -1.934   3.746  -5.815  0.00  0.00     0.057 C 
BRANCH   7   8
ATOM      8  C2' N4B d   1      -1.186   3.764  -4.485  0.00  0.00     0.009 C 
BRANCH   8   9
ATOM      9  C3' N4B d   1      -1.291   2.435  -3.756  0.00  0.00     0.004 C 
ATOM     10  C4' N4B d   1       0.039   1.920  -3.292  0.00  0.00     0.003 C 
ENDBRANCH   8   9
ENDBRANCH   7   8
ENDBRANCH   1   7
TORSDOF 3
ENDMDL
