MODEL 1
REMARK minimizedAffinity 9.14490509
REMARK minimizedRMSD -1
REMARK  3 active torsions:
REMARK  status: ('A' for Active; 'I' for Inactive)
REMARK    1  A    between atoms: C3'_2  and  C2'_3 
REMARK    2  A    between atoms: C2'_3  and  C1'_4 
REMARK    3  A    between atoms: C1'_4  and  C1_5 
ROOT
ATOM      1  C1  N4B d   1       3.502   3.057   4.118  0.00  0.00    -0.075 A 
ATOM      2  C2  N4B d   1       3.117   3.427   5.426  0.00  0.00     0.002 A 
ATOM      3  C3  N4B d   1       3.637   4.561   6.000  0.00  0.00     0.002 A 
ATOM      4  C4  N4B d   1       4.554   5.327   5.296  0.00  0.00    -0.004 A 
ATOM      5  C5  N4B d   1       4.901   4.977   4.024  0.00  0.00     0.002 A 
ATOM      6  C6  N4B d   1       4.384   3.842   3.433  0.00  0.00     0.002 A 
ENDROOT
BRANCH   1   7
ATOM      7  C1' N4B d   1       3.026   1.780   3.481  0.00  0.00     0.057 C 
BRANCH   7   8
ATOM      8  C2' N4B d   1       3.096   1.921   1.964  0.00  0.00     0.009 C 
BRANCH   8   9
ATOM      9  C3' N4B d   1       1.767   1.603   1.302  0.00  0.00     0.004 C 
ATOM     10  C4' N4B d   1       1.477   2.488   0.126  0.00  0.00     0.003 C 
ENDBRANCH   8   9
ENDBRANCH   7   8
ENDBRANCH   1   7
TORSDOF 3
ENDMDL
