MODEL 1
REMARK minimizedAffinity 6.414217
REMARK minimizedRMSD -1
REMARK  3 active torsions:
REMARK  status: ('A' for Active; 'I' for Inactive)
REMARK    1  A    between atoms: C3'_2  and  C2'_3 
REMARK    2  A    between atoms: C2'_3  and  C1'_4 
REMARK    3  A    between atoms: C1'_4  and  C1_5 
ROOT
ATOM      1  C1  N4B d   1       0.918   2.379   1.781  0.00  0.00    -0.075 A 
ATOM      2  C2  N4B d   1       1.675   2.248   2.965  0.00  0.00     0.002 A 
ATOM      3  C3  N4B d   1       2.978   1.819   2.903  0.00  0.00     0.002 A 
ATOM      4  C4  N4B d   1       3.537   1.498   1.675  0.00  0.00    -0.004 A 
ATOM      5  C5  N4B d   1       2.806   1.652   0.533  0.00  0.00     0.002 A 
ATOM      6  C6  N4B d   1       1.497   2.086   0.580  0.00  0.00     0.002 A 
ENDROOT
BRANCH   1   7
ATOM      7  C1' N4B d   1      -0.537   2.763   1.807  0.00  0.00     0.057 C 
BRANCH   7   8
ATOM      8  C2' N4B d   1      -1.274   1.865   2.796  0.00  0.00     0.009 C 
BRANCH   8   9
ATOM      9  C3' N4B d   1      -1.530   2.568   4.119  0.00  0.00     0.004 C 
ATOM     10  C4' N4B d   1      -1.868   4.019   3.949  0.00  0.00     0.003 C 
ENDBRANCH   8   9
ENDBRANCH   7   8
ENDBRANCH   1   7
TORSDOF 3
ENDMDL
