MODEL 1
REMARK minimizedAffinity 2.6864481
REMARK minimizedRMSD -1
REMARK  3 active torsions:
REMARK  status: ('A' for Active; 'I' for Inactive)
REMARK    1  A    between atoms: C3'_2  and  C2'_3 
REMARK    2  A    between atoms: C2'_3  and  C1'_4 
REMARK    3  A    between atoms: C1'_4  and  C1_5 
ROOT
ATOM      1  C1  N4B d   1       2.558  -5.275  -3.780  0.00  0.00    -0.075 A 
ATOM      2  C2  N4B d   1       3.858  -4.727  -3.716  0.00  0.00     0.002 A 
ATOM      3  C3  N4B d   1       4.702  -4.831  -4.795  0.00  0.00     0.002 A 
ATOM      4  C4  N4B d   1       4.276  -5.493  -5.936  0.00  0.00    -0.004 A 
ATOM      5  C5  N4B d   1       3.010  -5.998  -6.000  0.00  0.00     0.002 A 
ATOM      6  C6  N4B d   1       2.150  -5.897  -4.924  0.00  0.00     0.002 A 
ENDROOT
BRANCH   1   7
ATOM      7  C1' N4B d   1       1.631  -5.260  -2.595  0.00  0.00     0.057 C 
BRANCH   7   8
ATOM      8  C2' N4B d   1       0.582  -4.171  -2.794  0.00  0.00     0.009 C 
BRANCH   8   9
ATOM      9  C3' N4B d   1      -0.035  -3.729  -1.478  0.00  0.00     0.004 C 
ATOM     10  C4' N4B d   1      -1.445  -4.211  -1.307  0.00  0.00     0.003 C 
ENDBRANCH   8   9
ENDBRANCH   7   8
ENDBRANCH   1   7
TORSDOF 3
ENDMDL
