MODEL 1
REMARK minimizedAffinity 5.76709795
REMARK minimizedRMSD -1
REMARK  3 active torsions:
REMARK  status: ('A' for Active; 'I' for Inactive)
REMARK    1  A    between atoms: C3'_2  and  C2'_3 
REMARK    2  A    between atoms: C2'_3  and  C1'_4 
REMARK    3  A    between atoms: C1'_4  and  C1_5 
ROOT
ATOM      1  C1  N4B d   1       4.097  -5.595  -4.853  0.00  0.00    -0.075 A 
ATOM      2  C2  N4B d   1       3.366  -5.266  -3.691  0.00  0.00     0.002 A 
ATOM      3  C3  N4B d   1       1.993  -5.289  -3.714  0.00  0.00     0.002 A 
ATOM      4  C4  N4B d   1       1.332  -5.618  -4.888  0.00  0.00    -0.004 A 
ATOM      5  C5  N4B d   1       2.046  -5.959  -6.000  0.00  0.00     0.002 A 
ATOM      6  C6  N4B d   1       3.427  -5.944  -5.989  0.00  0.00     0.002 A 
ENDROOT
BRANCH   1   7
ATOM      7  C1' N4B d   1       5.598  -5.500  -4.900  0.00  0.00     0.057 C 
BRANCH   7   8
ATOM      8  C2' N4B d   1       6.000  -4.055  -5.181  0.00  0.00     0.009 C 
BRANCH   8   9
ATOM      9  C3' N4B d   1       5.630  -3.129  -4.036  0.00  0.00     0.004 C 
ATOM     10  C4' N4B d   1       5.641  -1.683  -4.431  0.00  0.00     0.003 C 
ENDBRANCH   8   9
ENDBRANCH   7   8
ENDBRANCH   1   7
TORSDOF 3
ENDMDL
