MODEL 1
REMARK minimizedAffinity 15.0162954
REMARK minimizedRMSD -1
REMARK  3 active torsions:
REMARK  status: ('A' for Active; 'I' for Inactive)
REMARK    1  A    between atoms: C3'_2  and  C2'_3 
REMARK    2  A    between atoms: C2'_3  and  C1'_4 
REMARK    3  A    between atoms: C1'_4  and  C1_5 
ROOT
ATOM      1  C1  N4B d   1      -2.297  -3.848   2.883  0.00  0.00    -0.075 A 
ATOM      2  C2  N4B d   1      -3.026  -4.988   2.478  0.00  0.00     0.002 A 
ATOM      3  C3  N4B d   1      -3.275  -5.998   3.375  0.00  0.00     0.002 A 
ATOM      4  C4  N4B d   1      -2.790  -5.899   4.671  0.00  0.00    -0.004 A 
ATOM      5  C5  N4B d   1      -2.109  -4.783   5.061  0.00  0.00     0.002 A 
ATOM      6  C6  N4B d   1      -1.855  -3.759   4.171  0.00  0.00     0.002 A 
ENDROOT
BRANCH   1   7
ATOM      7  C1' N4B d   1      -1.926  -2.758   1.915  0.00  0.00     0.057 C 
BRANCH   7   8
ATOM      8  C2' N4B d   1      -1.086  -3.353   0.788  0.00  0.00     0.009 C 
BRANCH   8   9
ATOM      9  C3' N4B d   1      -1.806  -3.296  -0.548  0.00  0.00     0.004 C 
ATOM     10  C4' N4B d   1      -1.517  -4.485  -1.415  0.00  0.00     0.003 C 
ENDBRANCH   8   9
ENDBRANCH   7   8
ENDBRANCH   1   7
TORSDOF 3
ENDMDL
