MODEL 1
REMARK minimizedAffinity 20.6977787
REMARK minimizedRMSD -1
REMARK  3 active torsions:
REMARK  status: ('A' for Active; 'I' for Inactive)
REMARK    1  A    between atoms: C3'_2  and  C2'_3 
REMARK    2  A    between atoms: C2'_3  and  C1'_4 
REMARK    3  A    between atoms: C1'_4  and  C1_5 
ROOT
ATOM      1  C1  N4B d   1       5.136  -3.179  -3.861  0.00  0.00    -0.075 A 
ATOM      2  C2  N4B d   1       4.190  -3.246  -2.815  0.00  0.00     0.002 A 
ATOM      3  C3  N4B d   1       4.151  -2.259  -1.860  0.00  0.00     0.002 A 
ATOM      4  C4  N4B d   1       5.057  -1.211  -1.919  0.00  0.00    -0.004 A 
ATOM      5  C5  N4B d   1       5.952  -1.141  -2.947  0.00  0.00     0.002 A 
ATOM      6  C6  N4B d   1       5.999  -2.123  -3.916  0.00  0.00     0.002 A 
ENDROOT
BRANCH   1   7
ATOM      7  C1' N4B d   1       5.274  -4.278  -4.879  0.00  0.00     0.057 C 
BRANCH   7   8
ATOM      8  C2' N4B d   1       4.025  -4.307  -5.756  0.00  0.00     0.009 C 
BRANCH   8   9
ATOM      9  C3' N4B d   1       3.469  -5.713  -5.906  0.00  0.00     0.004 C 
ATOM     10  C4' N4B d   1       2.005  -5.795  -5.591  0.00  0.00     0.003 C 
ENDBRANCH   8   9
ENDBRANCH   7   8
ENDBRANCH   1   7
TORSDOF 3
ENDMDL
