MODEL 1
REMARK minimizedAffinity 10.7392044
REMARK minimizedRMSD -1
REMARK  3 active torsions:
REMARK  status: ('A' for Active; 'I' for Inactive)
REMARK    1  A    between atoms: C3'_2  and  C2'_3 
REMARK    2  A    between atoms: C2'_3  and  C1'_4 
REMARK    3  A    between atoms: C1'_4  and  C1_5 
ROOT
ATOM      1  C1  N4B d   1      -2.430  -3.731   0.345  0.00  0.00    -0.075 A 
ATOM      2  C2  N4B d   1      -2.059  -3.517  -1.000  0.00  0.00     0.002 A 
ATOM      3  C3  N4B d   1      -1.538  -4.550  -1.741  0.00  0.00     0.002 A 
ATOM      4  C4  N4B d   1      -1.362  -5.794  -1.155  0.00  0.00    -0.004 A 
ATOM      5  C5  N4B d   1      -1.747  -5.999   0.138  0.00  0.00     0.002 A 
ATOM      6  C6  N4B d   1      -2.275  -4.971   0.893  0.00  0.00     0.002 A 
ENDROOT
BRANCH   1   7
ATOM      7  C1' N4B d   1      -2.924  -2.611   1.220  0.00  0.00     0.057 C 
BRANCH   7   8
ATOM      8  C2' N4B d   1      -1.815  -2.204   2.186  0.00  0.00     0.009 C 
BRANCH   8   9
ATOM      9  C3' N4B d   1      -1.398  -0.756   1.994  0.00  0.00     0.004 C 
ATOM     10  C4' N4B d   1      -2.133   0.185   2.901  0.00  0.00     0.003 C 
ENDBRANCH   8   9
ENDBRANCH   7   8
ENDBRANCH   1   7
TORSDOF 3
ENDMDL
