MODEL 1
REMARK minimizedAffinity 13.3975821
REMARK minimizedRMSD -1
REMARK  3 active torsions:
REMARK  status: ('A' for Active; 'I' for Inactive)
REMARK    1  A    between atoms: C3'_2  and  C2'_3 
REMARK    2  A    between atoms: C2'_3  and  C1'_4 
REMARK    3  A    between atoms: C1'_4  and  C1_5 
ROOT
ATOM      1  C1  N4B d   1       0.967   2.050   1.599  0.00  0.00    -0.075 A 
ATOM      2  C2  N4B d   1       2.016   2.180   2.535  0.00  0.00     0.002 A 
ATOM      3  C3  N4B d   1       3.322   2.167   2.110  0.00  0.00     0.002 A 
ATOM      4  C4  N4B d   1       3.603   2.008   0.761  0.00  0.00    -0.004 A 
ATOM      5  C5  N4B d   1       2.583   1.909  -0.140  0.00  0.00     0.002 A 
ATOM      6  C6  N4B d   1       1.266   1.924   0.273  0.00  0.00     0.002 A 
ENDROOT
BRANCH   1   7
ATOM      7  C1' N4B d   1      -0.473   1.971   2.025  0.00  0.00     0.057 C 
BRANCH   7   8
ATOM      8  C2' N4B d   1      -1.344   2.657   0.976  0.00  0.00     0.009 C 
BRANCH   8   9
ATOM      9  C3' N4B d   1      -2.820   2.587   1.330  0.00  0.00     0.004 C 
ATOM     10  C4' N4B d   1      -3.700   2.447   0.123  0.00  0.00     0.003 C 
ENDBRANCH   8   9
ENDBRANCH   7   8
ENDBRANCH   1   7
TORSDOF 3
ENDMDL
