MODEL 1
REMARK minimizedAffinity 11.991293
REMARK minimizedRMSD -1
REMARK  3 active torsions:
REMARK  status: ('A' for Active; 'I' for Inactive)
REMARK    1  A    between atoms: C3'_2  and  C2'_3 
REMARK    2  A    between atoms: C2'_3  and  C1'_4 
REMARK    3  A    between atoms: C1'_4  and  C1_5 
ROOT
ATOM      1  C1  N4B d   1       2.602   1.831   1.012  0.00  0.00    -0.075 A 
ATOM      2  C2  N4B d   1       3.287   2.118  -0.189  0.00  0.00     0.002 A 
ATOM      3  C3  N4B d   1       4.536   2.687  -0.148  0.00  0.00     0.002 A 
ATOM      4  C4  N4B d   1       5.110   2.994   1.077  0.00  0.00    -0.004 A 
ATOM      5  C5  N4B d   1       4.453   2.690   2.233  0.00  0.00     0.002 A 
ATOM      6  C6  N4B d   1       3.198   2.114   2.207  0.00  0.00     0.002 A 
ENDROOT
BRANCH   1   7
ATOM      7  C1' N4B d   1       1.199   1.288   1.016  0.00  0.00     0.057 C 
BRANCH   7   8
ATOM      8  C2' N4B d   1       0.282   2.266   0.288  0.00  0.00     0.009 C 
BRANCH   8   9
ATOM      9  C3' N4B d   1      -0.988   2.547   1.074  0.00  0.00     0.004 C 
ATOM     10  C4' N4B d   1      -2.121   3.000   0.203  0.00  0.00     0.003 C 
ENDBRANCH   8   9
ENDBRANCH   7   8
ENDBRANCH   1   7
TORSDOF 3
ENDMDL
