MODEL 1
REMARK minimizedAffinity 15.5035467
REMARK minimizedRMSD -1
REMARK  3 active torsions:
REMARK  status: ('A' for Active; 'I' for Inactive)
REMARK    1  A    between atoms: C3'_2  and  C2'_3 
REMARK    2  A    between atoms: C2'_3  and  C1'_4 
REMARK    3  A    between atoms: C1'_4  and  C1_5 
ROOT
ATOM      1  C1  N4B d   1       0.461  -5.192  -2.270  0.00  0.00    -0.075 A 
ATOM      2  C2  N4B d   1      -0.685  -4.406  -2.525  0.00  0.00     0.002 A 
ATOM      3  C3  N4B d   1      -1.743  -4.432  -1.650  0.00  0.00     0.002 A 
ATOM      4  C4  N4B d   1      -1.687  -5.247  -0.529  0.00  0.00    -0.004 A 
ATOM      5  C5  N4B d   1      -0.566  -5.984  -0.278  0.00  0.00     0.002 A 
ATOM      6  C6  N4B d   1       0.507  -5.964  -1.146  0.00  0.00     0.002 A 
ENDROOT
BRANCH   1   7
ATOM      7  C1' N4B d   1       1.608  -5.262  -3.242  0.00  0.00     0.057 C 
BRANCH   7   8
ATOM      8  C2' N4B d   1       1.148  -5.979  -4.508  0.00  0.00     0.009 C 
BRANCH   8   9
ATOM      9  C3' N4B d   1       2.231  -6.000  -5.573  0.00  0.00     0.004 C 
ATOM     10  C4' N4B d   1       3.608  -5.827  -5.006  0.00  0.00     0.003 C 
ENDBRANCH   8   9
ENDBRANCH   7   8
ENDBRANCH   1   7
TORSDOF 3
ENDMDL
