MODEL 1
REMARK minimizedAffinity 3.85698295
REMARK minimizedRMSD -1
REMARK  0 active torsions:
REMARK  status: ('A' for Active; 'I' for Inactive)
ROOT
ATOM      1  C   UNL d   1       0.773  -0.928  -0.181  0.00  0.00     0.124 A 
ATOM      2  C1  UNL d   1       0.287   0.016  -1.075  0.00  0.00     0.062 A 
ATOM      3  C2  UNL d   1      -0.456   1.100  -0.613  0.00  0.00     0.162 A 
ATOM      4  C3  UNL d   1      -0.715   1.246   0.749  0.00  0.00    -0.034 A 
ATOM      5  C4  UNL d   1      -0.223   0.292   1.642  0.00  0.00     0.162 A 
ATOM      6  C5  UNL d   1       0.518  -0.789   1.176  0.00  0.00     0.062 A 
ATOM      7  F   UNL d   1       0.988  -1.700   2.041  0.00  0.00    -0.097 F 
ATOM      8  F1  UNL d   1      -0.454   0.402   2.959  0.00  0.00    -0.096 F 
ATOM      9  I   UNL d   1      -1.825   2.864   1.443  0.00  0.00    -0.060 I 
ATOM     10  F2  UNL d   1      -0.913   1.996  -1.499  0.00  0.00    -0.096 F 
ATOM     11  F3  UNL d   1       0.531  -0.116  -2.386  0.00  0.00    -0.097 F 
ATOM     12  F4  UNL d   1       1.487  -1.969  -0.627  0.00  0.00    -0.092 F 
ENDROOT
TORSDOF 0
ENDMDL
