MODEL 1
REMARK minimizedAffinity -3.99206972
REMARK minimizedRMSD -1
REMARK  0 active torsions:
REMARK  status: ('A' for Active; 'I' for Inactive)
ROOT
ATOM      1  C   UNL d   1      -1.481   2.757   0.648  0.00  0.00     0.124 A 
ATOM      2  C1  UNL d   1      -1.719   1.489   1.159  0.00  0.00     0.062 A 
ATOM      3  C2  UNL d   1      -1.058   0.385   0.629  0.00  0.00     0.162 A 
ATOM      4  C3  UNL d   1      -0.151   0.544  -0.418  0.00  0.00    -0.034 A 
ATOM      5  C4  UNL d   1       0.084   1.822  -0.927  0.00  0.00     0.162 A 
ATOM      6  C5  UNL d   1      -0.580   2.923  -0.394  0.00  0.00     0.062 A 
ATOM      7  F   UNL d   1      -0.348   4.147  -0.889  0.00  0.00    -0.097 F 
ATOM      8  F1  UNL d   1       0.950   2.011  -1.934  0.00  0.00    -0.096 F 
ATOM      9  I   UNL d   1       0.840  -1.105  -1.214  0.00  0.00    -0.060 I 
ATOM     10  F2  UNL d   1      -1.308  -0.829   1.143  0.00  0.00    -0.096 F 
ATOM     11  F3  UNL d   1      -2.590   1.326   2.166  0.00  0.00    -0.097 F 
ATOM     12  F4  UNL d   1      -2.119   3.817   1.160  0.00  0.00    -0.092 F 
ENDROOT
TORSDOF 0
ENDMDL
