MODEL 1
REMARK minimizedAffinity -0.428041697
REMARK minimizedRMSD -1
REMARK  0 active torsions:
REMARK  status: ('A' for Active; 'I' for Inactive)
ROOT
ATOM      1  C   UNL d   1       0.467  -2.941  -2.407  0.00  0.00     0.124 A 
ATOM      2  C1  UNL d   1      -0.485  -2.072  -2.920  0.00  0.00     0.062 A 
ATOM      3  C2  UNL d   1      -0.684  -0.826  -2.333  0.00  0.00     0.162 A 
ATOM      4  C3  UNL d   1       0.072  -0.441  -1.226  0.00  0.00    -0.034 A 
ATOM      5  C4  UNL d   1       1.027  -1.321  -0.715  0.00  0.00     0.162 A 
ATOM      6  C5  UNL d   1       1.222  -2.565  -1.305  0.00  0.00     0.062 A 
ATOM      7  F   UNL d   1       2.143  -3.404  -0.808  0.00  0.00    -0.097 F 
ATOM      8  F1  UNL d   1       1.771  -0.982   0.349  0.00  0.00    -0.096 F 
ATOM      9  I   UNL d   1      -0.223   1.422  -0.345  0.00  0.00    -0.060 I 
ATOM     10  F2  UNL d   1      -1.611  -0.006  -2.850  0.00  0.00    -0.096 F 
ATOM     11  F3  UNL d   1      -1.216  -2.433  -3.984  0.00  0.00    -0.097 F 
ATOM     12  F4  UNL d   1       0.656  -4.140  -2.973  0.00  0.00    -0.092 F 
ENDROOT
TORSDOF 0
ENDMDL
