MODEL 1
REMARK minimizedAffinity -2.64533019
REMARK minimizedRMSD -1
REMARK  0 active torsions:
REMARK  status: ('A' for Active; 'I' for Inactive)
ROOT
ATOM      1  C   UNL d   1      -1.078   2.145   1.342  0.00  0.00     0.124 A 
ATOM      2  C1  UNL d   1      -0.397   2.353   0.151  0.00  0.00     0.062 A 
ATOM      3  C2  UNL d   1       0.129   1.274  -0.553  0.00  0.00     0.162 A 
ATOM      4  C3  UNL d   1      -0.025  -0.025  -0.068  0.00  0.00    -0.034 A 
ATOM      5  C4  UNL d   1      -0.711  -0.226   1.132  0.00  0.00     0.162 A 
ATOM      6  C5  UNL d   1      -1.234   0.856   1.831  0.00  0.00     0.062 A 
ATOM      7  F   UNL d   1      -1.892   0.653   2.982  0.00  0.00    -0.097 F 
ATOM      8  F1  UNL d   1      -0.877  -1.462   1.627  0.00  0.00    -0.096 F 
ATOM      9  I   UNL d   1       0.759  -1.642  -1.117  0.00  0.00    -0.060 I 
ATOM     10  F2  UNL d   1       0.782   1.505  -1.701  0.00  0.00    -0.096 F 
ATOM     11  F3  UNL d   1      -0.244   3.598  -0.323  0.00  0.00    -0.097 F 
ATOM     12  F4  UNL d   1      -1.582   3.186   2.018  0.00  0.00    -0.092 F 
ENDROOT
TORSDOF 0
ENDMDL
