MODEL 1
REMARK minimizedAffinity -2.8509326
REMARK minimizedRMSD -1
REMARK  0 active torsions:
REMARK  status: ('A' for Active; 'I' for Inactive)
ROOT
ATOM      1  C   UNL d   1      -1.259   1.780   0.632  0.00  0.00     0.124 A 
ATOM      2  C1  UNL d   1      -0.382   1.791  -0.443  0.00  0.00     0.062 A 
ATOM      3  C2  UNL d   1       0.308   0.635  -0.796  0.00  0.00     0.162 A 
ATOM      4  C3  UNL d   1       0.123  -0.544  -0.073  0.00  0.00    -0.034 A 
ATOM      5  C4  UNL d   1      -0.761  -0.547   1.008  0.00  0.00     0.162 A 
ATOM      6  C5  UNL d   1      -1.448   0.611   1.357  0.00  0.00     0.062 A 
ATOM      7  F   UNL d   1      -2.296   0.598   2.396  0.00  0.00    -0.097 F 
ATOM      8  F1  UNL d   1      -0.963  -1.663   1.725  0.00  0.00    -0.096 F 
ATOM      9  I   UNL d   1       1.153  -2.275  -0.596  0.00  0.00    -0.060 I 
ATOM     10  F2  UNL d   1       1.150   0.674  -1.839  0.00  0.00    -0.096 F 
ATOM     11  F3  UNL d   1      -0.197   2.919  -1.144  0.00  0.00    -0.097 F 
ATOM     12  F4  UNL d   1      -1.921   2.894   0.970  0.00  0.00    -0.092 F 
ENDROOT
TORSDOF 0
ENDMDL
