MODEL 1
REMARK minimizedAffinity 1.99572301
REMARK minimizedRMSD -1
REMARK  0 active torsions:
REMARK  status: ('A' for Active; 'I' for Inactive)
ROOT
ATOM      1  C   UNL d   1      -0.408   1.826   1.174  0.00  0.00     0.124 A 
ATOM      2  C1  UNL d   1       0.169   1.863  -0.088  0.00  0.00     0.062 A 
ATOM      3  C2  UNL d   1       0.464   0.679  -0.758  0.00  0.00     0.162 A 
ATOM      4  C3  UNL d   1       0.182  -0.553  -0.167  0.00  0.00    -0.034 A 
ATOM      5  C4  UNL d   1      -0.398  -0.582   1.103  0.00  0.00     0.162 A 
ATOM      6  C5  UNL d   1      -0.691   0.604   1.768  0.00  0.00     0.062 A 
ATOM      7  F   UNL d   1      -1.248   0.566   2.987  0.00  0.00    -0.097 F 
ATOM      8  F1  UNL d   1      -0.682  -1.749   1.699  0.00  0.00    -0.096 F 
ATOM      9  I   UNL d   1       0.621  -2.325  -1.166  0.00  0.00    -0.060 I 
ATOM     10  F2  UNL d   1       1.021   0.745  -1.976  0.00  0.00    -0.096 F 
ATOM     11  F3  UNL d   1       0.444   3.042  -0.663  0.00  0.00    -0.097 F 
ATOM     12  F4  UNL d   1      -0.690   2.966   1.817  0.00  0.00    -0.092 F 
ENDROOT
TORSDOF 0
ENDMDL
