MODEL 1
REMARK minimizedAffinity -3.06374931
REMARK minimizedRMSD -1
REMARK  0 active torsions:
REMARK  status: ('A' for Active; 'I' for Inactive)
ROOT
ATOM      1  C   UNL d   1      -1.369   2.160   1.423  0.00  0.00     0.124 A 
ATOM      2  C1  UNL d   1      -1.149   2.210   0.054  0.00  0.00     0.062 A 
ATOM      3  C2  UNL d   1      -0.540   1.140  -0.597  0.00  0.00     0.162 A 
ATOM      4  C3  UNL d   1      -0.148   0.010   0.121  0.00  0.00    -0.034 A 
ATOM      5  C4  UNL d   1      -0.372  -0.032   1.498  0.00  0.00     0.162 A 
ATOM      6  C5  UNL d   1      -0.981   1.039   2.144  0.00  0.00     0.062 A 
ATOM      7  F   UNL d   1      -1.193   0.989   3.467  0.00  0.00    -0.097 F 
ATOM      8  F1  UNL d   1      -0.008  -1.103   2.219  0.00  0.00    -0.096 F 
ATOM      9  I   UNL d   1       0.762  -1.591  -0.848  0.00  0.00    -0.060 I 
ATOM     10  F2  UNL d   1      -0.340   1.216  -1.921  0.00  0.00    -0.096 F 
ATOM     11  F3  UNL d   1      -1.522   3.291  -0.645  0.00  0.00    -0.097 F 
ATOM     12  F4  UNL d   1      -1.954   3.190   2.047  0.00  0.00    -0.092 F 
ENDROOT
TORSDOF 0
ENDMDL
