MODEL 1
REMARK minimizedAffinity -2.05912304
REMARK minimizedRMSD -1
REMARK  0 active torsions:
REMARK  status: ('A' for Active; 'I' for Inactive)
ROOT
ATOM      1  C   UNL d   1      -0.710   1.719   0.431  0.00  0.00     0.124 A 
ATOM      2  C1  UNL d   1      -0.709   0.626   1.287  0.00  0.00     0.062 A 
ATOM      3  C2  UNL d   1      -0.035  -0.539   0.935  0.00  0.00     0.162 A 
ATOM      4  C3  UNL d   1       0.645  -0.619  -0.281  0.00  0.00    -0.034 A 
ATOM      5  C4  UNL d   1       0.639   0.483  -1.137  0.00  0.00     0.162 A 
ATOM      6  C5  UNL d   1      -0.036   1.646  -0.780  0.00  0.00     0.062 A 
ATOM      7  F   UNL d   1      -0.035   2.700  -1.609  0.00  0.00    -0.097 F 
ATOM      8  F1  UNL d   1       1.283   0.441  -2.313  0.00  0.00    -0.096 F 
ATOM      9  I   UNL d   1       1.654  -2.360  -0.812  0.00  0.00    -0.060 I 
ATOM     10  F2  UNL d   1      -0.051  -1.579   1.782  0.00  0.00    -0.096 F 
ATOM     11  F3  UNL d   1      -1.360   0.694   2.457  0.00  0.00    -0.097 F 
ATOM     12  F4  UNL d   1      -1.360   2.839   0.772  0.00  0.00    -0.092 F 
ENDROOT
TORSDOF 0
ENDMDL
