MODEL 1
REMARK minimizedAffinity 3.37420917
REMARK minimizedRMSD -1
REMARK  0 active torsions:
REMARK  status: ('A' for Active; 'I' for Inactive)
ROOT
ATOM      1  C   UNL d   1      -0.661   1.548   0.713  0.00  0.00     0.124 A 
ATOM      2  C1  UNL d   1       0.130   1.545  -0.428  0.00  0.00     0.062 A 
ATOM      3  C2  UNL d   1       0.591   0.343  -0.957  0.00  0.00     0.162 A 
ATOM      4  C3  UNL d   1       0.262  -0.867  -0.345  0.00  0.00    -0.034 A 
ATOM      5  C4  UNL d   1      -0.533  -0.856   0.802  0.00  0.00     0.162 A 
ATOM      6  C5  UNL d   1      -0.991   0.348   1.327  0.00  0.00     0.062 A 
ATOM      7  F   UNL d   1      -1.755   0.349   2.429  0.00  0.00    -0.097 F 
ATOM      8  F1  UNL d   1      -0.868  -2.001   1.415  0.00  0.00    -0.096 F 
ATOM      9  I   UNL d   1       0.949  -2.667  -1.132  0.00  0.00    -0.060 I 
ATOM     10  F2  UNL d   1       1.353   0.369  -2.060  0.00  0.00    -0.096 F 
ATOM     11  F3  UNL d   1       0.451   2.703  -1.022  0.00  0.00    -0.097 F 
ATOM     12  F4  UNL d   1      -1.102   2.706   1.220  0.00  0.00    -0.092 F 
ENDROOT
TORSDOF 0
ENDMDL
