MODEL 1
REMARK minimizedAffinity -3.8692584
REMARK minimizedRMSD -1
REMARK  0 active torsions:
REMARK  status: ('A' for Active; 'I' for Inactive)
ROOT
ATOM      1  C   UNL d   1      -0.726   1.374   0.980  0.00  0.00     0.124 A 
ATOM      2  C1  UNL d   1       0.026   1.383  -0.187  0.00  0.00     0.062 A 
ATOM      3  C2  UNL d   1       0.629   0.213  -0.639  0.00  0.00     0.162 A 
ATOM      4  C3  UNL d   1       0.482  -0.976   0.074  0.00  0.00    -0.034 A 
ATOM      5  C4  UNL d   1      -0.275  -0.977   1.247  0.00  0.00     0.162 A 
ATOM      6  C5  UNL d   1      -0.876   0.195   1.695  0.00  0.00     0.062 A 
ATOM      7  F   UNL d   1      -1.602   0.185   2.823  0.00  0.00    -0.097 F 
ATOM      8  F1  UNL d   1      -0.437  -2.103   1.958  0.00  0.00    -0.096 F 
ATOM      9  I   UNL d   1       1.382  -2.728  -0.599  0.00  0.00    -0.060 I 
ATOM     10  F2  UNL d   1       1.350   0.251  -1.770  0.00  0.00    -0.096 F 
ATOM     11  F3  UNL d   1       0.173   2.521  -0.880  0.00  0.00    -0.097 F 
ATOM     12  F4  UNL d   1      -1.305   2.502   1.413  0.00  0.00    -0.092 F 
ENDROOT
TORSDOF 0
ENDMDL
