MODEL 1
REMARK minimizedAffinity -2.9627223
REMARK minimizedRMSD -1
REMARK  0 active torsions:
REMARK  status: ('A' for Active; 'I' for Inactive)
ROOT
ATOM      1  C   UNL d   1      -0.903   1.788   0.505  0.00  0.00     0.124 A 
ATOM      2  C1  UNL d   1      -0.840   0.682   1.340  0.00  0.00     0.062 A 
ATOM      3  C2  UNL d   1      -0.046  -0.409   0.998  0.00  0.00     0.162 A 
ATOM      4  C3  UNL d   1       0.693  -0.399  -0.185  0.00  0.00    -0.034 A 
ATOM      5  C4  UNL d   1       0.624   0.718  -1.020  0.00  0.00     0.162 A 
ATOM      6  C5  UNL d   1      -0.171   1.806  -0.674  0.00  0.00     0.062 A 
ATOM      7  F   UNL d   1      -0.231   2.874  -1.482  0.00  0.00    -0.097 F 
ATOM      8  F1  UNL d   1       1.321   0.761  -2.165  0.00  0.00    -0.096 F 
ATOM      9  I   UNL d   1       1.881  -2.028  -0.700  0.00  0.00    -0.060 I 
ATOM     10  F2  UNL d   1      -0.005  -1.465   1.824  0.00  0.00    -0.096 F 
ATOM     11  F3  UNL d   1      -1.547   0.662   2.480  0.00  0.00    -0.097 F 
ATOM     12  F4  UNL d   1      -1.668   2.836   0.836  0.00  0.00    -0.092 F 
ENDROOT
TORSDOF 0
ENDMDL
