MODEL 1
REMARK minimizedAffinity -3.95353055
REMARK minimizedRMSD -1
REMARK  0 active torsions:
REMARK  status: ('A' for Active; 'I' for Inactive)
ROOT
ATOM      1  C   UNL d   1      -1.747   1.122   1.550  0.00  0.00     0.124 A 
ATOM      2  C1  UNL d   1      -1.618   2.030   0.508  0.00  0.00     0.062 A 
ATOM      3  C2  UNL d   1      -0.570   1.909  -0.400  0.00  0.00     0.162 A 
ATOM      4  C3  UNL d   1       0.357   0.874  -0.271  0.00  0.00    -0.034 A 
ATOM      5  C4  UNL d   1       0.221  -0.034   0.780  0.00  0.00     0.162 A 
ATOM      6  C5  UNL d   1      -0.828   0.092   1.685  0.00  0.00     0.062 A 
ATOM      7  F   UNL d   1      -0.951  -0.786   2.691  0.00  0.00    -0.097 F 
ATOM      8  F1  UNL d   1       1.095  -1.040   0.934  0.00  0.00    -0.096 F 
ATOM      9  I   UNL d   1       1.925   0.689  -1.627  0.00  0.00    -0.060 I 
ATOM     10  F2  UNL d   1      -0.469   2.800  -1.397  0.00  0.00    -0.096 F 
ATOM     11  F3  UNL d   1      -2.504   3.028   0.376  0.00  0.00    -0.097 F 
ATOM     12  F4  UNL d   1      -2.755   1.242   2.423  0.00  0.00    -0.092 F 
ENDROOT
TORSDOF 0
ENDMDL
