MODEL 1
REMARK minimizedAffinity 1.23265672
REMARK minimizedRMSD -1
REMARK  0 active torsions:
REMARK  status: ('A' for Active; 'I' for Inactive)
ROOT
ATOM      1  C   UNL d   1      -0.616   2.549  -0.840  0.00  0.00     0.124 A 
ATOM      2  C1  UNL d   1      -1.411   2.275   0.264  0.00  0.00     0.062 A 
ATOM      3  C2  UNL d   1      -1.133   1.176   1.072  0.00  0.00     0.162 A 
ATOM      4  C3  UNL d   1      -0.054   0.342   0.779  0.00  0.00    -0.034 A 
ATOM      5  C4  UNL d   1       0.741   0.624  -0.334  0.00  0.00     0.162 A 
ATOM      6  C5  UNL d   1       0.459   1.723  -1.138  0.00  0.00     0.062 A 
ATOM      7  F   UNL d   1       1.228   1.986  -2.205  0.00  0.00    -0.097 F 
ATOM      8  F1  UNL d   1       1.786  -0.157  -0.644  0.00  0.00    -0.096 F 
ATOM      9  I   UNL d   1       0.366  -1.302   1.984  0.00  0.00    -0.060 I 
ATOM     10  F2  UNL d   1      -1.918   0.935   2.133  0.00  0.00    -0.096 F 
ATOM     11  F3  UNL d   1      -2.451   3.070   0.554  0.00  0.00    -0.097 F 
ATOM     12  F4  UNL d   1      -0.887   3.606  -1.616  0.00  0.00    -0.092 F 
ENDROOT
TORSDOF 0
ENDMDL
