MODEL 1
REMARK minimizedAffinity -1.42667544
REMARK minimizedRMSD -1
REMARK  0 active torsions:
REMARK  status: ('A' for Active; 'I' for Inactive)
ROOT
ATOM      1  C   UNL d   1       0.723  -0.887  -0.301  0.00  0.00     0.124 A 
ATOM      2  C1  UNL d   1       0.498   0.195  -1.141  0.00  0.00     0.062 A 
ATOM      3  C2  UNL d   1      -0.307   1.250  -0.722  0.00  0.00     0.162 A 
ATOM      4  C3  UNL d   1      -0.893   1.230   0.543  0.00  0.00    -0.034 A 
ATOM      5  C4  UNL d   1      -0.663   0.137   1.382  0.00  0.00     0.162 A 
ATOM      6  C5  UNL d   1       0.142  -0.915   0.959  0.00  0.00     0.062 A 
ATOM      7  F   UNL d   1       0.358  -1.960   1.772  0.00  0.00    -0.097 F 
ATOM      8  F1  UNL d   1      -1.211   0.085   2.605  0.00  0.00    -0.096 F 
ATOM      9  I   UNL d   1      -2.097   2.806   1.172  0.00  0.00    -0.060 I 
ATOM     10  F2  UNL d   1      -0.506   2.283  -1.555  0.00  0.00    -0.096 F 
ATOM     11  F3  UNL d   1       1.058   0.224  -2.359  0.00  0.00    -0.097 F 
ATOM     12  F4  UNL d   1       1.497  -1.902  -0.706  0.00  0.00    -0.092 F 
ENDROOT
TORSDOF 0
ENDMDL
