MODEL 1
REMARK minimizedAffinity 9.81458855
REMARK minimizedRMSD -1
REMARK  0 active torsions:
REMARK  status: ('A' for Active; 'I' for Inactive)
ROOT
ATOM      1  C2' OXE d   1       4.301  -0.461   0.210  0.00  0.00     0.078 C 
ATOM      2  C1' OXE d   1       5.146  -2.296   2.159  0.00  0.00     0.078 C 
ATOM      3  C1  OXE d   1       3.681  -1.940   2.116  0.00  0.00    -0.078 A 
ATOM      4  C2  OXE d   1       3.284  -1.007   1.189  0.00  0.00    -0.078 A 
ATOM      5  C3  OXE d   1       1.935  -0.684   1.071  0.00  0.00     0.003 A 
ATOM      6  C4  OXE d   1       1.003  -1.185   1.987  0.00  0.00    -0.002 A 
ATOM      7  C5  OXE d   1       1.393  -2.107   2.964  0.00  0.00    -0.002 A 
ATOM      8  C6  OXE d   1       2.718  -2.527   3.015  0.00  0.00     0.003 A 
ENDROOT
TORSDOF 0
ENDMDL
