MODEL 1
REMARK minimizedAffinity 16.6816959
REMARK minimizedRMSD -1
REMARK  0 active torsions:
REMARK  status: ('A' for Active; 'I' for Inactive)
ROOT
ATOM      1  C2' OXE d   1       4.940  -2.328   1.603  0.00  0.00     0.078 C 
ATOM      2  C1' OXE d   1       2.823  -3.836   2.664  0.00  0.00     0.078 C 
ATOM      3  C1  OXE d   1       2.490  -2.514   2.017  0.00  0.00    -0.078 A 
ATOM      4  C2  OXE d   1       3.537  -1.761   1.543  0.00  0.00    -0.078 A 
ATOM      5  C3  OXE d   1       3.281  -0.560   0.888  0.00  0.00     0.003 A 
ATOM      6  C4  OXE d   1       1.982  -0.039   0.845  0.00  0.00    -0.002 A 
ATOM      7  C5  OXE d   1       0.906  -0.771   1.358  0.00  0.00    -0.002 A 
ATOM      8  C6  OXE d   1       1.137  -2.027   1.908  0.00  0.00     0.003 A 
ENDROOT
TORSDOF 0
ENDMDL
