MODEL 1
REMARK minimizedAffinity 15.5525532
REMARK minimizedRMSD -1
REMARK  0 active torsions:
REMARK  status: ('A' for Active; 'I' for Inactive)
ROOT
ATOM      1  C2' OXE d   1       2.680  -0.734   0.191  0.00  0.00     0.078 C 
ATOM      2  C1' OXE d   1       0.663   0.580   1.636  0.00  0.00     0.078 C 
ATOM      3  C1  OXE d   1       1.226  -0.694   2.214  0.00  0.00    -0.078 A 
ATOM      4  C2  OXE d   1       2.179  -1.355   1.478  0.00  0.00    -0.078 A 
ATOM      5  C3  OXE d   1       2.771  -2.506   1.990  0.00  0.00     0.003 A 
ATOM      6  C4  OXE d   1       2.295  -3.080   3.176  0.00  0.00    -0.002 A 
ATOM      7  C5  OXE d   1       1.297  -2.444   3.921  0.00  0.00    -0.002 A 
ATOM      8  C6  OXE d   1       0.783  -1.231   3.477  0.00  0.00     0.003 A 
ENDROOT
TORSDOF 0
ENDMDL
