MODEL 1
REMARK minimizedAffinity 11.5203571
REMARK minimizedRMSD -1
REMARK  0 active torsions:
REMARK  status: ('A' for Active; 'I' for Inactive)
ROOT
ATOM      1  C2' OXE d   1      -2.493   3.383  -0.810  0.00  0.00     0.078 C 
ATOM      2  C1' OXE d   1      -2.419   2.634   1.895  0.00  0.00     0.078 C 
ATOM      3  C1  OXE d   1      -3.697   3.234   1.366  0.00  0.00    -0.078 A 
ATOM      4  C2  OXE d   1      -3.709   3.641   0.053  0.00  0.00    -0.078 A 
ATOM      5  C3  OXE d   1      -4.880   4.151  -0.500  0.00  0.00     0.003 A 
ATOM      6  C4  OXE d   1      -5.998   4.396   0.307  0.00  0.00    -0.002 A 
ATOM      7  C5  OXE d   1      -5.993   4.026   1.656  0.00  0.00    -0.002 A 
ATOM      8  C6  OXE d   1      -4.868   3.406   2.190  0.00  0.00     0.003 A 
ENDROOT
TORSDOF 0
ENDMDL
