MODEL 1
REMARK minimizedAffinity 12.047554
REMARK minimizedRMSD -1
REMARK  0 active torsions:
REMARK  status: ('A' for Active; 'I' for Inactive)
ROOT
ATOM      1  C2' OXE d   1      -3.617  -1.993  -4.090  0.00  0.00     0.078 C 
ATOM      2  C1' OXE d   1      -5.989  -1.848  -5.584  0.00  0.00     0.078 C 
ATOM      3  C1  OXE d   1      -5.351  -3.203  -5.406  0.00  0.00    -0.078 A 
ATOM      4  C2  OXE d   1      -4.166  -3.258  -4.713  0.00  0.00    -0.078 A 
ATOM      5  C3  OXE d   1      -3.564  -4.490  -4.473  0.00  0.00     0.003 A 
ATOM      6  C4  OXE d   1      -4.073  -5.654  -5.062  0.00  0.00    -0.002 A 
ATOM      7  C5  OXE d   1      -5.257  -5.614  -5.805  0.00  0.00    -0.002 A 
ATOM      8  C6  OXE d   1      -5.930  -4.406  -5.950  0.00  0.00     0.003 A 
ENDROOT
TORSDOF 0
ENDMDL
