MODEL 1
REMARK minimizedAffinity 12.2778902
REMARK minimizedRMSD -1
REMARK  0 active torsions:
REMARK  status: ('A' for Active; 'I' for Inactive)
ROOT
ATOM      1  C2' OXE d   1      -2.962   2.838   1.189  0.00  0.00     0.078 C 
ATOM      2  C1' OXE d   1      -4.845   3.797  -0.659  0.00  0.00     0.078 C 
ATOM      3  C1  OXE d   1      -3.858   2.760  -1.134  0.00  0.00    -0.078 A 
ATOM      4  C2  OXE d   1      -2.911   2.330  -0.236  0.00  0.00    -0.078 A 
ATOM      5  C3  OXE d   1      -2.011   1.335  -0.606  0.00  0.00     0.003 A 
ATOM      6  C4  OXE d   1      -1.964   0.878  -1.928  0.00  0.00    -0.002 A 
ATOM      7  C5  OXE d   1      -2.894   1.331  -2.870  0.00  0.00    -0.002 A 
ATOM      8  C6  OXE d   1      -3.873   2.238  -2.478  0.00  0.00     0.003 A 
ENDROOT
TORSDOF 0
ENDMDL
