MODEL 1
REMARK minimizedAffinity 8.81725979
REMARK minimizedRMSD -1
REMARK  0 active torsions:
REMARK  status: ('A' for Active; 'I' for Inactive)
ROOT
ATOM      1  C2' OXE d   1       3.766  -0.388  -0.007  0.00  0.00     0.078 C 
ATOM      2  C1' OXE d   1       4.639  -2.377   1.770  0.00  0.00     0.078 C 
ATOM      3  C1  OXE d   1       3.201  -1.935   1.862  0.00  0.00    -0.078 A 
ATOM      4  C2  OXE d   1       2.794  -0.928   1.020  0.00  0.00    -0.078 A 
ATOM      5  C3  OXE d   1       1.463  -0.520   1.025  0.00  0.00     0.003 A 
ATOM      6  C4  OXE d   1       0.573  -1.017   1.985  0.00  0.00    -0.002 A 
ATOM      7  C5  OXE d   1       0.977  -2.015   2.878  0.00  0.00    -0.002 A 
ATOM      8  C6  OXE d   1       2.273  -2.514   2.802  0.00  0.00     0.003 A 
ENDROOT
TORSDOF 0
ENDMDL
