MODEL 1
REMARK minimizedAffinity 10.0745029
REMARK minimizedRMSD -1
REMARK  0 active torsions:
REMARK  status: ('A' for Active; 'I' for Inactive)
ROOT
ATOM      1  C2' OXE d   1       0.446  -2.797   5.041  0.00  0.00     0.078 C 
ATOM      2  C1' OXE d   1       0.571  -2.794   2.237  0.00  0.00     0.078 C 
ATOM      3  C1  OXE d   1       0.843  -1.495   2.955  0.00  0.00    -0.078 A 
ATOM      4  C2  OXE d   1       0.733  -1.495   4.325  0.00  0.00    -0.078 A 
ATOM      5  C3  OXE d   1       1.027  -0.337   5.039  0.00  0.00     0.003 A 
ATOM      6  C4  OXE d   1       1.283   0.865   4.368  0.00  0.00    -0.002 A 
ATOM      7  C5  OXE d   1       1.360   0.895   2.972  0.00  0.00    -0.002 A 
ATOM      8  C6  OXE d   1       1.185  -0.282   2.254  0.00  0.00     0.003 A 
ENDROOT
TORSDOF 0
ENDMDL
