MODEL 1
REMARK minimizedAffinity 6.04343319
REMARK minimizedRMSD -1
REMARK  0 active torsions:
REMARK  status: ('A' for Active; 'I' for Inactive)
ROOT
ATOM      1  C2' OXE d   1       2.690  -0.822   1.004  0.00  0.00     0.078 C 
ATOM      2  C1' OXE d   1       1.425   0.781   2.930  0.00  0.00     0.078 C 
ATOM      3  C1  OXE d   1       1.268  -0.714   3.047  0.00  0.00    -0.078 A 
ATOM      4  C2  OXE d   1       1.851  -1.489   2.073  0.00  0.00    -0.078 A 
ATOM      5  C3  OXE d   1       1.783  -2.877   2.163  0.00  0.00     0.003 A 
ATOM      6  C4  OXE d   1       0.997  -3.485   3.150  0.00  0.00    -0.002 A 
ATOM      7  C5  OXE d   1       0.362  -2.713   4.128  0.00  0.00    -0.002 A 
ATOM      8  C6  OXE d   1       0.522  -1.331   4.116  0.00  0.00     0.003 A 
ENDROOT
TORSDOF 0
ENDMDL
