MODEL 1
REMARK minimizedAffinity -0.814336061
REMARK minimizedRMSD -1
REMARK  0 active torsions:
REMARK  status: ('A' for Active; 'I' for Inactive)
ROOT
ATOM      1  C2' OXE d   1       2.993   4.361  -2.236  0.00  0.00     0.078 C 
ATOM      2  C1' OXE d   1       5.247   5.850  -1.474  0.00  0.00     0.078 C 
ATOM      3  C1  OXE d   1       5.072   5.539  -2.940  0.00  0.00    -0.078 A 
ATOM      4  C2  OXE d   1       3.991   4.770  -3.298  0.00  0.00    -0.078 A 
ATOM      5  C3  OXE d   1       3.753   4.500  -4.642  0.00  0.00     0.003 A 
ATOM      6  C4  OXE d   1       4.686   4.873  -5.617  0.00  0.00    -0.002 A 
ATOM      7  C5  OXE d   1       5.815   5.623  -5.268  0.00  0.00    -0.002 A 
ATOM      8  C6  OXE d   1       6.000   6.000  -3.943  0.00  0.00     0.003 A 
ENDROOT
TORSDOF 0
ENDMDL
