MODEL 1
REMARK minimizedAffinity 2.80682516
REMARK minimizedRMSD -1
REMARK  0 active torsions:
REMARK  status: ('A' for Active; 'I' for Inactive)
ROOT
ATOM      1  C2' OXE d   1       1.085  -1.687   3.938  0.00  0.00     0.078 C 
ATOM      2  C1' OXE d   1       3.094  -3.077   2.556  0.00  0.00     0.078 C 
ATOM      3  C1  OXE d   1       2.861  -1.632   2.193  0.00  0.00    -0.078 A 
ATOM      4  C2  OXE d   1       1.845  -0.973   2.842  0.00  0.00    -0.078 A 
ATOM      5  C3  OXE d   1       1.623   0.377   2.584  0.00  0.00     0.003 A 
ATOM      6  C4  OXE d   1       2.324   1.028   1.561  0.00  0.00    -0.002 A 
ATOM      7  C5  OXE d   1       3.337   0.364   0.861  0.00  0.00    -0.002 A 
ATOM      8  C6  OXE d   1       3.646  -0.950   1.193  0.00  0.00     0.003 A 
ENDROOT
TORSDOF 0
ENDMDL
