MODEL 1
REMARK minimizedAffinity -0.0221714098
REMARK minimizedRMSD -1
REMARK  2 active torsions:
REMARK  status: ('A' for Active; 'I' for Inactive)
REMARK    1  A    between atoms: C1_2  and  C2_3 
REMARK    2  A    between atoms: C2_3  and  C3_4 
ROOT
ATOM      1  C3  UNL d   1      -5.933   5.173   3.420  0.00  0.00    -0.075 A 
ATOM      2  C4  UNL d   1      -5.857   3.784   3.598  0.00  0.00     0.002 A 
ATOM      3  C5  UNL d   1      -5.843   3.235   4.880  0.00  0.00     0.002 A 
ATOM      4  C6  UNL d   1      -5.893   4.065   5.998  0.00  0.00    -0.004 A 
ATOM      5  C7  UNL d   1      -5.952   5.447   5.833  0.00  0.00     0.002 A 
ATOM      6  C8  UNL d   1      -5.971   6.000   4.551  0.00  0.00     0.002 A 
ENDROOT
BRANCH   1   7
ATOM      7  C2  UNL d   1      -5.979   5.773   2.034  0.00  0.00     0.056 C 
BRANCH   7   8
ATOM      8  C1  UNL d   1      -5.163   5.000   0.993  0.00  0.00     0.007 C 
ATOM      9  C   UNL d   1      -5.921   3.827   0.386  0.00  0.00     0.009 C 
ENDBRANCH   7   8
ENDBRANCH   1   7
TORSDOF 2
ENDMDL
