MODEL 1
REMARK minimizedAffinity -3.26009059
REMARK minimizedRMSD -1
REMARK  2 active torsions:
REMARK  status: ('A' for Active; 'I' for Inactive)
REMARK    1  A    between atoms: C1_2  and  C2_3 
REMARK    2  A    between atoms: C2_3  and  C3_4 
ROOT
ATOM      1  C3  UNL d   1      -5.274   4.695   3.912  0.00  0.00    -0.075 A 
ATOM      2  C4  UNL d   1      -5.998   3.822   3.086  0.00  0.00     0.002 A 
ATOM      3  C5  UNL d   1      -5.990   3.987   1.701  0.00  0.00     0.002 A 
ATOM      4  C6  UNL d   1      -5.269   5.030   1.125  0.00  0.00    -0.004 A 
ATOM      5  C7  UNL d   1      -4.560   5.914   1.936  0.00  0.00     0.002 A 
ATOM      6  C8  UNL d   1      -4.562   5.748   3.322  0.00  0.00     0.002 A 
ENDROOT
BRANCH   1   7
ATOM      7  C2  UNL d   1      -5.255   4.504   5.409  0.00  0.00     0.056 C 
BRANCH   7   8
ATOM      8  C1  UNL d   1      -4.566   3.213   5.865  0.00  0.00     0.007 C 
ATOM      9  C   UNL d   1      -3.056   3.354   6.000  0.00  0.00     0.009 C 
ENDBRANCH   7   8
ENDBRANCH   1   7
TORSDOF 2
ENDMDL
