MODEL 1
REMARK minimizedAffinity -3.01092339
REMARK minimizedRMSD -1
REMARK  2 active torsions:
REMARK  status: ('A' for Active; 'I' for Inactive)
REMARK    1  A    between atoms: C1_2  and  C2_3 
REMARK    2  A    between atoms: C2_3  and  C3_4 
ROOT
ATOM      1  C3  UNL d   1      -4.918   4.485   4.328  0.00  0.00    -0.075 A 
ATOM      2  C4  UNL d   1      -5.159   3.105   4.395  0.00  0.00     0.002 A 
ATOM      3  C5  UNL d   1      -4.390   2.291   5.227  0.00  0.00     0.002 A 
ATOM      4  C6  UNL d   1      -3.366   2.842   5.993  0.00  0.00    -0.004 A 
ATOM      5  C7  UNL d   1      -3.106   4.209   5.922  0.00  0.00     0.002 A 
ATOM      6  C8  UNL d   1      -3.877   5.027   5.094  0.00  0.00     0.002 A 
ENDROOT
BRANCH   1   7
ATOM      7  C2  UNL d   1      -5.765   5.376   3.452  0.00  0.00     0.056 C 
BRANCH   7   8
ATOM      8  C1  UNL d   1      -5.055   5.863   2.185  0.00  0.00     0.007 C 
ATOM      9  C   UNL d   1      -5.326   4.985   0.970  0.00  0.00     0.009 C 
ENDBRANCH   7   8
ENDBRANCH   1   7
TORSDOF 2
ENDMDL
