MODEL 1
REMARK minimizedAffinity 8.10287094
REMARK minimizedRMSD -1
REMARK  2 active torsions:
REMARK  status: ('A' for Active; 'I' for Inactive)
REMARK    1  A    between atoms: C1_2  and  C2_3 
REMARK    2  A    between atoms: C2_3  and  C3_4 
ROOT
ATOM      1  C3  UNL d   1       2.987   2.862   0.211  0.00  0.00    -0.075 A 
ATOM      2  C4  UNL d   1       3.755   3.977  -0.155  0.00  0.00     0.002 A 
ATOM      3  C5  UNL d   1       4.451   3.992  -1.364  0.00  0.00     0.002 A 
ATOM      4  C6  UNL d   1       4.397   2.890  -2.216  0.00  0.00    -0.004 A 
ATOM      5  C7  UNL d   1       3.651   1.771  -1.854  0.00  0.00     0.002 A 
ATOM      6  C8  UNL d   1       2.950   1.755  -0.647  0.00  0.00     0.002 A 
ENDROOT
BRANCH   1   7
ATOM      7  C2  UNL d   1       2.208   2.852   1.505  0.00  0.00     0.056 C 
BRANCH   7   8
ATOM      8  C1  UNL d   1       3.029   3.267   2.731  0.00  0.00     0.007 C 
ATOM      9  C   UNL d   1       2.935   2.273   3.880  0.00  0.00     0.009 C 
ENDBRANCH   7   8
ENDBRANCH   1   7
TORSDOF 2
ENDMDL
