MODEL 1
REMARK minimizedAffinity 3.13912368
REMARK minimizedRMSD -1
REMARK  2 active torsions:
REMARK  status: ('A' for Active; 'I' for Inactive)
REMARK    1  A    between atoms: C1_2  and  C2_3 
REMARK    2  A    between atoms: C2_3  and  C3_4 
ROOT
ATOM      1  C3  UNL d   1      -4.747   5.405   3.437  0.00  0.00    -0.075 A 
ATOM      2  C4  UNL d   1      -3.568   5.700   2.737  0.00  0.00     0.002 A 
ATOM      3  C5  UNL d   1      -3.608   6.000   1.375  0.00  0.00     0.002 A 
ATOM      4  C6  UNL d   1      -4.823   5.998   0.694  0.00  0.00    -0.004 A 
ATOM      5  C7  UNL d   1      -5.999   5.691   1.375  0.00  0.00     0.002 A 
ATOM      6  C8  UNL d   1      -5.963   5.395   2.739  0.00  0.00     0.002 A 
ENDROOT
BRANCH   1   7
ATOM      7  C2  UNL d   1      -4.714   5.109   4.917  0.00  0.00     0.056 C 
BRANCH   7   8
ATOM      8  C1  UNL d   1      -4.229   3.697   5.260  0.00  0.00     0.007 C 
ATOM      9  C   UNL d   1      -4.452   2.695   4.134  0.00  0.00     0.009 C 
ENDBRANCH   7   8
ENDBRANCH   1   7
TORSDOF 2
ENDMDL
