MODEL 1
REMARK minimizedAffinity -3.10671282
REMARK minimizedRMSD -1
REMARK  2 active torsions:
REMARK  status: ('A' for Active; 'I' for Inactive)
REMARK    1  A    between atoms: C1_2  and  C2_3 
REMARK    2  A    between atoms: C2_3  and  C3_4 
ROOT
ATOM      1  C3  UNL d   1      -5.449   4.672   4.282  0.00  0.00    -0.075 A 
ATOM      2  C4  UNL d   1      -4.513   5.685   4.030  0.00  0.00     0.002 A 
ATOM      3  C5  UNL d   1      -4.144   6.000   2.722  0.00  0.00     0.002 A 
ATOM      4  C6  UNL d   1      -4.698   5.301   1.652  0.00  0.00    -0.004 A 
ATOM      5  C7  UNL d   1      -5.617   4.282   1.891  0.00  0.00     0.002 A 
ATOM      6  C8  UNL d   1      -5.991   3.968   3.199  0.00  0.00     0.002 A 
ENDROOT
BRANCH   1   7
ATOM      7  C2  UNL d   1      -5.875   4.347   5.694  0.00  0.00     0.056 C 
BRANCH   7   8
ATOM      8  C1  UNL d   1      -5.983   2.846   5.982  0.00  0.00     0.007 C 
ATOM      9  C   UNL d   1      -4.634   2.138   5.996  0.00  0.00     0.009 C 
ENDBRANCH   7   8
ENDBRANCH   1   7
TORSDOF 2
ENDMDL
