MODEL 1
REMARK minimizedAffinity -3.21394849
REMARK minimizedRMSD -1
REMARK  2 active torsions:
REMARK  status: ('A' for Active; 'I' for Inactive)
REMARK    1  A    between atoms: C1_2  and  C2_3 
REMARK    2  A    between atoms: C2_3  and  C3_4 
ROOT
ATOM      1  C3  UNL d   1      -4.834   4.375   3.828  0.00  0.00    -0.075 A 
ATOM      2  C4  UNL d   1      -5.278   4.262   5.154  0.00  0.00     0.002 A 
ATOM      3  C5  UNL d   1      -5.852   3.075   5.610  0.00  0.00     0.002 A 
ATOM      4  C6  UNL d   1      -5.999   1.992   4.747  0.00  0.00    -0.004 A 
ATOM      5  C7  UNL d   1      -5.577   2.098   3.423  0.00  0.00     0.002 A 
ATOM      6  C8  UNL d   1      -4.998   3.283   2.965  0.00  0.00     0.002 A 
ENDROOT
BRANCH   1   7
ATOM      7  C2  UNL d   1      -4.185   5.646   3.337  0.00  0.00     0.056 C 
BRANCH   7   8
ATOM      8  C1  UNL d   1      -4.524   5.998   1.884  0.00  0.00     0.007 C 
ATOM      9  C   UNL d   1      -5.999   5.816   1.550  0.00  0.00     0.009 C 
ENDBRANCH   7   8
ENDBRANCH   1   7
TORSDOF 2
ENDMDL
