MODEL 1
REMARK minimizedAffinity -3.21939731
REMARK minimizedRMSD -1
REMARK  2 active torsions:
REMARK  status: ('A' for Active; 'I' for Inactive)
REMARK    1  A    between atoms: C1_2  and  C2_3 
REMARK    2  A    between atoms: C2_3  and  C3_4 
ROOT
ATOM      1  C3  UNL d   1      -5.527   4.694   3.968  0.00  0.00    -0.075 A 
ATOM      2  C4  UNL d   1      -5.143   3.496   3.348  0.00  0.00     0.002 A 
ATOM      3  C5  UNL d   1      -5.200   2.289   4.045  0.00  0.00     0.002 A 
ATOM      4  C6  UNL d   1      -5.631   2.265   5.370  0.00  0.00    -0.004 A 
ATOM      5  C7  UNL d   1      -5.999   3.451   6.000  0.00  0.00     0.002 A 
ATOM      6  C8  UNL d   1      -5.947   4.660   5.304  0.00  0.00     0.002 A 
ENDROOT
BRANCH   1   7
ATOM      7  C2  UNL d   1      -5.496   6.000   3.210  0.00  0.00     0.056 C 
BRANCH   7   8
ATOM      8  C1  UNL d   1      -5.991   5.894   1.764  0.00  0.00     0.007 C 
ATOM      9  C   UNL d   1      -4.881   5.582   0.770  0.00  0.00     0.009 C 
ENDBRANCH   7   8
ENDBRANCH   1   7
TORSDOF 2
ENDMDL
