MODEL 1
REMARK minimizedAffinity -3.59538984
REMARK minimizedRMSD -1
REMARK  2 active torsions:
REMARK  status: ('A' for Active; 'I' for Inactive)
REMARK    1  A    between atoms: C1_2  and  C2_3 
REMARK    2  A    between atoms: C2_3  and  C3_4 
ROOT
ATOM      1  C3  UNL d   1      -5.018   5.284   3.546  0.00  0.00    -0.075 A 
ATOM      2  C4  UNL d   1      -4.460   5.819   4.716  0.00  0.00     0.002 A 
ATOM      3  C5  UNL d   1      -4.572   5.139   5.929  0.00  0.00     0.002 A 
ATOM      4  C6  UNL d   1      -5.252   3.925   5.990  0.00  0.00    -0.004 A 
ATOM      5  C7  UNL d   1      -5.825   3.392   4.837  0.00  0.00     0.002 A 
ATOM      6  C8  UNL d   1      -5.710   4.068   3.621  0.00  0.00     0.002 A 
ENDROOT
BRANCH   1   7
ATOM      7  C2  UNL d   1      -4.874   6.000   2.224  0.00  0.00     0.056 C 
BRANCH   7   8
ATOM      8  C1  UNL d   1      -5.977   5.671   1.213  0.00  0.00     0.007 C 
ATOM      9  C   UNL d   1      -5.589   5.990  -0.224  0.00  0.00     0.009 C 
ENDBRANCH   7   8
ENDBRANCH   1   7
TORSDOF 2
ENDMDL
