MODEL 1
REMARK minimizedAffinity -2.07510853
REMARK minimizedRMSD -1
REMARK  2 active torsions:
REMARK  status: ('A' for Active; 'I' for Inactive)
REMARK    1  A    between atoms: C1_2  and  C2_3 
REMARK    2  A    between atoms: C2_3  and  C3_4 
ROOT
ATOM      1  C3  UNL d   1      -1.465  -1.690   0.572  0.00  0.00    -0.075 A 
ATOM      2  C4  UNL d   1      -2.039  -1.014  -0.515  0.00  0.00     0.002 A 
ATOM      3  C5  UNL d   1      -1.250  -0.229  -1.357  0.00  0.00     0.002 A 
ATOM      4  C6  UNL d   1       0.117  -0.102  -1.117  0.00  0.00    -0.004 A 
ATOM      5  C7  UNL d   1       0.694  -0.756  -0.031  0.00  0.00     0.002 A 
ATOM      6  C8  UNL d   1      -0.092  -1.545   0.810  0.00  0.00     0.002 A 
ENDROOT
BRANCH   1   7
ATOM      7  C2  UNL d   1      -2.308  -2.564   1.469  0.00  0.00     0.056 C 
BRANCH   7   8
ATOM      8  C1  UNL d   1      -2.208  -4.061   1.154  0.00  0.00     0.007 C 
ATOM      9  C   UNL d   1      -3.208  -4.906   1.932  0.00  0.00     0.009 C 
ENDBRANCH   7   8
ENDBRANCH   1   7
TORSDOF 2
ENDMDL
