MODEL 1
REMARK minimizedAffinity -2.68728948
REMARK minimizedRMSD -1
REMARK  2 active torsions:
REMARK  status: ('A' for Active; 'I' for Inactive)
REMARK    1  A    between atoms: C1_2  and  C2_3 
REMARK    2  A    between atoms: C2_3  and  C3_4 
ROOT
ATOM      1  C3  UNL d   1      -5.616   4.325   4.304  0.00  0.00    -0.075 A 
ATOM      2  C4  UNL d   1      -5.797   5.659   3.911  0.00  0.00     0.002 A 
ATOM      3  C5  UNL d   1      -5.993   5.981   2.567  0.00  0.00     0.002 A 
ATOM      4  C6  UNL d   1      -5.999   4.977   1.601  0.00  0.00    -0.004 A 
ATOM      5  C7  UNL d   1      -5.804   3.651   1.979  0.00  0.00     0.002 A 
ATOM      6  C8  UNL d   1      -5.613   3.325   3.322  0.00  0.00     0.002 A 
ENDROOT
BRANCH   1   7
ATOM      7  C2  UNL d   1      -5.434   3.967   5.760  0.00  0.00     0.056 C 
BRANCH   7   8
ATOM      8  C1  UNL d   1      -4.518   2.761   5.995  0.00  0.00     0.007 C 
ATOM      9  C   UNL d   1      -5.263   1.433   6.000  0.00  0.00     0.009 C 
ENDBRANCH   7   8
ENDBRANCH   1   7
TORSDOF 2
ENDMDL
