MODEL 1
REMARK minimizedAffinity -5.15724039
REMARK minimizedRMSD -1
REMARK  0 active torsions:
REMARK  status: ('A' for Active; 'I' for Inactive)
ROOT
ATOM      1  C2' OXE d   1       2.353   1.189  -0.373  0.00  0.00     0.078 C 
ATOM      2  C1' OXE d   1      -0.372   1.433   0.254  0.00  0.00     0.078 C 
ATOM      3  C1  OXE d   1       0.227   0.049   0.249  0.00  0.00    -0.078 A 
ATOM      4  C2  OXE d   1       1.550  -0.066  -0.104  0.00  0.00    -0.078 A 
ATOM      5  C3  OXE d   1       2.166  -1.313  -0.072  0.00  0.00     0.003 A 
ATOM      6  C4  OXE d   1       1.414  -2.470   0.167  0.00  0.00    -0.002 A 
ATOM      7  C5  OXE d   1       0.056  -2.379   0.490  0.00  0.00    -0.002 A 
ATOM      8  C6  OXE d   1      -0.542  -1.126   0.577  0.00  0.00     0.003 A 
ENDROOT
TORSDOF 0
ENDMDL
