MODEL 1
REMARK minimizedAffinity -4.61579561
REMARK minimizedRMSD -1
REMARK  0 active torsions:
REMARK  status: ('A' for Active; 'I' for Inactive)
ROOT
ATOM      1  C2' OXE d   1      -1.122   1.518   0.772  0.00  0.00     0.078 C 
ATOM      2  C1' OXE d   1      -0.782   0.817  -1.925  0.00  0.00     0.078 C 
ATOM      3  C1  OXE d   1      -0.059  -0.005  -0.888  0.00  0.00    -0.078 A 
ATOM      4  C2  OXE d   1      -0.194   0.374   0.426  0.00  0.00    -0.078 A 
ATOM      5  C3  OXE d   1       0.408  -0.383   1.427  0.00  0.00     0.003 A 
ATOM      6  C4  OXE d   1       1.272  -1.434   1.098  0.00  0.00    -0.002 A 
ATOM      7  C5  OXE d   1       1.455  -1.812  -0.236  0.00  0.00    -0.002 A 
ATOM      8  C6  OXE d   1       0.765  -1.136  -1.236  0.00  0.00     0.003 A 
ENDROOT
TORSDOF 0
ENDMDL
