MODEL 1
REMARK minimizedAffinity -3.42473865
REMARK minimizedRMSD -1
REMARK  0 active torsions:
REMARK  status: ('A' for Active; 'I' for Inactive)
ROOT
ATOM      1  C2' OXE d   1      -0.383   1.507  -0.094  0.00  0.00     0.078 C 
ATOM      2  C1' OXE d   1       2.372   1.191  -0.533  0.00  0.00     0.078 C 
ATOM      3  C1  OXE d   1       1.598  -0.003  -0.033  0.00  0.00    -0.078 A 
ATOM      4  C2  OXE d   1       0.260   0.174   0.224  0.00  0.00    -0.078 A 
ATOM      5  C3  OXE d   1      -0.512  -0.909   0.635  0.00  0.00     0.003 A 
ATOM      6  C4  OXE d   1       0.092  -2.136   0.936  0.00  0.00    -0.002 A 
ATOM      7  C5  OXE d   1       1.461  -2.326   0.720  0.00  0.00    -0.002 A 
ATOM      8  C6  OXE d   1       2.219  -1.284   0.196  0.00  0.00     0.003 A 
ENDROOT
TORSDOF 0
ENDMDL
