MODEL 1
REMARK minimizedAffinity -3.33898354
REMARK minimizedRMSD -1
REMARK  0 active torsions:
REMARK  status: ('A' for Active; 'I' for Inactive)
ROOT
ATOM      1  C2' OXE d   1       2.017  -1.920   1.015  0.00  0.00     0.078 C 
ATOM      2  C1' OXE d   1       2.161   0.089  -0.940  0.00  0.00     0.078 C 
ATOM      3  C1  OXE d   1       0.947   0.064  -0.045  0.00  0.00    -0.078 A 
ATOM      4  C2  OXE d   1       0.863  -0.951   0.878  0.00  0.00    -0.078 A 
ATOM      5  C3  OXE d   1      -0.209  -0.989   1.765  0.00  0.00     0.003 A 
ATOM      6  C4  OXE d   1      -1.277  -0.095   1.625  0.00  0.00    -0.002 A 
ATOM      7  C5  OXE d   1      -1.230   0.922   0.665  0.00  0.00    -0.002 A 
ATOM      8  C6  OXE d   1      -0.108   1.041  -0.148  0.00  0.00     0.003 A 
ENDROOT
TORSDOF 0
ENDMDL
