MODEL 1
REMARK minimizedAffinity -5.16448545
REMARK minimizedRMSD -1
REMARK  0 active torsions:
REMARK  status: ('A' for Active; 'I' for Inactive)
ROOT
ATOM      1  C2' OXE d   1      -1.897  -1.090  -2.221  0.00  0.00     0.078 C 
ATOM      2  C1' OXE d   1      -0.457  -0.215   0.024  0.00  0.00     0.078 C 
ATOM      3  C1  OXE d   1      -0.891   0.822  -0.982  0.00  0.00    -0.078 A 
ATOM      4  C2  OXE d   1      -1.555   0.379  -2.101  0.00  0.00    -0.078 A 
ATOM      5  C3  OXE d   1      -2.025   1.300  -3.033  0.00  0.00     0.003 A 
ATOM      6  C4  OXE d   1      -1.695   2.656  -2.919  0.00  0.00    -0.002 A 
ATOM      7  C5  OXE d   1      -0.986   3.123  -1.808  0.00  0.00    -0.002 A 
ATOM      8  C6  OXE d   1      -0.614   2.227  -0.811  0.00  0.00     0.003 A 
ENDROOT
TORSDOF 0
ENDMDL
