MODEL 1
REMARK minimizedAffinity -2.53163147
REMARK minimizedRMSD -1
REMARK  0 active torsions:
REMARK  status: ('A' for Active; 'I' for Inactive)
ROOT
ATOM      1  C2' OXE d   1       1.865   0.452  -1.017  0.00  0.00     0.078 C 
ATOM      2  C1' OXE d   1      -0.774   1.230  -0.459  0.00  0.00     0.078 C 
ATOM      3  C1  OXE d   1      -0.276  -0.059   0.148  0.00  0.00    -0.078 A 
ATOM      4  C2  OXE d   1       1.001  -0.455  -0.169  0.00  0.00    -0.078 A 
ATOM      5  C3  OXE d   1       1.528  -1.607   0.408  0.00  0.00     0.003 A 
ATOM      6  C4  OXE d   1       0.718  -2.445   1.184  0.00  0.00    -0.002 A 
ATOM      7  C5  OXE d   1      -0.598  -2.081   1.486  0.00  0.00    -0.002 A 
ATOM      8  C6  OXE d   1      -1.096  -0.872   1.012  0.00  0.00     0.003 A 
ENDROOT
TORSDOF 0
ENDMDL
