MODEL 1
REMARK minimizedAffinity -4.3650465
REMARK minimizedRMSD -1
REMARK  0 active torsions:
REMARK  status: ('A' for Active; 'I' for Inactive)
ROOT
ATOM      1  C2' OXE d   1       0.544  -2.244   0.507  0.00  0.00     0.078 C 
ATOM      2  C1' OXE d   1      -1.768  -1.324   1.806  0.00  0.00     0.078 C 
ATOM      3  C1  OXE d   1      -0.990  -0.337   0.971  0.00  0.00    -0.078 A 
ATOM      4  C2  OXE d   1       0.166  -0.784   0.378  0.00  0.00    -0.078 A 
ATOM      5  C3  OXE d   1       0.892   0.070  -0.447  0.00  0.00     0.003 A 
ATOM      6  C4  OXE d   1       0.541   1.421  -0.554  0.00  0.00    -0.002 A 
ATOM      7  C5  OXE d   1      -0.611   1.907   0.075  0.00  0.00    -0.002 A 
ATOM      8  C6  OXE d   1      -1.409   1.033   0.805  0.00  0.00     0.003 A 
ENDROOT
TORSDOF 0
ENDMDL
