MODEL 1
REMARK minimizedAffinity -4.36125755
REMARK minimizedRMSD -1
REMARK  0 active torsions:
REMARK  status: ('A' for Active; 'I' for Inactive)
ROOT
ATOM      1  C2' OXE d   1      -0.719   1.012  -0.931  0.00  0.00     0.078 C 
ATOM      2  C1' OXE d   1       2.045   0.759  -1.349  0.00  0.00     0.078 C 
ATOM      3  C1  OXE d   1       1.342  -0.348  -0.604  0.00  0.00    -0.078 A 
ATOM      4  C2  OXE d   1      -0.002  -0.194  -0.363  0.00  0.00    -0.078 A 
ATOM      5  C3  OXE d   1      -0.709  -1.210   0.272  0.00  0.00     0.003 A 
ATOM      6  C4  OXE d   1      -0.037  -2.317   0.803  0.00  0.00    -0.002 A 
ATOM      7  C5  OXE d   1       1.339  -2.475   0.604  0.00  0.00    -0.002 A 
ATOM      8  C6  OXE d   1       2.034  -1.522  -0.133  0.00  0.00     0.003 A 
ENDROOT
TORSDOF 0
ENDMDL
