MODEL 1
REMARK minimizedAffinity -1.6964103
REMARK minimizedRMSD -1
REMARK  0 active torsions:
REMARK  status: ('A' for Active; 'I' for Inactive)
ROOT
ATOM      1  C2' OXE d   1      -0.396   0.262  -1.225  0.00  0.00     0.078 C 
ATOM      2  C1' OXE d   1       1.949   1.168   0.023  0.00  0.00     0.078 C 
ATOM      3  C1  OXE d   1       1.644  -0.308   0.085  0.00  0.00    -0.078 A 
ATOM      4  C2  OXE d   1       0.471  -0.735  -0.488  0.00  0.00    -0.078 A 
ATOM      5  C3  OXE d   1       0.169  -2.094  -0.508  0.00  0.00     0.003 A 
ATOM      6  C4  OXE d   1       0.971  -3.009   0.185  0.00  0.00    -0.002 A 
ATOM      7  C5  OXE d   1       2.150  -2.588   0.810  0.00  0.00    -0.002 A 
ATOM      8  C6  OXE d   1       2.522  -1.251   0.733  0.00  0.00     0.003 A 
ENDROOT
TORSDOF 0
ENDMDL
