MODEL 1
REMARK minimizedAffinity -3.41205788
REMARK minimizedRMSD -1
REMARK  0 active torsions:
REMARK  status: ('A' for Active; 'I' for Inactive)
ROOT
ATOM      1  C2' OXE d   1      -1.392  -2.008   1.705  0.00  0.00     0.078 C 
ATOM      2  C1' OXE d   1       1.160  -2.994   1.077  0.00  0.00     0.078 C 
ATOM      3  C1  OXE d   1       0.852  -1.561   0.720  0.00  0.00    -0.078 A 
ATOM      4  C2  OXE d   1      -0.415  -1.101   0.989  0.00  0.00    -0.078 A 
ATOM      5  C3  OXE d   1      -0.735   0.229   0.730  0.00  0.00     0.003 A 
ATOM      6  C4  OXE d   1       0.171   1.058   0.059  0.00  0.00    -0.002 A 
ATOM      7  C5  OXE d   1       1.453   0.598  -0.260  0.00  0.00    -0.002 A 
ATOM      8  C6  OXE d   1       1.823  -0.693   0.101  0.00  0.00     0.003 A 
ENDROOT
TORSDOF 0
ENDMDL
