MODEL 1
REMARK minimizedAffinity -4.96121502
REMARK minimizedRMSD -1
REMARK  0 active torsions:
REMARK  status: ('A' for Active; 'I' for Inactive)
ROOT
ATOM      1  C2' OXE d   1       1.062  -2.723   1.298  0.00  0.00     0.078 C 
ATOM      2  C1' OXE d   1      -1.373  -1.569   2.084  0.00  0.00     0.078 C 
ATOM      3  C1  OXE d   1      -0.516  -0.805   1.107  0.00  0.00    -0.078 A 
ATOM      4  C2  OXE d   1       0.696  -1.355   0.764  0.00  0.00    -0.078 A 
ATOM      5  C3  OXE d   1       1.501  -0.717  -0.176  0.00  0.00     0.003 A 
ATOM      6  C4  OXE d   1       1.160   0.552  -0.657  0.00  0.00    -0.002 A 
ATOM      7  C5  OXE d   1      -0.051   1.149  -0.289  0.00  0.00    -0.002 A 
ATOM      8  C6  OXE d   1      -0.918   0.466   0.557  0.00  0.00     0.003 A 
ENDROOT
TORSDOF 0
ENDMDL
