MODEL 1
REMARK minimizedAffinity -4.20944262
REMARK minimizedRMSD -1
REMARK  0 active torsions:
REMARK  status: ('A' for Active; 'I' for Inactive)
ROOT
ATOM      1  C2' OXE d   1       1.857  -2.517   0.607  0.00  0.00     0.078 C 
ATOM      2  C1' OXE d   1      -0.688  -1.832   1.574  0.00  0.00     0.078 C 
ATOM      3  C1  OXE d   1      -0.021  -0.880   0.613  0.00  0.00    -0.078 A 
ATOM      4  C2  OXE d   1       1.244  -1.201   0.181  0.00  0.00    -0.078 A 
ATOM      5  C3  OXE d   1       1.882  -0.385  -0.748  0.00  0.00     0.003 A 
ATOM      6  C4  OXE d   1       1.313   0.836  -1.129  0.00  0.00    -0.002 A 
ATOM      7  C5  OXE d   1       0.043   1.201  -0.670  0.00  0.00    -0.002 A 
ATOM      8  C6  OXE d   1      -0.654   0.336   0.166  0.00  0.00     0.003 A 
ENDROOT
TORSDOF 0
ENDMDL
