MODEL 1
REMARK minimizedAffinity -4.21067286
REMARK minimizedRMSD -1
REMARK  0 active torsions:
REMARK  status: ('A' for Active; 'I' for Inactive)
ROOT
ATOM      1  C2' OXE d   1       2.236  -0.544  -0.972  0.00  0.00     0.078 C 
ATOM      2  C1' OXE d   1       1.812  -2.368   1.119  0.00  0.00     0.078 C 
ATOM      3  C1  OXE d   1       0.762  -1.310   0.885  0.00  0.00    -0.078 A 
ATOM      4  C2  OXE d   1       1.001  -0.393  -0.111  0.00  0.00    -0.078 A 
ATOM      5  C3  OXE d   1       0.040   0.570  -0.405  0.00  0.00     0.003 A 
ATOM      6  C4  OXE d   1      -1.095   0.709   0.403  0.00  0.00    -0.002 A 
ATOM      7  C5  OXE d   1      -1.338  -0.190   1.447  0.00  0.00    -0.002 A 
ATOM      8  C6  OXE d   1      -0.442  -1.229   1.674  0.00  0.00     0.003 A 
ENDROOT
TORSDOF 0
ENDMDL
