MODEL 1
REMARK minimizedAffinity -4.07480049
REMARK minimizedRMSD -1
REMARK  0 active torsions:
REMARK  status: ('A' for Active; 'I' for Inactive)
ROOT
ATOM      1  C2' OXE d   1       2.252   0.910  -0.962  0.00  0.00     0.078 C 
ATOM      2  C1' OXE d   1      -0.534   1.097  -0.673  0.00  0.00     0.078 C 
ATOM      3  C1  OXE d   1       0.146  -0.144  -0.150  0.00  0.00    -0.078 A 
ATOM      4  C2  OXE d   1       1.503  -0.247  -0.338  0.00  0.00    -0.078 A 
ATOM      5  C3  OXE d   1       2.187  -1.346   0.174  0.00  0.00     0.003 A 
ATOM      6  C4  OXE d   1       1.486  -2.417   0.740  0.00  0.00    -0.002 A 
ATOM      7  C5  OXE d   1       0.098  -2.349   0.905  0.00  0.00    -0.002 A 
ATOM      8  C6  OXE d   1      -0.580  -1.204   0.505  0.00  0.00     0.003 A 
ENDROOT
TORSDOF 0
ENDMDL
