MODEL 1
REMARK minimizedAffinity -4.84467888
REMARK minimizedRMSD -1
REMARK  0 active torsions:
REMARK  status: ('A' for Active; 'I' for Inactive)
ROOT
ATOM      1  C2' OXE d   1       2.057   0.786  -1.030  0.00  0.00     0.078 C 
ATOM      2  C1' OXE d   1      -0.689   0.871  -0.451  0.00  0.00     0.078 C 
ATOM      3  C1  OXE d   1       0.074  -0.372  -0.065  0.00  0.00    -0.078 A 
ATOM      4  C2  OXE d   1       1.407  -0.424  -0.395  0.00  0.00    -0.078 A 
ATOM      5  C3  OXE d   1       2.168  -1.525  -0.014  0.00  0.00     0.003 A 
ATOM      6  C4  OXE d   1       1.557  -2.644   0.565  0.00  0.00    -0.002 A 
ATOM      7  C5  OXE d   1       0.193  -2.628   0.873  0.00  0.00    -0.002 A 
ATOM      8  C6  OXE d   1      -0.553  -1.486   0.604  0.00  0.00     0.003 A 
ENDROOT
TORSDOF 0
ENDMDL
