MODEL 1
REMARK minimizedAffinity -4.64402914
REMARK minimizedRMSD -1
REMARK  0 active torsions:
REMARK  status: ('A' for Active; 'I' for Inactive)
ROOT
ATOM      1  C2' OXE d   1       1.438  -2.864   0.896  0.00  0.00     0.078 C 
ATOM      2  C1' OXE d   1      -0.956  -1.923   2.019  0.00  0.00     0.078 C 
ATOM      3  C1  OXE d   1      -0.252  -1.039   1.021  0.00  0.00    -0.078 A 
ATOM      4  C2  OXE d   1       0.943  -1.487   0.511  0.00  0.00    -0.078 A 
ATOM      5  C3  OXE d   1       1.606  -0.735  -0.454  0.00  0.00     0.003 A 
ATOM      6  C4  OXE d   1       1.146   0.542  -0.797  0.00  0.00    -0.002 A 
ATOM      7  C5  OXE d   1      -0.048   1.035  -0.260  0.00  0.00    -0.002 A 
ATOM      8  C6  OXE d   1      -0.780   0.241   0.616  0.00  0.00     0.003 A 
ENDROOT
TORSDOF 0
ENDMDL
