MODEL 1
REMARK minimizedAffinity -5.20673895
REMARK minimizedRMSD -1
REMARK  0 active torsions:
REMARK  status: ('A' for Active; 'I' for Inactive)
ROOT
ATOM      1  C2' OXE d   1       2.191  -0.207  -0.933  0.00  0.00     0.078 C 
ATOM      2  C1' OXE d   1       1.471  -2.506   0.508  0.00  0.00     0.078 C 
ATOM      3  C1  OXE d   1       0.503  -1.350   0.498  0.00  0.00    -0.078 A 
ATOM      4  C2  OXE d   1       0.884  -0.212  -0.171  0.00  0.00    -0.078 A 
ATOM      5  C3  OXE d   1       0.005   0.864  -0.257  0.00  0.00     0.003 A 
ATOM      6  C4  OXE d   1      -1.198   0.855   0.460  0.00  0.00    -0.002 A 
ATOM      7  C5  OXE d   1      -1.587  -0.279   1.180  0.00  0.00    -0.002 A 
ATOM      8  C6  OXE d   1      -0.770  -1.404   1.175  0.00  0.00     0.003 A 
ENDROOT
TORSDOF 0
ENDMDL
