MODEL 1
REMARK minimizedAffinity -4.22429752
REMARK minimizedRMSD -1
REMARK  0 active torsions:
REMARK  status: ('A' for Active; 'I' for Inactive)
ROOT
ATOM      1  C2' OXE d   1       2.506   0.871  -1.043  0.00  0.00     0.078 C 
ATOM      2  C1' OXE d   1      -0.250   1.396  -0.931  0.00  0.00     0.078 C 
ATOM      3  C1  OXE d   1       0.270   0.201  -0.172  0.00  0.00    -0.078 A 
ATOM      4  C2  OXE d   1       1.612  -0.076  -0.270  0.00  0.00    -0.078 A 
ATOM      5  C3  OXE d   1       2.153  -1.134   0.455  0.00  0.00     0.003 A 
ATOM      6  C4  OXE d   1       1.318  -2.010   1.160  0.00  0.00    -0.002 A 
ATOM      7  C5  OXE d   1      -0.057  -1.769   1.240  0.00  0.00    -0.002 A 
ATOM      8  C6  OXE d   1      -0.590  -0.646   0.617  0.00  0.00     0.003 A 
ENDROOT
TORSDOF 0
ENDMDL
