MODEL 1
REMARK minimizedAffinity -0.230290741
REMARK minimizedRMSD -1
REMARK  0 active torsions:
REMARK  status: ('A' for Active; 'I' for Inactive)
ROOT
ATOM      1  C   UNL d   1      -1.196   0.508   0.200  0.00  0.00     0.124 A 
ATOM      2  C1  UNL d   1      -0.935   1.045   1.453  0.00  0.00     0.062 A 
ATOM      3  C2  UNL d   1       0.288   0.809   2.074  0.00  0.00     0.162 A 
ATOM      4  C3  UNL d   1       1.260   0.034   1.443  0.00  0.00    -0.034 A 
ATOM      5  C4  UNL d   1       0.990  -0.504   0.184  0.00  0.00     0.162 A 
ATOM      6  C5  UNL d   1      -0.233  -0.266  -0.433  0.00  0.00     0.062 A 
ATOM      7  F   UNL d   1      -0.484  -0.786  -1.644  0.00  0.00    -0.097 F 
ATOM      8  F1  UNL d   1       1.903  -1.254  -0.451  0.00  0.00    -0.096 F 
ATOM      9  I   UNL d   1       3.090  -0.320   2.370  0.00  0.00    -0.060 I 
ATOM     10  F2  UNL d   1       0.513   1.341   3.285  0.00  0.00    -0.096 F 
ATOM     11  F3  UNL d   1      -1.864   1.791   2.067  0.00  0.00    -0.097 F 
ATOM     12  F4  UNL d   1      -2.374   0.735  -0.396  0.00  0.00    -0.092 F 
ENDROOT
TORSDOF 0
ENDMDL
