MODEL 1
REMARK minimizedAffinity -3.10972619
REMARK minimizedRMSD -1
REMARK  0 active torsions:
REMARK  status: ('A' for Active; 'I' for Inactive)
ROOT
ATOM      1  C   UNL d   1       1.340  -0.640  -1.001  0.00  0.00     0.124 A 
ATOM      2  C1  UNL d   1       1.991  -0.469   0.212  0.00  0.00     0.062 A 
ATOM      3  C2  UNL d   1       1.285  -0.038   1.331  0.00  0.00     0.162 A 
ATOM      4  C3  UNL d   1      -0.082   0.223   1.243  0.00  0.00    -0.034 A 
ATOM      5  C4  UNL d   1      -0.731   0.049   0.019  0.00  0.00     0.162 A 
ATOM      6  C5  UNL d   1      -0.020  -0.381  -1.097  0.00  0.00     0.062 A 
ATOM      7  F   UNL d   1      -0.652  -0.546  -2.268  0.00  0.00    -0.097 F 
ATOM      8  F1  UNL d   1      -2.045   0.292  -0.101  0.00  0.00    -0.096 F 
ATOM      9  I   UNL d   1      -1.142   0.867   2.915  0.00  0.00    -0.060 I 
ATOM     10  F2  UNL d   1       1.941   0.119   2.491  0.00  0.00    -0.096 F 
ATOM     11  F3  UNL d   1       3.306  -0.717   0.307  0.00  0.00    -0.097 F 
ATOM     12  F4  UNL d   1       2.022  -1.053  -2.077  0.00  0.00    -0.092 F 
ENDROOT
TORSDOF 0
ENDMDL
