MODEL 1
REMARK minimizedAffinity 5.33726501
REMARK minimizedRMSD -1
REMARK  0 active torsions:
REMARK  status: ('A' for Active; 'I' for Inactive)
ROOT
ATOM      1  C   UNL d   1      -0.919   0.428   1.822  0.00  0.00     0.124 A 
ATOM      2  C1  UNL d   1       0.175  -0.275   1.335  0.00  0.00     0.062 A 
ATOM      3  C2  UNL d   1       0.264  -0.578  -0.020  0.00  0.00     0.162 A 
ATOM      4  C3  UNL d   1      -0.742  -0.177  -0.899  0.00  0.00    -0.034 A 
ATOM      5  C4  UNL d   1      -1.839   0.529  -0.402  0.00  0.00     0.162 A 
ATOM      6  C5  UNL d   1      -1.924   0.829   0.954  0.00  0.00     0.062 A 
ATOM      7  F   UNL d   1      -2.981   1.508   1.423  0.00  0.00    -0.097 F 
ATOM      8  F1  UNL d   1      -2.824   0.930  -1.219  0.00  0.00    -0.096 F 
ATOM      9  I   UNL d   1      -0.611  -0.628  -2.927  0.00  0.00    -0.060 I 
ATOM     10  F2  UNL d   1       1.332  -1.258  -0.463  0.00  0.00    -0.096 F 
ATOM     11  F3  UNL d   1       1.147  -0.665   2.172  0.00  0.00    -0.097 F 
ATOM     12  F4  UNL d   1      -1.003   0.717   3.127  0.00  0.00    -0.092 F 
ENDROOT
TORSDOF 0
ENDMDL
