MODEL 1
REMARK minimizedAffinity -2.38864875
REMARK minimizedRMSD -1
REMARK  0 active torsions:
REMARK  status: ('A' for Active; 'I' for Inactive)
ROOT
ATOM      1  C   UNL d   1      -0.829   0.442   1.641  0.00  0.00     0.124 A 
ATOM      2  C1  UNL d   1      -1.825   0.852   0.766  0.00  0.00     0.062 A 
ATOM      3  C2  UNL d   1      -1.696   0.619  -0.600  0.00  0.00     0.162 A 
ATOM      4  C3  UNL d   1      -0.566  -0.029  -1.100  0.00  0.00    -0.034 A 
ATOM      5  C4  UNL d   1       0.432  -0.438  -0.213  0.00  0.00     0.162 A 
ATOM      6  C5  UNL d   1       0.298  -0.203   1.151  0.00  0.00     0.062 A 
ATOM      7  F   UNL d   1       1.261  -0.600   1.996  0.00  0.00    -0.097 F 
ATOM      8  F1  UNL d   1       1.531  -1.064  -0.660  0.00  0.00    -0.096 F 
ATOM      9  I   UNL d   1      -0.369  -0.380  -3.142  0.00  0.00    -0.060 I 
ATOM     10  F2  UNL d   1      -2.673   1.027  -1.423  0.00  0.00    -0.096 F 
ATOM     11  F3  UNL d   1      -2.914   1.476   1.237  0.00  0.00    -0.097 F 
ATOM     12  F4  UNL d   1      -0.955   0.669   2.955  0.00  0.00    -0.092 F 
ENDROOT
TORSDOF 0
ENDMDL
