MODEL 1
REMARK minimizedAffinity 0.200682417
REMARK minimizedRMSD -1
REMARK  0 active torsions:
REMARK  status: ('A' for Active; 'I' for Inactive)
ROOT
ATOM      1  C   UNL d   1       1.593   0.098  -2.948  0.00  0.00     0.124 A 
ATOM      2  C1  UNL d   1       1.753  -0.503  -1.707  0.00  0.00     0.062 A 
ATOM      3  C2  UNL d   1       0.737  -0.432  -0.759  0.00  0.00     0.162 A 
ATOM      4  C3  UNL d   1      -0.450   0.243  -1.048  0.00  0.00    -0.034 A 
ATOM      5  C4  UNL d   1      -0.603   0.845  -2.298  0.00  0.00     0.162 A 
ATOM      6  C5  UNL d   1       0.416   0.771  -3.242  0.00  0.00     0.062 A 
ATOM      7  F   UNL d   1       0.259   1.352  -4.441  0.00  0.00    -0.097 F 
ATOM      8  F1  UNL d   1      -1.730   1.502  -2.609  0.00  0.00    -0.096 F 
ATOM      9  I   UNL d   1      -1.971   0.352   0.368  0.00  0.00    -0.060 I 
ATOM     10  F2  UNL d   1       0.919  -1.022   0.432  0.00  0.00    -0.096 F 
ATOM     11  F3  UNL d   1       2.890  -1.154  -1.421  0.00  0.00    -0.097 F 
ATOM     12  F4  UNL d   1       2.573   0.028  -3.859  0.00  0.00    -0.092 F 
ENDROOT
TORSDOF 0
ENDMDL
