MODEL 1
REMARK minimizedAffinity -3.0617342
REMARK minimizedRMSD -1
REMARK  0 active torsions:
REMARK  status: ('A' for Active; 'I' for Inactive)
ROOT
ATOM      1  C   UNL d   1       0.969   0.126   2.051  0.00  0.00     0.124 A 
ATOM      2  C1  UNL d   1       1.052  -0.600   0.872  0.00  0.00     0.062 A 
ATOM      3  C2  UNL d   1      -0.100  -0.895   0.148  0.00  0.00     0.162 A 
ATOM      4  C3  UNL d   1      -1.346  -0.461   0.602  0.00  0.00    -0.034 A 
ATOM      5  C4  UNL d   1      -1.421   0.269   1.790  0.00  0.00     0.162 A 
ATOM      6  C5  UNL d   1      -0.267   0.560   2.509  0.00  0.00     0.062 A 
ATOM      7  F   UNL d   1      -0.349   1.262   3.649  0.00  0.00    -0.097 F 
ATOM      8  F1  UNL d   1      -2.603   0.701   2.254  0.00  0.00    -0.096 F 
ATOM      9  I   UNL d   1      -3.071  -0.899  -0.477  0.00  0.00    -0.060 I 
ATOM     10  F2  UNL d   1       0.010  -1.599  -0.988  0.00  0.00    -0.096 F 
ATOM     11  F3  UNL d   1       2.245  -1.021   0.428  0.00  0.00    -0.097 F 
ATOM     12  F4  UNL d   1       2.079   0.407   2.746  0.00  0.00    -0.092 F 
ENDROOT
TORSDOF 0
ENDMDL
