MODEL 1
REMARK minimizedAffinity -3.43271184
REMARK minimizedRMSD -1
REMARK  0 active torsions:
REMARK  status: ('A' for Active; 'I' for Inactive)
ROOT
ATOM      1  C   UNL d   1      -1.556   0.318   1.478  0.00  0.00     0.124 A 
ATOM      2  C1  UNL d   1      -0.650   0.656   2.473  0.00  0.00     0.062 A 
ATOM      3  C2  UNL d   1       0.703   0.366   2.317  0.00  0.00     0.162 A 
ATOM      4  C3  UNL d   1       1.157  -0.266   1.159  0.00  0.00    -0.034 A 
ATOM      5  C4  UNL d   1       0.239  -0.604   0.163  0.00  0.00     0.162 A 
ATOM      6  C5  UNL d   1      -1.111  -0.311   0.324  0.00  0.00     0.062 A 
ATOM      7  F   UNL d   1      -1.986  -0.638  -0.638  0.00  0.00    -0.097 F 
ATOM      8  F1  UNL d   1       0.642  -1.212  -0.963  0.00  0.00    -0.096 F 
ATOM      9  I   UNL d   1       3.178  -0.703   0.921  0.00  0.00    -0.060 I 
ATOM     10  F2  UNL d   1       1.556   0.704   3.295  0.00  0.00    -0.096 F 
ATOM     11  F3  UNL d   1      -1.077   1.264   3.590  0.00  0.00    -0.097 F 
ATOM     12  F4  UNL d   1      -2.857   0.599   1.632  0.00  0.00    -0.092 F 
ENDROOT
TORSDOF 0
ENDMDL
