MODEL 1
REMARK minimizedAffinity -2.8941288
REMARK minimizedRMSD -1
REMARK  1 active torsions:
REMARK  status: ('A' for Active; 'I' for Inactive)
REMARK    1  A    between atoms: C1_2  and  C2_3 
ROOT
ATOM      1  C2  UNL d   1       0.420  -0.478   0.156  0.00  0.00    -0.077 A 
ATOM      2  C3  UNL d   1       0.665  -1.085   1.395  0.00  0.00     0.002 A 
ATOM      3  C4  UNL d   1       0.551  -0.350   2.577  0.00  0.00     0.002 A 
ATOM      4  C5  UNL d   1       0.188   0.994   2.531  0.00  0.00    -0.004 A 
ATOM      5  C6  UNL d   1      -0.056   1.608   1.303  0.00  0.00     0.002 A 
ATOM      6  C7  UNL d   1       0.059   0.875   0.121  0.00  0.00     0.002 A 
ENDROOT
BRANCH   1   7
ATOM      7  C1  UNL d   1       0.495  -1.281  -1.116  0.00  0.00     0.055 C 
ATOM      8  C   UNL d   1       0.093  -2.729  -0.881  0.00  0.00     0.019 C 
ENDBRANCH   1   7
TORSDOF 1
ENDMDL
