MODEL 1
REMARK minimizedAffinity -6.171278
REMARK minimizedRMSD -1
REMARK  1 active torsions:
REMARK  status: ('A' for Active; 'I' for Inactive)
REMARK    1  A    between atoms: C1_2  and  C2_3 
ROOT
ATOM      1  C2  UNL d   1      -0.390   1.127   0.531  0.00  0.00    -0.077 A 
ATOM      2  C3  UNL d   1      -0.837   1.814  -0.607  0.00  0.00     0.002 A 
ATOM      3  C4  UNL d   1      -1.263   3.140  -0.509  0.00  0.00     0.002 A 
ATOM      4  C5  UNL d   1      -1.243   3.791   0.722  0.00  0.00    -0.004 A 
ATOM      5  C6  UNL d   1      -0.802   3.116   1.860  0.00  0.00     0.002 A 
ATOM      6  C7  UNL d   1      -0.377   1.790   1.764  0.00  0.00     0.002 A 
ENDROOT
BRANCH   1   7
ATOM      7  C1  UNL d   1       0.117  -0.287   0.419  0.00  0.00     0.055 C 
ATOM      8  C   UNL d   1       0.326  -0.687  -1.035  0.00  0.00     0.019 C 
ENDBRANCH   1   7
TORSDOF 1
ENDMDL
