MODEL 1
REMARK minimizedAffinity -1.64393818
REMARK minimizedRMSD -1
REMARK  1 active torsions:
REMARK  status: ('A' for Active; 'I' for Inactive)
REMARK    1  A    between atoms: N_2  and  C1_3 
ROOT
ATOM      1  C1  UNL d   1       1.359   0.466   0.729  0.00  0.00     0.143 A 
ATOM      2  C2  UNL d   1       2.123   0.960  -0.333  0.00  0.00    -0.057 A 
ATOM      3  C3  UNL d   1       3.078   1.964  -0.135  0.00  0.00     0.033 A 
ATOM      4  C4  UNL d   1       3.266   2.514   1.129  0.00  0.00    -0.042 A 
ATOM      5  C5  UNL d   1       2.499   2.056   2.195  0.00  0.00     0.033 A 
ATOM      6  C6  UNL d   1       1.552   1.048   1.991  0.00  0.00    -0.057 A 
ENDROOT
BRANCH   1   7
ATOM      7  N   UNL d   1       0.325  -0.462   0.578  0.00  0.00    -0.732 N 
ATOM      8  C   UNL d   1      -0.771  -0.203  -0.330  0.00  0.00     0.284 C 
ATOM      9  H3  UNL d   1       0.664  -1.421   0.558  0.00  0.00     0.395 HD
ENDBRANCH   1   7
TORSDOF 1
ENDMDL
