MODEL 1
REMARK minimizedAffinity -3.16495252
REMARK minimizedRMSD -1
REMARK  1 active torsions:
REMARK  status: ('A' for Active; 'I' for Inactive)
REMARK    1  A    between atoms: N_2  and  C1_3 
ROOT
ATOM      1  C1  UNL d   1       0.202   0.017  -0.260  0.00  0.00     0.143 A 
ATOM      2  C2  UNL d   1      -0.365  -0.945   0.583  0.00  0.00    -0.057 A 
ATOM      3  C3  UNL d   1      -1.706  -1.326   0.451  0.00  0.00     0.033 A 
ATOM      4  C4  UNL d   1      -2.513  -0.728  -0.511  0.00  0.00    -0.042 A 
ATOM      5  C5  UNL d   1      -1.977   0.248  -1.343  0.00  0.00     0.033 A 
ATOM      6  C6  UNL d   1      -0.636   0.619  -1.211  0.00  0.00    -0.057 A 
ENDROOT
BRANCH   1   7
ATOM      7  N   UNL d   1       1.502   0.509  -0.115  0.00  0.00    -0.732 N 
ATOM      8  C   UNL d   1       1.775   1.617   0.775  0.00  0.00     0.284 C 
ATOM      9  H3  UNL d   1       2.197  -0.233  -0.080  0.00  0.00     0.395 HD
ENDBRANCH   1   7
TORSDOF 1
ENDMDL
