MODEL 1
REMARK minimizedAffinity -3.49774814
REMARK minimizedRMSD -1
REMARK  1 active torsions:
REMARK  status: ('A' for Active; 'I' for Inactive)
REMARK    1  A    between atoms: N_2  and  C1_3 
ROOT
ATOM      1  C1  UNL d   1      -1.960  -0.089  -0.082  0.00  0.00     0.143 A 
ATOM      2  C2  UNL d   1      -1.061  -0.137   0.989  0.00  0.00    -0.057 A 
ATOM      3  C3  UNL d   1       0.323  -0.091   0.778  0.00  0.00     0.033 A 
ATOM      4  C4  UNL d   1       0.833  -0.025  -0.514  0.00  0.00    -0.042 A 
ATOM      5  C5  UNL d   1      -0.041  -0.001  -1.595  0.00  0.00     0.033 A 
ATOM      6  C6  UNL d   1      -1.422  -0.041  -1.377  0.00  0.00    -0.057 A 
ENDROOT
BRANCH   1   7
ATOM      7  N   UNL d   1      -3.343  -0.230   0.057  0.00  0.00    -0.732 N 
ATOM      8  C   UNL d   1      -4.061  -1.231  -0.702  0.00  0.00     0.284 C 
ATOM      9  H3  UNL d   1      -3.647  -0.144   1.024  0.00  0.00     0.395 HD
ENDBRANCH   1   7
TORSDOF 1
ENDMDL
