MODEL 1
REMARK minimizedAffinity -4.41993189
REMARK minimizedRMSD -1
REMARK  1 active torsions:
REMARK  status: ('A' for Active; 'I' for Inactive)
REMARK    1  A    between atoms: N_2  and  C1_3 
ROOT
ATOM      1  C1  UNL d   1      -0.984  -0.765   0.316  0.00  0.00     0.143 A 
ATOM      2  C2  UNL d   1      -2.312  -0.415   0.050  0.00  0.00    -0.057 A 
ATOM      3  C3  UNL d   1      -3.377  -1.159   0.572  0.00  0.00     0.033 A 
ATOM      4  C4  UNL d   1      -3.131  -2.287   1.347  0.00  0.00    -0.042 A 
ATOM      5  C5  UNL d   1      -1.819  -2.668   1.603  0.00  0.00     0.033 A 
ATOM      6  C6  UNL d   1      -0.760  -1.917   1.085  0.00  0.00    -0.057 A 
ENDROOT
BRANCH   1   7
ATOM      7  N   UNL d   1       0.118  -0.123  -0.255  0.00  0.00    -0.732 N 
ATOM      8  C   UNL d   1       0.207   0.054  -1.688  0.00  0.00     0.284 C 
ATOM      9  H3  UNL d   1       0.418   0.686   0.284  0.00  0.00     0.395 HD
ENDBRANCH   1   7
TORSDOF 1
ENDMDL
