MODEL 1
REMARK minimizedAffinity -4.29933786
REMARK minimizedRMSD -1
REMARK  1 active torsions:
REMARK  status: ('A' for Active; 'I' for Inactive)
REMARK    1  A    between atoms: N_2  and  C1_3 
ROOT
ATOM      1  C1  UNL d   1      -0.251  -0.576  -0.109  0.00  0.00     0.143 A 
ATOM      2  C2  UNL d   1      -0.687   0.307  -1.102  0.00  0.00    -0.057 A 
ATOM      3  C3  UNL d   1      -2.000   0.265  -1.587  0.00  0.00     0.033 A 
ATOM      4  C4  UNL d   1      -2.894  -0.686  -1.106  0.00  0.00    -0.042 A 
ATOM      5  C5  UNL d   1      -2.476  -1.590  -0.137  0.00  0.00     0.033 A 
ATOM      6  C6  UNL d   1      -1.165  -1.538   0.348  0.00  0.00    -0.057 A 
ENDROOT
BRANCH   1   7
ATOM      7  N   UNL d   1       1.069  -0.648   0.343  0.00  0.00    -0.732 N 
ATOM      8  C   UNL d   1       1.924   0.519   0.309  0.00  0.00     0.284 C 
ATOM      9  H3  UNL d   1       1.160  -1.206   1.189  0.00  0.00     0.395 HD
ENDBRANCH   1   7
TORSDOF 1
ENDMDL
