MODEL 1
REMARK minimizedAffinity -5.42531729
REMARK minimizedRMSD -1
REMARK  1 active torsions:
REMARK  status: ('A' for Active; 'I' for Inactive)
REMARK    1  A    between atoms: N_2  and  C1_3 
ROOT
ATOM      1  C1  UNL d   1      -0.547  -0.860   0.005  0.00  0.00     0.143 A 
ATOM      2  C2  UNL d   1      -1.376  -0.502  -1.064  0.00  0.00    -0.057 A 
ATOM      3  C3  UNL d   1      -2.690  -0.975  -1.154  0.00  0.00     0.033 A 
ATOM      4  C4  UNL d   1      -3.191  -1.842  -0.188  0.00  0.00    -0.042 A 
ATOM      5  C5  UNL d   1      -2.377  -2.232   0.869  0.00  0.00     0.033 A 
ATOM      6  C6  UNL d   1      -1.068  -1.750   0.957  0.00  0.00    -0.057 A 
ENDROOT
BRANCH   1   7
ATOM      7  N   UNL d   1       0.800  -0.502   0.099  0.00  0.00    -0.732 N 
ATOM      8  C   UNL d   1       1.181   0.840   0.483  0.00  0.00     0.284 C 
ATOM      9  H3  UNL d   1       1.368  -1.233   0.522  0.00  0.00     0.395 HD
ENDBRANCH   1   7
TORSDOF 1
ENDMDL
