MODEL 1
REMARK minimizedAffinity -4.41877747
REMARK minimizedRMSD -1
REMARK  1 active torsions:
REMARK  status: ('A' for Active; 'I' for Inactive)
REMARK    1  A    between atoms: N_2  and  C1_3 
ROOT
ATOM      1  C1  UNL d   1      -1.968  -0.398  -0.009  0.00  0.00     0.143 A 
ATOM      2  C2  UNL d   1      -1.339  -1.009   1.081  0.00  0.00    -0.057 A 
ATOM      3  C3  UNL d   1       0.042  -0.893   1.282  0.00  0.00     0.033 A 
ATOM      4  C4  UNL d   1       0.825  -0.184   0.377  0.00  0.00    -0.042 A 
ATOM      5  C5  UNL d   1       0.225   0.411  -0.727  0.00  0.00     0.033 A 
ATOM      6  C6  UNL d   1      -1.155   0.296  -0.919  0.00  0.00    -0.057 A 
ENDROOT
BRANCH   1   7
ATOM      7  N   UNL d   1      -3.320  -0.560  -0.318  0.00  0.00    -0.732 N 
ATOM      8  C   UNL d   1      -3.904  -1.881  -0.403  0.00  0.00     0.284 C 
ATOM      9  H3  UNL d   1      -3.910   0.126   0.148  0.00  0.00     0.395 HD
ENDBRANCH   1   7
TORSDOF 1
ENDMDL
