MODEL 1
REMARK minimizedAffinity -4.30554628
REMARK minimizedRMSD -1
REMARK  1 active torsions:
REMARK  status: ('A' for Active; 'I' for Inactive)
REMARK    1  A    between atoms: N_2  and  C1_3 
ROOT
ATOM      1  C1  UNL d   1      -0.338  -0.225  -1.413  0.00  0.00     0.143 A 
ATOM      2  C2  UNL d   1      -1.628  -0.730  -1.606  0.00  0.00    -0.057 A 
ATOM      3  C3  UNL d   1      -2.616  -0.592  -0.624  0.00  0.00     0.033 A 
ATOM      4  C4  UNL d   1      -2.322   0.030   0.585  0.00  0.00    -0.042 A 
ATOM      5  C5  UNL d   1      -1.039   0.517   0.809  0.00  0.00     0.033 A 
ATOM      6  C6  UNL d   1      -0.058   0.382  -0.179  0.00  0.00    -0.057 A 
ENDROOT
BRANCH   1   7
ATOM      7  N   UNL d   1       0.715  -0.418  -2.311  0.00  0.00    -0.732 N 
ATOM      8  C   UNL d   1       0.851   0.426  -3.479  0.00  0.00     0.284 C 
ATOM      9  H3  UNL d   1       1.594  -0.623  -1.841  0.00  0.00     0.395 HD
ENDBRANCH   1   7
TORSDOF 1
ENDMDL
