MODEL 1
REMARK minimizedAffinity 0.462124616
REMARK minimizedRMSD -1
REMARK  1 active torsions:
REMARK  status: ('A' for Active; 'I' for Inactive)
REMARK    1  A    between atoms: N_2  and  C1_3 
ROOT
ATOM      1  C1  UNL d   1      -0.770  -0.305  -0.452  0.00  0.00     0.143 A 
ATOM      2  C2  UNL d   1      -0.642  -1.121   0.677  0.00  0.00    -0.057 A 
ATOM      3  C3  UNL d   1       0.527  -1.118   1.446  0.00  0.00     0.033 A 
ATOM      4  C4  UNL d   1       1.605  -0.317   1.082  0.00  0.00    -0.042 A 
ATOM      5  C5  UNL d   1       1.509   0.484  -0.051  0.00  0.00     0.033 A 
ATOM      6  C6  UNL d   1       0.336   0.482  -0.811  0.00  0.00    -0.057 A 
ENDROOT
BRANCH   1   7
ATOM      7  N   UNL d   1      -1.870  -0.336  -1.314  0.00  0.00    -0.732 N 
ATOM      8  C   UNL d   1      -2.882  -1.361  -1.181  0.00  0.00     0.284 C 
ATOM      9  H3  UNL d   1      -2.240   0.593  -1.504  0.00  0.00     0.395 HD
ENDBRANCH   1   7
TORSDOF 1
ENDMDL
