MODEL 1
REMARK minimizedAffinity -4.94561863
REMARK minimizedRMSD -1
REMARK  1 active torsions:
REMARK  status: ('A' for Active; 'I' for Inactive)
REMARK    1  A    between atoms: N_2  and  C1_3 
ROOT
ATOM      1  C1  UNL d   1      -0.068  -0.043  -0.071  0.00  0.00     0.143 A 
ATOM      2  C2  UNL d   1      -1.008  -0.528   0.845  0.00  0.00    -0.057 A 
ATOM      3  C3  UNL d   1      -2.354  -0.679   0.493  0.00  0.00     0.033 A 
ATOM      4  C4  UNL d   1      -2.792  -0.319  -0.777  0.00  0.00    -0.042 A 
ATOM      5  C5  UNL d   1      -1.881   0.189  -1.696  0.00  0.00     0.033 A 
ATOM      6  C6  UNL d   1      -0.536   0.331  -1.340  0.00  0.00    -0.057 A 
ENDROOT
BRANCH   1   7
ATOM      7  N   UNL d   1       1.265   0.222   0.249  0.00  0.00    -0.732 N 
ATOM      8  C   UNL d   1       1.622   1.410   0.995  0.00  0.00     0.284 C 
ATOM      9  H3  UNL d   1       1.770  -0.614   0.533  0.00  0.00     0.395 HD
ENDBRANCH   1   7
TORSDOF 1
ENDMDL
