MODEL 1
REMARK minimizedAffinity -5.53412771
REMARK minimizedRMSD -1
REMARK  1 active torsions:
REMARK  status: ('A' for Active; 'I' for Inactive)
REMARK    1  A    between atoms: N_2  and  C1_3 
ROOT
ATOM      1  C1  UNL d   1      -0.862  -0.616   0.226  0.00  0.00     0.143 A 
ATOM      2  C2  UNL d   1      -1.871  -0.253  -0.672  0.00  0.00    -0.057 A 
ATOM      3  C3  UNL d   1      -3.029  -1.027  -0.815  0.00  0.00     0.033 A 
ATOM      4  C4  UNL d   1      -3.186  -2.197  -0.080  0.00  0.00    -0.042 A 
ATOM      5  C5  UNL d   1      -2.185  -2.591   0.801  0.00  0.00     0.033 A 
ATOM      6  C6  UNL d   1      -1.034  -1.810   0.944  0.00  0.00    -0.057 A 
ENDROOT
BRANCH   1   7
ATOM      7  N   UNL d   1       0.357   0.057   0.342  0.00  0.00    -0.732 N 
ATOM      8  C   UNL d   1       1.607  -0.669   0.302  0.00  0.00     0.284 C 
ATOM      9  H3  UNL d   1       0.367   0.932  -0.177  0.00  0.00     0.395 HD
ENDBRANCH   1   7
TORSDOF 1
ENDMDL
