MODEL 1
REMARK minimizedAffinity -2.8694067
REMARK minimizedRMSD -1
REMARK  1 active torsions:
REMARK  status: ('A' for Active; 'I' for Inactive)
REMARK    1  A    between atoms: N_2  and  C1_3 
ROOT
ATOM      1  C1  UNL d   1       0.192  -0.008  -0.355  0.00  0.00     0.143 A 
ATOM      2  C2  UNL d   1      -0.482   0.168  -1.568  0.00  0.00    -0.057 A 
ATOM      3  C3  UNL d   1      -1.844  -0.134  -1.693  0.00  0.00     0.033 A 
ATOM      4  C4  UNL d   1      -2.550  -0.646  -0.610  0.00  0.00    -0.042 A 
ATOM      5  C5  UNL d   1      -1.895  -0.853   0.599  0.00  0.00     0.033 A 
ATOM      6  C6  UNL d   1      -0.537  -0.543   0.719  0.00  0.00    -0.057 A 
ENDROOT
BRANCH   1   7
ATOM      7  N   UNL d   1       1.567   0.180  -0.195  0.00  0.00    -0.732 N 
ATOM      8  C   UNL d   1       2.091   1.461   0.231  0.00  0.00     0.284 C 
ATOM      9  H3  UNL d   1       2.021  -0.620   0.240  0.00  0.00     0.395 HD
ENDBRANCH   1   7
TORSDOF 1
ENDMDL
