MODEL 1
REMARK minimizedAffinity -3.82790613
REMARK minimizedRMSD -1
REMARK  1 active torsions:
REMARK  status: ('A' for Active; 'I' for Inactive)
REMARK    1  A    between atoms: N_2  and  C1_3 
ROOT
ATOM      1  C1  UNL d   1       0.299  -0.044   0.121  0.00  0.00     0.143 A 
ATOM      2  C2  UNL d   1      -0.742  -0.631   0.848  0.00  0.00    -0.057 A 
ATOM      3  C3  UNL d   1      -1.964  -0.946   0.242  0.00  0.00     0.033 A 
ATOM      4  C4  UNL d   1      -2.177  -0.652  -1.101  0.00  0.00    -0.042 A 
ATOM      5  C5  UNL d   1      -1.166  -0.045  -1.837  0.00  0.00     0.033 A 
ATOM      6  C6  UNL d   1       0.055   0.261  -1.227  0.00  0.00    -0.057 A 
ENDROOT
BRANCH   1   7
ATOM      7  N   UNL d   1       1.501   0.383   0.690  0.00  0.00    -0.732 N 
ATOM      8  C   UNL d   1       2.100   1.639   0.292  0.00  0.00     0.284 C 
ATOM      9  H3  UNL d   1       1.544   0.201   1.690  0.00  0.00     0.395 HD
ENDBRANCH   1   7
TORSDOF 1
ENDMDL
