MODEL 1
REMARK minimizedAffinity -3.58095884
REMARK minimizedRMSD -1
REMARK  1 active torsions:
REMARK  status: ('A' for Active; 'I' for Inactive)
REMARK    1  A    between atoms: N_2  and  C1_3 
ROOT
ATOM      1  C1  UNL d   1      -1.138  -0.572   0.251  0.00  0.00     0.143 A 
ATOM      2  C2  UNL d   1      -1.593   0.036  -0.924  0.00  0.00    -0.057 A 
ATOM      3  C3  UNL d   1      -2.718  -0.447  -1.603  0.00  0.00     0.033 A 
ATOM      4  C4  UNL d   1      -3.393  -1.569  -1.133  0.00  0.00    -0.042 A 
ATOM      5  C5  UNL d   1      -2.943  -2.205   0.018  0.00  0.00     0.033 A 
ATOM      6  C6  UNL d   1      -1.823  -1.714   0.696  0.00  0.00    -0.057 A 
ENDROOT
BRANCH   1   7
ATOM      7  N   UNL d   1       0.032  -0.199   0.917  0.00  0.00    -0.732 N 
ATOM      8  C   UNL d   1       1.023   0.627   0.260  0.00  0.00     0.284 C 
ATOM      9  H3  UNL d   1      -0.136   0.048   1.889  0.00  0.00     0.395 HD
ENDBRANCH   1   7
TORSDOF 1
ENDMDL
