MODEL 1
REMARK minimizedAffinity -4.49110842
REMARK minimizedRMSD -1
REMARK  1 active torsions:
REMARK  status: ('A' for Active; 'I' for Inactive)
REMARK    1  A    between atoms: N_2  and  C1_3 
ROOT
ATOM      1  C1  UNL d   1      -0.066  -0.468   0.535  0.00  0.00     0.143 A 
ATOM      2  C2  UNL d   1      -0.537  -0.137  -0.740  0.00  0.00    -0.057 A 
ATOM      3  C3  UNL d   1      -1.892  -0.270  -1.071  0.00  0.00     0.033 A 
ATOM      4  C4  UNL d   1      -2.796  -0.765  -0.137  0.00  0.00    -0.042 A 
ATOM      5  C5  UNL d   1      -2.346  -1.123   1.129  0.00  0.00     0.033 A 
ATOM      6  C6  UNL d   1      -0.993  -0.982   1.455  0.00  0.00    -0.057 A 
ENDROOT
BRANCH   1   7
ATOM      7  N   UNL d   1       1.284  -0.451   0.894  0.00  0.00    -0.732 N 
ATOM      8  C   UNL d   1       1.960   0.800   1.163  0.00  0.00     0.284 C 
ATOM      9  H3  UNL d   1       1.524  -1.201   1.538  0.00  0.00     0.395 HD
ENDBRANCH   1   7
TORSDOF 1
ENDMDL
