MODEL 1
REMARK minimizedAffinity -3.6902225
REMARK minimizedRMSD -1
REMARK  1 active torsions:
REMARK  status: ('A' for Active; 'I' for Inactive)
REMARK    1  A    between atoms: N_2  and  C1_3 
ROOT
ATOM      1  C1  UNL d   1       2.081   1.394   0.311  0.00  0.00     0.143 A 
ATOM      2  C2  UNL d   1       2.891   1.951  -0.684  0.00  0.00    -0.057 A 
ATOM      3  C3  UNL d   1       3.302   3.288  -0.621  0.00  0.00     0.033 A 
ATOM      4  C4  UNL d   1       2.885   4.102   0.427  0.00  0.00    -0.042 A 
ATOM      5  C5  UNL d   1       2.060   3.576   1.415  0.00  0.00     0.033 A 
ATOM      6  C6  UNL d   1       1.658   2.238   1.350  0.00  0.00    -0.057 A 
ENDROOT
BRANCH   1   7
ATOM      7  N   UNL d   1       1.558   0.100   0.254  0.00  0.00    -0.732 N 
ATOM      8  C   UNL d   1       0.184  -0.123  -0.143  0.00  0.00     0.284 C 
ATOM      9  H3  UNL d   1       2.218  -0.569  -0.138  0.00  0.00     0.395 HD
ENDBRANCH   1   7
TORSDOF 1
ENDMDL
