MODEL 1
REMARK minimizedAffinity -4.1642313
REMARK minimizedRMSD -1
REMARK  1 active torsions:
REMARK  status: ('A' for Active; 'I' for Inactive)
REMARK    1  A    between atoms: N_2  and  C1_3 
ROOT
ATOM      1  C1  UNL d   1      -0.277  -0.268  -0.097  0.00  0.00     0.143 A 
ATOM      2  C2  UNL d   1      -1.114  -0.061  -1.199  0.00  0.00    -0.057 A 
ATOM      3  C3  UNL d   1      -2.448  -0.487  -1.188  0.00  0.00     0.033 A 
ATOM      4  C4  UNL d   1      -2.962  -1.155  -0.081  0.00  0.00    -0.042 A 
ATOM      5  C5  UNL d   1      -2.141  -1.394   1.016  0.00  0.00     0.033 A 
ATOM      6  C6  UNL d   1      -0.812  -0.960   1.001  0.00  0.00    -0.057 A 
ENDROOT
BRANCH   1   7
ATOM      7  N   UNL d   1       1.085   0.043  -0.085  0.00  0.00    -0.732 N 
ATOM      8  C   UNL d   1       1.537   1.359   0.315  0.00  0.00     0.284 C 
ATOM      9  H3  UNL d   1       1.654  -0.719   0.275  0.00  0.00     0.395 HD
ENDBRANCH   1   7
TORSDOF 1
ENDMDL
