MODEL 1
REMARK minimizedAffinity -4.25327873
REMARK minimizedRMSD -1
REMARK  0 active torsions:
REMARK  status: ('A' for Active; 'I' for Inactive)
ROOT
ATOM      1  C1  BNZ d   1       0.040   0.083   0.149  0.00  0.00     0.000 A 
ATOM      2  C2  BNZ d   1       1.023   0.007   1.099  0.00  0.00     0.000 A 
ATOM      3  C3  BNZ d   1       0.778   0.379   2.392  0.00  0.00     0.000 A 
ATOM      4  C4  BNZ d   1      -0.436   0.863   2.723  0.00  0.00     0.000 A 
ATOM      5  C5  BNZ d   1      -1.435   0.955   1.774  0.00  0.00     0.000 A 
ATOM      6  C6  BNZ d   1      -1.196   0.543   0.483  0.00  0.00     0.000 A 
ENDROOT
TORSDOF 0
ENDMDL
