MODEL 1
REMARK minimizedAffinity -4.45231628
REMARK minimizedRMSD -1
REMARK  0 active torsions:
REMARK  status: ('A' for Active; 'I' for Inactive)
ROOT
ATOM      1  C1  BNZ d   1       0.631   0.440   3.316  0.00  0.00     0.000 A 
ATOM      2  C2  BNZ d   1      -0.663   0.874   3.426  0.00  0.00     0.000 A 
ATOM      3  C3  BNZ d   1      -1.440   1.046   2.315  0.00  0.00     0.000 A 
ATOM      4  C4  BNZ d   1      -0.912   0.822   1.095  0.00  0.00     0.000 A 
ATOM      5  C5  BNZ d   1       0.394   0.392   0.967  0.00  0.00     0.000 A 
ATOM      6  C6  BNZ d   1       1.162   0.184   2.090  0.00  0.00     0.000 A 
ENDROOT
TORSDOF 0
ENDMDL
