MODEL 1
REMARK minimizedAffinity -4.16115808
REMARK minimizedRMSD -1
REMARK  0 active torsions:
REMARK  status: ('A' for Active; 'I' for Inactive)
ROOT
ATOM      1  C1  BNZ d   1      -0.461   0.883   1.472  0.00  0.00     0.000 A 
ATOM      2  C2  BNZ d   1       0.803   0.460   1.155  0.00  0.00     0.000 A 
ATOM      3  C3  BNZ d   1       1.722   0.208   2.135  0.00  0.00     0.000 A 
ATOM      4  C4  BNZ d   1       1.390   0.416   3.425  0.00  0.00     0.000 A 
ATOM      5  C5  BNZ d   1       0.123   0.851   3.760  0.00  0.00     0.000 A 
ATOM      6  C6  BNZ d   1      -0.812   1.067   2.773  0.00  0.00     0.000 A 
ENDROOT
TORSDOF 0
ENDMDL
