MODEL 1
REMARK minimizedAffinity -4.19862223
REMARK minimizedRMSD -1
REMARK  0 active torsions:
REMARK  status: ('A' for Active; 'I' for Inactive)
ROOT
ATOM      1  C1  BNZ d   1       0.004  -0.525  -0.056  0.00  0.00     0.000 A 
ATOM      2  C2  BNZ d   1      -1.290  -0.091   0.068  0.00  0.00     0.000 A 
ATOM      3  C3  BNZ d   1      -1.702   0.570   1.191  0.00  0.00     0.000 A 
ATOM      4  C4  BNZ d   1      -0.832   0.761   2.205  0.00  0.00     0.000 A 
ATOM      5  C5  BNZ d   1       0.472   0.321   2.099  0.00  0.00     0.000 A 
ATOM      6  C6  BNZ d   1       0.894  -0.309   0.951  0.00  0.00     0.000 A 
ENDROOT
TORSDOF 0
ENDMDL
