MODEL 1
REMARK minimizedAffinity -4.97678757
REMARK minimizedRMSD -1
REMARK  0 active torsions:
REMARK  status: ('A' for Active; 'I' for Inactive)
ROOT
ATOM      1  C1  BNZ d   1      -1.465  -0.021   0.757  0.00  0.00     0.000 A 
ATOM      2  C2  BNZ d   1      -0.162   0.151   0.372  0.00  0.00     0.000 A 
ATOM      3  C3  BNZ d   1       0.709   0.864   1.147  0.00  0.00     0.000 A 
ATOM      4  C4  BNZ d   1       0.267   1.437   2.285  0.00  0.00     0.000 A 
ATOM      5  C5  BNZ d   1      -1.046   1.280   2.683  0.00  0.00     0.000 A 
ATOM      6  C6  BNZ d   1      -1.910   0.529   1.919  0.00  0.00     0.000 A 
ENDROOT
TORSDOF 0
ENDMDL
