MODEL 1
REMARK minimizedAffinity -0.455350816
REMARK minimizedRMSD -1
REMARK  0 active torsions:
REMARK  status: ('A' for Active; 'I' for Inactive)
ROOT
ATOM      1  C   UNL d   1      -1.646  -5.886  -5.952  0.00  0.00     0.020 A 
ATOM      2  C1  UNL d   1      -0.281  -5.606  -5.998  0.00  0.00     0.020 A 
ATOM      3  C2  UNL d   1       0.437  -5.439  -4.812  0.00  0.00     0.034 A 
ATOM      4  C3  UNL d   1      -0.209  -5.551  -3.576  0.00  0.00     0.017 A 
ATOM      5  C4  UNL d   1      -1.579  -5.833  -3.531  0.00  0.00     0.017 A 
ATOM      6  C5  UNL d   1      -2.294  -5.999  -4.722  0.00  0.00     0.034 A 
ATOM      7 Cl   UNL d   1      -2.446  -5.987  -2.044  0.00  0.00    -0.070 Cl
ATOM      8 Cl1  UNL d   1       0.741  -5.333  -2.149  0.00  0.00    -0.070 Cl
ENDROOT
TORSDOF 0
ENDMDL
