MODEL 1
REMARK minimizedAffinity 7.1771822
REMARK minimizedRMSD -1
REMARK  0 active torsions:
REMARK  status: ('A' for Active; 'I' for Inactive)
ROOT
ATOM      1  C   UNL d   1       5.577   4.092  -0.340  0.00  0.00     0.020 A 
ATOM      2  C1  UNL d   1       5.280   5.195   0.459  0.00  0.00     0.020 A 
ATOM      3  C2  UNL d   1       3.990   5.362   0.967  0.00  0.00     0.034 A 
ATOM      4  C3  UNL d   1       2.993   4.424   0.677  0.00  0.00     0.017 A 
ATOM      5  C4  UNL d   1       3.292   3.317  -0.124  0.00  0.00     0.017 A 
ATOM      6  C5  UNL d   1       4.585   3.154  -0.631  0.00  0.00     0.034 A 
ATOM      7 Cl   UNL d   1       2.114   2.117  -0.525  0.00  0.00    -0.070 Cl
ATOM      8 Cl1  UNL d   1       1.420   4.693   1.340  0.00  0.00    -0.070 Cl
ENDROOT
TORSDOF 0
ENDMDL
