MODEL 1
REMARK minimizedAffinity 0.238793269
REMARK minimizedRMSD -1
REMARK  0 active torsions:
REMARK  status: ('A' for Active; 'I' for Inactive)
ROOT
ATOM      1  C   UNL d   1      -1.381  -5.809  -5.946  0.00  0.00     0.020 A 
ATOM      2  C1  UNL d   1      -2.140  -5.809  -4.776  0.00  0.00     0.020 A 
ATOM      3  C2  UNL d   1      -1.506  -5.869  -3.533  0.00  0.00     0.034 A 
ATOM      4  C3  UNL d   1      -0.110  -5.928  -3.457  0.00  0.00     0.017 A 
ATOM      5  C4  UNL d   1       0.651  -5.928  -4.631  0.00  0.00     0.017 A 
ATOM      6  C5  UNL d   1       0.012  -5.868  -5.873  0.00  0.00     0.034 A 
ATOM      7 Cl   UNL d   1       2.378  -5.999  -4.617  0.00  0.00    -0.070 Cl
ATOM      8 Cl1  UNL d   1       0.606  -6.000  -1.886  0.00  0.00    -0.070 Cl
ENDROOT
TORSDOF 0
ENDMDL
