MODEL 1
REMARK minimizedAffinity -1.99590302
REMARK minimizedRMSD -1
REMARK  0 active torsions:
REMARK  status: ('A' for Active; 'I' for Inactive)
ROOT
ATOM      1  C   UNL d   1      -1.395  -5.983  -5.477  0.00  0.00     0.020 A 
ATOM      2  C1  UNL d   1      -1.588  -5.952  -4.097  0.00  0.00     0.020 A 
ATOM      3  C2  UNL d   1      -0.487  -5.935  -3.238  0.00  0.00     0.034 A 
ATOM      4  C3  UNL d   1       0.812  -5.949  -3.759  0.00  0.00     0.017 A 
ATOM      5  C4  UNL d   1       1.005  -5.981  -5.145  0.00  0.00     0.017 A 
ATOM      6  C5  UNL d   1      -0.101  -5.998  -6.000  0.00  0.00     0.034 A 
ATOM      7 Cl   UNL d   1       2.577  -6.000  -5.861  0.00  0.00    -0.070 Cl
ATOM      8 Cl1  UNL d   1       2.127  -5.926  -2.638  0.00  0.00    -0.070 Cl
ENDROOT
TORSDOF 0
ENDMDL
