MODEL 1
REMARK minimizedAffinity 2.36617398
REMARK minimizedRMSD -1
REMARK  0 active torsions:
REMARK  status: ('A' for Active; 'I' for Inactive)
ROOT
ATOM      1  C   UNL d   1       1.624  -5.538  -5.386  0.00  0.00     0.020 A 
ATOM      2  C1  UNL d   1       0.460  -5.999  -5.999  0.00  0.00     0.020 A 
ATOM      3  C2  UNL d   1      -0.747  -5.999  -5.297  0.00  0.00     0.034 A 
ATOM      4  C3  UNL d   1      -0.793  -5.537  -3.977  0.00  0.00     0.017 A 
ATOM      5  C4  UNL d   1       0.376  -5.075  -3.361  0.00  0.00     0.017 A 
ATOM      6  C5  UNL d   1       1.582  -5.077  -4.069  0.00  0.00     0.034 A 
ATOM      7 Cl   UNL d   1       0.398  -4.489  -1.735  0.00  0.00    -0.070 Cl
ATOM      8 Cl1  UNL d   1      -2.319  -5.566  -3.168  0.00  0.00    -0.070 Cl
ENDROOT
TORSDOF 0
ENDMDL
