MODEL 1
REMARK minimizedAffinity 4.58696604
REMARK minimizedRMSD -1
REMARK  0 active torsions:
REMARK  status: ('A' for Active; 'I' for Inactive)
ROOT
ATOM      1  C   UNL d   1       1.653  -5.717  -5.159  0.00  0.00     0.020 A 
ATOM      2  C1  UNL d   1       0.475  -5.915  -5.878  0.00  0.00     0.020 A 
ATOM      3  C2  UNL d   1      -0.747  -5.999  -5.206  0.00  0.00     0.034 A 
ATOM      4  C3  UNL d   1      -0.792  -5.886  -3.812  0.00  0.00     0.017 A 
ATOM      5  C4  UNL d   1       0.391  -5.687  -3.092  0.00  0.00     0.017 A 
ATOM      6  C5  UNL d   1       1.611  -5.603  -3.769  0.00  0.00     0.034 A 
ATOM      7 Cl   UNL d   1       0.414  -5.537  -1.370  0.00  0.00    -0.070 Cl
ATOM      8 Cl1  UNL d   1      -2.338  -5.999  -3.047  0.00  0.00    -0.070 Cl
ENDROOT
TORSDOF 0
ENDMDL
