MODEL 1
REMARK minimizedAffinity 6.23587322
REMARK minimizedRMSD -1
REMARK  0 active torsions:
REMARK  status: ('A' for Active; 'I' for Inactive)
ROOT
ATOM      1  C   UNL d   1      -1.686  -5.988  -3.851  0.00  0.00     0.020 A 
ATOM      2  C1  UNL d   1      -1.594  -5.980  -5.242  0.00  0.00     0.020 A 
ATOM      3  C2  UNL d   1      -0.341  -5.978  -5.858  0.00  0.00     0.034 A 
ATOM      4  C3  UNL d   1       0.825  -5.984  -5.083  0.00  0.00     0.017 A 
ATOM      5  C4  UNL d   1       0.731  -5.991  -3.687  0.00  0.00     0.017 A 
ATOM      6  C5  UNL d   1      -0.526  -5.993  -3.075  0.00  0.00     0.034 A 
ATOM      7 Cl   UNL d   1       2.124  -5.998  -2.664  0.00  0.00    -0.070 Cl
ATOM      8 Cl1  UNL d   1       2.341  -5.981  -5.912  0.00  0.00    -0.070 Cl
ENDROOT
TORSDOF 0
ENDMDL
