MODEL 1
REMARK minimizedAffinity 7.13597012
REMARK minimizedRMSD -1
REMARK  0 active torsions:
REMARK  status: ('A' for Active; 'I' for Inactive)
ROOT
ATOM      1  C   UNL d   1       2.143  -0.116  -0.473  0.00  0.00     0.020 A 
ATOM      2  C1  UNL d   1       0.812  -0.443  -0.220  0.00  0.00     0.020 A 
ATOM      3  C2  UNL d   1       0.405  -0.760   1.078  0.00  0.00     0.034 A 
ATOM      4  C3  UNL d   1       1.331  -0.751   2.127  0.00  0.00     0.017 A 
ATOM      5  C4  UNL d   1       2.667  -0.422   1.872  0.00  0.00     0.017 A 
ATOM      6  C5  UNL d   1       3.069  -0.105   0.571  0.00  0.00     0.034 A 
ATOM      7 Cl   UNL d   1       3.867  -0.389   3.116  0.00  0.00    -0.070 Cl
ATOM      8 Cl1  UNL d   1       0.758  -1.153   3.707  0.00  0.00    -0.070 Cl
ENDROOT
TORSDOF 0
ENDMDL
