MODEL 1
REMARK minimizedAffinity 0.558102489
REMARK minimizedRMSD -1
REMARK  0 active torsions:
REMARK  status: ('A' for Active; 'I' for Inactive)
ROOT
ATOM      1  C   UNL d   1      -0.521  -5.984  -5.998  0.00  0.00     0.020 A 
ATOM      2  C1  UNL d   1       0.632  -5.988  -5.214  0.00  0.00     0.020 A 
ATOM      3  C2  UNL d   1       0.529  -5.992  -3.821  0.00  0.00     0.034 A 
ATOM      4  C3  UNL d   1      -0.729  -5.993  -3.209  0.00  0.00     0.017 A 
ATOM      5  C4  UNL d   1      -1.886  -5.990  -3.997  0.00  0.00     0.017 A 
ATOM      6  C5  UNL d   1      -1.777  -5.985  -5.391  0.00  0.00     0.034 A 
ATOM      7 Cl   UNL d   1      -3.473  -5.990  -3.313  0.00  0.00    -0.070 Cl
ATOM      8 Cl1  UNL d   1      -0.782  -5.999  -1.482  0.00  0.00    -0.070 Cl
ENDROOT
TORSDOF 0
ENDMDL
