MODEL 1
REMARK minimizedAffinity -0.149227485
REMARK minimizedRMSD -1
REMARK  0 active torsions:
REMARK  status: ('A' for Active; 'I' for Inactive)
ROOT
ATOM      1  C   UNL d   1      -0.848  -5.999  -6.000  0.00  0.00     0.020 A 
ATOM      2  C1  UNL d   1       0.468  -5.990  -5.539  0.00  0.00     0.020 A 
ATOM      3  C2  UNL d   1       0.728  -5.982  -4.167  0.00  0.00     0.034 A 
ATOM      4  C3  UNL d   1      -0.330  -5.983  -3.251  0.00  0.00     0.017 A 
ATOM      5  C4  UNL d   1      -1.651  -5.992  -3.714  0.00  0.00     0.017 A 
ATOM      6  C5  UNL d   1      -1.905  -6.000  -5.089  0.00  0.00     0.034 A 
ATOM      7 Cl   UNL d   1      -3.008  -5.993  -2.644  0.00  0.00    -0.070 Cl
ATOM      8 Cl1  UNL d   1       0.064  -5.973  -1.569  0.00  0.00    -0.070 Cl
ENDROOT
TORSDOF 0
ENDMDL
