MODEL 1
REMARK minimizedAffinity -1.32965314
REMARK minimizedRMSD -1
REMARK  0 active torsions:
REMARK  status: ('A' for Active; 'I' for Inactive)
ROOT
ATOM      1  C   UNL d   1      -1.828  -5.928  -5.999  0.00  0.00     0.020 A 
ATOM      2  C1  UNL d   1      -0.468  -5.762  -5.738  0.00  0.00     0.020 A 
ATOM      3  C2  UNL d   1      -0.017  -5.665  -4.420  0.00  0.00     0.034 A 
ATOM      4  C3  UNL d   1      -0.926  -5.735  -3.358  0.00  0.00     0.017 A 
ATOM      5  C4  UNL d   1      -2.290  -5.903  -3.621  0.00  0.00     0.017 A 
ATOM      6  C5  UNL d   1      -2.736  -5.999  -4.943  0.00  0.00     0.034 A 
ATOM      7 Cl   UNL d   1      -3.471  -5.998  -2.363  0.00  0.00    -0.070 Cl
ATOM      8 Cl1  UNL d   1      -0.297  -5.609  -1.753  0.00  0.00    -0.070 Cl
ENDROOT
TORSDOF 0
ENDMDL
