MODEL 1
REMARK minimizedAffinity 3.39450431
REMARK minimizedRMSD -1
REMARK  0 active torsions:
REMARK  status: ('A' for Active; 'I' for Inactive)
ROOT
ATOM      1  C   UNL d   1      -1.961  -5.998  -4.101  0.00  0.00     0.020 A 
ATOM      2  C1  UNL d   1      -1.762  -5.998  -5.481  0.00  0.00     0.020 A 
ATOM      3  C2  UNL d   1      -0.465  -5.998  -6.000  0.00  0.00     0.034 A 
ATOM      4  C3  UNL d   1       0.638  -5.999  -5.138  0.00  0.00     0.017 A 
ATOM      5  C4  UNL d   1       0.437  -5.999  -3.753  0.00  0.00     0.017 A 
ATOM      6  C5  UNL d   1      -0.864  -5.998  -3.239  0.00  0.00     0.034 A 
ATOM      7 Cl   UNL d   1       1.748  -5.999  -2.626  0.00  0.00    -0.070 Cl
ATOM      8 Cl1  UNL d   1       2.213  -6.000  -5.848  0.00  0.00    -0.070 Cl
ENDROOT
TORSDOF 0
ENDMDL
