MODEL 1
REMARK minimizedAffinity -1.41551983
REMARK minimizedRMSD -1
REMARK  0 active torsions:
REMARK  status: ('A' for Active; 'I' for Inactive)
ROOT
ATOM      1  C   UNL d   1       1.532  -5.994  -4.915  0.00  0.00     0.020 A 
ATOM      2  C1  UNL d   1       0.615  -5.994  -5.965  0.00  0.00     0.020 A 
ATOM      3  C2  UNL d   1      -0.755  -5.996  -5.696  0.00  0.00     0.034 A 
ATOM      4  C3  UNL d   1      -1.212  -5.998  -4.373  0.00  0.00     0.017 A 
ATOM      5  C4  UNL d   1      -0.291  -5.998  -3.319  0.00  0.00     0.017 A 
ATOM      6  C5  UNL d   1       1.080  -5.995  -3.595  0.00  0.00     0.034 A 
ATOM      7 Cl   UNL d   1      -0.779  -6.000  -1.661  0.00  0.00    -0.070 Cl
ATOM      8 Cl1  UNL d   1      -2.921  -6.000  -4.113  0.00  0.00    -0.070 Cl
ENDROOT
TORSDOF 0
ENDMDL
