MODEL 1
REMARK minimizedAffinity 7.26554155
REMARK minimizedRMSD -1
REMARK  0 active torsions:
REMARK  status: ('A' for Active; 'I' for Inactive)
ROOT
ATOM      1  C   UNL d   1       2.089  -5.953  -4.853  0.00  0.00     0.020 A 
ATOM      2  C1  UNL d   1       1.291  -5.953  -5.996  0.00  0.00     0.020 A 
ATOM      3  C2  UNL d   1      -0.101  -5.966  -5.875  0.00  0.00     0.034 A 
ATOM      4  C3  UNL d   1      -0.697  -5.979  -4.609  0.00  0.00     0.017 A 
ATOM      5  C4  UNL d   1       0.106  -5.979  -3.463  0.00  0.00     0.017 A 
ATOM      6  C5  UNL d   1       1.498  -5.966  -3.590  0.00  0.00     0.034 A 
ATOM      7 Cl   UNL d   1      -0.557  -5.994  -1.867  0.00  0.00    -0.070 Cl
ATOM      8 Cl1  UNL d   1      -2.423  -5.994  -4.534  0.00  0.00    -0.070 Cl
ENDROOT
TORSDOF 0
ENDMDL
