MODEL 1
REMARK minimizedAffinity 8.28932285
REMARK minimizedRMSD -1
REMARK  0 active torsions:
REMARK  status: ('A' for Active; 'I' for Inactive)
ROOT
ATOM      1  C   UNL d   1       2.799  -0.313   0.293  0.00  0.00     0.020 A 
ATOM      2  C1  UNL d   1       1.414  -0.299   0.455  0.00  0.00     0.020 A 
ATOM      3  C2  UNL d   1       0.720   0.913   0.430  0.00  0.00     0.034 A 
ATOM      4  C3  UNL d   1       1.411   2.116   0.243  0.00  0.00     0.017 A 
ATOM      5  C4  UNL d   1       2.801   2.101   0.081  0.00  0.00     0.017 A 
ATOM      6  C5  UNL d   1       3.491   0.885   0.107  0.00  0.00     0.034 A 
ATOM      7 Cl   UNL d   1       3.722   3.544  -0.154  0.00  0.00    -0.070 Cl
ATOM      8 Cl1  UNL d   1       0.489   3.577   0.223  0.00  0.00    -0.070 Cl
ENDROOT
TORSDOF 0
ENDMDL
