MODEL 1
REMARK minimizedAffinity 0.862582028
REMARK minimizedRMSD -1
REMARK  0 active torsions:
REMARK  status: ('A' for Active; 'I' for Inactive)
ROOT
ATOM      1  C   UNL d   1       0.240  -5.998  -5.997  0.00  0.00     0.020 A 
ATOM      2  C1  UNL d   1       1.433  -5.996  -5.275  0.00  0.00     0.020 A 
ATOM      3  C2  UNL d   1       1.405  -5.995  -3.879  0.00  0.00     0.034 A 
ATOM      4  C3  UNL d   1       0.181  -5.995  -3.200  0.00  0.00     0.017 A 
ATOM      5  C4  UNL d   1      -1.016  -5.997  -3.925  0.00  0.00     0.017 A 
ATOM      6  C5  UNL d   1      -0.982  -5.998  -5.323  0.00  0.00     0.034 A 
ATOM      7 Cl   UNL d   1      -2.565  -5.998  -3.157  0.00  0.00    -0.070 Cl
ATOM      8 Cl1  UNL d   1       0.221  -5.994  -1.473  0.00  0.00    -0.070 Cl
ENDROOT
TORSDOF 0
ENDMDL
