MODEL 1
REMARK minimizedAffinity 6.03656864
REMARK minimizedRMSD -1
REMARK  0 active torsions:
REMARK  status: ('A' for Active; 'I' for Inactive)
ROOT
ATOM      1  C   UNL d   1       0.205  -2.945   1.077  0.00  0.00     0.020 A 
ATOM      2  C1  UNL d   1      -0.661  -2.155   0.321  0.00  0.00     0.020 A 
ATOM      3  C2  UNL d   1      -0.290  -0.857  -0.035  0.00  0.00     0.034 A 
ATOM      4  C3  UNL d   1       0.949  -0.343   0.365  0.00  0.00     0.017 A 
ATOM      5  C4  UNL d   1       1.817  -1.136   1.124  0.00  0.00     0.017 A 
ATOM      6  C5  UNL d   1       1.441  -2.436   1.478  0.00  0.00     0.034 A 
ATOM      7 Cl   UNL d   1       3.362  -0.573   1.655  0.00  0.00    -0.070 Cl
ATOM      8 Cl1  UNL d   1       1.342   1.270  -0.111  0.00  0.00    -0.070 Cl
ENDROOT
TORSDOF 0
ENDMDL
