MODEL 1
REMARK minimizedAffinity 2.17547369
REMARK minimizedRMSD -1
REMARK  0 active torsions:
REMARK  status: ('A' for Active; 'I' for Inactive)
ROOT
ATOM      1  C   UNL d   1       0.449  -5.968  -5.999  0.00  0.00     0.020 A 
ATOM      2  C1  UNL d   1       1.398  -5.960  -4.978  0.00  0.00     0.020 A 
ATOM      3  C2  UNL d   1       0.988  -5.959  -3.643  0.00  0.00     0.034 A 
ATOM      4  C3  UNL d   1      -0.375  -5.968  -3.326  0.00  0.00     0.017 A 
ATOM      5  C4  UNL d   1      -1.327  -5.977  -4.352  0.00  0.00     0.017 A 
ATOM      6  C5  UNL d   1      -0.911  -5.977  -5.687  0.00  0.00     0.034 A 
ATOM      7 Cl   UNL d   1      -3.027  -5.987  -4.039  0.00  0.00    -0.070 Cl
ATOM      8 Cl1  UNL d   1      -0.811  -5.967  -1.654  0.00  0.00    -0.070 Cl
ENDROOT
TORSDOF 0
ENDMDL
