MODEL 1
REMARK minimizedAffinity 4.98000431
REMARK minimizedRMSD -1
REMARK  0 active torsions:
REMARK  status: ('A' for Active; 'I' for Inactive)
ROOT
ATOM      1  C   UNL d   1       1.220  -5.945  -3.582  0.00  0.00     0.020 A 
ATOM      2  C1  UNL d   1       1.253  -5.943  -4.976  0.00  0.00     0.020 A 
ATOM      3  C2  UNL d   1       0.061  -5.957  -5.703  0.00  0.00     0.034 A 
ATOM      4  C3  UNL d   1      -1.170  -5.974  -5.037  0.00  0.00     0.017 A 
ATOM      5  C4  UNL d   1      -1.202  -5.977  -3.637  0.00  0.00     0.017 A 
ATOM      6  C5  UNL d   1      -0.005  -5.962  -2.915  0.00  0.00     0.034 A 
ATOM      7 Cl   UNL d   1      -2.682  -5.997  -2.745  0.00  0.00    -0.070 Cl
ATOM      8 Cl1  UNL d   1      -2.604  -5.992  -5.999  0.00  0.00    -0.070 Cl
ENDROOT
TORSDOF 0
ENDMDL
