MODEL 1
REMARK minimizedAffinity -2.92171574
REMARK minimizedRMSD -1
REMARK  0 active torsions:
REMARK  status: ('A' for Active; 'I' for Inactive)
ROOT
ATOM      1  C   UNL d   1      -4.442  -5.841  -4.089  0.00  0.00     0.172 C 
ATOM      2  N   UNL d   1      -4.615  -4.671  -3.260  0.00  0.00    -0.070 N 
ATOM      3  C1  UNL d   1      -5.136  -4.660  -1.994  0.00  0.00    -0.004 A 
ATOM      4  C2  UNL d   1      -5.131  -3.357  -1.546  0.00  0.00    -0.047 A 
ATOM      5  C3  UNL d   1      -4.590  -2.556  -2.580  0.00  0.00    -0.047 A 
ATOM      6  C4  UNL d   1      -4.279  -3.395  -3.629  0.00  0.00    -0.004 A 
ENDROOT
TORSDOF 0
ENDMDL
