MODEL 1
REMARK minimizedAffinity -0.368921638
REMARK minimizedRMSD -1
REMARK  0 active torsions:
REMARK  status: ('A' for Active; 'I' for Inactive)
ROOT
ATOM      1  C   UNL d   1      -4.875  -4.881  -2.428  0.00  0.00     0.172 C 
ATOM      2  N   UNL d   1      -5.189  -4.961  -3.835  0.00  0.00    -0.070 N 
ATOM      3  C1  UNL d   1      -4.870  -4.021  -4.779  0.00  0.00    -0.004 A 
ATOM      4  C2  UNL d   1      -5.341  -4.467  -5.995  0.00  0.00    -0.047 A 
ATOM      5  C3  UNL d   1      -5.965  -5.718  -5.774  0.00  0.00    -0.047 A 
ATOM      6  C4  UNL d   1      -5.856  -6.000  -4.429  0.00  0.00    -0.004 A 
ENDROOT
TORSDOF 0
ENDMDL
