MODEL 1
REMARK minimizedAffinity 3.17405081
REMARK minimizedRMSD -1
REMARK  0 active torsions:
REMARK  status: ('A' for Active; 'I' for Inactive)
ROOT
ATOM      1  C   UNL d   1       2.471  -3.028   3.360  0.00  0.00     0.172 C 
ATOM      2  N   UNL d   1       3.906  -3.188   3.369  0.00  0.00    -0.070 N 
ATOM      3  C1  UNL d   1       4.694  -3.268   4.486  0.00  0.00    -0.004 A 
ATOM      4  C2  UNL d   1       6.000  -3.416   4.073  0.00  0.00    -0.047 A 
ATOM      5  C3  UNL d   1       5.998  -3.425   2.657  0.00  0.00    -0.047 A 
ATOM      6  C4  UNL d   1       4.689  -3.282   2.248  0.00  0.00    -0.004 A 
ENDROOT
TORSDOF 0
ENDMDL
