MODEL 1
REMARK minimizedAffinity -2.74548078
REMARK minimizedRMSD -1
REMARK  0 active torsions:
REMARK  status: ('A' for Active; 'I' for Inactive)
ROOT
ATOM      1  C   UNL d   1      -5.401  -4.484  -5.887  0.00  0.00     0.172 C 
ATOM      2  N   UNL d   1      -5.358  -4.884  -4.500  0.00  0.00    -0.070 N 
ATOM      3  C1  UNL d   1      -4.676  -5.962  -4.001  0.00  0.00    -0.004 A 
ATOM      4  C2  UNL d   1      -4.886  -6.000  -2.639  0.00  0.00    -0.047 A 
ATOM      5  C3  UNL d   1      -5.722  -4.907  -2.309  0.00  0.00    -0.047 A 
ATOM      6  C4  UNL d   1      -5.999  -4.233  -3.479  0.00  0.00    -0.004 A 
ENDROOT
TORSDOF 0
ENDMDL
