MODEL 1
REMARK minimizedAffinity -1.27615702
REMARK minimizedRMSD -1
REMARK  0 active torsions:
REMARK  status: ('A' for Active; 'I' for Inactive)
ROOT
ATOM      1  C   UNL d   1      -4.585  -4.455  -2.685  0.00  0.00     0.172 C 
ATOM      2  N   UNL d   1      -4.886  -4.874  -4.033  0.00  0.00    -0.070 N 
ATOM      3  C1  UNL d   1      -5.967  -4.472  -4.772  0.00  0.00    -0.004 A 
ATOM      4  C2  UNL d   1      -5.894  -5.092  -6.000  0.00  0.00    -0.047 A 
ATOM      5  C3  UNL d   1      -4.730  -5.896  -6.000  0.00  0.00    -0.047 A 
ATOM      6  C4  UNL d   1      -4.125  -5.743  -4.770  0.00  0.00    -0.004 A 
ENDROOT
TORSDOF 0
ENDMDL
