MODEL 1
REMARK minimizedAffinity 0.219131365
REMARK minimizedRMSD -1
REMARK  0 active torsions:
REMARK  status: ('A' for Active; 'I' for Inactive)
ROOT
ATOM      1  C   UNL d   1      -3.610  -5.607  -3.289  0.00  0.00     0.172 C 
ATOM      2  N   UNL d   1      -4.467  -5.184  -4.371  0.00  0.00    -0.070 N 
ATOM      3  C1  UNL d   1      -4.536  -3.917  -4.887  0.00  0.00    -0.004 A 
ATOM      4  C2  UNL d   1      -5.468  -3.925  -5.902  0.00  0.00    -0.047 A 
ATOM      5  C3  UNL d   1      -5.978  -5.241  -5.999  0.00  0.00    -0.047 A 
ATOM      6  C4  UNL d   1      -5.341  -6.000  -5.040  0.00  0.00    -0.004 A 
ENDROOT
TORSDOF 0
ENDMDL
