MODEL 1
REMARK minimizedAffinity -2.95180726
REMARK minimizedRMSD -1
REMARK  0 active torsions:
REMARK  status: ('A' for Active; 'I' for Inactive)
ROOT
ATOM      1  C   UNL d   1      -4.140  -5.974  -5.988  0.00  0.00     0.172 C 
ATOM      2  N   UNL d   1      -4.644  -5.416  -4.755  0.00  0.00    -0.070 N 
ATOM      3  C1  UNL d   1      -5.918  -4.959  -4.548  0.00  0.00    -0.004 A 
ATOM      4  C2  UNL d   1      -6.000  -4.509  -3.248  0.00  0.00    -0.047 A 
ATOM      5  C3  UNL d   1      -4.730  -4.702  -2.653  0.00  0.00    -0.047 A 
ATOM      6  C4  UNL d   1      -3.910  -5.265  -3.608  0.00  0.00    -0.004 A 
ENDROOT
TORSDOF 0
ENDMDL
