MODEL 1
REMARK minimizedAffinity -2.00072551
REMARK minimizedRMSD -1
REMARK  0 active torsions:
REMARK  status: ('A' for Active; 'I' for Inactive)
ROOT
ATOM      1  C   UNL d   1      -4.858  -4.863  -2.442  0.00  0.00     0.172 C 
ATOM      2  N   UNL d   1      -4.907  -4.860  -3.886  0.00  0.00    -0.070 N 
ATOM      3  C1  UNL d   1      -4.764  -5.958  -4.692  0.00  0.00    -0.004 A 
ATOM      4  C2  UNL d   1      -4.873  -5.537  -6.000  0.00  0.00    -0.047 A 
ATOM      5  C3  UNL d   1      -5.087  -4.139  -5.979  0.00  0.00    -0.047 A 
ATOM      6  C4  UNL d   1      -5.103  -3.745  -4.657  0.00  0.00    -0.004 A 
ENDROOT
TORSDOF 0
ENDMDL
