MODEL 1
REMARK minimizedAffinity -2.84875703
REMARK minimizedRMSD -1
REMARK  0 active torsions:
REMARK  status: ('A' for Active; 'I' for Inactive)
ROOT
ATOM      1  C   UNL d   1      -4.864  -4.965  -5.349  0.00  0.00     0.172 C 
ATOM      2  N   UNL d   1      -4.989  -5.233  -3.935  0.00  0.00    -0.070 N 
ATOM      3  C1  UNL d   1      -4.126  -5.987  -3.186  0.00  0.00    -0.004 A 
ATOM      4  C2  UNL d   1      -4.593  -6.000  -1.890  0.00  0.00    -0.047 A 
ATOM      5  C3  UNL d   1      -5.778  -5.228  -1.859  0.00  0.00    -0.047 A 
ATOM      6  C4  UNL d   1      -6.000  -4.764  -3.138  0.00  0.00    -0.004 A 
ENDROOT
TORSDOF 0
ENDMDL
