MODEL 1
REMARK minimizedAffinity -3.44277978
REMARK minimizedRMSD -1
REMARK  0 active torsions:
REMARK  status: ('A' for Active; 'I' for Inactive)
ROOT
ATOM      1  C   UNL d   1      -0.814   2.062   2.403  0.00  0.00     0.078 C 
ATOM      2  C1  UNL d   1      -0.499   0.979   1.415  0.00  0.00    -0.077 A 
ATOM      3  C2  UNL d   1      -1.518   0.328   0.709  0.00  0.00    -0.001 A 
ATOM      4  C3  UNL d   1      -1.211  -0.685  -0.200  0.00  0.00     0.003 A 
ATOM      5  C4  UNL d   1       0.116  -1.057  -0.412  0.00  0.00    -0.005 A 
ATOM      6  C5  UNL d   1       1.136  -0.416   0.288  0.00  0.00     0.003 A 
ATOM      7  C6  UNL d   1       0.831   0.597   1.198  0.00  0.00    -0.001 A 
ENDROOT
TORSDOF 0
ENDMDL
