MODEL 1
REMARK minimizedAffinity -4.61140919
REMARK minimizedRMSD -1
REMARK  0 active torsions:
REMARK  status: ('A' for Active; 'I' for Inactive)
ROOT
ATOM      1  C   UNL d   1      -1.079   1.627   3.670  0.00  0.00     0.078 C 
ATOM      2  C1  UNL d   1      -0.481   1.015   2.440  0.00  0.00    -0.077 A 
ATOM      3  C2  UNL d   1       0.907   0.969   2.259  0.00  0.00    -0.001 A 
ATOM      4  C3  UNL d   1       1.450   0.404   1.104  0.00  0.00     0.003 A 
ATOM      5  C4  UNL d   1       0.613  -0.118   0.120  0.00  0.00    -0.005 A 
ATOM      6  C5  UNL d   1      -0.769  -0.075   0.290  0.00  0.00     0.003 A 
ATOM      7  C6  UNL d   1      -1.314   0.489   1.444  0.00  0.00    -0.001 A 
ENDROOT
TORSDOF 0
ENDMDL
