MODEL 1
REMARK minimizedAffinity -3.54210734
REMARK minimizedRMSD -1
REMARK  0 active torsions:
REMARK  status: ('A' for Active; 'I' for Inactive)
ROOT
ATOM      1  C   UNL d   1      -0.889   0.367   0.186  0.00  0.00     0.078 C 
ATOM      2  C1  UNL d   1      -0.006   0.164  -1.008  0.00  0.00    -0.077 A 
ATOM      3  C2  UNL d   1       0.773  -0.992  -1.141  0.00  0.00    -0.001 A 
ATOM      4  C3  UNL d   1       1.598  -1.163  -2.254  0.00  0.00     0.003 A 
ATOM      5  C4  UNL d   1       1.655  -0.181  -3.241  0.00  0.00    -0.005 A 
ATOM      6  C5  UNL d   1       0.886   0.974  -3.116  0.00  0.00     0.003 A 
ATOM      7  C6  UNL d   1       0.059   1.147  -2.004  0.00  0.00    -0.001 A 
ENDROOT
TORSDOF 0
ENDMDL
