MODEL 1
REMARK minimizedAffinity -4.93131304
REMARK minimizedRMSD -1
REMARK  3 active torsions:
REMARK  status: ('A' for Active; 'I' for Inactive)
REMARK    1  A    between atoms: C3'_2  and  C2'_3 
REMARK    2  A    between atoms: C2'_3  and  C1'_4 
REMARK    3  A    between atoms: C1'_4  and  C1_5 
ROOT
ATOM      1  C1  N4B d   1      -0.101  -0.318  -0.365  0.00  0.00    -0.075 A 
ATOM      2  C2  N4B d   1      -1.441  -0.152  -0.780  0.00  0.00     0.002 A 
ATOM      3  C3  N4B d   1      -2.379   0.325   0.103  0.00  0.00     0.002 A 
ATOM      4  C4  N4B d   1      -2.006   0.623   1.405  0.00  0.00    -0.004 A 
ATOM      5  C5  N4B d   1      -0.705   0.484   1.790  0.00  0.00     0.002 A 
ATOM      6  C6  N4B d   1       0.249   0.009   0.912  0.00  0.00     0.002 A 
ENDROOT
BRANCH   1   7
ATOM      7  C1' N4B d   1       0.941  -0.918  -1.269  0.00  0.00     0.057 C 
BRANCH   7   8
ATOM      8  C2' N4B d   1       1.540   0.182  -2.142  0.00  0.00     0.009 C 
BRANCH   8   9
ATOM      9  C3' N4B d   1       1.417  -0.137  -3.622  0.00  0.00     0.004 C 
ATOM     10  C4' N4B d   1       0.846   1.000  -4.416  0.00  0.00     0.003 C 
ENDBRANCH   8   9
ENDBRANCH   7   8
ENDBRANCH   1   7
TORSDOF 3
ENDMDL
