MODEL 1
REMARK minimizedAffinity -6.40631151
REMARK minimizedRMSD -1
REMARK  3 active torsions:
REMARK  status: ('A' for Active; 'I' for Inactive)
REMARK    1  A    between atoms: C3'_2  and  C2'_3 
REMARK    2  A    between atoms: C2'_3  and  C1'_4 
REMARK    3  A    between atoms: C1'_4  and  C1_5 
ROOT
ATOM      1  C1  N4B d   1       0.179  -0.039   0.125  0.00  0.00    -0.075 A 
ATOM      2  C2  N4B d   1       1.126  -0.145   1.168  0.00  0.00     0.002 A 
ATOM      3  C3  N4B d   1       0.765   0.164   2.456  0.00  0.00     0.002 A 
ATOM      4  C4  N4B d   1      -0.525   0.598   2.722  0.00  0.00    -0.004 A 
ATOM      5  C5  N4B d   1      -1.440   0.674   1.713  0.00  0.00     0.002 A 
ATOM      6  C6  N4B d   1      -1.093   0.363   0.414  0.00  0.00     0.002 A 
ENDROOT
BRANCH   1   7
ATOM      7  C1' N4B d   1       0.550  -0.283  -1.312  0.00  0.00     0.057 C 
BRANCH   7   8
ATOM      8  C2' N4B d   1       2.036   0.007  -1.502  0.00  0.00     0.009 C 
BRANCH   8   9
ATOM      9  C3' N4B d   1       2.306   0.770  -2.788  0.00  0.00     0.004 C 
ATOM     10  C4' N4B d   1       1.150   0.728  -3.742  0.00  0.00     0.003 C 
ENDBRANCH   8   9
ENDBRANCH   7   8
ENDBRANCH   1   7
TORSDOF 3
ENDMDL
