MODEL 1
REMARK minimizedAffinity -5.05838299
REMARK minimizedRMSD -1
REMARK  3 active torsions:
REMARK  status: ('A' for Active; 'I' for Inactive)
REMARK    1  A    between atoms: C3'_2  and  C2'_3 
REMARK    2  A    between atoms: C2'_3  and  C1'_4 
REMARK    3  A    between atoms: C1'_4  and  C1_5 
ROOT
ATOM      1  C1  N4B d   1       0.420  -0.283  -1.613  0.00  0.00    -0.075 A 
ATOM      2  C2  N4B d   1      -0.473  -0.653  -2.643  0.00  0.00     0.002 A 
ATOM      3  C3  N4B d   1      -0.179  -0.347  -3.949  0.00  0.00     0.002 A 
ATOM      4  C4  N4B d   1       0.987   0.341  -4.246  0.00  0.00    -0.004 A 
ATOM      5  C5  N4B d   1       1.857   0.672  -3.249  0.00  0.00     0.002 A 
ATOM      6  C6  N4B d   1       1.576   0.367  -1.932  0.00  0.00     0.002 A 
ENDROOT
BRANCH   1   7
ATOM      7  C1' N4B d   1       0.101  -0.520  -0.162  0.00  0.00     0.057 C 
BRANCH   7   8
ATOM      8  C2' N4B d   1      -1.393  -0.303   0.064  0.00  0.00     0.009 C 
BRANCH   8   9
ATOM      9  C3' N4B d   1      -1.660   0.798   1.075  0.00  0.00     0.004 C 
ATOM     10  C4' N4B d   1      -1.504   0.336   2.493  0.00  0.00     0.003 C 
ENDBRANCH   8   9
ENDBRANCH   7   8
ENDBRANCH   1   7
TORSDOF 3
ENDMDL
