MODEL 1
REMARK minimizedAffinity -4.33351135
REMARK minimizedRMSD -1
REMARK  3 active torsions:
REMARK  status: ('A' for Active; 'I' for Inactive)
REMARK    1  A    between atoms: C3'_2  and  C2'_3 
REMARK    2  A    between atoms: C2'_3  and  C1'_4 
REMARK    3  A    between atoms: C1'_4  and  C1_5 
ROOT
ATOM      1  C1  N4B d   1       0.659  -0.223  -1.526  0.00  0.00    -0.075 A 
ATOM      2  C2  N4B d   1      -0.037  -0.649  -2.678  0.00  0.00     0.002 A 
ATOM      3  C3  N4B d   1       0.451  -0.347  -3.926  0.00  0.00     0.002 A 
ATOM      4  C4  N4B d   1       1.617   0.393  -4.045  0.00  0.00    -0.004 A 
ATOM      5  C5  N4B d   1       2.297   0.779  -2.927  0.00  0.00     0.002 A 
ATOM      6  C6  N4B d   1       1.821   0.479  -1.667  0.00  0.00     0.002 A 
ENDROOT
BRANCH   1   7
ATOM      7  C1' N4B d   1       0.120  -0.456  -0.141  0.00  0.00     0.057 C 
BRANCH   7   8
ATOM      8  C2' N4B d   1      -1.374  -0.142  -0.126  0.00  0.00     0.009 C 
BRANCH   8   9
ATOM      9  C3' N4B d   1      -1.710   0.976   0.846  0.00  0.00     0.004 C 
ATOM     10  C4' N4B d   1      -1.579   0.557   2.280  0.00  0.00     0.003 C 
ENDBRANCH   8   9
ENDBRANCH   7   8
ENDBRANCH   1   7
TORSDOF 3
ENDMDL
