MODEL 1
REMARK minimizedAffinity -2.16628766
REMARK minimizedRMSD -1
REMARK  3 active torsions:
REMARK  status: ('A' for Active; 'I' for Inactive)
REMARK    1  A    between atoms: C3'_2  and  C2'_3 
REMARK    2  A    between atoms: C2'_3  and  C1'_4 
REMARK    3  A    between atoms: C1'_4  and  C1_5 
ROOT
ATOM      1  C1  N4B d   1       0.059  -0.359   1.043  0.00  0.00    -0.075 A 
ATOM      2  C2  N4B d   1       1.199  -0.536   1.856  0.00  0.00     0.002 A 
ATOM      3  C3  N4B d   1       1.112  -0.340   3.213  0.00  0.00     0.002 A 
ATOM      4  C4  N4B d   1      -0.095   0.050   3.773  0.00  0.00    -0.004 A 
ATOM      5  C5  N4B d   1      -1.198   0.193   2.984  0.00  0.00     0.002 A 
ATOM      6  C6  N4B d   1      -1.126  -0.005   1.619  0.00  0.00     0.002 A 
ENDROOT
BRANCH   1   7
ATOM      7  C1' N4B d   1       0.126  -0.479  -0.455  0.00  0.00     0.057 C 
BRANCH   7   8
ATOM      8  C2' N4B d   1       0.886   0.718  -1.020  0.00  0.00     0.009 C 
BRANCH   8   9
ATOM      9  C3' N4B d   1       0.182   2.030  -0.721  0.00  0.00     0.004 C 
ATOM     10  C4' N4B d   1       1.049   2.997   0.028  0.00  0.00     0.003 C 
ENDBRANCH   8   9
ENDBRANCH   7   8
ENDBRANCH   1   7
TORSDOF 3
ENDMDL
