MODEL 1
REMARK minimizedAffinity -2.40818262
REMARK minimizedRMSD -1
REMARK  3 active torsions:
REMARK  status: ('A' for Active; 'I' for Inactive)
REMARK    1  A    between atoms: C3'_2  and  C2'_3 
REMARK    2  A    between atoms: C2'_3  and  C1'_4 
REMARK    3  A    between atoms: C1'_4  and  C1_5 
ROOT
ATOM      1  C1  N4B d   1      -0.170  -0.166  -0.078  0.00  0.00    -0.075 A 
ATOM      2  C2  N4B d   1      -1.401   0.389   0.337  0.00  0.00     0.002 A 
ATOM      3  C3  N4B d   1      -1.558   0.820   1.631  0.00  0.00     0.002 A 
ATOM      4  C4  N4B d   1      -0.510   0.690   2.530  0.00  0.00    -0.004 A 
ATOM      5  C5  N4B d   1       0.683   0.176   2.115  0.00  0.00     0.002 A 
ATOM      6  C6  N4B d   1       0.857  -0.258   0.816  0.00  0.00     0.002 A 
ENDROOT
BRANCH   1   7
ATOM      7  C1' N4B d   1       0.022  -0.730  -1.459  0.00  0.00     0.057 C 
BRANCH   7   8
ATOM      8  C2' N4B d   1       0.746   0.298  -2.323  0.00  0.00     0.009 C 
BRANCH   8   9
ATOM      9  C3' N4B d   1       0.678  -0.052  -3.800  0.00  0.00     0.004 C 
ATOM     10  C4' N4B d   1       1.157   1.061  -4.683  0.00  0.00     0.003 C 
ENDBRANCH   8   9
ENDBRANCH   7   8
ENDBRANCH   1   7
TORSDOF 3
ENDMDL
