MODEL 1
REMARK minimizedAffinity -3.46584034
REMARK minimizedRMSD -1
REMARK  0 active torsions:
REMARK  status: ('A' for Active; 'I' for Inactive)
ROOT
ATOM      1  C1  DEN d   1       0.310   1.785  -1.201  0.00  0.00     0.130 A 
ATOM      2  C2  DEN d   1       1.246   0.834  -1.795  0.00  0.00    -0.031 A 
ATOM      3  C3  DEN d   1       1.295  -0.360  -0.929  0.00  0.00     0.027 A 
ATOM      4  C4  DEN d   1       0.017  -0.830   1.261  0.00  0.00     0.027 A 
ATOM      5  C5  DEN d   1      -0.884  -0.316   2.168  0.00  0.00    -0.003 A 
ATOM      6  C6  DEN d   1      -1.419   0.938   2.034  0.00  0.00     0.001 A 
ATOM      7  C7  DEN d   1      -1.093   1.703   0.946  0.00  0.00     0.017 A 
ATOM      8  C8  DEN d   1      -0.180   1.194   0.031  0.00  0.00    -0.094 A 
ATOM      9  C9  DEN d   1       0.341  -0.081   0.177  0.00  0.00    -0.072 A 
ENDROOT
TORSDOF 0
ENDMDL
