MODEL 1
REMARK minimizedAffinity -2.2841289
REMARK minimizedRMSD -1
REMARK  0 active torsions:
REMARK  status: ('A' for Active; 'I' for Inactive)
ROOT
ATOM      1  C1  DEN d   1      -1.758   2.040   0.162  0.00  0.00     0.130 A 
ATOM      2  C2  DEN d   1      -2.285   2.023   1.523  0.00  0.00    -0.031 A 
ATOM      3  C3  DEN d   1      -1.703   0.860   2.224  0.00  0.00     0.027 A 
ATOM      4  C4  DEN d   1      -0.041  -0.902   1.338  0.00  0.00     0.027 A 
ATOM      5  C5  DEN d   1       0.683  -1.310   0.240  0.00  0.00    -0.003 A 
ATOM      6  C6  DEN d   1       0.618  -0.656  -0.962  0.00  0.00     0.001 A 
ATOM      7  C7  DEN d   1      -0.153   0.470  -1.081  0.00  0.00     0.017 A 
ATOM      8  C8  DEN d   1      -0.892   0.883   0.020  0.00  0.00    -0.094 A 
ATOM      9  C9  DEN d   1      -0.803   0.216   1.230  0.00  0.00    -0.072 A 
ENDROOT
TORSDOF 0
ENDMDL
