MODEL 1
REMARK minimizedAffinity -1.80284858
REMARK minimizedRMSD -1
REMARK  0 active torsions:
REMARK  status: ('A' for Active; 'I' for Inactive)
ROOT
ATOM      1  C1  DEN d   1      -0.787  -0.185   1.699  0.00  0.00     0.130 A 
ATOM      2  C2  DEN d   1      -1.610   1.004   1.905  0.00  0.00    -0.031 A 
ATOM      3  C3  DEN d   1      -1.300   1.966   0.828  0.00  0.00     0.027 A 
ATOM      4  C4  DEN d   1       0.362   1.728  -1.131  0.00  0.00     0.027 A 
ATOM      5  C5  DEN d   1       1.295   0.902  -1.717  0.00  0.00    -0.003 A 
ATOM      6  C6  DEN d   1       1.623  -0.319  -1.191  0.00  0.00     0.001 A 
ATOM      7  C7  DEN d   1       0.978  -0.770  -0.069  0.00  0.00     0.017 A 
ATOM      8  C8  DEN d   1       0.040   0.060   0.532  0.00  0.00    -0.094 A 
ATOM      9  C9  DEN d   1      -0.285   1.286  -0.023  0.00  0.00    -0.072 A 
ENDROOT
TORSDOF 0
ENDMDL
