MODEL 1
REMARK minimizedAffinity -2.06447577
REMARK minimizedRMSD -1
REMARK  0 active torsions:
REMARK  status: ('A' for Active; 'I' for Inactive)
ROOT
ATOM      1  C1  DEN d   1       0.797  -0.725   0.889  0.00  0.00     0.130 A 
ATOM      2  C2  DEN d   1       1.051  -1.215  -0.463  0.00  0.00    -0.031 A 
ATOM      3  C3  DEN d   1       0.134  -0.512  -1.383  0.00  0.00     0.027 A 
ATOM      4  C4  DEN d   1      -1.643   1.279  -0.849  0.00  0.00     0.027 A 
ATOM      5  C5  DEN d   1      -2.233   2.009   0.159  0.00  0.00    -0.003 A 
ATOM      6  C6  DEN d   1      -1.881   1.856   1.474  0.00  0.00     0.001 A 
ATOM      7  C7  DEN d   1      -0.881   0.983   1.812  0.00  0.00     0.017 A 
ATOM      8  C8  DEN d   1      -0.286   0.238   0.802  0.00  0.00    -0.094 A 
ATOM      9  C9  DEN d   1      -0.647   0.417  -0.523  0.00  0.00    -0.072 A 
ENDROOT
TORSDOF 0
ENDMDL
