MODEL 1
REMARK minimizedAffinity -3.40276694
REMARK minimizedRMSD -1
REMARK  0 active torsions:
REMARK  status: ('A' for Active; 'I' for Inactive)
ROOT
ATOM      1  C1  DEN d   1       0.645   0.137  -0.996  0.00  0.00     0.130 A 
ATOM      2  C2  DEN d   1       1.541  -0.641  -0.145  0.00  0.00    -0.031 A 
ATOM      3  C3  DEN d   1       1.203  -0.349   1.262  0.00  0.00     0.027 A 
ATOM      4  C4  DEN d   1      -0.614   1.221   2.202  0.00  0.00     0.027 A 
ATOM      5  C5  DEN d   1      -1.616   2.105   1.868  0.00  0.00    -0.003 A 
ATOM      6  C6  DEN d   1      -1.910   2.419   0.567  0.00  0.00     0.001 A 
ATOM      7  C7  DEN d   1      -1.223   1.809  -0.449  0.00  0.00     0.017 A 
ATOM      8  C8  DEN d   1      -0.206   0.922  -0.120  0.00  0.00    -0.094 A 
ATOM      9  C9  DEN d   1       0.067   0.609   1.200  0.00  0.00    -0.072 A 
ENDROOT
TORSDOF 0
ENDMDL
