MODEL 1
REMARK minimizedAffinity -4.69761992
REMARK minimizedRMSD -1
REMARK  0 active torsions:
REMARK  status: ('A' for Active; 'I' for Inactive)
ROOT
ATOM      1  C1  DEN d   1      -1.223   2.257   0.526  0.00  0.00     0.130 A 
ATOM      2  C2  DEN d   1      -1.873   2.297   1.834  0.00  0.00    -0.031 A 
ATOM      3  C3  DEN d   1      -1.437   1.109   2.596  0.00  0.00     0.027 A 
ATOM      4  C4  DEN d   1       0.176  -0.773   1.886  0.00  0.00     0.027 A 
ATOM      5  C5  DEN d   1       0.968  -1.246   0.863  0.00  0.00    -0.003 A 
ATOM      6  C6  DEN d   1       1.058  -0.608  -0.346  0.00  0.00     0.001 A 
ATOM      7  C7  DEN d   1       0.379   0.564  -0.547  0.00  0.00     0.017 A 
ATOM      8  C8  DEN d   1      -0.427   1.043   0.477  0.00  0.00    -0.094 A 
ATOM      9  C9  DEN d   1      -0.495   0.390   1.696  0.00  0.00    -0.072 A 
ENDROOT
TORSDOF 0
ENDMDL
