MODEL 1
REMARK minimizedAffinity -4.29402161
REMARK minimizedRMSD -1
REMARK  0 active torsions:
REMARK  status: ('A' for Active; 'I' for Inactive)
ROOT
ATOM      1  C1  DEN d   1      -0.329  -0.528   1.438  0.00  0.00     0.130 A 
ATOM      2  C2  DEN d   1       0.524  -1.101   0.401  0.00  0.00    -0.031 A 
ATOM      3  C3  DEN d   1       0.667  -0.102  -0.677  0.00  0.00     0.027 A 
ATOM      4  C4  DEN d   1      -0.342   2.267  -0.837  0.00  0.00     0.027 A 
ATOM      5  C5  DEN d   1      -1.144   3.191  -0.204  0.00  0.00    -0.003 A 
ATOM      6  C6  DEN d   1      -1.753   2.929   0.995  0.00  0.00     0.001 A 
ATOM      7  C7  DEN d   1      -1.533   1.730   1.621  0.00  0.00     0.017 A 
ATOM      8  C8  DEN d   1      -0.732   0.791   0.985  0.00  0.00    -0.094 A 
ATOM      9  C9  DEN d   1      -0.115   1.079  -0.221  0.00  0.00    -0.072 A 
ENDROOT
TORSDOF 0
ENDMDL
