MODEL 1
REMARK minimizedAffinity -5.75103712
REMARK minimizedRMSD -1
REMARK  0 active torsions:
REMARK  status: ('A' for Active; 'I' for Inactive)
ROOT
ATOM      1  C1  DEN d   1       0.814  -0.545   1.233  0.00  0.00     0.130 A 
ATOM      2  C2  DEN d   1       1.525  -0.761  -0.025  0.00  0.00    -0.031 A 
ATOM      3  C3  DEN d   1       0.826  -0.000  -1.080  0.00  0.00     0.027 A 
ATOM      4  C4  DEN d   1      -1.273   1.486  -0.890  0.00  0.00     0.027 A 
ATOM      5  C5  DEN d   1      -2.234   1.966  -0.028  0.00  0.00    -0.003 A 
ATOM      6  C6  DEN d   1      -2.267   1.617   1.297  0.00  0.00     0.001 A 
ATOM      7  C7  DEN d   1      -1.293   0.801   1.808  0.00  0.00     0.017 A 
ATOM      8  C8  DEN d   1      -0.324   0.308   0.943  0.00  0.00    -0.094 A 
ATOM      9  C9  DEN d   1      -0.301   0.681  -0.390  0.00  0.00    -0.072 A 
ENDROOT
TORSDOF 0
ENDMDL
