MODEL 1
REMARK minimizedAffinity 0.969136834
REMARK minimizedRMSD -1
REMARK  0 active torsions:
REMARK  status: ('A' for Active; 'I' for Inactive)
ROOT
ATOM      1  C1  DEN d   1       1.524  -0.811  -0.424  0.00  0.00     0.130 A 
ATOM      2  C2  DEN d   1       0.820  -1.562   0.612  0.00  0.00    -0.031 A 
ATOM      3  C3  DEN d   1      -0.409  -0.821   0.958  0.00  0.00     0.027 A 
ATOM      4  C4  DEN d   1      -1.291   1.402  -0.009  0.00  0.00     0.027 A 
ATOM      5  C5  DEN d   1      -1.032   2.418  -0.902  0.00  0.00    -0.003 A 
ATOM      6  C6  DEN d   1       0.103   2.446  -1.668  0.00  0.00     0.001 A 
ATOM      7  C7  DEN d   1       1.002   1.416  -1.587  0.00  0.00     0.017 A 
ATOM      8  C8  DEN d   1       0.752   0.391  -0.683  0.00  0.00    -0.094 A 
ATOM      9  C9  DEN d   1      -0.407   0.374   0.073  0.00  0.00    -0.072 A 
ENDROOT
TORSDOF 0
ENDMDL
