MODEL 1
REMARK minimizedAffinity -4.3202529
REMARK minimizedRMSD -1
REMARK  0 active torsions:
REMARK  status: ('A' for Active; 'I' for Inactive)
ROOT
ATOM      1  C1  DEN d   1      -0.254  -0.792  -1.172  0.00  0.00     0.130 A 
ATOM      2  C2  DEN d   1       1.172  -1.010  -0.946  0.00  0.00    -0.031 A 
ATOM      3  C3  DEN d   1       1.550  -0.303   0.295  0.00  0.00     0.027 A 
ATOM      4  C4  DEN d   1       0.073   1.096   1.880  0.00  0.00     0.027 A 
ATOM      5  C5  DEN d   1      -1.200   1.575   2.097  0.00  0.00    -0.003 A 
ATOM      6  C6  DEN d   1      -2.231   1.330   1.229  0.00  0.00     0.001 A 
ATOM      7  C7  DEN d   1      -2.017   0.547   0.126  0.00  0.00     0.017 A 
ATOM      8  C8  DEN d   1      -0.735   0.066  -0.104  0.00  0.00    -0.094 A 
ATOM      9  C9  DEN d   1       0.291   0.315   0.792  0.00  0.00    -0.072 A 
ENDROOT
TORSDOF 0
ENDMDL
