MODEL 1
REMARK minimizedAffinity -1.12217724
REMARK minimizedRMSD -1
REMARK  0 active torsions:
REMARK  status: ('A' for Active; 'I' for Inactive)
ROOT
ATOM      1  C1  DEN d   1      -1.064   1.636  -0.776  0.00  0.00     0.130 A 
ATOM      2  C2  DEN d   1      -1.480   2.087   0.549  0.00  0.00    -0.031 A 
ATOM      3  C3  DEN d   1      -0.894   1.170   1.548  0.00  0.00     0.027 A 
ATOM      4  C4  DEN d   1       0.611  -0.890   1.173  0.00  0.00     0.027 A 
ATOM      5  C5  DEN d   1       1.225  -1.674   0.221  0.00  0.00    -0.003 A 
ATOM      6  C6  DEN d   1       1.092  -1.431  -1.121  0.00  0.00     0.001 A 
ATOM      7  C7  DEN d   1       0.364  -0.352  -1.547  0.00  0.00     0.017 A 
ATOM      8  C8  DEN d   1      -0.264   0.438  -0.593  0.00  0.00    -0.094 A 
ATOM      9  C9  DEN d   1      -0.107   0.184   0.759  0.00  0.00    -0.072 A 
ENDROOT
TORSDOF 0
ENDMDL
