MODEL 1
REMARK minimizedAffinity -1.51692033
REMARK minimizedRMSD -1
REMARK  0 active torsions:
REMARK  status: ('A' for Active; 'I' for Inactive)
ROOT
ATOM      1  C1  DEN d   1       0.525   1.849  -0.936  0.00  0.00     0.130 A 
ATOM      2  C2  DEN d   1       1.345   0.727  -1.385  0.00  0.00    -0.031 A 
ATOM      3  C3  DEN d   1       1.196  -0.368  -0.405  0.00  0.00     0.027 A 
ATOM      4  C4  DEN d   1      -0.222  -0.437   1.748  0.00  0.00     0.027 A 
ATOM      5  C5  DEN d   1      -1.079   0.283   2.551  0.00  0.00    -0.003 A 
ATOM      6  C6  DEN d   1      -1.432   1.576   2.269  0.00  0.00     0.001 A 
ATOM      7  C7  DEN d   1      -0.961   2.175   1.130  0.00  0.00     0.017 A 
ATOM      8  C8  DEN d   1      -0.090   1.458   0.320  0.00  0.00    -0.094 A 
ATOM      9  C9  DEN d   1       0.245   0.148   0.616  0.00  0.00    -0.072 A 
ENDROOT
TORSDOF 0
ENDMDL
