MODEL 1
REMARK minimizedAffinity -3.55798817
REMARK minimizedRMSD -1
REMARK  0 active torsions:
REMARK  status: ('A' for Active; 'I' for Inactive)
ROOT
ATOM      1  C1  DEN d   1       0.677   1.220  -1.668  0.00  0.00     0.130 A 
ATOM      2  C2  DEN d   1       0.258   2.593  -1.936  0.00  0.00    -0.031 A 
ATOM      3  C3  DEN d   1      -0.473   3.086  -0.752  0.00  0.00     0.027 A 
ATOM      4  C4  DEN d   1      -0.991   1.865   1.460  0.00  0.00     0.027 A 
ATOM      5  C5  DEN d   1      -0.849   0.680   2.148  0.00  0.00    -0.003 A 
ATOM      6  C6  DEN d   1      -0.224  -0.410   1.604  0.00  0.00     0.001 A 
ATOM      7  C7  DEN d   1       0.323  -0.323   0.351  0.00  0.00     0.017 A 
ATOM      8  C8  DEN d   1       0.178   0.866  -0.352  0.00  0.00    -0.094 A 
ATOM      9  C9  DEN d   1      -0.446   1.961   0.221  0.00  0.00    -0.072 A 
ENDROOT
TORSDOF 0
ENDMDL
