MODEL 1
REMARK minimizedAffinity -4.64053535
REMARK minimizedRMSD -1
REMARK  0 active torsions:
REMARK  status: ('A' for Active; 'I' for Inactive)
ROOT
ATOM      1  C1  DEN d   1      -1.687   1.377  -0.020  0.00  0.00     0.130 A 
ATOM      2  C2  DEN d   1      -1.676   1.846   1.363  0.00  0.00    -0.031 A 
ATOM      3  C3  DEN d   1      -1.050   0.799   2.195  0.00  0.00     0.027 A 
ATOM      4  C4  DEN d   1      -0.096  -1.488   1.479  0.00  0.00     0.027 A 
ATOM      5  C5  DEN d   1       0.109  -2.334   0.412  0.00  0.00    -0.003 A 
ATOM      6  C6  DEN d   1      -0.297  -2.020  -0.858  0.00  0.00     0.001 A 
ATOM      7  C7  DEN d   1      -0.889  -0.809  -1.101  0.00  0.00     0.017 A 
ATOM      8  C8  DEN d   1      -1.106   0.047  -0.028  0.00  0.00    -0.094 A 
ATOM      9  C9  DEN d   1      -0.678  -0.284   1.246  0.00  0.00    -0.072 A 
ENDROOT
TORSDOF 0
ENDMDL
