MODEL 1
REMARK minimizedAffinity 2.28198457
REMARK minimizedRMSD -1
REMARK  0 active torsions:
REMARK  status: ('A' for Active; 'I' for Inactive)
ROOT
ATOM      1  C   UNL d   1       0.003  -1.808   2.924  0.00  0.00    -0.002 A 
ATOM      2  C1  UNL d   1      -0.932  -0.790   2.806  0.00  0.00     0.010 A 
ATOM      3  C2  UNL d   1      -1.087  -0.102   1.601  0.00  0.00     0.041 A 
ATOM      4  C3  UNL d   1      -0.278  -0.460   0.504  0.00  0.00    -0.075 A 
ATOM      5  S   UNL d   1      -0.292   0.242  -1.070  0.00  0.00     0.015 SA
ATOM      6  C4  UNL d   1       0.943  -0.793  -1.625  0.00  0.00     0.022 A 
ATOM      7  C5  UNL d   1       1.367  -1.659  -0.645  0.00  0.00     0.026 A 
ATOM      8  C6  UNL d   1       0.670  -1.482   0.597  0.00  0.00    -0.082 A 
ATOM      9  C7  UNL d   1       0.803  -2.160   1.833  0.00  0.00     0.045 A 
ENDROOT
TORSDOF 0
ENDMDL
