MODEL 1
REMARK minimizedAffinity 9.33164692
REMARK minimizedRMSD -1
REMARK  0 active torsions:
REMARK  status: ('A' for Active; 'I' for Inactive)
ROOT
ATOM      1  C   UNL d   1      -1.544   0.331   3.300  0.00  0.00    -0.002 A 
ATOM      2  C1  UNL d   1      -0.385  -0.357   3.631  0.00  0.00     0.010 A 
ATOM      3  C2  UNL d   1       0.480  -0.812   2.634  0.00  0.00     0.041 A 
ATOM      4  C3  UNL d   1       0.159  -0.560   1.286  0.00  0.00    -0.075 A 
ATOM      5  S   UNL d   1       1.070  -1.022  -0.104  0.00  0.00     0.015 SA
ATOM      6  C4  UNL d   1      -0.057  -0.316  -1.169  0.00  0.00     0.022 A 
ATOM      7  C5  UNL d   1      -1.109   0.262  -0.499  0.00  0.00     0.026 A 
ATOM      8  C6  UNL d   1      -1.001   0.132   0.927  0.00  0.00    -0.082 A 
ATOM      9  C7  UNL d   1      -1.859   0.579   1.961  0.00  0.00     0.045 A 
ENDROOT
TORSDOF 0
ENDMDL
