MODEL 1
REMARK minimizedAffinity 0.0102924034
REMARK minimizedRMSD -1
REMARK  0 active torsions:
REMARK  status: ('A' for Active; 'I' for Inactive)
ROOT
ATOM      1  C   UNL d   1      -1.029  -0.373   0.261  0.00  0.00    -0.002 A 
ATOM      2  C1  UNL d   1       0.220   0.215   0.402  0.00  0.00     0.010 A 
ATOM      3  C2  UNL d   1       0.640   1.213  -0.480  0.00  0.00     0.041 A 
ATOM      4  C3  UNL d   1      -0.227   1.616  -1.515  0.00  0.00    -0.075 A 
ATOM      5  S   UNL d   1       0.073   2.820  -2.712  0.00  0.00     0.015 SA
ATOM      6  C4  UNL d   1      -1.450   2.583  -3.438  0.00  0.00     0.022 A 
ATOM      7  C5  UNL d   1      -2.183   1.613  -2.796  0.00  0.00     0.026 A 
ATOM      8  C6  UNL d   1      -1.490   1.040  -1.677  0.00  0.00    -0.082 A 
ATOM      9  C7  UNL d   1      -1.886   0.030  -0.767  0.00  0.00     0.045 A 
ENDROOT
TORSDOF 0
ENDMDL
