MODEL 1
REMARK minimizedAffinity -1.12556338
REMARK minimizedRMSD -1
REMARK  0 active torsions:
REMARK  status: ('A' for Active; 'I' for Inactive)
ROOT
ATOM      1  C   UNL d   1      -1.496   3.969  -1.893  0.00  0.00    -0.002 A 
ATOM      2  C1  UNL d   1      -1.578   3.278  -3.093  0.00  0.00     0.010 A 
ATOM      3  C2  UNL d   1      -1.240   1.924  -3.157  0.00  0.00     0.041 A 
ATOM      4  C3  UNL d   1      -0.816   1.271  -1.983  0.00  0.00    -0.075 A 
ATOM      5  S   UNL d   1      -0.352  -0.381  -1.822  0.00  0.00     0.015 SA
ATOM      6  C4  UNL d   1      -0.036  -0.208  -0.157  0.00  0.00     0.022 A 
ATOM      7  C5  UNL d   1      -0.272   1.073   0.283  0.00  0.00     0.026 A 
ATOM      8  C6  UNL d   1      -0.726   1.947  -0.762  0.00  0.00    -0.082 A 
ATOM      9  C7  UNL d   1      -1.075   3.318  -0.730  0.00  0.00     0.045 A 
ENDROOT
TORSDOF 0
ENDMDL
