MODEL 1
REMARK minimizedAffinity -1.65856373
REMARK minimizedRMSD -1
REMARK  0 active torsions:
REMARK  status: ('A' for Active; 'I' for Inactive)
ROOT
ATOM      1  C   UNL d   1      -1.001   1.144  -2.038  0.00  0.00    -0.002 A 
ATOM      2  C1  UNL d   1      -1.261   1.503  -0.723  0.00  0.00     0.010 A 
ATOM      3  C2  UNL d   1      -0.503   0.969   0.321  0.00  0.00     0.041 A 
ATOM      4  C3  UNL d   1       0.530   0.061   0.019  0.00  0.00    -0.075 A 
ATOM      5  S   UNL d   1       1.588  -0.720   1.134  0.00  0.00     0.015 SA
ATOM      6  C4  UNL d   1       2.410  -1.547  -0.109  0.00  0.00     0.022 A 
ATOM      7  C5  UNL d   1       1.903  -1.247  -1.351  0.00  0.00     0.026 A 
ATOM      8  C6  UNL d   1       0.812  -0.315  -1.298  0.00  0.00    -0.082 A 
ATOM      9  C7  UNL d   1       0.025   0.243  -2.335  0.00  0.00     0.045 A 
ENDROOT
TORSDOF 0
ENDMDL
