MODEL 1
REMARK minimizedAffinity -2.76355314
REMARK minimizedRMSD -1
REMARK  0 active torsions:
REMARK  status: ('A' for Active; 'I' for Inactive)
ROOT
ATOM      1  C   UNL d   1      -0.997   2.673  -2.190  0.00  0.00    -0.002 A 
ATOM      2  C1  UNL d   1       0.367   2.903  -2.071  0.00  0.00     0.010 A 
ATOM      3  C2  UNL d   1       1.158   2.080  -1.268  0.00  0.00     0.041 A 
ATOM      4  C3  UNL d   1       0.551   1.011  -0.581  0.00  0.00    -0.075 A 
ATOM      5  S   UNL d   1       1.322  -0.128   0.459  0.00  0.00     0.015 SA
ATOM      6  C4  UNL d   1      -0.140  -0.948   0.769  0.00  0.00     0.022 A 
ATOM      7  C5  UNL d   1      -1.201  -0.379   0.104  0.00  0.00     0.026 A 
ATOM      8  C6  UNL d   1      -0.820   0.758  -0.686  0.00  0.00    -0.082 A 
ATOM      9  C7  UNL d   1      -1.595   1.611  -1.507  0.00  0.00     0.045 A 
ENDROOT
TORSDOF 0
ENDMDL
