MODEL 1
REMARK minimizedAffinity 6.53868341
REMARK minimizedRMSD -1
REMARK  0 active torsions:
REMARK  status: ('A' for Active; 'I' for Inactive)
ROOT
ATOM      1  C1  BNZ d   1       2.512   2.632  -0.161  0.00  0.00     0.000 A 
ATOM      2  C2  BNZ d   1       3.427   2.820  -1.162  0.00  0.00     0.000 A 
ATOM      3  C3  BNZ d   1       4.235   1.797  -1.573  0.00  0.00     0.000 A 
ATOM      4  C4  BNZ d   1       4.155   0.601  -0.955  0.00  0.00     0.000 A 
ATOM      5  C5  BNZ d   1       3.244   0.398   0.062  0.00  0.00     0.000 A 
ATOM      6  C6  BNZ d   1       2.406   1.419   0.446  0.00  0.00     0.000 A 
ENDROOT
TORSDOF 0
ENDMDL
