MODEL 1
REMARK minimizedAffinity 7.04419518
REMARK minimizedRMSD -1
REMARK  0 active torsions:
REMARK  status: ('A' for Active; 'I' for Inactive)
ROOT
ATOM      1  C1  BNZ d   1       0.194   3.288   0.092  0.00  0.00     0.000 A 
ATOM      2  C2  BNZ d   1       1.564   3.258   0.094  0.00  0.00     0.000 A 
ATOM      3  C3  BNZ d   1       2.243   2.356   0.865  0.00  0.00     0.000 A 
ATOM      4  C4  BNZ d   1       1.554   1.513   1.661  0.00  0.00     0.000 A 
ATOM      5  C5  BNZ d   1       0.174   1.537   1.677  0.00  0.00     0.000 A 
ATOM      6  C6  BNZ d   1      -0.507   2.420   0.871  0.00  0.00     0.000 A 
ENDROOT
TORSDOF 0
ENDMDL
