MODEL 1
REMARK minimizedAffinity 2.00375724
REMARK minimizedRMSD -1
REMARK  0 active torsions:
REMARK  status: ('A' for Active; 'I' for Inactive)
ROOT
ATOM      1  C1  BNZ d   1       2.914   1.845   2.927  0.00  0.00     0.000 A 
ATOM      2  C2  BNZ d   1       3.202   1.673   1.599  0.00  0.00     0.000 A 
ATOM      3  C3  BNZ d   1       2.228   1.804   0.650  0.00  0.00     0.000 A 
ATOM      4  C4  BNZ d   1       0.961   2.067   1.031  0.00  0.00     0.000 A 
ATOM      5  C5  BNZ d   1       0.653   2.234   2.367  0.00  0.00     0.000 A 
ATOM      6  C6  BNZ d   1       1.644   2.140   3.317  0.00  0.00     0.000 A 
ENDROOT
TORSDOF 0
ENDMDL
