MODEL 1
REMARK minimizedAffinity 5.56659746
REMARK minimizedRMSD -1
REMARK  0 active torsions:
REMARK  status: ('A' for Active; 'I' for Inactive)
ROOT
ATOM      1  C1  BNZ d   1       1.890  -5.682  -3.693  0.00  0.00     0.000 A 
ATOM      2  C2  BNZ d   1       3.222  -5.999  -3.712  0.00  0.00     0.000 A 
ATOM      3  C3  BNZ d   1       3.952  -5.888  -4.862  0.00  0.00     0.000 A 
ATOM      4  C4  BNZ d   1       3.341  -5.499  -6.000  0.00  0.00     0.000 A 
ATOM      5  C5  BNZ d   1       1.996  -5.185  -5.999  0.00  0.00     0.000 A 
ATOM      6  C6  BNZ d   1       1.274  -5.261  -4.830  0.00  0.00     0.000 A 
ENDROOT
TORSDOF 0
ENDMDL
