MODEL 1
REMARK minimizedAffinity 1.04796863
REMARK minimizedRMSD -1
REMARK  0 active torsions:
REMARK  status: ('A' for Active; 'I' for Inactive)
ROOT
ATOM      1  C1  BNZ d   1       3.776   4.101  -6.000  0.00  0.00     0.000 A 
ATOM      2  C2  BNZ d   1       5.009   4.696  -6.000  0.00  0.00     0.000 A 
ATOM      3  C3  BNZ d   1       5.956   4.345  -5.078  0.00  0.00     0.000 A 
ATOM      4  C4  BNZ d   1       5.655   3.430  -4.134  0.00  0.00     0.000 A 
ATOM      5  C5  BNZ d   1       4.413   2.828  -4.115  0.00  0.00     0.000 A 
ATOM      6  C6  BNZ d   1       3.476   3.155  -5.068  0.00  0.00     0.000 A 
ENDROOT
TORSDOF 0
ENDMDL
