MODEL 1
REMARK minimizedAffinity 1.24733853
REMARK minimizedRMSD -1
REMARK  0 active torsions:
REMARK  status: ('A' for Active; 'I' for Inactive)
ROOT
ATOM      1  C1  BNZ d   1       2.262  -5.241  -3.757  0.00  0.00     0.000 A 
ATOM      2  C2  BNZ d   1       3.571  -4.839  -3.763  0.00  0.00     0.000 A 
ATOM      3  C3  BNZ d   1       4.336  -4.964  -4.889  0.00  0.00     0.000 A 
ATOM      4  C4  BNZ d   1       3.804  -5.526  -5.993  0.00  0.00     0.000 A 
ATOM      5  C5  BNZ d   1       2.488  -5.944  -6.000  0.00  0.00     0.000 A 
ATOM      6  C6  BNZ d   1       1.710  -5.781  -4.877  0.00  0.00     0.000 A 
ENDROOT
TORSDOF 0
ENDMDL
