MODEL 1
REMARK minimizedAffinity -1.90549517
REMARK minimizedRMSD -1
REMARK  0 active torsions:
REMARK  status: ('A' for Active; 'I' for Inactive)
ROOT
ATOM      1  C1  BNZ d   1       2.844  -5.091  -3.824  0.00  0.00     0.000 A 
ATOM      2  C2  BNZ d   1       4.194  -4.862  -3.837  0.00  0.00     0.000 A 
ATOM      3  C3  BNZ d   1       4.947  -5.176  -4.934  0.00  0.00     0.000 A 
ATOM      4  C4  BNZ d   1       4.357  -5.755  -6.000  0.00  0.00     0.000 A 
ATOM      5  C5  BNZ d   1       2.998  -6.000  -5.998  0.00  0.00     0.000 A 
ATOM      6  C6  BNZ d   1       2.237  -5.647  -4.908  0.00  0.00     0.000 A 
ENDROOT
TORSDOF 0
ENDMDL
