MODEL 1
REMARK minimizedAffinity 7.81674004
REMARK minimizedRMSD -1
REMARK  0 active torsions:
REMARK  status: ('A' for Active; 'I' for Inactive)
ROOT
ATOM      1  C1  BNZ d   1       4.662  -3.658  -5.909  0.00  0.00     0.000 A 
ATOM      2  C2  BNZ d   1       3.294  -3.646  -5.945  0.00  0.00     0.000 A 
ATOM      3  C3  BNZ d   1       2.580  -4.802  -5.791  0.00  0.00     0.000 A 
ATOM      4  C4  BNZ d   1       3.235  -5.971  -5.641  0.00  0.00     0.000 A 
ATOM      5  C5  BNZ d   1       4.615  -6.000  -5.611  0.00  0.00     0.000 A 
ATOM      6  C6  BNZ d   1       5.330  -4.830  -5.728  0.00  0.00     0.000 A 
ENDROOT
TORSDOF 0
ENDMDL
