MODEL 1
REMARK minimizedAffinity 7.40590191
REMARK minimizedRMSD -1
REMARK  0 active torsions:
REMARK  status: ('A' for Active; 'I' for Inactive)
ROOT
ATOM      1  C1  BNZ d   1       3.707   1.953   0.896  0.00  0.00     0.000 A 
ATOM      2  C2  BNZ d   1       2.716   1.847  -0.043  0.00  0.00     0.000 A 
ATOM      3  C3  BNZ d   1       1.400   1.941   0.314  0.00  0.00     0.000 A 
ATOM      4  C4  BNZ d   1       1.076   2.101   1.614  0.00  0.00     0.000 A 
ATOM      5  C5  BNZ d   1       2.063   2.199   2.573  0.00  0.00     0.000 A 
ATOM      6  C6  BNZ d   1       3.388   2.143   2.205  0.00  0.00     0.000 A 
ENDROOT
TORSDOF 0
ENDMDL
