MODEL 1
REMARK minimizedAffinity 8.80609894
REMARK minimizedRMSD -1
REMARK  0 active torsions:
REMARK  status: ('A' for Active; 'I' for Inactive)
ROOT
ATOM      1  C1  BNZ d   1       4.570  -5.143  -4.874  0.00  0.00     0.000 A 
ATOM      2  C2  BNZ d   1       3.806  -4.962  -3.752  0.00  0.00     0.000 A 
ATOM      3  C3  BNZ d   1       2.487  -5.320  -3.738  0.00  0.00     0.000 A 
ATOM      4  C4  BNZ d   1       1.924  -5.820  -4.857  0.00  0.00     0.000 A 
ATOM      5  C5  BNZ d   1       2.679  -6.000  -5.999  0.00  0.00     0.000 A 
ATOM      6  C6  BNZ d   1       4.016  -5.674  -5.997  0.00  0.00     0.000 A 
ENDROOT
TORSDOF 0
ENDMDL
