MODEL 1
REMARK minimizedAffinity 6.92710304
REMARK minimizedRMSD -1
REMARK  0 active torsions:
REMARK  status: ('A' for Active; 'I' for Inactive)
ROOT
ATOM      1  C1  BNZ d   1       4.128   2.618  -0.115  0.00  0.00     0.000 A 
ATOM      2  C2  BNZ d   1       2.960   1.906  -0.177  0.00  0.00     0.000 A 
ATOM      3  C3  BNZ d   1       2.293   1.555   0.963  0.00  0.00     0.000 A 
ATOM      4  C4  BNZ d   1       2.814   1.880   2.163  0.00  0.00     0.000 A 
ATOM      5  C5  BNZ d   1       3.996   2.589   2.243  0.00  0.00     0.000 A 
ATOM      6  C6  BNZ d   1       4.645   2.975   1.093  0.00  0.00     0.000 A 
ENDROOT
TORSDOF 0
ENDMDL
