MODEL 1
REMARK minimizedAffinity 6.4827404
REMARK minimizedRMSD -1
REMARK  0 active torsions:
REMARK  status: ('A' for Active; 'I' for Inactive)
ROOT
ATOM      1  C1  BNZ d   1       0.930   2.191   0.891  0.00  0.00     0.000 A 
ATOM      2  C2  BNZ d   1       1.351   1.867   2.153  0.00  0.00     0.000 A 
ATOM      3  C3  BNZ d   1       2.622   1.412   2.372  0.00  0.00     0.000 A 
ATOM      4  C4  BNZ d   1       3.455   1.244   1.325  0.00  0.00     0.000 A 
ATOM      5  C5  BNZ d   1       3.042   1.557   0.045  0.00  0.00     0.000 A 
ATOM      6  C6  BNZ d   1       1.775   2.051  -0.166  0.00  0.00     0.000 A 
ENDROOT
TORSDOF 0
ENDMDL
