MODEL 1
REMARK minimizedAffinity 0.480220556
REMARK minimizedRMSD -1
REMARK  0 active torsions:
REMARK  status: ('A' for Active; 'I' for Inactive)
ROOT
ATOM      1  C1  BNZ d   1       4.506   2.251  -3.796  0.00  0.00     0.000 A 
ATOM      2  C2  BNZ d   1       3.679   2.183  -4.885  0.00  0.00     0.000 A 
ATOM      3  C3  BNZ d   1       3.919   2.943  -5.995  0.00  0.00     0.000 A 
ATOM      4  C4  BNZ d   1       4.961   3.799  -6.000  0.00  0.00     0.000 A 
ATOM      5  C5  BNZ d   1       5.798   3.887  -4.906  0.00  0.00     0.000 A 
ATOM      6  C6  BNZ d   1       5.576   3.092  -3.805  0.00  0.00     0.000 A 
ENDROOT
TORSDOF 0
ENDMDL
