MODEL 1
REMARK minimizedAffinity 4.21190453
REMARK minimizedRMSD -1
REMARK  0 active torsions:
REMARK  status: ('A' for Active; 'I' for Inactive)
ROOT
ATOM      1  C1  BNZ d   1      -2.257  -3.192  -0.040  0.00  0.00     0.000 A 
ATOM      2  C2  BNZ d   1      -1.871  -3.802  -1.203  0.00  0.00     0.000 A 
ATOM      3  C3  BNZ d   1      -1.782  -5.163  -1.284  0.00  0.00     0.000 A 
ATOM      4  C4  BNZ d   1      -2.040  -5.911  -0.192  0.00  0.00     0.000 A 
ATOM      5  C5  BNZ d   1      -2.421  -5.310   0.992  0.00  0.00     0.000 A 
ATOM      6  C6  BNZ d   1      -2.548  -3.942   1.058  0.00  0.00     0.000 A 
ENDROOT
TORSDOF 0
ENDMDL
