MODEL 1
REMARK minimizedAffinity 11.0171423
REMARK minimizedRMSD -1
REMARK  0 active torsions:
REMARK  status: ('A' for Active; 'I' for Inactive)
ROOT
ATOM      1  C1  BNZ d   1       2.652   2.125   1.865  0.00  0.00     0.000 A 
ATOM      2  C2  BNZ d   1       2.598   2.818   0.685  0.00  0.00     0.000 A 
ATOM      3  C3  BNZ d   1       1.413   2.988   0.026  0.00  0.00     0.000 A 
ATOM      4  C4  BNZ d   1       0.290   2.433   0.527  0.00  0.00     0.000 A 
ATOM      5  C5  BNZ d   1       0.329   1.724   1.711  0.00  0.00     0.000 A 
ATOM      6  C6  BNZ d   1       1.518   1.588   2.391  0.00  0.00     0.000 A 
ENDROOT
TORSDOF 0
ENDMDL
