MODEL 1
REMARK minimizedAffinity -1.58367443
REMARK minimizedRMSD -1
REMARK  0 active torsions:
REMARK  status: ('A' for Active; 'I' for Inactive)
ROOT
ATOM      1  C1  BNZ d   1      -0.065   2.112   2.136  0.00  0.00     0.000 A 
ATOM      2  C2  BNZ d   1      -0.202   1.202   1.122  0.00  0.00     0.000 A 
ATOM      3  C3  BNZ d   1       0.895   0.700   0.479  0.00  0.00     0.000 A 
ATOM      4  C4  BNZ d   1       2.123   1.137   0.824  0.00  0.00     0.000 A 
ATOM      5  C5  BNZ d   1       2.277   2.060   1.839  0.00  0.00     0.000 A 
ATOM      6  C6  BNZ d   1       1.173   2.535   2.510  0.00  0.00     0.000 A 
ENDROOT
TORSDOF 0
ENDMDL
