MODEL 1
REMARK minimizedAffinity -3.04397416
REMARK minimizedRMSD -1
REMARK  2 active torsions:
REMARK  status: ('A' for Active; 'I' for Inactive)
REMARK    1  A    between atoms: C1_2  and  C2_3 
REMARK    2  A    between atoms: C2_3  and  C3_4 
ROOT
ATOM      1  C3  UNL d   1       0.277   0.240  -0.400  0.00  0.00    -0.075 A 
ATOM      2  C4  UNL d   1       1.343   0.381   0.501  0.00  0.00     0.002 A 
ATOM      3  C5  UNL d   1       1.121   0.316   1.877  0.00  0.00     0.002 A 
ATOM      4  C6  UNL d   1      -0.168   0.120   2.369  0.00  0.00    -0.004 A 
ATOM      5  C7  UNL d   1      -1.236  -0.004   1.484  0.00  0.00     0.002 A 
ATOM      6  C8  UNL d   1      -1.016   0.056   0.107  0.00  0.00     0.002 A 
ENDROOT
BRANCH   1   7
ATOM      7  C2  UNL d   1       0.516   0.280  -1.890  0.00  0.00     0.056 C 
BRANCH   7   8
ATOM      8  C1  UNL d   1       0.664  -1.102  -2.535  0.00  0.00     0.007 C 
ATOM      9  C   UNL d   1       1.992  -1.288  -3.257  0.00  0.00     0.009 C 
ENDBRANCH   7   8
ENDBRANCH   1   7
TORSDOF 2
ENDMDL
