MODEL 1
REMARK minimizedAffinity -3.22433066
REMARK minimizedRMSD -1
REMARK  2 active torsions:
REMARK  status: ('A' for Active; 'I' for Inactive)
REMARK    1  A    between atoms: C1_2  and  C2_3 
REMARK    2  A    between atoms: C2_3  and  C3_4 
ROOT
ATOM      1  C3  UNL d   1      -0.086   0.343  -0.375  0.00  0.00    -0.075 A 
ATOM      2  C4  UNL d   1       1.024   0.084   0.442  0.00  0.00     0.002 A 
ATOM      3  C5  UNL d   1       0.882   0.016   1.828  0.00  0.00     0.002 A 
ATOM      4  C6  UNL d   1      -0.366   0.215   2.415  0.00  0.00    -0.004 A 
ATOM      5  C7  UNL d   1      -1.472   0.489   1.613  0.00  0.00     0.002 A 
ATOM      6  C8  UNL d   1      -1.334   0.554   0.226  0.00  0.00     0.002 A 
ENDROOT
BRANCH   1   7
ATOM      7  C2  UNL d   1       0.056   0.389  -1.878  0.00  0.00     0.056 C 
BRANCH   7   8
ATOM      8  C1  UNL d   1       1.145  -0.536  -2.430  0.00  0.00     0.007 C 
ATOM      9  C   UNL d   1       0.674  -1.385  -3.604  0.00  0.00     0.009 C 
ENDBRANCH   7   8
ENDBRANCH   1   7
TORSDOF 2
ENDMDL
