MODEL 1
REMARK minimizedAffinity -4.1869483
REMARK minimizedRMSD -1
REMARK  2 active torsions:
REMARK  status: ('A' for Active; 'I' for Inactive)
REMARK    1  A    between atoms: C1_2  and  C2_3 
REMARK    2  A    between atoms: C2_3  and  C3_4 
ROOT
ATOM      1  C3  UNL d   1      -0.875   0.680   1.041  0.00  0.00    -0.075 A 
ATOM      2  C4  UNL d   1      -0.197   0.354   2.225  0.00  0.00     0.002 A 
ATOM      3  C5  UNL d   1       1.195   0.262   2.242  0.00  0.00     0.002 A 
ATOM      4  C6  UNL d   1       1.925   0.483   1.076  0.00  0.00    -0.004 A 
ATOM      5  C7  UNL d   1       1.261   0.791  -0.109  0.00  0.00     0.002 A 
ATOM      6  C8  UNL d   1      -0.132   0.889  -0.128  0.00  0.00     0.002 A 
ENDROOT
BRANCH   1   7
ATOM      7  C2  UNL d   1      -2.379   0.811   1.023  0.00  0.00     0.056 C 
BRANCH   7   8
ATOM      8  C1  UNL d   1      -3.002   1.038   2.405  0.00  0.00     0.007 C 
ATOM      9  C   UNL d   1      -3.724   2.374   2.525  0.00  0.00     0.009 C 
ENDBRANCH   7   8
ENDBRANCH   1   7
TORSDOF 2
ENDMDL
