MODEL 1
REMARK minimizedAffinity 0.101672523
REMARK minimizedRMSD -1
REMARK  2 active torsions:
REMARK  status: ('A' for Active; 'I' for Inactive)
REMARK    1  A    between atoms: C1_2  and  C2_3 
REMARK    2  A    between atoms: C2_3  and  C3_4 
ROOT
ATOM      1  C3  UNL d   1       0.208  -0.117  -0.088  0.00  0.00    -0.075 A 
ATOM      2  C4  UNL d   1       0.867  -0.030   1.147  0.00  0.00     0.002 A 
ATOM      3  C5  UNL d   1       0.153   0.248   2.313  0.00  0.00     0.002 A 
ATOM      4  C6  UNL d   1      -1.224   0.452   2.258  0.00  0.00    -0.004 A 
ATOM      5  C7  UNL d   1      -1.886   0.384   1.035  0.00  0.00     0.002 A 
ATOM      6  C8  UNL d   1      -1.175   0.102  -0.133  0.00  0.00     0.002 A 
ENDROOT
BRANCH   1   7
ATOM      7  C2  UNL d   1       0.971  -0.446  -1.349  0.00  0.00     0.056 C 
BRANCH   7   8
ATOM      8  C1  UNL d   1       0.330  -1.552  -2.194  0.00  0.00     0.007 C 
ATOM      9  C   UNL d   1       1.193  -1.983  -3.372  0.00  0.00     0.009 C 
ENDBRANCH   7   8
ENDBRANCH   1   7
TORSDOF 2
ENDMDL
