MODEL 1
REMARK minimizedAffinity -3.00277877
REMARK minimizedRMSD -1
REMARK  2 active torsions:
REMARK  status: ('A' for Active; 'I' for Inactive)
REMARK    1  A    between atoms: C1_2  and  C2_3 
REMARK    2  A    between atoms: C2_3  and  C3_4 
ROOT
ATOM      1  C3  UNL d   1       0.232  -0.067   0.688  0.00  0.00    -0.075 A 
ATOM      2  C4  UNL d   1      -0.067  -0.737   1.884  0.00  0.00     0.002 A 
ATOM      3  C5  UNL d   1      -1.378  -1.113   2.176  0.00  0.00     0.002 A 
ATOM      4  C6  UNL d   1      -2.406  -0.816   1.284  0.00  0.00    -0.004 A 
ATOM      5  C7  UNL d   1      -2.123  -0.136   0.101  0.00  0.00     0.002 A 
ATOM      6  C8  UNL d   1      -0.811   0.237  -0.196  0.00  0.00     0.002 A 
ENDROOT
BRANCH   1   7
ATOM      7  C2  UNL d   1       1.654   0.316   0.352  0.00  0.00     0.056 C 
BRANCH   7   8
ATOM      8  C1  UNL d   1       2.344   1.159   1.430  0.00  0.00     0.007 C 
ATOM      9  C   UNL d   1       3.833   1.354   1.177  0.00  0.00     0.009 C 
ENDBRANCH   7   8
ENDBRANCH   1   7
TORSDOF 2
ENDMDL
