MODEL 1
REMARK minimizedAffinity -4.5609479
REMARK minimizedRMSD -1
REMARK  2 active torsions:
REMARK  status: ('A' for Active; 'I' for Inactive)
REMARK    1  A    between atoms: C1_2  and  C2_3 
REMARK    2  A    between atoms: C2_3  and  C3_4 
ROOT
ATOM      1  C3  UNL d   1       0.394   0.004  -0.656  0.00  0.00    -0.075 A 
ATOM      2  C4  UNL d   1       1.143  -0.391   0.461  0.00  0.00     0.002 A 
ATOM      3  C5  UNL d   1       0.623  -0.251   1.748  0.00  0.00     0.002 A 
ATOM      4  C6  UNL d   1      -0.646   0.293   1.935  0.00  0.00    -0.004 A 
ATOM      5  C7  UNL d   1      -1.393   0.704   0.832  0.00  0.00     0.002 A 
ATOM      6  C8  UNL d   1      -0.876   0.561  -0.457  0.00  0.00     0.002 A 
ENDROOT
BRANCH   1   7
ATOM      7  C2  UNL d   1       0.939  -0.172  -2.053  0.00  0.00     0.056 C 
BRANCH   7   8
ATOM      8  C1  UNL d   1       0.912  -1.619  -2.556  0.00  0.00     0.007 C 
ATOM      9  C   UNL d   1       1.698  -1.822  -3.845  0.00  0.00     0.009 C 
ENDBRANCH   7   8
ENDBRANCH   1   7
TORSDOF 2
ENDMDL
