MODEL 1
REMARK minimizedAffinity -1.89152014
REMARK minimizedRMSD -1
REMARK  2 active torsions:
REMARK  status: ('A' for Active; 'I' for Inactive)
REMARK    1  A    between atoms: C1_2  and  C2_3 
REMARK    2  A    between atoms: C2_3  and  C3_4 
ROOT
ATOM      1  C3  UNL d   1      -0.200   0.258  -0.696  0.00  0.00    -0.075 A 
ATOM      2  C4  UNL d   1      -1.433   0.104  -0.045  0.00  0.00     0.002 A 
ATOM      3  C5  UNL d   1      -1.489  -0.028   1.343  0.00  0.00     0.002 A 
ATOM      4  C6  UNL d   1      -0.317  -0.018   2.095  0.00  0.00    -0.004 A 
ATOM      5  C7  UNL d   1       0.914   0.118   1.457  0.00  0.00     0.002 A 
ATOM      6  C8  UNL d   1       0.974   0.255   0.069  0.00  0.00     0.002 A 
ENDROOT
BRANCH   1   7
ATOM      7  C2  UNL d   1      -0.134   0.431  -2.195  0.00  0.00     0.056 C 
BRANCH   7   8
ATOM      8  C1  UNL d   1       0.592  -0.706  -2.922  0.00  0.00     0.007 C 
ATOM      9  C   UNL d   1      -0.355  -1.690  -3.596  0.00  0.00     0.009 C 
ENDBRANCH   7   8
ENDBRANCH   1   7
TORSDOF 2
ENDMDL
