MODEL 1
REMARK minimizedAffinity -1.62229073
REMARK minimizedRMSD -1
REMARK  2 active torsions:
REMARK  status: ('A' for Active; 'I' for Inactive)
REMARK    1  A    between atoms: C1_2  and  C2_3 
REMARK    2  A    between atoms: C2_3  and  C3_4 
ROOT
ATOM      1  C3  UNL d   1       0.079  -0.378  -0.329  0.00  0.00    -0.075 A 
ATOM      2  C4  UNL d   1       1.102  -0.693   0.578  0.00  0.00     0.002 A 
ATOM      3  C5  UNL d   1       0.998  -0.323   1.919  0.00  0.00     0.002 A 
ATOM      4  C6  UNL d   1      -0.122   0.374   2.368  0.00  0.00    -0.004 A 
ATOM      5  C7  UNL d   1      -1.136   0.706   1.472  0.00  0.00     0.002 A 
ATOM      6  C8  UNL d   1      -1.037   0.334   0.130  0.00  0.00     0.002 A 
ENDROOT
BRANCH   1   7
ATOM      7  C2  UNL d   1       0.172  -0.802  -1.776  0.00  0.00     0.056 C 
BRANCH   7   8
ATOM      8  C1  UNL d   1       1.558  -0.599  -2.397  0.00  0.00     0.007 C 
ATOM      9  C   UNL d   1       1.987  -1.750  -3.297  0.00  0.00     0.009 C 
ENDBRANCH   7   8
ENDBRANCH   1   7
TORSDOF 2
ENDMDL
