MODEL 1
REMARK minimizedAffinity -0.213010356
REMARK minimizedRMSD -1
REMARK  2 active torsions:
REMARK  status: ('A' for Active; 'I' for Inactive)
REMARK    1  A    between atoms: C1_2  and  C2_3 
REMARK    2  A    between atoms: C2_3  and  C3_4 
ROOT
ATOM      1  C3  UNL d   1       0.347   0.033  -0.390  0.00  0.00    -0.075 A 
ATOM      2  C4  UNL d   1       0.972   0.010   0.865  0.00  0.00     0.002 A 
ATOM      3  C5  UNL d   1       0.227   0.198   2.030  0.00  0.00     0.002 A 
ATOM      4  C6  UNL d   1      -1.146   0.421   1.955  0.00  0.00    -0.004 A 
ATOM      5  C7  UNL d   1      -1.774   0.463   0.712  0.00  0.00     0.002 A 
ATOM      6  C8  UNL d   1      -1.032   0.270  -0.455  0.00  0.00     0.002 A 
ENDROOT
BRANCH   1   7
ATOM      7  C2  UNL d   1       1.142  -0.200  -1.653  0.00  0.00     0.056 C 
BRANCH   7   8
ATOM      8  C1  UNL d   1       0.679  -1.412  -2.467  0.00  0.00     0.007 C 
ATOM      9  C   UNL d   1       1.651  -1.800  -3.573  0.00  0.00     0.009 C 
ENDBRANCH   7   8
ENDBRANCH   1   7
TORSDOF 2
ENDMDL
