MODEL 1
REMARK minimizedAffinity -2.94817352
REMARK minimizedRMSD -1
REMARK  2 active torsions:
REMARK  status: ('A' for Active; 'I' for Inactive)
REMARK    1  A    between atoms: C1_2  and  C2_3 
REMARK    2  A    between atoms: C2_3  and  C3_4 
ROOT
ATOM      1  C3  UNL d   1       0.366   0.194  -0.417  0.00  0.00    -0.075 A 
ATOM      2  C4  UNL d   1      -1.026   0.330  -0.311  0.00  0.00     0.002 A 
ATOM      3  C5  UNL d   1      -1.638   0.387   0.941  0.00  0.00     0.002 A 
ATOM      4  C6  UNL d   1      -0.871   0.299   2.100  0.00  0.00    -0.004 A 
ATOM      5  C7  UNL d   1       0.511   0.147   2.007  0.00  0.00     0.002 A 
ATOM      6  C8  UNL d   1       1.127   0.094   0.756  0.00  0.00     0.002 A 
ENDROOT
BRANCH   1   7
ATOM      7  C2  UNL d   1       1.039   0.161  -1.769  0.00  0.00     0.056 C 
BRANCH   7   8
ATOM      8  C1  UNL d   1       0.770  -1.118  -2.568  0.00  0.00     0.007 C 
ATOM      9  C   UNL d   1       2.041  -1.858  -2.963  0.00  0.00     0.009 C 
ENDBRANCH   7   8
ENDBRANCH   1   7
TORSDOF 2
ENDMDL
