MODEL 1
REMARK minimizedAffinity -3.40597892
REMARK minimizedRMSD -1
REMARK  2 active torsions:
REMARK  status: ('A' for Active; 'I' for Inactive)
REMARK    1  A    between atoms: C1_2  and  C2_3 
REMARK    2  A    between atoms: C2_3  and  C3_4 
ROOT
ATOM      1  C3  UNL d   1       0.361  -0.002  -0.522  0.00  0.00    -0.075 A 
ATOM      2  C4  UNL d   1      -0.985   0.208  -0.191  0.00  0.00     0.002 A 
ATOM      3  C5  UNL d   1      -1.370   0.371   1.140  0.00  0.00     0.002 A 
ATOM      4  C6  UNL d   1      -0.418   0.315   2.156  0.00  0.00    -0.004 A 
ATOM      5  C7  UNL d   1       0.920   0.091   1.839  0.00  0.00     0.002 A 
ATOM      6  C8  UNL d   1       1.309  -0.068   0.508  0.00  0.00     0.002 A 
ENDROOT
BRANCH   1   7
ATOM      7  C2  UNL d   1       0.788  -0.149  -1.963  0.00  0.00     0.056 C 
BRANCH   7   8
ATOM      8  C1  UNL d   1       0.400  -1.490  -2.595  0.00  0.00     0.007 C 
ATOM      9  C   UNL d   1       1.535  -2.135  -3.379  0.00  0.00     0.009 C 
ENDBRANCH   7   8
ENDBRANCH   1   7
TORSDOF 2
ENDMDL
