MODEL 1
REMARK minimizedAffinity 15.8740673
REMARK minimizedRMSD -1
REMARK  1 active torsions:
REMARK  status: ('A' for Active; 'I' for Inactive)
REMARK    1  A    between atoms: C1_2  and  C2_3 
ROOT
ATOM      1  C2  UNL d   1      -1.053  -3.898   0.757  0.00  0.00    -0.073 A 
ATOM      2  C3  UNL d   1      -1.071  -3.030  -0.341  0.00  0.00    -0.002 A 
ATOM      3  C4  UNL d   1      -1.696  -1.786  -0.245  0.00  0.00     0.004 A 
ATOM      4  C5  UNL d   1      -2.302  -1.395   0.949  0.00  0.00    -0.004 A 
ATOM      5  C6  UNL d   1      -2.284  -2.243   2.060  0.00  0.00    -0.075 A 
ATOM      6  C7  UNL d   1      -2.934  -1.838   3.351  0.00  0.00     0.076 C 
ATOM      7  C8  UNL d   1      -1.657  -3.492   1.955  0.00  0.00     0.001 A 
ENDROOT
BRANCH   1   8
ATOM      8  C1  UNL d   1      -0.373  -5.239   0.660  0.00  0.00     0.053 C 
ATOM      9  C   UNL d   1      -0.423  -5.999   1.976  0.00  0.00     0.018 C 
ENDBRANCH   1   8
TORSDOF 1
ENDMDL
