MODEL 1
REMARK minimizedAffinity 7.32466078
REMARK minimizedRMSD -1
REMARK  1 active torsions:
REMARK  status: ('A' for Active; 'I' for Inactive)
REMARK    1  A    between atoms: C1_2  and  C2_3 
ROOT
ATOM      1  C2  UNL d   1       3.780   2.213   2.344  0.00  0.00    -0.073 A 
ATOM      2  C3  UNL d   1       2.889   1.488   1.545  0.00  0.00    -0.002 A 
ATOM      3  C4  UNL d   1       2.698   1.837   0.208  0.00  0.00     0.004 A 
ATOM      4  C5  UNL d   1       3.399   2.908  -0.346  0.00  0.00    -0.004 A 
ATOM      5  C6  UNL d   1       4.303   3.638   0.434  0.00  0.00    -0.075 A 
ATOM      6  C7  UNL d   1       5.063   4.794  -0.146  0.00  0.00     0.076 C 
ATOM      7  C8  UNL d   1       4.487   3.283   1.777  0.00  0.00     0.001 A 
ENDROOT
BRANCH   1   8
ATOM      8  C1  UNL d   1       3.995   1.837   3.788  0.00  0.00     0.053 C 
ATOM      9  C   UNL d   1       4.354   3.041   4.644  0.00  0.00     0.018 C 
ENDBRANCH   1   8
TORSDOF 1
ENDMDL
