MODEL 1
REMARK minimizedAffinity 10.782567
REMARK minimizedRMSD -1
REMARK  1 active torsions:
REMARK  status: ('A' for Active; 'I' for Inactive)
REMARK    1  A    between atoms: C1_2  and  C2_3 
ROOT
ATOM      1  C2  UNL d   1      -1.914  -2.179  -0.361  0.00  0.00    -0.073 A 
ATOM      2  C3  UNL d   1      -1.232  -3.397  -0.453  0.00  0.00    -0.002 A 
ATOM      3  C4  UNL d   1      -0.815  -4.061   0.702  0.00  0.00     0.004 A 
ATOM      4  C5  UNL d   1      -1.082  -3.517   1.959  0.00  0.00    -0.004 A 
ATOM      5  C6  UNL d   1      -1.773  -2.307   2.071  0.00  0.00    -0.075 A 
ATOM      6  C7  UNL d   1      -2.067  -1.708   3.415  0.00  0.00     0.076 C 
ATOM      7  C8  UNL d   1      -2.186  -1.645   0.907  0.00  0.00     0.001 A 
ENDROOT
BRANCH   1   8
ATOM      8  C1  UNL d   1      -2.372  -1.463  -1.605  0.00  0.00     0.053 C 
ATOM      9  C   UNL d   1      -1.674  -1.983  -2.852  0.00  0.00     0.018 C 
ENDBRANCH   1   8
TORSDOF 1
ENDMDL
