MODEL 1
REMARK minimizedAffinity 7.22568369
REMARK minimizedRMSD -1
REMARK  1 active torsions:
REMARK  status: ('A' for Active; 'I' for Inactive)
REMARK    1  A    between atoms: C1_2  and  C2_3 
ROOT
ATOM      1  C2  UNL d   1      -1.619  -2.018  -0.369  0.00  0.00    -0.073 A 
ATOM      2  C3  UNL d   1      -0.897  -3.195  -0.140  0.00  0.00    -0.002 A 
ATOM      3  C4  UNL d   1      -0.631  -3.617   1.164  0.00  0.00     0.004 A 
ATOM      4  C5  UNL d   1      -1.089  -2.871   2.250  0.00  0.00    -0.004 A 
ATOM      5  C6  UNL d   1      -1.822  -1.698   2.042  0.00  0.00    -0.075 A 
ATOM      6  C7  UNL d   1      -2.320  -0.883   3.199  0.00  0.00     0.076 C 
ATOM      7  C8  UNL d   1      -2.083  -1.280   0.730  0.00  0.00     0.001 A 
ENDROOT
BRANCH   1   8
ATOM      8  C1  UNL d   1      -1.914  -1.562  -1.774  0.00  0.00     0.053 C 
ATOM      9  C   UNL d   1      -3.243  -0.830  -1.869  0.00  0.00     0.018 C 
ENDBRANCH   1   8
TORSDOF 1
ENDMDL
