MODEL 1
REMARK minimizedAffinity 9.3419075
REMARK minimizedRMSD -1
REMARK  1 active torsions:
REMARK  status: ('A' for Active; 'I' for Inactive)
REMARK    1  A    between atoms: C1_2  and  C2_3 
ROOT
ATOM      1  C2  UNL d   1       3.485   0.089  -2.450  0.00  0.00    -0.073 A 
ATOM      2  C3  UNL d   1       4.145  -1.140  -2.338  0.00  0.00    -0.002 A 
ATOM      3  C4  UNL d   1       5.395  -1.325  -2.929  0.00  0.00     0.004 A 
ATOM      4  C5  UNL d   1       6.000  -0.284  -3.633  0.00  0.00    -0.004 A 
ATOM      5  C6  UNL d   1       5.361   0.955  -3.746  0.00  0.00    -0.075 A 
ATOM      6  C7  UNL d   1       5.998   2.085  -4.501  0.00  0.00     0.076 C 
ATOM      7  C8  UNL d   1       4.105   1.133  -3.151  0.00  0.00     0.001 A 
ENDROOT
BRANCH   1   8
ATOM      8  C1  UNL d   1       2.137   0.296  -1.807  0.00  0.00     0.053 C 
ATOM      9  C   UNL d   1       2.238   1.092  -0.516  0.00  0.00     0.018 C 
ENDBRANCH   1   8
TORSDOF 1
ENDMDL
