MODEL 1
REMARK minimizedAffinity 4.54727983
REMARK minimizedRMSD -1
REMARK  1 active torsions:
REMARK  status: ('A' for Active; 'I' for Inactive)
REMARK    1  A    between atoms: C1_2  and  C2_3 
ROOT
ATOM      1  C2  UNL d   1      -4.610   5.437  -0.792  0.00  0.00    -0.073 A 
ATOM      2  C3  UNL d   1      -5.660   5.997  -0.055  0.00  0.00    -0.002 A 
ATOM      3  C4  UNL d   1      -6.000   5.477   1.194  0.00  0.00     0.004 A 
ATOM      4  C5  UNL d   1      -5.291   4.399   1.722  0.00  0.00    -0.004 A 
ATOM      5  C6  UNL d   1      -4.231   3.833   1.007  0.00  0.00    -0.075 A 
ATOM      6  C7  UNL d   1      -3.459   2.671   1.560  0.00  0.00     0.076 C 
ATOM      7  C8  UNL d   1      -3.897   4.359  -0.249  0.00  0.00     0.001 A 
ENDROOT
BRANCH   1   8
ATOM      8  C1  UNL d   1      -4.235   6.000  -2.139  0.00  0.00     0.053 C 
ATOM      9  C   UNL d   1      -5.408   5.992  -3.106  0.00  0.00     0.018 C 
ENDBRANCH   1   8
TORSDOF 1
ENDMDL
