MODEL 1
REMARK minimizedAffinity 17.0404987
REMARK minimizedRMSD -1
REMARK  1 active torsions:
REMARK  status: ('A' for Active; 'I' for Inactive)
REMARK    1  A    between atoms: C1_2  and  C2_3 
ROOT
ATOM      1  C2  UNL d   1       4.098   3.759   0.145  0.00  0.00    -0.073 A 
ATOM      2  C3  UNL d   1       4.470   3.280   1.406  0.00  0.00    -0.002 A 
ATOM      3  C4  UNL d   1       4.046   2.022   1.835  0.00  0.00     0.004 A 
ATOM      4  C5  UNL d   1       3.253   1.228   1.007  0.00  0.00    -0.004 A 
ATOM      5  C6  UNL d   1       2.881   1.684  -0.262  0.00  0.00    -0.075 A 
ATOM      6  C7  UNL d   1       2.026   0.843  -1.164  0.00  0.00     0.076 C 
ATOM      7  C8  UNL d   1       3.308   2.950  -0.685  0.00  0.00     0.001 A 
ENDROOT
BRANCH   1   8
ATOM      8  C1  UNL d   1       4.558   5.115  -0.326  0.00  0.00     0.053 C 
ATOM      9  C   UNL d   1       5.003   5.998   0.829  0.00  0.00     0.018 C 
ENDBRANCH   1   8
TORSDOF 1
ENDMDL
