MODEL 1
REMARK minimizedAffinity 13.026083
REMARK minimizedRMSD -1
REMARK  1 active torsions:
REMARK  status: ('A' for Active; 'I' for Inactive)
REMARK    1  A    between atoms: C1_2  and  C2_3 
ROOT
ATOM      1  C2  UNL d   1      -1.064  -1.661  -0.770  0.00  0.00    -0.073 A 
ATOM      2  C3  UNL d   1      -2.083  -1.041  -0.038  0.00  0.00    -0.002 A 
ATOM      3  C4  UNL d   1      -2.569  -1.628   1.131  0.00  0.00     0.004 A 
ATOM      4  C5  UNL d   1      -2.038  -2.835   1.584  0.00  0.00    -0.004 A 
ATOM      5  C6  UNL d   1      -1.010  -3.464   0.874  0.00  0.00    -0.075 A 
ATOM      6  C7  UNL d   1      -0.429  -4.764   1.347  0.00  0.00     0.076 C 
ATOM      7  C8  UNL d   1      -0.529  -2.870  -0.301  0.00  0.00     0.001 A 
ENDROOT
BRANCH   1   8
ATOM      8  C1  UNL d   1      -0.531  -1.029  -2.029  0.00  0.00     0.053 C 
ATOM      9  C   UNL d   1      -0.603  -1.975  -3.217  0.00  0.00     0.018 C 
ENDBRANCH   1   8
TORSDOF 1
ENDMDL
