MODEL 1
REMARK minimizedAffinity 9.24057007
REMARK minimizedRMSD -1
REMARK  1 active torsions:
REMARK  status: ('A' for Active; 'I' for Inactive)
REMARK    1  A    between atoms: C1_2  and  C2_3 
ROOT
ATOM      1  C2  UNL d   1      -1.759  -2.103  -0.490  0.00  0.00    -0.073 A 
ATOM      2  C3  UNL d   1      -0.823  -3.143  -0.477  0.00  0.00    -0.002 A 
ATOM      3  C4  UNL d   1      -0.576  -3.855   0.697  0.00  0.00     0.004 A 
ATOM      4  C5  UNL d   1      -1.267  -3.541   1.867  0.00  0.00    -0.004 A 
ATOM      5  C6  UNL d   1      -2.215  -2.512   1.872  0.00  0.00    -0.075 A 
ATOM      6  C7  UNL d   1      -2.965  -2.160   3.123  0.00  0.00     0.076 C 
ATOM      7  C8  UNL d   1      -2.455  -1.800   0.690  0.00  0.00     0.001 A 
ENDROOT
BRANCH   1   8
ATOM      8  C1  UNL d   1      -2.034  -1.335  -1.757  0.00  0.00     0.053 C 
ATOM      9  C   UNL d   1      -1.255  -1.889  -2.939  0.00  0.00     0.018 C 
ENDBRANCH   1   8
TORSDOF 1
ENDMDL
