MODEL 1
REMARK minimizedAffinity 22.1536217
REMARK minimizedRMSD -1
REMARK  1 active torsions:
REMARK  status: ('A' for Active; 'I' for Inactive)
REMARK    1  A    between atoms: C1_2  and  C2_3 
ROOT
ATOM      1  C2  UNL d   1       3.128   2.122  -0.887  0.00  0.00    -0.073 A 
ATOM      2  C3  UNL d   1       2.960   1.612   0.406  0.00  0.00    -0.002 A 
ATOM      3  C4  UNL d   1       3.440   2.319   1.510  0.00  0.00     0.004 A 
ATOM      4  C5  UNL d   1       4.086   3.542   1.333  0.00  0.00    -0.004 A 
ATOM      5  C6  UNL d   1       4.253   4.073   0.050  0.00  0.00    -0.075 A 
ATOM      6  C7  UNL d   1       4.948   5.387  -0.156  0.00  0.00     0.076 C 
ATOM      7  C8  UNL d   1       3.771   3.357  -1.053  0.00  0.00     0.001 A 
ENDROOT
BRANCH   1   8
ATOM      8  C1  UNL d   1       2.606   1.366  -2.081  0.00  0.00     0.053 C 
ATOM      9  C   UNL d   1       2.660  -0.139  -1.872  0.00  0.00     0.018 C 
ENDBRANCH   1   8
TORSDOF 1
ENDMDL
