MODEL 1
REMARK minimizedAffinity 19.6882248
REMARK minimizedRMSD -1
REMARK  1 active torsions:
REMARK  status: ('A' for Active; 'I' for Inactive)
REMARK    1  A    between atoms: C1_2  and  C2_3 
ROOT
ATOM      1  C2  UNL d   1      -1.032  -2.881   0.217  0.00  0.00    -0.073 A 
ATOM      2  C3  UNL d   1      -1.816  -2.211   1.163  0.00  0.00    -0.002 A 
ATOM      3  C4  UNL d   1      -2.014  -2.761   2.431  0.00  0.00     0.004 A 
ATOM      4  C5  UNL d   1      -1.426  -3.981   2.766  0.00  0.00    -0.004 A 
ATOM      5  C6  UNL d   1      -0.630  -4.659   1.838  0.00  0.00    -0.075 A 
ATOM      6  C7  UNL d   1       0.008  -5.973   2.183  0.00  0.00     0.076 C 
ATOM      7  C8  UNL d   1      -0.438  -4.102   0.567  0.00  0.00     0.001 A 
ENDROOT
BRANCH   1   8
ATOM      8  C1  UNL d   1      -0.810  -2.288  -1.150  0.00  0.00     0.053 C 
ATOM      9  C   UNL d   1      -1.791  -1.166  -1.451  0.00  0.00     0.018 C 
ENDBRANCH   1   8
TORSDOF 1
ENDMDL
