MODEL 1
REMARK minimizedAffinity 7.42942238
REMARK minimizedRMSD -1
REMARK  1 active torsions:
REMARK  status: ('A' for Active; 'I' for Inactive)
REMARK    1  A    between atoms: C1_2  and  C2_3 
ROOT
ATOM      1  C2  UNL d   1      -3.704  -3.411  -2.066  0.00  0.00    -0.077 A 
ATOM      2  C3  UNL d   1      -2.824  -3.115  -3.117  0.00  0.00     0.002 A 
ATOM      3  C4  UNL d   1      -1.680  -2.350  -2.885  0.00  0.00     0.002 A 
ATOM      4  C5  UNL d   1      -1.403  -1.878  -1.603  0.00  0.00    -0.004 A 
ATOM      5  C6  UNL d   1      -2.273  -2.165  -0.552  0.00  0.00     0.002 A 
ATOM      6  C7  UNL d   1      -3.418  -2.929  -0.783  0.00  0.00     0.002 A 
ENDROOT
BRANCH   1   7
ATOM      7  C1  UNL d   1      -4.913  -4.277  -2.304  0.00  0.00     0.055 C 
ATOM      8  C   UNL d   1      -4.718  -5.671  -1.726  0.00  0.00     0.019 C 
ENDBRANCH   1   7
TORSDOF 1
ENDMDL
