MODEL 1
REMARK minimizedAffinity 3.88548923
REMARK minimizedRMSD -1
REMARK  1 active torsions:
REMARK  status: ('A' for Active; 'I' for Inactive)
REMARK    1  A    between atoms: C1_2  and  C2_3 
ROOT
ATOM      1  C2  UNL d   1      -1.054   1.476   2.509  0.00  0.00    -0.077 A 
ATOM      2  C3  UNL d   1      -0.921   0.152   2.949  0.00  0.00     0.002 A 
ATOM      3  C4  UNL d   1      -2.052  -0.604   3.264  0.00  0.00     0.002 A 
ATOM      4  C5  UNL d   1      -3.322  -0.047   3.138  0.00  0.00    -0.004 A 
ATOM      5  C6  UNL d   1      -3.465   1.270   2.702  0.00  0.00     0.002 A 
ATOM      6  C7  UNL d   1      -2.336   2.028   2.388  0.00  0.00     0.002 A 
ENDROOT
BRANCH   1   7
ATOM      7  C1  UNL d   1       0.161   2.278   2.121  0.00  0.00     0.055 C 
ATOM      8  C   UNL d   1       1.311   1.372   1.705  0.00  0.00     0.019 C 
ENDBRANCH   1   7
TORSDOF 1
ENDMDL
