MODEL 1
REMARK minimizedAffinity 8.15746975
REMARK minimizedRMSD -1
REMARK  1 active torsions:
REMARK  status: ('A' for Active; 'I' for Inactive)
REMARK    1  A    between atoms: C1_2  and  C2_3 
ROOT
ATOM      1  C2  UNL d   1       3.765   1.650   0.377  0.00  0.00    -0.077 A 
ATOM      2  C3  UNL d   1       3.467   0.405   0.949  0.00  0.00     0.002 A 
ATOM      3  C4  UNL d   1       2.221   0.177   1.535  0.00  0.00     0.002 A 
ATOM      4  C5  UNL d   1       1.262   1.187   1.551  0.00  0.00    -0.004 A 
ATOM      5  C6  UNL d   1       1.549   2.430   0.987  0.00  0.00     0.002 A 
ATOM      6  C7  UNL d   1       2.795   2.660   0.402  0.00  0.00     0.002 A 
ENDROOT
BRANCH   1   7
ATOM      7  C1  UNL d   1       5.091   1.882  -0.299  0.00  0.00     0.055 C 
ATOM      8  C   UNL d   1       4.951   1.860  -1.814  0.00  0.00     0.019 C 
ENDBRANCH   1   7
TORSDOF 1
ENDMDL
