MODEL 1
REMARK minimizedAffinity 3.8549757
REMARK minimizedRMSD -1
REMARK  1 active torsions:
REMARK  status: ('A' for Active; 'I' for Inactive)
REMARK    1  A    between atoms: C1_2  and  C2_3 
ROOT
ATOM      1  C2  UNL d   1       3.876   2.361   1.108  0.00  0.00    -0.077 A 
ATOM      2  C3  UNL d   1       2.540   2.569   1.480  0.00  0.00     0.002 A 
ATOM      3  C4  UNL d   1       1.683   1.483   1.669  0.00  0.00     0.002 A 
ATOM      4  C5  UNL d   1       2.153   0.183   1.493  0.00  0.00    -0.004 A 
ATOM      5  C6  UNL d   1       3.479  -0.033   1.122  0.00  0.00     0.002 A 
ATOM      6  C7  UNL d   1       4.337   1.051   0.931  0.00  0.00     0.002 A 
ENDROOT
BRANCH   1   7
ATOM      7  C1  UNL d   1       4.815   3.529   0.951  0.00  0.00     0.055 C 
ATOM      8  C   UNL d   1       4.422   4.682   1.864  0.00  0.00     0.019 C 
ENDBRANCH   1   7
TORSDOF 1
ENDMDL
