MODEL 1
REMARK minimizedAffinity 9.79762459
REMARK minimizedRMSD -1
REMARK  1 active torsions:
REMARK  status: ('A' for Active; 'I' for Inactive)
REMARK    1  A    between atoms: C1_2  and  C2_3 
ROOT
ATOM      1  C2  UNL d   1       2.847   0.453   1.418  0.00  0.00    -0.077 A 
ATOM      2  C3  UNL d   1       2.699   1.752   0.913  0.00  0.00     0.002 A 
ATOM      3  C4  UNL d   1       1.541   2.485   1.179  0.00  0.00     0.002 A 
ATOM      4  C5  UNL d   1       0.525   1.930   1.953  0.00  0.00    -0.004 A 
ATOM      5  C6  UNL d   1       0.662   0.637   2.457  0.00  0.00     0.002 A 
ATOM      6  C7  UNL d   1       1.818  -0.098   2.192  0.00  0.00     0.002 A 
ENDROOT
BRANCH   1   7
ATOM      7  C1  UNL d   1       4.116  -0.322   1.174  0.00  0.00     0.055 C 
ATOM      8  C   UNL d   1       4.847  -0.611   2.476  0.00  0.00     0.019 C 
ENDBRANCH   1   7
TORSDOF 1
ENDMDL
