MODEL 1
REMARK minimizedAffinity 2.32748795
REMARK minimizedRMSD -1
REMARK  1 active torsions:
REMARK  status: ('A' for Active; 'I' for Inactive)
REMARK    1  A    between atoms: C1_2  and  C2_3 
ROOT
ATOM      1  C2  UNL d   1      -3.424  -4.103  -2.686  0.00  0.00    -0.077 A 
ATOM      2  C3  UNL d   1      -3.241  -3.309  -1.545  0.00  0.00     0.002 A 
ATOM      3  C4  UNL d   1      -2.420  -2.181  -1.594  0.00  0.00     0.002 A 
ATOM      4  C5  UNL d   1      -1.780  -1.834  -2.782  0.00  0.00    -0.004 A 
ATOM      5  C6  UNL d   1      -1.955  -2.618  -3.922  0.00  0.00     0.002 A 
ATOM      6  C7  UNL d   1      -2.774  -3.747  -3.874  0.00  0.00     0.002 A 
ENDROOT
BRANCH   1   7
ATOM      7  C1  UNL d   1      -4.348  -5.292  -2.648  0.00  0.00     0.055 C 
ATOM      8  C   UNL d   1      -5.773  -4.898  -3.008  0.00  0.00     0.019 C 
ENDBRANCH   1   7
TORSDOF 1
ENDMDL
