MODEL 1
REMARK minimizedAffinity -3.53081417
REMARK minimizedRMSD -1
REMARK  1 active torsions:
REMARK  status: ('A' for Active; 'I' for Inactive)
REMARK    1  A    between atoms: C1_2  and  C2_3 
ROOT
ATOM      1  C2  UNL d   1       3.506   0.623   0.935  0.00  0.00    -0.077 A 
ATOM      2  C3  UNL d   1       4.579  -0.117   1.452  0.00  0.00     0.002 A 
ATOM      3  C4  UNL d   1       5.817   0.491   1.667  0.00  0.00     0.002 A 
ATOM      4  C5  UNL d   1       5.993   1.842   1.374  0.00  0.00    -0.004 A 
ATOM      5  C6  UNL d   1       4.933   2.586   0.858  0.00  0.00     0.002 A 
ATOM      6  C7  UNL d   1       3.695   1.979   0.640  0.00  0.00     0.002 A 
ENDROOT
BRANCH   1   7
ATOM      7  C1  UNL d   1       2.156  -0.019   0.747  0.00  0.00     0.055 C 
ATOM      8  C   UNL d   1       1.170   0.449   1.807  0.00  0.00     0.019 C 
ENDBRANCH   1   7
TORSDOF 1
ENDMDL
