MODEL 1
REMARK minimizedAffinity 5.39320183
REMARK minimizedRMSD -1
REMARK  1 active torsions:
REMARK  status: ('A' for Active; 'I' for Inactive)
REMARK    1  A    between atoms: C1_2  and  C2_3 
ROOT
ATOM      1  C2  UNL d   1      -4.611   0.354   4.219  0.00  0.00    -0.077 A 
ATOM      2  C3  UNL d   1      -5.184   0.337   5.498  0.00  0.00     0.002 A 
ATOM      3  C4  UNL d   1      -5.873  -0.791   5.948  0.00  0.00     0.002 A 
ATOM      4  C5  UNL d   1      -5.992  -1.910   5.127  0.00  0.00    -0.004 A 
ATOM      5  C6  UNL d   1      -5.428  -1.902   3.852  0.00  0.00     0.002 A 
ATOM      6  C7  UNL d   1      -4.740  -0.775   3.400  0.00  0.00     0.002 A 
ENDROOT
BRANCH   1   7
ATOM      7  C1  UNL d   1      -3.825   1.551   3.750  0.00  0.00     0.055 C 
ATOM      8  C   UNL d   1      -4.560   2.299   2.647  0.00  0.00     0.019 C 
ENDBRANCH   1   7
TORSDOF 1
ENDMDL
