MODEL 1
REMARK minimizedAffinity 13.8541079
REMARK minimizedRMSD -1
REMARK  1 active torsions:
REMARK  status: ('A' for Active; 'I' for Inactive)
REMARK    1  A    between atoms: C1_2  and  C2_3 
ROOT
ATOM      1  C2  UNL d   1       2.511   2.653   1.384  0.00  0.00    -0.077 A 
ATOM      2  C3  UNL d   1       3.498   2.238   0.479  0.00  0.00     0.002 A 
ATOM      3  C4  UNL d   1       3.532   0.917   0.027  0.00  0.00     0.002 A 
ATOM      4  C5  UNL d   1       2.580   0.003   0.471  0.00  0.00    -0.004 A 
ATOM      5  C6  UNL d   1       1.594   0.405   1.372  0.00  0.00     0.002 A 
ATOM      6  C7  UNL d   1       1.560   1.724   1.825  0.00  0.00     0.002 A 
ENDROOT
BRANCH   1   7
ATOM      7  C1  UNL d   1       2.443   4.089   1.834  0.00  0.00     0.055 C 
ATOM      8  C   UNL d   1       3.812   4.750   1.784  0.00  0.00     0.019 C 
ENDBRANCH   1   7
TORSDOF 1
ENDMDL
