MODEL 1
REMARK minimizedAffinity 8.1808815
REMARK minimizedRMSD -1
REMARK  1 active torsions:
REMARK  status: ('A' for Active; 'I' for Inactive)
REMARK    1  A    between atoms: C1_2  and  C2_3 
ROOT
ATOM      1  C2  UNL d   1      -1.284  -3.156  -0.983  0.00  0.00    -0.077 A 
ATOM      2  C3  UNL d   1      -2.497  -2.816  -1.598  0.00  0.00     0.002 A 
ATOM      3  C4  UNL d   1      -2.740  -3.175  -2.925  0.00  0.00     0.002 A 
ATOM      4  C5  UNL d   1      -1.778  -3.879  -3.646  0.00  0.00    -0.004 A 
ATOM      5  C6  UNL d   1      -0.568  -4.220  -3.044  0.00  0.00     0.002 A 
ATOM      6  C7  UNL d   1      -0.322  -3.861  -1.718  0.00  0.00     0.002 A 
ENDROOT
BRANCH   1   7
ATOM      7  C1  UNL d   1      -1.040  -2.814   0.464  0.00  0.00     0.055 C 
ATOM      8  C   UNL d   1      -1.258  -4.021   1.364  0.00  0.00     0.019 C 
ENDBRANCH   1   7
TORSDOF 1
ENDMDL
