MODEL 1
REMARK minimizedAffinity 10.7202091
REMARK minimizedRMSD -1
REMARK  1 active torsions:
REMARK  status: ('A' for Active; 'I' for Inactive)
REMARK    1  A    between atoms: C1_2  and  C2_3 
ROOT
ATOM      1  C2  UNL d   1      -1.338  -2.702  -0.187  0.00  0.00    -0.077 A 
ATOM      2  C3  UNL d   1      -0.852  -2.600  -1.498  0.00  0.00     0.002 A 
ATOM      3  C4  UNL d   1      -1.720  -2.718  -2.585  0.00  0.00     0.002 A 
ATOM      4  C5  UNL d   1      -3.080  -2.934  -2.372  0.00  0.00    -0.004 A 
ATOM      5  C6  UNL d   1      -3.573  -3.039  -1.073  0.00  0.00     0.002 A 
ATOM      6  C7  UNL d   1      -2.707  -2.922   0.015  0.00  0.00     0.002 A 
ENDROOT
BRANCH   1   7
ATOM      7  C1  UNL d   1      -0.412  -2.526   0.987  0.00  0.00     0.055 C 
ATOM      8  C   UNL d   1      -1.163  -2.632   2.306  0.00  0.00     0.019 C 
ENDBRANCH   1   7
TORSDOF 1
ENDMDL
