MODEL 1
REMARK minimizedAffinity 2.48440719
REMARK minimizedRMSD -1
REMARK  0 active torsions:
REMARK  status: ('A' for Active; 'I' for Inactive)
ROOT
ATOM      1  C   UNL d   1       0.784   1.143   5.454  0.00  0.00     0.172 C 
ATOM      2  N   UNL d   1       0.764   0.341   4.254  0.00  0.00    -0.070 N 
ATOM      3  C1  UNL d   1       0.401   0.777   3.008  0.00  0.00    -0.004 A 
ATOM      4  C2  UNL d   1       0.516  -0.286   2.138  0.00  0.00    -0.047 A 
ATOM      5  C3  UNL d   1       0.961  -1.400   2.888  0.00  0.00    -0.047 A 
ATOM      6  C4  UNL d   1       1.107  -0.984   4.195  0.00  0.00    -0.004 A 
ENDROOT
TORSDOF 0
ENDMDL
