MODEL 1
REMARK minimizedAffinity 12.6169643
REMARK minimizedRMSD -1
REMARK  0 active torsions:
REMARK  status: ('A' for Active; 'I' for Inactive)
ROOT
ATOM      1  C   UNL d   1       4.861   0.796   5.261  0.00  0.00     0.172 C 
ATOM      2  N   UNL d   1       4.513   0.717   3.861  0.00  0.00    -0.070 N 
ATOM      3  C1  UNL d   1       3.245   0.794   3.349  0.00  0.00    -0.004 A 
ATOM      4  C2  UNL d   1       3.336   0.678   1.979  0.00  0.00    -0.047 A 
ATOM      5  C3  UNL d   1       4.706   0.525   1.657  0.00  0.00    -0.047 A 
ATOM      6  C4  UNL d   1       5.412   0.553   2.841  0.00  0.00    -0.004 A 
ENDROOT
TORSDOF 0
ENDMDL
