MODEL 1
REMARK minimizedAffinity 3.74119473
REMARK minimizedRMSD -1
REMARK  0 active torsions:
REMARK  status: ('A' for Active; 'I' for Inactive)
ROOT
ATOM      1  C   UNL d   1      -1.703  -1.241  -3.628  0.00  0.00     0.172 C 
ATOM      2  N   UNL d   1      -0.353  -0.980  -4.069  0.00  0.00    -0.070 N 
ATOM      3  C1  UNL d   1       0.678  -0.553  -3.275  0.00  0.00    -0.004 A 
ATOM      4  C2  UNL d   1       1.797  -0.424  -4.069  0.00  0.00    -0.047 A 
ATOM      5  C3  UNL d   1       1.426  -0.784  -5.386  0.00  0.00    -0.047 A 
ATOM      6  C4  UNL d   1       0.089  -1.124  -5.358  0.00  0.00    -0.004 A 
ENDROOT
TORSDOF 0
ENDMDL
