MODEL 1
REMARK minimizedAffinity 9.7596302
REMARK minimizedRMSD -1
REMARK  0 active torsions:
REMARK  status: ('A' for Active; 'I' for Inactive)
ROOT
ATOM      1  C   UNL d   1       0.125   2.552   5.737  0.00  0.00     0.172 C 
ATOM      2  N   UNL d   1       0.156   1.789   4.512  0.00  0.00    -0.070 N 
ATOM      3  C1  UNL d   1      -0.538   2.086   3.369  0.00  0.00    -0.004 A 
ATOM      4  C2  UNL d   1      -0.240   1.121   2.432  0.00  0.00    -0.047 A 
ATOM      5  C3  UNL d   1       0.664   0.212   3.032  0.00  0.00    -0.047 A 
ATOM      6  C4  UNL d   1       0.892   0.650   4.319  0.00  0.00    -0.004 A 
ENDROOT
TORSDOF 0
ENDMDL
