MODEL 1
REMARK minimizedAffinity 12.1120596
REMARK minimizedRMSD -1
REMARK  0 active torsions:
REMARK  status: ('A' for Active; 'I' for Inactive)
ROOT
ATOM      1  C   UNL d   1       2.392  -3.777   5.996  0.00  0.00     0.172 C 
ATOM      2  N   UNL d   1       3.783  -4.165   5.993  0.00  0.00    -0.070 N 
ATOM      3  C1  UNL d   1       4.253  -5.451   6.000  0.00  0.00    -0.004 A 
ATOM      4  C2  UNL d   1       5.630  -5.397   5.994  0.00  0.00    -0.047 A 
ATOM      5  C3  UNL d   1       6.000  -4.031   5.986  0.00  0.00    -0.047 A 
ATOM      6  C4  UNL d   1       4.837  -3.290   5.985  0.00  0.00    -0.004 A 
ENDROOT
TORSDOF 0
ENDMDL
