MODEL 1
REMARK minimizedAffinity 3.98815489
REMARK minimizedRMSD -1
REMARK  0 active torsions:
REMARK  status: ('A' for Active; 'I' for Inactive)
ROOT
ATOM      1  C   UNL d   1       0.290   2.377   5.822  0.00  0.00     0.172 C 
ATOM      2  N   UNL d   1       0.247   1.651   4.574  0.00  0.00    -0.070 N 
ATOM      3  C1  UNL d   1       0.951   0.512   4.288  0.00  0.00    -0.004 A 
ATOM      4  C2  UNL d   1       0.635   0.132   3.002  0.00  0.00    -0.047 A 
ATOM      5  C3  UNL d   1      -0.291   1.076   2.497  0.00  0.00    -0.047 A 
ATOM      6  C4  UNL d   1      -0.514   2.005   3.491  0.00  0.00    -0.004 A 
ENDROOT
TORSDOF 0
ENDMDL
