MODEL 1
REMARK minimizedAffinity 11.7410707
REMARK minimizedRMSD -1
REMARK  0 active torsions:
REMARK  status: ('A' for Active; 'I' for Inactive)
ROOT
ATOM      1  C   UNL d   1       1.149  -0.555  -4.817  0.00  0.00     0.172 C 
ATOM      2  N   UNL d   1       0.355  -1.132  -3.758  0.00  0.00    -0.070 N 
ATOM      3  C1  UNL d   1      -0.686  -0.516  -3.115  0.00  0.00    -0.004 A 
ATOM      4  C2  UNL d   1      -1.179  -1.394  -2.174  0.00  0.00    -0.047 A 
ATOM      5  C3  UNL d   1      -0.407  -2.578  -2.253  0.00  0.00    -0.047 A 
ATOM      6  C4  UNL d   1       0.535  -2.388  -3.242  0.00  0.00    -0.004 A 
ENDROOT
TORSDOF 0
ENDMDL
