MODEL 1
REMARK minimizedAffinity 7.20719576
REMARK minimizedRMSD -1
REMARK  0 active torsions:
REMARK  status: ('A' for Active; 'I' for Inactive)
ROOT
ATOM      1  C   UNL d   1      -1.881  -1.585  -3.421  0.00  0.00     0.172 C 
ATOM      2  N   UNL d   1      -0.617  -1.389  -4.092  0.00  0.00    -0.070 N 
ATOM      3  C1  UNL d   1      -0.182  -2.078  -5.192  0.00  0.00    -0.004 A 
ATOM      4  C2  UNL d   1       1.066  -1.597  -5.525  0.00  0.00    -0.047 A 
ATOM      5  C3  UNL d   1       1.392  -0.585  -4.593  0.00  0.00    -0.047 A 
ATOM      6  C4  UNL d   1       0.333  -0.476  -3.716  0.00  0.00    -0.004 A 
ENDROOT
TORSDOF 0
ENDMDL
