MODEL 1
REMARK minimizedAffinity 7.92183113
REMARK minimizedRMSD -1
REMARK  0 active torsions:
REMARK  status: ('A' for Active; 'I' for Inactive)
ROOT
ATOM      1  C   UNL d   1      -3.345   1.226   1.252  0.00  0.00     0.172 C 
ATOM      2  N   UNL d   1      -4.151   1.064   0.064  0.00  0.00    -0.070 N 
ATOM      3  C1  UNL d   1      -4.174  -0.045  -0.739  0.00  0.00    -0.004 A 
ATOM      4  C2  UNL d   1      -5.066   0.193  -1.762  0.00  0.00    -0.047 A 
ATOM      5  C3  UNL d   1      -5.596   1.491  -1.568  0.00  0.00    -0.047 A 
ATOM      6  C4  UNL d   1      -5.012   2.007  -0.430  0.00  0.00    -0.004 A 
ENDROOT
TORSDOF 0
ENDMDL
