MODEL 1
REMARK minimizedAffinity 11.1910591
REMARK minimizedRMSD -1
REMARK  0 active torsions:
REMARK  status: ('A' for Active; 'I' for Inactive)
ROOT
ATOM      1  C   UNL d   1      -0.801  -1.541   0.190  0.00  0.00     0.172 C 
ATOM      2  N   UNL d   1      -0.027  -0.768   1.132  0.00  0.00    -0.070 N 
ATOM      3  C1  UNL d   1       0.932  -1.264   1.975  0.00  0.00    -0.004 A 
ATOM      4  C2  UNL d   1       1.434  -0.211   2.709  0.00  0.00    -0.047 A 
ATOM      5  C3  UNL d   1       0.754   0.958   2.293  0.00  0.00    -0.047 A 
ATOM      6  C4  UNL d   1      -0.145   0.584   1.316  0.00  0.00    -0.004 A 
ENDROOT
TORSDOF 0
ENDMDL
