MODEL 1
REMARK minimizedAffinity 8.66121769
REMARK minimizedRMSD -1
REMARK  0 active torsions:
REMARK  status: ('A' for Active; 'I' for Inactive)
ROOT
ATOM      1  C   UNL d   1      -1.289  -1.838  -3.039  0.00  0.00     0.172 C 
ATOM      2  N   UNL d   1      -0.191  -1.520  -3.921  0.00  0.00    -0.070 N 
ATOM      3  C1  UNL d   1       0.353  -2.361  -4.855  0.00  0.00    -0.004 A 
ATOM      4  C2  UNL d   1       1.375  -1.686  -5.487  0.00  0.00    -0.047 A 
ATOM      5  C3  UNL d   1       1.448  -0.395  -4.914  0.00  0.00    -0.047 A 
ATOM      6  C4  UNL d   1       0.468  -0.319  -3.947  0.00  0.00    -0.004 A 
ENDROOT
TORSDOF 0
ENDMDL
