MODEL 1
REMARK minimizedAffinity 13.45263
REMARK minimizedRMSD -1
REMARK  0 active torsions:
REMARK  status: ('A' for Active; 'I' for Inactive)
ROOT
ATOM      1  C   UNL d   1      -3.555   1.396   1.687  0.00  0.00     0.172 C 
ATOM      2  N   UNL d   1      -4.246   1.525   0.426  0.00  0.00    -0.070 N 
ATOM      3  C1  UNL d   1      -4.631   2.703  -0.157  0.00  0.00    -0.004 A 
ATOM      4  C2  UNL d   1      -5.257   2.401  -1.346  0.00  0.00    -0.047 A 
ATOM      5  C3  UNL d   1      -5.249   0.992  -1.483  0.00  0.00    -0.047 A 
ATOM      6  C4  UNL d   1      -4.617   0.475  -0.372  0.00  0.00    -0.004 A 
ENDROOT
TORSDOF 0
ENDMDL
