MODEL 1
REMARK minimizedAffinity 2.34322429
REMARK minimizedRMSD -1
REMARK  0 active torsions:
REMARK  status: ('A' for Active; 'I' for Inactive)
ROOT
ATOM      1  C   UNL d   1      -1.372   2.122  -0.096  0.00  0.00    -0.002 A 
ATOM      2  C1  UNL d   1      -1.327   0.799   0.318  0.00  0.00     0.010 A 
ATOM      3  C2  UNL d   1      -2.474   0.166   0.802  0.00  0.00     0.041 A 
ATOM      4  C3  UNL d   1      -3.679   0.893   0.861  0.00  0.00    -0.075 A 
ATOM      5  S   UNL d   1      -5.209   0.325   1.416  0.00  0.00     0.015 SA
ATOM      6  C4  UNL d   1      -5.960   1.825   1.115  0.00  0.00     0.022 A 
ATOM      7  C5  UNL d   1      -5.079   2.749   0.604  0.00  0.00     0.026 A 
ATOM      8  C6  UNL d   1      -3.750   2.227   0.448  0.00  0.00    -0.082 A 
ATOM      9  C7  UNL d   1      -2.570   2.840  -0.036  0.00  0.00     0.045 A 
ENDROOT
TORSDOF 0
ENDMDL
