MODEL 1
REMARK minimizedAffinity 2.77471399
REMARK minimizedRMSD -1
REMARK  0 active torsions:
REMARK  status: ('A' for Active; 'I' for Inactive)
ROOT
ATOM      1  C   UNL d   1      -0.058   0.701   0.930  0.00  0.00    -0.002 A 
ATOM      2  C1  UNL d   1      -0.107   2.084   1.037  0.00  0.00     0.010 A 
ATOM      3  C2  UNL d   1      -1.333   2.752   1.056  0.00  0.00     0.041 A 
ATOM      4  C3  UNL d   1      -2.520   1.999   0.966  0.00  0.00    -0.075 A 
ATOM      5  S   UNL d   1      -4.136   2.602   0.970  0.00  0.00     0.015 SA
ATOM      6  C4  UNL d   1      -4.799   1.038   0.830  0.00  0.00     0.022 A 
ATOM      7  C5  UNL d   1      -3.826   0.068   0.780  0.00  0.00     0.026 A 
ATOM      8  C6  UNL d   1      -2.496   0.606   0.858  0.00  0.00    -0.082 A 
ATOM      9  C7  UNL d   1      -1.238  -0.042   0.841  0.00  0.00     0.045 A 
ENDROOT
TORSDOF 0
ENDMDL
