MODEL 1
REMARK minimizedAffinity 0.0479591154
REMARK minimizedRMSD -1
REMARK  0 active torsions:
REMARK  status: ('A' for Active; 'I' for Inactive)
ROOT
ATOM      1  C   UNL d   1      -3.704   0.817   0.639  0.00  0.00    -0.002 A 
ATOM      2  C1  UNL d   1      -3.176   0.252   1.791  0.00  0.00     0.010 A 
ATOM      3  C2  UNL d   1      -1.819   0.391   2.093  0.00  0.00     0.041 A 
ATOM      4  C3  UNL d   1      -0.995   1.115   1.209  0.00  0.00    -0.075 A 
ATOM      5  S   UNL d   1       0.694   1.416   1.374  0.00  0.00     0.015 SA
ATOM      6  C4  UNL d   1       0.755   2.302  -0.080  0.00  0.00     0.022 A 
ATOM      7  C5  UNL d   1      -0.475   2.377  -0.690  0.00  0.00     0.026 A 
ATOM      8  C6  UNL d   1      -1.504   1.695   0.044  0.00  0.00    -0.082 A 
ATOM      9  C7  UNL d   1      -2.883   1.536  -0.235  0.00  0.00     0.045 A 
ENDROOT
TORSDOF 0
ENDMDL
