MODEL 1
REMARK minimizedAffinity -1.43033981
REMARK minimizedRMSD -1
REMARK  0 active torsions:
REMARK  status: ('A' for Active; 'I' for Inactive)
ROOT
ATOM      1  C   UNL d   1      -0.207   2.276  -0.049  0.00  0.00    -0.002 A 
ATOM      2  C1  UNL d   1      -0.156   1.023   0.545  0.00  0.00     0.010 A 
ATOM      3  C2  UNL d   1      -1.318   0.419   1.031  0.00  0.00     0.041 A 
ATOM      4  C3  UNL d   1      -2.544   1.102   0.906  0.00  0.00    -0.075 A 
ATOM      5  S   UNL d   1      -4.095   0.558   1.427  0.00  0.00     0.015 SA
ATOM      6  C4  UNL d   1      -4.861   1.975   0.872  0.00  0.00     0.022 A 
ATOM      7  C5  UNL d   1      -3.971   2.853   0.301  0.00  0.00     0.026 A 
ATOM      8  C6  UNL d   1      -2.621   2.364   0.310  0.00  0.00    -0.082 A 
ATOM      9  C7  UNL d   1      -1.425   2.950  -0.171  0.00  0.00     0.045 A 
ENDROOT
TORSDOF 0
ENDMDL
