MODEL 1
REMARK minimizedAffinity 10.2226877
REMARK minimizedRMSD -1
REMARK  0 active torsions:
REMARK  status: ('A' for Active; 'I' for Inactive)
ROOT
ATOM      1  C   UNL d   1       1.794  -5.010   0.546  0.00  0.00    -0.002 A 
ATOM      2  C1  UNL d   1       2.689  -5.225  -0.492  0.00  0.00     0.010 A 
ATOM      3  C2  UNL d   1       3.532  -4.200  -0.927  0.00  0.00     0.041 A 
ATOM      4  C3  UNL d   1       3.460  -2.944  -0.292  0.00  0.00    -0.075 A 
ATOM      5  S   UNL d   1       4.395  -1.541  -0.655  0.00  0.00     0.015 SA
ATOM      6  C4  UNL d   1       3.629  -0.625   0.560  0.00  0.00     0.022 A 
ATOM      7  C5  UNL d   1       2.680  -1.355   1.236  0.00  0.00     0.026 A 
ATOM      8  C6  UNL d   1       2.568  -2.704   0.756  0.00  0.00    -0.082 A 
ATOM      9  C7  UNL d   1       1.726  -3.763   1.173  0.00  0.00     0.045 A 
ENDROOT
TORSDOF 0
ENDMDL
