MODEL 1
REMARK minimizedAffinity 1.33800864
REMARK minimizedRMSD -1
REMARK  0 active torsions:
REMARK  status: ('A' for Active; 'I' for Inactive)
ROOT
ATOM      1  C   UNL d   1       3.088   0.601   0.489  0.00  0.00    -0.002 A 
ATOM      2  C1  UNL d   1       3.267   0.605   1.865  0.00  0.00     0.010 A 
ATOM      3  C2  UNL d   1       2.254   1.057   2.712  0.00  0.00     0.041 A 
ATOM      4  C3  UNL d   1       1.044   1.508   2.147  0.00  0.00    -0.075 A 
ATOM      5  S   UNL d   1      -0.337   2.105   2.989  0.00  0.00     0.015 SA
ATOM      6  C4  UNL d   1      -1.198   2.368   1.542  0.00  0.00     0.022 A 
ATOM      7  C5  UNL d   1      -0.464   2.015   0.434  0.00  0.00     0.026 A 
ATOM      8  C6  UNL d   1       0.840   1.513   0.765  0.00  0.00    -0.082 A 
ATOM      9  C7  UNL d   1       1.887   1.049  -0.067  0.00  0.00     0.045 A 
ENDROOT
TORSDOF 0
ENDMDL
