MODEL 1
REMARK minimizedAffinity -1.17376971
REMARK minimizedRMSD -1
REMARK  0 active torsions:
REMARK  status: ('A' for Active; 'I' for Inactive)
ROOT
ATOM      1  C   UNL d   1      -0.943   1.626   0.195  0.00  0.00    -0.002 A 
ATOM      2  C1  UNL d   1      -0.837   0.337   0.699  0.00  0.00     0.010 A 
ATOM      3  C2  UNL d   1      -1.967  -0.339   1.164  0.00  0.00     0.041 A 
ATOM      4  C3  UNL d   1      -3.218   0.309   1.112  0.00  0.00    -0.075 A 
ATOM      5  S   UNL d   1      -4.737  -0.324   1.625  0.00  0.00     0.015 SA
ATOM      6  C4  UNL d   1      -5.563   1.101   1.187  0.00  0.00     0.022 A 
ATOM      7  C5  UNL d   1      -4.715   2.047   0.660  0.00  0.00     0.026 A 
ATOM      8  C6  UNL d   1      -3.349   1.606   0.608  0.00  0.00    -0.082 A 
ATOM      9  C7  UNL d   1      -2.185   2.264   0.145  0.00  0.00     0.045 A 
ENDROOT
TORSDOF 0
ENDMDL
