MODEL 1
REMARK minimizedAffinity -1.27525628
REMARK minimizedRMSD -1
REMARK  0 active torsions:
REMARK  status: ('A' for Active; 'I' for Inactive)
ROOT
ATOM      1  C   UNL d   1       0.646   1.224   0.661  0.00  0.00    -0.002 A 
ATOM      2  C1  UNL d   1       0.126   0.434   1.677  0.00  0.00     0.010 A 
ATOM      3  C2  UNL d   1      -1.254   0.278   1.819  0.00  0.00     0.041 A 
ATOM      4  C3  UNL d   1      -2.112   0.933   0.913  0.00  0.00    -0.075 A 
ATOM      5  S   UNL d   1      -3.835   0.885   0.893  0.00  0.00     0.015 SA
ATOM      6  C4  UNL d   1      -3.922   1.911  -0.466  0.00  0.00     0.022 A 
ATOM      7  C5  UNL d   1      -2.676   2.290  -0.906  0.00  0.00     0.026 A 
ATOM      8  C6  UNL d   1      -1.612   1.732  -0.119  0.00  0.00    -0.082 A 
ATOM      9  C7  UNL d   1      -0.208   1.872  -0.236  0.00  0.00     0.045 A 
ENDROOT
TORSDOF 0
ENDMDL
