MODEL 1
REMARK minimizedAffinity 3.04642987
REMARK minimizedRMSD -1
REMARK  1 active torsions:
REMARK  status: ('A' for Active; 'I' for Inactive)
REMARK    1  A    between atoms: N_2  and  C1_3 
ROOT
ATOM      1  C1  UNL d   1       2.901   3.644   0.962  0.00  0.00     0.143 A 
ATOM      2  C2  UNL d   1       3.201   2.381   1.482  0.00  0.00    -0.057 A 
ATOM      3  C3  UNL d   1       2.267   1.338   1.441  0.00  0.00     0.033 A 
ATOM      4  C4  UNL d   1       1.002   1.550   0.903  0.00  0.00    -0.042 A 
ATOM      5  C5  UNL d   1       0.673   2.805   0.403  0.00  0.00     0.033 A 
ATOM      6  C6  UNL d   1       1.612   3.841   0.441  0.00  0.00    -0.057 A 
ENDROOT
BRANCH   1   7
ATOM      7  N   UNL d   1       3.751   4.749   1.062  0.00  0.00    -0.732 N 
ATOM      8  C   UNL d   1       3.415   5.999   0.415  0.00  0.00     0.284 C 
ATOM      9  H3  UNL d   1       4.140   4.855   1.996  0.00  0.00     0.395 HD
ENDBRANCH   1   7
TORSDOF 1
ENDMDL
