MODEL 1
REMARK minimizedAffinity 0.761823595
REMARK minimizedRMSD -1
REMARK  1 active torsions:
REMARK  status: ('A' for Active; 'I' for Inactive)
REMARK    1  A    between atoms: N_2  and  C1_3 
ROOT
ATOM      1  C1  UNL d   1       4.143  -5.458  -3.423  0.00  0.00     0.143 A 
ATOM      2  C2  UNL d   1       3.482  -5.998  -4.530  0.00  0.00    -0.057 A 
ATOM      3  C3  UNL d   1       4.061  -5.974  -5.805  0.00  0.00     0.033 A 
ATOM      4  C4  UNL d   1       5.304  -5.381  -6.000  0.00  0.00    -0.042 A 
ATOM      5  C5  UNL d   1       5.968  -4.815  -4.918  0.00  0.00     0.033 A 
ATOM      6  C6  UNL d   1       5.388  -4.848  -3.646  0.00  0.00    -0.057 A 
ENDROOT
BRANCH   1   7
ATOM      7  N   UNL d   1       3.578  -5.363  -2.149  0.00  0.00    -0.732 N 
ATOM      8  C   UNL d   1       2.312  -5.999  -1.855  0.00  0.00     0.284 C 
ATOM      9  H3  UNL d   1       4.270  -5.453  -1.409  0.00  0.00     0.395 HD
ENDBRANCH   1   7
TORSDOF 1
ENDMDL
