MODEL 1
REMARK minimizedAffinity -2.46648335
REMARK minimizedRMSD -1
REMARK  1 active torsions:
REMARK  status: ('A' for Active; 'I' for Inactive)
REMARK    1  A    between atoms: N_2  and  C1_3 
ROOT
ATOM      1  C1  UNL d   1       3.636  -5.643  -5.051  0.00  0.00     0.143 A 
ATOM      2  C2  UNL d   1       3.349  -5.185  -3.761  0.00  0.00    -0.057 A 
ATOM      3  C3  UNL d   1       4.367  -4.969  -2.824  0.00  0.00     0.033 A 
ATOM      4  C4  UNL d   1       5.692  -5.237  -3.153  0.00  0.00    -0.042 A 
ATOM      5  C5  UNL d   1       5.997  -5.717  -4.422  0.00  0.00     0.033 A 
ATOM      6  C6  UNL d   1       4.977  -5.924  -5.355  0.00  0.00    -0.057 A 
ENDROOT
BRANCH   1   7
ATOM      7  N   UNL d   1       2.659  -5.971  -5.995  0.00  0.00    -0.732 N 
ATOM      8  C   UNL d   1       1.259  -5.996  -5.629  0.00  0.00     0.284 C 
ATOM      9  H3  UNL d   1       2.843  -5.554  -6.905  0.00  0.00     0.395 HD
ENDBRANCH   1   7
TORSDOF 1
ENDMDL
