MODEL 1
REMARK minimizedAffinity -2.06757307
REMARK minimizedRMSD -1
REMARK  1 active torsions:
REMARK  status: ('A' for Active; 'I' for Inactive)
REMARK    1  A    between atoms: N_2  and  C1_3 
ROOT
ATOM      1  C1  UNL d   1       3.583  -5.637  -5.220  0.00  0.00     0.143 A 
ATOM      2  C2  UNL d   1       3.607  -5.567  -3.823  0.00  0.00    -0.057 A 
ATOM      3  C3  UNL d   1       4.796  -5.310  -3.129  0.00  0.00     0.033 A 
ATOM      4  C4  UNL d   1       5.991  -5.147  -3.822  0.00  0.00    -0.042 A 
ATOM      5  C5  UNL d   1       5.995  -5.238  -5.209  0.00  0.00     0.033 A 
ATOM      6  C6  UNL d   1       4.804  -5.488  -5.896  0.00  0.00    -0.057 A 
ENDROOT
BRANCH   1   7
ATOM      7  N   UNL d   1       2.452  -5.987  -5.962  0.00  0.00    -0.732 N 
ATOM      8  C   UNL d   1       1.142  -6.000  -5.347  0.00  0.00     0.284 C 
ATOM      9  H3  UNL d   1       2.466  -5.594  -6.900  0.00  0.00     0.395 HD
ENDBRANCH   1   7
TORSDOF 1
ENDMDL
