MODEL 1
REMARK minimizedAffinity 8.49394035
REMARK minimizedRMSD -1
REMARK  1 active torsions:
REMARK  status: ('A' for Active; 'I' for Inactive)
REMARK    1  A    between atoms: N_2  and  C1_3 
ROOT
ATOM      1  C1  UNL d   1       3.676   3.621   1.228  0.00  0.00     0.143 A 
ATOM      2  C2  UNL d   1       4.018   2.379   1.774  0.00  0.00    -0.057 A 
ATOM      3  C3  UNL d   1       3.188   1.262   1.613  0.00  0.00     0.033 A 
ATOM      4  C4  UNL d   1       1.984   1.376   0.927  0.00  0.00    -0.042 A 
ATOM      5  C5  UNL d   1       1.612   2.607   0.398  0.00  0.00     0.033 A 
ATOM      6  C6  UNL d   1       2.448   3.717   0.556  0.00  0.00    -0.057 A 
ENDROOT
BRANCH   1   7
ATOM      7  N   UNL d   1       4.410   4.791   1.438  0.00  0.00    -0.732 N 
ATOM      8  C   UNL d   1       5.129   4.998   2.676  0.00  0.00     0.284 C 
ATOM      9  H3  UNL d   1       4.920   5.083   0.607  0.00  0.00     0.395 HD
ENDBRANCH   1   7
TORSDOF 1
ENDMDL
