MODEL 1
REMARK minimizedAffinity -2.17214966
REMARK minimizedRMSD -1
REMARK  1 active torsions:
REMARK  status: ('A' for Active; 'I' for Inactive)
REMARK    1  A    between atoms: N_2  and  C1_3 
ROOT
ATOM      1  C1  UNL d   1       1.363   2.957   1.545  0.00  0.00     0.143 A 
ATOM      2  C2  UNL d   1       2.433   3.824   1.787  0.00  0.00    -0.057 A 
ATOM      3  C3  UNL d   1       3.748   3.462   1.469  0.00  0.00     0.033 A 
ATOM      4  C4  UNL d   1       4.019   2.210   0.927  0.00  0.00    -0.042 A 
ATOM      5  C5  UNL d   1       2.973   1.322   0.701  0.00  0.00     0.033 A 
ATOM      6  C6  UNL d   1       1.662   1.692   1.015  0.00  0.00    -0.057 A 
ENDROOT
BRANCH   1   7
ATOM      7  N   UNL d   1       0.046   3.220   1.930  0.00  0.00    -0.732 N 
ATOM      8  C   UNL d   1      -0.293   3.396   3.326  0.00  0.00     0.284 C 
ATOM      9  H3  UNL d   1      -0.419   3.874   1.304  0.00  0.00     0.395 HD
ENDBRANCH   1   7
TORSDOF 1
ENDMDL
