MODEL 1
REMARK minimizedAffinity -0.108349338
REMARK minimizedRMSD -1
REMARK  1 active torsions:
REMARK  status: ('A' for Active; 'I' for Inactive)
REMARK    1  A    between atoms: N_2  and  C1_3 
ROOT
ATOM      1  C1  UNL d   1       3.634  -5.637  -5.179  0.00  0.00     0.143 A 
ATOM      2  C2  UNL d   1       4.827  -5.508  -5.898  0.00  0.00    -0.057 A 
ATOM      3  C3  UNL d   1       5.997  -5.043  -5.285  0.00  0.00     0.033 A 
ATOM      4  C4  UNL d   1       5.986  -4.670  -3.945  0.00  0.00    -0.042 A 
ATOM      5  C5  UNL d   1       4.805  -4.766  -3.218  0.00  0.00     0.033 A 
ATOM      6  C6  UNL d   1       3.642  -5.237  -3.834  0.00  0.00    -0.057 A 
ENDROOT
BRANCH   1   7
ATOM      7  N   UNL d   1       2.414  -6.000  -5.756  0.00  0.00    -0.732 N 
ATOM      8  C   UNL d   1       1.198  -5.999  -4.971  0.00  0.00     0.284 C 
ATOM      9  H3  UNL d   1       2.302  -5.626  -6.696  0.00  0.00     0.395 HD
ENDBRANCH   1   7
TORSDOF 1
ENDMDL
