MODEL 1
REMARK minimizedAffinity 4.47139692
REMARK minimizedRMSD -1
REMARK  1 active torsions:
REMARK  status: ('A' for Active; 'I' for Inactive)
REMARK    1  A    between atoms: N_2  and  C1_3 
ROOT
ATOM      1  C1  UNL d   1       3.531   3.894   1.048  0.00  0.00     0.143 A 
ATOM      2  C2  UNL d   1       2.253   3.335   0.946  0.00  0.00    -0.057 A 
ATOM      3  C3  UNL d   1       2.074   1.957   0.774  0.00  0.00     0.033 A 
ATOM      4  C4  UNL d   1       3.176   1.115   0.670  0.00  0.00    -0.042 A 
ATOM      5  C5  UNL d   1       4.457   1.652   0.743  0.00  0.00     0.033 A 
ATOM      6  C6  UNL d   1       4.628   3.028   0.923  0.00  0.00    -0.057 A 
ENDROOT
BRANCH   1   7
ATOM      7  N   UNL d   1       3.776   5.268   1.121  0.00  0.00    -0.732 N 
ATOM      8  C   UNL d   1       4.282   5.989  -0.027  0.00  0.00     0.284 C 
ATOM      9  H3  UNL d   1       3.054   5.764   1.639  0.00  0.00     0.395 HD
ENDBRANCH   1   7
TORSDOF 1
ENDMDL
