MODEL 1
REMARK minimizedAffinity 3.15107632
REMARK minimizedRMSD -1
REMARK  1 active torsions:
REMARK  status: ('A' for Active; 'I' for Inactive)
REMARK    1  A    between atoms: N_2  and  C1_3 
ROOT
ATOM      1  C1  UNL d   1      -3.874   2.676  -5.454  0.00  0.00     0.143 A 
ATOM      2  C2  UNL d   1      -2.811   3.404  -5.998  0.00  0.00    -0.057 A 
ATOM      3  C3  UNL d   1      -1.571   3.474  -5.350  0.00  0.00     0.033 A 
ATOM      4  C4  UNL d   1      -1.382   2.837  -4.128  0.00  0.00    -0.042 A 
ATOM      5  C5  UNL d   1      -2.432   2.128  -3.556  0.00  0.00     0.033 A 
ATOM      6  C6  UNL d   1      -3.665   2.057  -4.211  0.00  0.00    -0.057 A 
ENDROOT
BRANCH   1   7
ATOM      7  N   UNL d   1      -5.159   2.650  -6.000  0.00  0.00    -0.732 N 
ATOM      8  C   UNL d   1      -5.991   3.834  -5.984  0.00  0.00     0.284 C 
ATOM      9  H3  UNL d   1      -5.201   2.124  -6.870  0.00  0.00     0.395 HD
ENDBRANCH   1   7
TORSDOF 1
ENDMDL
