MODEL 1
REMARK minimizedAffinity -4.67641115
REMARK minimizedRMSD -1
REMARK  0 active torsions:
REMARK  status: ('A' for Active; 'I' for Inactive)
ROOT
ATOM      1  C   UNL d   1      -0.805  -0.466   0.111  0.00  0.00     0.077 C 
ATOM      2  C1  UNL d   1       0.164   0.672   0.232  0.00  0.00    -0.074 A 
ATOM      3  C2  UNL d   1      -0.286   1.993   0.322  0.00  0.00    -0.005 A 
ATOM      4  C3  UNL d   1       0.627   3.040   0.444  0.00  0.00     0.006 A 
ATOM      5  C4  UNL d   1       1.997   2.778   0.476  0.00  0.00    -0.005 A 
ATOM      6  C5  UNL d   1       2.466   1.463   0.388  0.00  0.00    -0.074 A 
ATOM      7  C6  UNL d   1       3.935   1.163   0.431  0.00  0.00     0.077 C 
ATOM      8  C7  UNL d   1       1.542   0.416   0.273  0.00  0.00    -0.001 A 
ENDROOT
TORSDOF 0
ENDMDL
