MODEL 1
REMARK minimizedAffinity -3.83276916
REMARK minimizedRMSD -1
REMARK  0 active torsions:
REMARK  status: ('A' for Active; 'I' for Inactive)
ROOT
ATOM      1  C   UNL d   1       2.554   0.747  -0.038  0.00  0.00     0.077 C 
ATOM      2  C1  UNL d   1       1.230   1.452  -0.059  0.00  0.00    -0.074 A 
ATOM      3  C2  UNL d   1       1.153   2.830  -0.288  0.00  0.00    -0.005 A 
ATOM      4  C3  UNL d   1      -0.086   3.470  -0.314  0.00  0.00     0.006 A 
ATOM      5  C4  UNL d   1      -1.258   2.741  -0.112  0.00  0.00    -0.005 A 
ATOM      6  C5  UNL d   1      -1.201   1.362   0.118  0.00  0.00    -0.074 A 
ATOM      7  C6  UNL d   1      -2.452   0.562   0.327  0.00  0.00     0.077 C 
ATOM      8  C7  UNL d   1       0.047   0.725   0.136  0.00  0.00    -0.001 A 
ENDROOT
TORSDOF 0
ENDMDL
