MODEL 1
REMARK minimizedAffinity -5.09719706
REMARK minimizedRMSD -1
REMARK  0 active torsions:
REMARK  status: ('A' for Active; 'I' for Inactive)
ROOT
ATOM      1  C   UNL d   1       0.700   3.175  -0.594  0.00  0.00     0.077 C 
ATOM      2  C1  UNL d   1      -0.067   2.001  -0.062  0.00  0.00    -0.074 A 
ATOM      3  C2  UNL d   1      -1.221   2.184   0.706  0.00  0.00    -0.005 A 
ATOM      4  C3  UNL d   1      -1.929   1.082   1.186  0.00  0.00     0.006 A 
ATOM      5  C4  UNL d   1      -1.491  -0.212   0.902  0.00  0.00    -0.005 A 
ATOM      6  C5  UNL d   1      -0.340  -0.415   0.134  0.00  0.00    -0.074 A 
ATOM      7  C6  UNL d   1       0.138  -1.799  -0.188  0.00  0.00     0.077 C 
ATOM      8  C7  UNL d   1       0.362   0.697  -0.350  0.00  0.00    -0.001 A 
ENDROOT
TORSDOF 0
ENDMDL
