MODEL 1
REMARK minimizedAffinity -4.66820049
REMARK minimizedRMSD -1
REMARK  0 active torsions:
REMARK  status: ('A' for Active; 'I' for Inactive)
ROOT
ATOM      1  C   UNL d   1       0.384   3.702   0.084  0.00  0.00     0.077 C 
ATOM      2  C1  UNL d   1       0.461   2.216   0.274  0.00  0.00    -0.074 A 
ATOM      3  C2  UNL d   1      -0.698   1.434   0.306  0.00  0.00    -0.005 A 
ATOM      4  C3  UNL d   1      -0.609   0.052   0.474  0.00  0.00     0.006 A 
ATOM      5  C4  UNL d   1       0.637  -0.560   0.612  0.00  0.00    -0.005 A 
ATOM      6  C5  UNL d   1       1.807   0.205   0.582  0.00  0.00    -0.074 A 
ATOM      7  C6  UNL d   1       3.155  -0.438   0.719  0.00  0.00     0.077 C 
ATOM      8  C7  UNL d   1       1.710   1.592   0.406  0.00  0.00    -0.001 A 
ENDROOT
TORSDOF 0
ENDMDL
