MODEL 1
REMARK minimizedAffinity -3.50773048
REMARK minimizedRMSD -1
REMARK  0 active torsions:
REMARK  status: ('A' for Active; 'I' for Inactive)
ROOT
ATOM      1  C   UNL d   1       0.692   3.646  -0.204  0.00  0.00     0.077 C 
ATOM      2  C1  UNL d   1      -0.011   2.342   0.033  0.00  0.00    -0.074 A 
ATOM      3  C2  UNL d   1      -1.201   2.290   0.766  0.00  0.00    -0.005 A 
ATOM      4  C3  UNL d   1      -1.849   1.072   0.969  0.00  0.00     0.006 A 
ATOM      5  C4  UNL d   1      -1.314  -0.105   0.443  0.00  0.00    -0.005 A 
ATOM      6  C5  UNL d   1      -0.126  -0.072  -0.293  0.00  0.00    -0.074 A 
ATOM      7  C6  UNL d   1       0.457  -1.326  -0.873  0.00  0.00     0.077 C 
ATOM      8  C7  UNL d   1       0.516   1.157  -0.499  0.00  0.00    -0.001 A 
ENDROOT
TORSDOF 0
ENDMDL
