MODEL 1
REMARK minimizedAffinity -4.54480696
REMARK minimizedRMSD -1
REMARK  0 active torsions:
REMARK  status: ('A' for Active; 'I' for Inactive)
ROOT
ATOM      1  C   UNL d   1       1.795  -1.104   0.966  0.00  0.00     0.077 C 
ATOM      2  C1  UNL d   1       0.691  -0.154   0.608  0.00  0.00    -0.074 A 
ATOM      3  C2  UNL d   1      -0.650  -0.521   0.755  0.00  0.00    -0.005 A 
ATOM      4  C3  UNL d   1      -1.665   0.377   0.426  0.00  0.00     0.006 A 
ATOM      5  C4  UNL d   1      -1.350   1.650  -0.052  0.00  0.00    -0.005 A 
ATOM      6  C5  UNL d   1      -0.014   2.035  -0.205  0.00  0.00    -0.074 A 
ATOM      7  C6  UNL d   1       0.342   3.402  -0.709  0.00  0.00     0.077 C 
ATOM      8  C7  UNL d   1       1.000   1.129   0.134  0.00  0.00    -0.001 A 
ENDROOT
TORSDOF 0
ENDMDL
