MODEL 1
REMARK minimizedAffinity -3.05080247
REMARK minimizedRMSD -1
REMARK  0 active torsions:
REMARK  status: ('A' for Active; 'I' for Inactive)
ROOT
ATOM      1  C   UNL d   1       0.710   3.525   0.032  0.00  0.00     0.077 C 
ATOM      2  C1  UNL d   1      -0.050   2.250   0.241  0.00  0.00    -0.074 A 
ATOM      3  C2  UNL d   1      -1.383   2.268   0.665  0.00  0.00    -0.005 A 
ATOM      4  C3  UNL d   1      -2.080   1.074   0.846  0.00  0.00     0.006 A 
ATOM      5  C4  UNL d   1      -1.453  -0.149   0.607  0.00  0.00    -0.005 A 
ATOM      6  C5  UNL d   1      -0.121  -0.188   0.182  0.00  0.00    -0.074 A 
ATOM      7  C6  UNL d   1       0.565  -1.493  -0.090  0.00  0.00     0.077 C 
ATOM      8  C7  UNL d   1       0.571   1.017  -0.005  0.00  0.00    -0.001 A 
ENDROOT
TORSDOF 0
ENDMDL
