MODEL 1
REMARK minimizedAffinity -2.70421791
REMARK minimizedRMSD -1
REMARK  0 active torsions:
REMARK  status: ('A' for Active; 'I' for Inactive)
ROOT
ATOM      1  C   UNL d   1      -0.419  -0.587  -0.403  0.00  0.00     0.077 C 
ATOM      2  C1  UNL d   1      -0.157   0.869  -0.160  0.00  0.00    -0.074 A 
ATOM      3  C2  UNL d   1       0.369   1.683  -1.169  0.00  0.00    -0.005 A 
ATOM      4  C3  UNL d   1       0.599   3.038  -0.931  0.00  0.00     0.006 A 
ATOM      5  C4  UNL d   1       0.305   3.592   0.315  0.00  0.00    -0.005 A 
ATOM      6  C5  UNL d   1      -0.223   2.795   1.336  0.00  0.00    -0.074 A 
ATOM      7  C6  UNL d   1      -0.553   3.377   2.678  0.00  0.00     0.077 C 
ATOM      8  C7  UNL d   1      -0.457   1.435   1.087  0.00  0.00    -0.001 A 
ENDROOT
TORSDOF 0
ENDMDL
