MODEL 1
REMARK minimizedAffinity -4.19418383
REMARK minimizedRMSD -1
REMARK  0 active torsions:
REMARK  status: ('A' for Active; 'I' for Inactive)
ROOT
ATOM      1  C   UNL d   1       0.281  -1.036   0.265  0.00  0.00     0.077 C 
ATOM      2  C1  UNL d   1      -0.395  -2.029  -0.633  0.00  0.00    -0.074 A 
ATOM      3  C2  UNL d   1       0.196  -2.427  -1.837  0.00  0.00    -0.005 A 
ATOM      4  C3  UNL d   1      -0.440  -3.359  -2.658  0.00  0.00     0.006 A 
ATOM      5  C4  UNL d   1      -1.670  -3.901  -2.284  0.00  0.00    -0.005 A 
ATOM      6  C5  UNL d   1      -2.275  -3.516  -1.083  0.00  0.00    -0.074 A 
ATOM      7  C6  UNL d   1      -3.592  -4.096  -0.661  0.00  0.00     0.077 C 
ATOM      8  C7  UNL d   1      -1.627  -2.584  -0.260  0.00  0.00    -0.001 A 
ENDROOT
TORSDOF 0
ENDMDL
