MODEL 1
REMARK minimizedAffinity -3.40050793
REMARK minimizedRMSD -1
REMARK  0 active torsions:
REMARK  status: ('A' for Active; 'I' for Inactive)
ROOT
ATOM      1  C   UNL d   1      -2.464   1.843   0.497  0.00  0.00     0.077 C 
ATOM      2  C1  UNL d   1      -1.171   1.104   0.319  0.00  0.00    -0.074 A 
ATOM      3  C2  UNL d   1       0.048   1.694   0.668  0.00  0.00    -0.005 A 
ATOM      4  C3  UNL d   1       1.242   0.991   0.506  0.00  0.00     0.006 A 
ATOM      5  C4  UNL d   1       1.228  -0.308  -0.005  0.00  0.00    -0.005 A 
ATOM      6  C5  UNL d   1       0.019  -0.914  -0.359  0.00  0.00    -0.074 A 
ATOM      7  C6  UNL d   1      -0.014  -2.313  -0.900  0.00  0.00     0.077 C 
ATOM      8  C7  UNL d   1      -1.177  -0.204  -0.186  0.00  0.00    -0.001 A 
ENDROOT
TORSDOF 0
ENDMDL
