MODEL 1
REMARK minimizedAffinity -3.69901204
REMARK minimizedRMSD -1
REMARK  0 active torsions:
REMARK  status: ('A' for Active; 'I' for Inactive)
ROOT
ATOM      1  C   UNL d   1       0.705  -1.477   0.387  0.00  0.00     0.077 C 
ATOM      2  C1  UNL d   1      -0.043  -0.178   0.337  0.00  0.00    -0.074 A 
ATOM      3  C2  UNL d   1      -1.383  -0.104   0.732  0.00  0.00    -0.005 A 
ATOM      4  C3  UNL d   1      -2.062   1.113   0.689  0.00  0.00     0.006 A 
ATOM      5  C4  UNL d   1      -1.410   2.267   0.253  0.00  0.00    -0.005 A 
ATOM      6  C5  UNL d   1      -0.070   2.213  -0.144  0.00  0.00    -0.074 A 
ATOM      7  C6  UNL d   1       0.648   3.446  -0.606  0.00  0.00     0.077 C 
ATOM      8  C7  UNL d   1       0.608   0.987  -0.092  0.00  0.00    -0.001 A 
ENDROOT
TORSDOF 0
ENDMDL
