MODEL 1
REMARK minimizedAffinity -4.64544916
REMARK minimizedRMSD -1
REMARK  0 active torsions:
REMARK  status: ('A' for Active; 'I' for Inactive)
ROOT
ATOM      1  C   UNL d   1       2.175  -1.424   0.212  0.00  0.00     0.077 C 
ATOM      2  C1  UNL d   1       1.054  -0.430   0.271  0.00  0.00    -0.074 A 
ATOM      3  C2  UNL d   1      -0.217  -0.806   0.718  0.00  0.00    -0.005 A 
ATOM      4  C3  UNL d   1      -1.248   0.132   0.776  0.00  0.00     0.006 A 
ATOM      5  C4  UNL d   1      -1.018   1.453   0.388  0.00  0.00    -0.005 A 
ATOM      6  C5  UNL d   1       0.246   1.847  -0.060  0.00  0.00    -0.074 A 
ATOM      7  C6  UNL d   1       0.512   3.265  -0.471  0.00  0.00     0.077 C 
ATOM      8  C7  UNL d   1       1.278   0.900  -0.109  0.00  0.00    -0.001 A 
ENDROOT
TORSDOF 0
ENDMDL
