MODEL 1
REMARK minimizedAffinity 0.84621501
REMARK minimizedRMSD -1
REMARK  0 active torsions:
REMARK  status: ('A' for Active; 'I' for Inactive)
ROOT
ATOM      1  C   UNL d   1       0.826  -0.562   0.089  0.00  0.00     0.077 C 
ATOM      2  C1  UNL d   1       0.439  -1.566  -0.956  0.00  0.00    -0.074 A 
ATOM      3  C2  UNL d   1       1.142  -1.656  -2.161  0.00  0.00    -0.005 A 
ATOM      4  C3  UNL d   1       0.777  -2.602  -3.120  0.00  0.00     0.006 A 
ATOM      5  C4  UNL d   1      -0.293  -3.465  -2.882  0.00  0.00    -0.005 A 
ATOM      6  C5  UNL d   1      -1.007  -3.391  -1.682  0.00  0.00    -0.074 A 
ATOM      7  C6  UNL d   1      -2.153  -4.318  -1.407  0.00  0.00     0.077 C 
ATOM      8  C7  UNL d   1      -0.629  -2.443  -0.721  0.00  0.00    -0.001 A 
ENDROOT
TORSDOF 0
ENDMDL
