MODEL 1
REMARK minimizedAffinity 9.00891399
REMARK minimizedRMSD -1
REMARK  0 active torsions:
REMARK  status: ('A' for Active; 'I' for Inactive)
ROOT
ATOM      1  C   UNL d   1      -4.295  -1.072  -3.844  0.00  0.00     0.124 A 
ATOM      2  C1  UNL d   1      -3.501  -0.418  -2.912  0.00  0.00     0.062 A 
ATOM      3  C2  UNL d   1      -3.286   0.954  -3.015  0.00  0.00     0.162 A 
ATOM      4  C3  UNL d   1      -3.867   1.681  -4.054  0.00  0.00    -0.034 A 
ATOM      5  C4  UNL d   1      -4.664   1.016  -4.987  0.00  0.00     0.162 A 
ATOM      6  C5  UNL d   1      -4.876  -0.355  -4.880  0.00  0.00     0.062 A 
ATOM      7  F   UNL d   1      -5.644  -0.985  -5.781  0.00  0.00    -0.097 F 
ATOM      8  F1  UNL d   1      -5.239   1.685  -5.998  0.00  0.00    -0.096 F 
ATOM      9  I   UNL d   1      -3.549   3.732  -4.212  0.00  0.00    -0.060 I 
ATOM     10  F2  UNL d   1      -2.514   1.560  -2.101  0.00  0.00    -0.096 F 
ATOM     11  F3  UNL d   1      -2.937  -1.108  -1.911  0.00  0.00    -0.097 F 
ATOM     12  F4  UNL d   1      -4.499  -2.391  -3.742  0.00  0.00    -0.092 F 
ENDROOT
TORSDOF 0
ENDMDL
