MODEL 1
REMARK minimizedAffinity 14.9341202
REMARK minimizedRMSD -1
REMARK  0 active torsions:
REMARK  status: ('A' for Active; 'I' for Inactive)
ROOT
ATOM      1  C   UNL d   1       2.172   2.046  -2.226  0.00  0.00     0.124 A 
ATOM      2  C1  UNL d   1       2.660   2.236  -0.941  0.00  0.00     0.062 A 
ATOM      3  C2  UNL d   1       2.463   1.261   0.033  0.00  0.00     0.162 A 
ATOM      4  C3  UNL d   1       1.775   0.087  -0.274  0.00  0.00    -0.034 A 
ATOM      5  C4  UNL d   1       1.286  -0.095  -1.569  0.00  0.00     0.162 A 
ATOM      6  C5  UNL d   1       1.485   0.882  -2.539  0.00  0.00     0.062 A 
ATOM      7  F   UNL d   1       1.013   0.697  -3.780  0.00  0.00    -0.097 F 
ATOM      8  F1  UNL d   1       0.620  -1.212  -1.899  0.00  0.00    -0.096 F 
ATOM      9  I   UNL d   1       1.479  -1.372   1.179  0.00  0.00    -0.060 I 
ATOM     10  F2  UNL d   1       2.947   1.471   1.267  0.00  0.00    -0.096 F 
ATOM     11  F3  UNL d   1       3.323   3.361  -0.636  0.00  0.00    -0.097 F 
ATOM     12  F4  UNL d   1       2.362   2.986  -3.161  0.00  0.00    -0.092 F 
ENDROOT
TORSDOF 0
ENDMDL
