MODEL 1
REMARK minimizedAffinity 6.44730568
REMARK minimizedRMSD -1
REMARK  0 active torsions:
REMARK  status: ('A' for Active; 'I' for Inactive)
ROOT
ATOM      1  C   UNL d   1       1.213   1.912  -4.010  0.00  0.00     0.124 A 
ATOM      2  C1  UNL d   1       0.800   3.025  -3.292  0.00  0.00     0.062 A 
ATOM      3  C2  UNL d   1       1.213   3.202  -1.975  0.00  0.00     0.162 A 
ATOM      4  C3  UNL d   1       2.046   2.262  -1.367  0.00  0.00    -0.034 A 
ATOM      5  C4  UNL d   1       2.457   1.145  -2.095  0.00  0.00     0.162 A 
ATOM      6  C5  UNL d   1       2.041   0.973  -3.411  0.00  0.00     0.062 A 
ATOM      7  F   UNL d   1       2.441  -0.103  -4.104  0.00  0.00    -0.097 F 
ATOM      8  F1  UNL d   1       3.258   0.222  -1.542  0.00  0.00    -0.096 F 
ATOM      9  I   UNL d   1       2.667   2.522   0.603  0.00  0.00    -0.060 I 
ATOM     10  F2  UNL d   1       0.799   4.287  -1.304  0.00  0.00    -0.096 F 
ATOM     11  F3  UNL d   1      -0.001   3.934  -3.868  0.00  0.00    -0.097 F 
ATOM     12  F4  UNL d   1       0.813   1.744  -5.277  0.00  0.00    -0.092 F 
ENDROOT
TORSDOF 0
ENDMDL
