MODEL 1
REMARK minimizedAffinity 16.2291851
REMARK minimizedRMSD -1
REMARK  0 active torsions:
REMARK  status: ('A' for Active; 'I' for Inactive)
ROOT
ATOM      1  C   UNL d   1       2.015   1.966  -2.564  0.00  0.00     0.124 A 
ATOM      2  C1  UNL d   1       1.691   0.666  -2.926  0.00  0.00     0.062 A 
ATOM      3  C2  UNL d   1       1.593  -0.327  -1.955  0.00  0.00     0.162 A 
ATOM      4  C3  UNL d   1       1.820  -0.023  -0.613  0.00  0.00    -0.034 A 
ATOM      5  C4  UNL d   1       2.147   1.286  -0.257  0.00  0.00     0.162 A 
ATOM      6  C5  UNL d   1       2.243   2.275  -1.231  0.00  0.00     0.062 A 
ATOM      7  F   UNL d   1       2.556   3.531  -0.880  0.00  0.00    -0.097 F 
ATOM      8  F1  UNL d   1       2.371   1.613   1.025  0.00  0.00    -0.096 F 
ATOM      9  I   UNL d   1       1.676  -1.505   0.842  0.00  0.00    -0.060 I 
ATOM     10  F2  UNL d   1       1.278  -1.575  -2.333  0.00  0.00    -0.096 F 
ATOM     11  F3  UNL d   1       1.471   0.364  -4.214  0.00  0.00    -0.097 F 
ATOM     12  F4  UNL d   1       2.109   2.919  -3.500  0.00  0.00    -0.092 F 
ENDROOT
TORSDOF 0
ENDMDL
