MODEL 1
REMARK minimizedAffinity 5.02401018
REMARK minimizedRMSD -1
REMARK  0 active torsions:
REMARK  status: ('A' for Active; 'I' for Inactive)
ROOT
ATOM      1  C   UNL d   1       2.464  -1.546   0.846  0.00  0.00     0.124 A 
ATOM      2  C1  UNL d   1       2.162  -1.281   2.174  0.00  0.00     0.062 A 
ATOM      3  C2  UNL d   1       0.857  -0.975   2.548  0.00  0.00     0.162 A 
ATOM      4  C3  UNL d   1      -0.157  -0.933   1.591  0.00  0.00    -0.034 A 
ATOM      5  C4  UNL d   1       0.154  -1.199   0.257  0.00  0.00     0.162 A 
ATOM      6  C5  UNL d   1       1.461  -1.505  -0.112  0.00  0.00     0.062 A 
ATOM      7  F   UNL d   1       1.751  -1.760  -1.396  0.00  0.00    -0.097 F 
ATOM      8  F1  UNL d   1      -0.796  -1.168  -0.689  0.00  0.00    -0.096 F 
ATOM      9  I   UNL d   1      -2.111  -0.476   2.145  0.00  0.00    -0.060 I 
ATOM     10  F2  UNL d   1       0.594  -0.724   3.839  0.00  0.00    -0.096 F 
ATOM     11  F3  UNL d   1       3.131  -1.319   3.101  0.00  0.00    -0.097 F 
ATOM     12  F4  UNL d   1       3.722  -1.839   0.489  0.00  0.00    -0.092 F 
ENDROOT
TORSDOF 0
ENDMDL
