MODEL 1
REMARK minimizedAffinity 13.3640451
REMARK minimizedRMSD -1
REMARK  0 active torsions:
REMARK  status: ('A' for Active; 'I' for Inactive)
ROOT
ATOM      1  C   UNL d   1      -0.930   3.459  -2.960  0.00  0.00     0.124 A 
ATOM      2  C1  UNL d   1       0.168   2.631  -2.777  0.00  0.00     0.062 A 
ATOM      3  C2  UNL d   1      -0.009   1.318  -2.350  0.00  0.00     0.162 A 
ATOM      4  C3  UNL d   1      -1.290   0.825  -2.103  0.00  0.00    -0.034 A 
ATOM      5  C4  UNL d   1      -2.390   1.664  -2.287  0.00  0.00     0.162 A 
ATOM      6  C5  UNL d   1      -2.208   2.976  -2.715  0.00  0.00     0.062 A 
ATOM      7  F   UNL d   1      -3.270   3.775  -2.891  0.00  0.00    -0.097 F 
ATOM      8  F1  UNL d   1      -3.635   1.223  -2.059  0.00  0.00    -0.096 F 
ATOM      9  I   UNL d   1      -1.558  -1.138  -1.463  0.00  0.00    -0.060 I 
ATOM     10  F2  UNL d   1       1.071   0.540  -2.182  0.00  0.00    -0.096 F 
ATOM     11  F3  UNL d   1       1.404   3.096  -3.012  0.00  0.00    -0.097 F 
ATOM     12  F4  UNL d   1      -0.757   4.722  -3.370  0.00  0.00    -0.092 F 
ENDROOT
TORSDOF 0
ENDMDL
