MODEL 1
REMARK minimizedAffinity 17.6003838
REMARK minimizedRMSD -1
REMARK  0 active torsions:
REMARK  status: ('A' for Active; 'I' for Inactive)
ROOT
ATOM      1  C   UNL d   1       0.103  -1.346   2.928  0.00  0.00     0.124 A 
ATOM      2  C1  UNL d   1       1.468  -1.099   2.892  0.00  0.00     0.062 A 
ATOM      3  C2  UNL d   1       2.137  -1.040   1.673  0.00  0.00     0.162 A 
ATOM      4  C3  UNL d   1       1.441  -1.228   0.478  0.00  0.00    -0.034 A 
ATOM      5  C4  UNL d   1       0.068  -1.477   0.523  0.00  0.00     0.162 A 
ATOM      6  C5  UNL d   1      -0.596  -1.535   1.744  0.00  0.00     0.062 A 
ATOM      7  F   UNL d   1      -1.915  -1.773   1.777  0.00  0.00    -0.097 F 
ATOM      8  F1  UNL d   1      -0.632  -1.663  -0.606  0.00  0.00    -0.096 F 
ATOM      9  I   UNL d   1       2.437  -1.142  -1.347  0.00  0.00    -0.060 I 
ATOM     10  F2  UNL d   1       3.457  -0.800   1.668  0.00  0.00    -0.096 F 
ATOM     11  F3  UNL d   1       2.146  -0.917   4.035  0.00  0.00    -0.097 F 
ATOM     12  F4  UNL d   1      -0.538  -1.402   4.103  0.00  0.00    -0.092 F 
ENDROOT
TORSDOF 0
ENDMDL
