MODEL 1
REMARK minimizedAffinity 11.0528727
REMARK minimizedRMSD -1
REMARK  0 active torsions:
REMARK  status: ('A' for Active; 'I' for Inactive)
ROOT
ATOM      1  C   UNL d   1      -0.225  -0.383   2.988  0.00  0.00     0.124 A 
ATOM      2  C1  UNL d   1      -0.723  -0.699   1.731  0.00  0.00     0.062 A 
ATOM      3  C2  UNL d   1       0.129  -1.180   0.742  0.00  0.00     0.162 A 
ATOM      4  C3  UNL d   1       1.489  -1.350   1.005  0.00  0.00    -0.034 A 
ATOM      5  C4  UNL d   1       1.982  -1.029   2.271  0.00  0.00     0.162 A 
ATOM      6  C5  UNL d   1       1.126  -0.548   3.257  0.00  0.00     0.062 A 
ATOM      7  F   UNL d   1       1.609  -0.243   4.470  0.00  0.00    -0.097 F 
ATOM      8  F1  UNL d   1       3.284  -1.179   2.558  0.00  0.00    -0.096 F 
ATOM      9  I   UNL d   1       2.767  -2.069  -0.472  0.00  0.00    -0.060 I 
ATOM     10  F2  UNL d   1      -0.379  -1.478  -0.463  0.00  0.00    -0.096 F 
ATOM     11  F3  UNL d   1      -2.028  -0.540   1.469  0.00  0.00    -0.097 F 
ATOM     12  F4  UNL d   1      -1.047   0.080   3.938  0.00  0.00    -0.092 F 
ENDROOT
TORSDOF 0
ENDMDL
