MODEL 1
REMARK minimizedAffinity 14.0299215
REMARK minimizedRMSD -1
REMARK  0 active torsions:
REMARK  status: ('A' for Active; 'I' for Inactive)
ROOT
ATOM      1  C   UNL d   1       0.459  -0.921   2.666  0.00  0.00     0.124 A 
ATOM      2  C1  UNL d   1      -0.509  -0.928   1.671  0.00  0.00     0.062 A 
ATOM      3  C2  UNL d   1      -0.135  -0.991   0.332  0.00  0.00     0.162 A 
ATOM      4  C3  UNL d   1       1.214  -1.049  -0.021  0.00  0.00    -0.034 A 
ATOM      5  C4  UNL d   1       2.181  -1.041   0.986  0.00  0.00     0.162 A 
ATOM      6  C5  UNL d   1       1.802  -0.978   2.323  0.00  0.00     0.062 A 
ATOM      7  F   UNL d   1       2.738  -0.972   3.283  0.00  0.00    -0.097 F 
ATOM      8  F1  UNL d   1       3.486  -1.096   0.683  0.00  0.00    -0.096 F 
ATOM      9  I   UNL d   1       1.777  -1.143  -2.022  0.00  0.00    -0.060 I 
ATOM     10  F2  UNL d   1      -1.091  -0.995  -0.609  0.00  0.00    -0.096 F 
ATOM     11  F3  UNL d   1      -1.807  -0.872   2.000  0.00  0.00    -0.097 F 
ATOM     12  F4  UNL d   1       0.096  -0.860   3.954  0.00  0.00    -0.092 F 
ENDROOT
TORSDOF 0
ENDMDL
