MODEL 1
REMARK minimizedAffinity 13.7321777
REMARK minimizedRMSD -1
REMARK  0 active torsions:
REMARK  status: ('A' for Active; 'I' for Inactive)
ROOT
ATOM      1  C   UNL d   1       0.771  -1.782   2.471  0.00  0.00     0.124 A 
ATOM      2  C1  UNL d   1       0.009  -2.667   1.721  0.00  0.00     0.062 A 
ATOM      3  C2  UNL d   1      -1.274  -2.314   1.312  0.00  0.00     0.162 A 
ATOM      4  C3  UNL d   1      -1.802  -1.068   1.651  0.00  0.00    -0.034 A 
ATOM      5  C4  UNL d   1      -1.030  -0.184   2.406  0.00  0.00     0.162 A 
ATOM      6  C5  UNL d   1       0.252  -0.542   2.812  0.00  0.00     0.062 A 
ATOM      7  F   UNL d   1       0.987   0.315   3.536  0.00  0.00    -0.097 F 
ATOM      8  F1  UNL d   1      -1.507   1.022   2.749  0.00  0.00    -0.096 F 
ATOM      9  I   UNL d   1      -3.720  -0.536   1.041  0.00  0.00    -0.060 I 
ATOM     10  F2  UNL d   1      -1.988  -3.189   0.589  0.00  0.00    -0.096 F 
ATOM     11  F3  UNL d   1       0.509  -3.867   1.391  0.00  0.00    -0.097 F 
ATOM     12  F4  UNL d   1       2.005  -2.125   2.864  0.00  0.00    -0.092 F 
ENDROOT
TORSDOF 0
ENDMDL
