MODEL 1
REMARK minimizedAffinity 10.5912695
REMARK minimizedRMSD -1
REMARK  0 active torsions:
REMARK  status: ('A' for Active; 'I' for Inactive)
ROOT
ATOM      1  C   UNL d   1       3.710  -0.280  -1.091  0.00  0.00     0.124 A 
ATOM      2  C1  UNL d   1       3.961  -0.627   0.230  0.00  0.00     0.062 A 
ATOM      3  C2  UNL d   1       2.937  -1.124   1.030  0.00  0.00     0.162 A 
ATOM      4  C3  UNL d   1       1.651  -1.280   0.512  0.00  0.00    -0.034 A 
ATOM      5  C4  UNL d   1       1.406  -0.929  -0.816  0.00  0.00     0.162 A 
ATOM      6  C5  UNL d   1       2.433  -0.432  -1.612  0.00  0.00     0.062 A 
ATOM      7  F   UNL d   1       2.188  -0.098  -2.888  0.00  0.00    -0.097 F 
ATOM      8  F1  UNL d   1       0.181  -1.066  -1.346  0.00  0.00    -0.096 F 
ATOM      9  I   UNL d   1       0.117  -2.023   1.706  0.00  0.00    -0.060 I 
ATOM     10  F2  UNL d   1       3.209  -1.450   2.303  0.00  0.00    -0.096 F 
ATOM     11  F3  UNL d   1       5.194  -0.480   0.736  0.00  0.00    -0.097 F 
ATOM     12  F4  UNL d   1       4.697   0.199  -1.858  0.00  0.00    -0.092 F 
ENDROOT
TORSDOF 0
ENDMDL
