MODEL 1
REMARK minimizedAffinity 9.50584602
REMARK minimizedRMSD -1
REMARK  0 active torsions:
REMARK  status: ('A' for Active; 'I' for Inactive)
ROOT
ATOM      1  C   UNL d   1       0.240  -1.388   1.910  0.00  0.00     0.124 A 
ATOM      2  C1  UNL d   1       1.592  -1.621   1.704  0.00  0.00     0.062 A 
ATOM      3  C2  UNL d   1       2.134  -1.515   0.426  0.00  0.00     0.162 A 
ATOM      4  C3  UNL d   1       1.323  -1.173  -0.656  0.00  0.00    -0.034 A 
ATOM      5  C4  UNL d   1      -0.037  -0.941  -0.441  0.00  0.00     0.162 A 
ATOM      6  C5  UNL d   1      -0.573  -1.048   0.838  0.00  0.00     0.062 A 
ATOM      7  F   UNL d   1      -1.880  -0.823   1.036  0.00  0.00    -0.097 F 
ATOM      8  F1  UNL d   1      -0.845  -0.610  -1.459  0.00  0.00    -0.096 F 
ATOM      9  I   UNL d   1       2.129  -1.013  -2.568  0.00  0.00    -0.060 I 
ATOM     10  F2  UNL d   1       3.444  -1.745   0.256  0.00  0.00    -0.096 F 
ATOM     11  F3  UNL d   1       2.380  -1.950   2.738  0.00  0.00    -0.097 F 
ATOM     12  F4  UNL d   1      -0.279  -1.491   3.141  0.00  0.00    -0.092 F 
ENDROOT
TORSDOF 0
ENDMDL
