MODEL 1
REMARK minimizedAffinity -3.90053535
REMARK minimizedRMSD -1
REMARK  0 active torsions:
REMARK  status: ('A' for Active; 'I' for Inactive)
ROOT
ATOM      1  C2' OXE d   1      -0.721  -1.092  -1.618  0.00  0.00     0.078 C 
ATOM      2  C1' OXE d   1      -0.163  -0.520   1.073  0.00  0.00     0.078 C 
ATOM      3  C1  OXE d   1      -0.152   0.626   0.093  0.00  0.00    -0.078 A 
ATOM      4  C2  OXE d   1      -0.380   0.330  -1.230  0.00  0.00    -0.078 A 
ATOM      5  C3  OXE d   1      -0.435   1.358  -2.167  0.00  0.00     0.003 A 
ATOM      6  C4  OXE d   1      -0.108   2.669  -1.801  0.00  0.00    -0.002 A 
ATOM      7  C5  OXE d   1       0.166   2.986  -0.466  0.00  0.00    -0.002 A 
ATOM      8  C6  OXE d   1       0.107   1.986   0.498  0.00  0.00     0.003 A 
ENDROOT
TORSDOF 0
ENDMDL
