MODEL 1
REMARK minimizedAffinity -5.61642885
REMARK minimizedRMSD -1
REMARK  0 active torsions:
REMARK  status: ('A' for Active; 'I' for Inactive)
ROOT
ATOM      1  C2' OXE d   1      -1.906   0.777   0.120  0.00  0.00     0.078 C 
ATOM      2  C1' OXE d   1       0.331  -0.885  -0.216  0.00  0.00     0.078 C 
ATOM      3  C1  OXE d   1       0.575   0.585   0.016  0.00  0.00    -0.078 A 
ATOM      4  C2  OXE d   1      -0.526   1.398   0.133  0.00  0.00    -0.078 A 
ATOM      5  C3  OXE d   1      -0.357   2.753   0.403  0.00  0.00     0.003 A 
ATOM      6  C4  OXE d   1       0.923   3.321   0.404  0.00  0.00    -0.002 A 
ATOM      7  C5  OXE d   1       2.056   2.517   0.247  0.00  0.00    -0.002 A 
ATOM      8  C6  OXE d   1       1.902   1.143   0.095  0.00  0.00     0.003 A 
ENDROOT
TORSDOF 0
ENDMDL
