MODEL 1
REMARK minimizedAffinity -3.93610978
REMARK minimizedRMSD -1
REMARK  0 active torsions:
REMARK  status: ('A' for Active; 'I' for Inactive)
ROOT
ATOM      1  C2' OXE d   1      -1.930   0.365   1.536  0.00  0.00     0.078 C 
ATOM      2  C1' OXE d   1      -0.138  -0.712  -0.338  0.00  0.00     0.078 C 
ATOM      3  C1  OXE d   1      -0.209   0.790  -0.215  0.00  0.00    -0.078 A 
ATOM      4  C2  OXE d   1      -1.122   1.309   0.671  0.00  0.00    -0.078 A 
ATOM      5  C3  OXE d   1      -1.190   2.686   0.863  0.00  0.00     0.003 A 
ATOM      6  C4  OXE d   1      -0.447   3.552   0.053  0.00  0.00    -0.002 A 
ATOM      7  C5  OXE d   1       0.460   3.045  -0.884  0.00  0.00    -0.002 A 
ATOM      8  C6  OXE d   1       0.621   1.669  -1.000  0.00  0.00     0.003 A 
ENDROOT
TORSDOF 0
ENDMDL
