MODEL 1
REMARK minimizedAffinity -2.03292084
REMARK minimizedRMSD -1
REMARK  0 active torsions:
REMARK  status: ('A' for Active; 'I' for Inactive)
ROOT
ATOM      1  C2' OXE d   1      -1.848   0.313   1.319  0.00  0.00     0.078 C 
ATOM      2  C1' OXE d   1      -0.141  -0.977  -0.498  0.00  0.00     0.078 C 
ATOM      3  C1  OXE d   1       0.057   0.502  -0.276  0.00  0.00    -0.078 A 
ATOM      4  C2  OXE d   1      -0.813   1.134   0.580  0.00  0.00    -0.078 A 
ATOM      5  C3  OXE d   1      -0.641   2.486   0.862  0.00  0.00     0.003 A 
ATOM      6  C4  OXE d   1       0.312   3.240   0.166  0.00  0.00    -0.002 A 
ATOM      7  C5  OXE d   1       1.182   2.623  -0.739  0.00  0.00    -0.002 A 
ATOM      8  C6  OXE d   1       1.096   1.250  -0.939  0.00  0.00     0.003 A 
ENDROOT
TORSDOF 0
ENDMDL
