MODEL 1
REMARK minimizedAffinity -3.29140043
REMARK minimizedRMSD -1
REMARK  0 active torsions:
REMARK  status: ('A' for Active; 'I' for Inactive)
ROOT
ATOM      1  C2' OXE d   1      -1.963   1.062   0.426  0.00  0.00     0.078 C 
ATOM      2  C1' OXE d   1      -0.178  -1.081   0.103  0.00  0.00     0.078 C 
ATOM      3  C1  OXE d   1       0.395   0.260   0.490  0.00  0.00    -0.078 A 
ATOM      4  C2  OXE d   1      -0.481   1.313   0.600  0.00  0.00    -0.078 A 
ATOM      5  C3  OXE d   1      -0.012   2.559   1.008  0.00  0.00     0.003 A 
ATOM      6  C4  OXE d   1       1.361   2.786   1.156  0.00  0.00    -0.002 A 
ATOM      7  C5  OXE d   1       2.274   1.737   1.010  0.00  0.00    -0.002 A 
ATOM      8  C6  OXE d   1       1.804   0.460   0.719  0.00  0.00     0.003 A 
ENDROOT
TORSDOF 0
ENDMDL
