MODEL 1
REMARK minimizedAffinity -1.5892278
REMARK minimizedRMSD -1
REMARK  0 active torsions:
REMARK  status: ('A' for Active; 'I' for Inactive)
ROOT
ATOM      1  C2' OXE d   1      -0.367  -1.295   1.248  0.00  0.00     0.078 C 
ATOM      2  C1' OXE d   1       1.981   0.166   0.767  0.00  0.00     0.078 C 
ATOM      3  C1  OXE d   1       0.663   0.889   0.639  0.00  0.00    -0.078 A 
ATOM      4  C2  OXE d   1      -0.482   0.155   0.830  0.00  0.00    -0.078 A 
ATOM      5  C3  OXE d   1      -1.722   0.785   0.777  0.00  0.00     0.003 A 
ATOM      6  C4  OXE d   1      -1.820   2.125   0.380  0.00  0.00    -0.002 A 
ATOM      7  C5  OXE d   1      -0.667   2.880   0.142  0.00  0.00    -0.002 A 
ATOM      8  C6  OXE d   1       0.581   2.290   0.308  0.00  0.00     0.003 A 
ENDROOT
TORSDOF 0
ENDMDL
