MODEL 1
REMARK minimizedAffinity -5.38085651
REMARK minimizedRMSD -1
REMARK  0 active torsions:
REMARK  status: ('A' for Active; 'I' for Inactive)
ROOT
ATOM      1  C2' OXE d   1       0.374   2.685  -0.811  0.00  0.00     0.078 C 
ATOM      2  C1' OXE d   1      -1.711   0.808  -0.916  0.00  0.00     0.078 C 
ATOM      3  C1  OXE d   1      -0.348   0.322  -0.491  0.00  0.00    -0.078 A 
ATOM      4  C2  OXE d   1       0.677   1.238  -0.487  0.00  0.00    -0.078 A 
ATOM      5  C3  OXE d   1       1.942   0.855  -0.051  0.00  0.00     0.003 A 
ATOM      6  C4  OXE d   1       2.216  -0.488   0.237  0.00  0.00    -0.002 A 
ATOM      7  C5  OXE d   1       1.196  -1.444   0.201  0.00  0.00    -0.002 A 
ATOM      8  C6  OXE d   1      -0.098  -1.048  -0.119  0.00  0.00     0.003 A 
ENDROOT
TORSDOF 0
ENDMDL
