MODEL 1
REMARK minimizedAffinity -3.34875059
REMARK minimizedRMSD -1
REMARK  0 active torsions:
REMARK  status: ('A' for Active; 'I' for Inactive)
ROOT
ATOM      1  C2' OXE d   1       0.155   3.168  -0.063  0.00  0.00     0.078 C 
ATOM      2  C1' OXE d   1      -1.881   1.254   0.208  0.00  0.00     0.078 C 
ATOM      3  C1  OXE d   1      -0.452   0.771   0.240  0.00  0.00    -0.078 A 
ATOM      4  C2  OXE d   1       0.536   1.708   0.060  0.00  0.00    -0.078 A 
ATOM      5  C3  OXE d   1       1.872   1.324   0.136  0.00  0.00     0.003 A 
ATOM      6  C4  OXE d   1       2.216  -0.029   0.240  0.00  0.00    -0.002 A 
ATOM      7  C5  OXE d   1       1.224  -1.004   0.384  0.00  0.00    -0.002 A 
ATOM      8  C6  OXE d   1      -0.111  -0.617   0.429  0.00  0.00     0.003 A 
ENDROOT
TORSDOF 0
ENDMDL
