MODEL 1
REMARK minimizedAffinity -4.62626314
REMARK minimizedRMSD -1
REMARK  0 active torsions:
REMARK  status: ('A' for Active; 'I' for Inactive)
ROOT
ATOM      1  C2' OXE d   1      -1.618  -0.018   1.284  0.00  0.00     0.078 C 
ATOM      2  C1' OXE d   1       0.584  -0.986  -0.163  0.00  0.00     0.078 C 
ATOM      3  C1  OXE d   1       0.355   0.504  -0.144  0.00  0.00    -0.078 A 
ATOM      4  C2  OXE d   1      -0.751   0.966   0.528  0.00  0.00    -0.078 A 
ATOM      5  C3  OXE d   1      -0.979   2.336   0.622  0.00  0.00     0.003 A 
ATOM      6  C4  OXE d   1      -0.178   3.238  -0.088  0.00  0.00    -0.002 A 
ATOM      7  C5  OXE d   1       0.931   2.786  -0.812  0.00  0.00    -0.002 A 
ATOM      8  C6  OXE d   1       1.235   1.429  -0.815  0.00  0.00     0.003 A 
ENDROOT
TORSDOF 0
ENDMDL
