MODEL 1
REMARK minimizedAffinity -4.07785273
REMARK minimizedRMSD -1
REMARK  0 active torsions:
REMARK  status: ('A' for Active; 'I' for Inactive)
ROOT
ATOM      1  C2' OXE d   1       2.751   1.226  -0.339  0.00  0.00     0.078 C 
ATOM      2  C1' OXE d   1       0.668   3.107  -0.271  0.00  0.00     0.078 C 
ATOM      3  C1  OXE d   1       0.329   1.670   0.038  0.00  0.00    -0.078 A 
ATOM      4  C2  OXE d   1       1.346   0.749  -0.044  0.00  0.00    -0.078 A 
ATOM      5  C3  OXE d   1       1.099  -0.581   0.284  0.00  0.00     0.003 A 
ATOM      6  C4  OXE d   1      -0.206  -1.016   0.547  0.00  0.00    -0.002 A 
ATOM      7  C5  OXE d   1      -1.263  -0.101   0.596  0.00  0.00    -0.002 A 
ATOM      8  C6  OXE d   1      -1.006   1.250   0.386  0.00  0.00     0.003 A 
ENDROOT
TORSDOF 0
ENDMDL
