MODEL 1
REMARK minimizedAffinity -3.65292263
REMARK minimizedRMSD -1
REMARK  0 active torsions:
REMARK  status: ('A' for Active; 'I' for Inactive)
ROOT
ATOM      1  C2' OXE d   1      -1.351  -3.844  -0.157  0.00  0.00     0.078 C 
ATOM      2  C1' OXE d   1       0.055  -1.433   0.146  0.00  0.00     0.078 C 
ATOM      3  C1  OXE d   1      -0.239  -1.905  -1.257  0.00  0.00    -0.078 A 
ATOM      4  C2  OXE d   1      -0.886  -3.109  -1.396  0.00  0.00    -0.078 A 
ATOM      5  C3  OXE d   1      -1.229  -3.564  -2.666  0.00  0.00     0.003 A 
ATOM      6  C4  OXE d   1      -0.787  -2.883  -3.807  0.00  0.00    -0.002 A 
ATOM      7  C5  OXE d   1      -0.091  -1.675  -3.687  0.00  0.00    -0.002 A 
ATOM      8  C6  OXE d   1       0.153  -1.152  -2.422  0.00  0.00     0.003 A 
ENDROOT
TORSDOF 0
ENDMDL
