MODEL 1
REMARK minimizedAffinity -5.98621273
REMARK minimizedRMSD -1
REMARK  0 active torsions:
REMARK  status: ('A' for Active; 'I' for Inactive)
ROOT
ATOM      1  C2' OXE d   1      -0.233  -1.305  -0.411  0.00  0.00     0.078 C 
ATOM      2  C1' OXE d   1      -2.282   0.245   0.720  0.00  0.00     0.078 C 
ATOM      3  C1  OXE d   1      -0.983   0.933   0.384  0.00  0.00    -0.078 A 
ATOM      4  C2  OXE d   1       0.030   0.157  -0.125  0.00  0.00    -0.078 A 
ATOM      5  C3  OXE d   1       1.231   0.752  -0.503  0.00  0.00     0.003 A 
ATOM      6  C4  OXE d   1       1.470   2.103  -0.226  0.00  0.00    -0.002 A 
ATOM      7  C5  OXE d   1       0.466   2.903   0.330  0.00  0.00    -0.002 A 
ATOM      8  C6  OXE d   1      -0.778   2.344   0.601  0.00  0.00     0.003 A 
ENDROOT
TORSDOF 0
ENDMDL
