MODEL 1
REMARK minimizedAffinity -5.75411272
REMARK minimizedRMSD -1
REMARK  0 active torsions:
REMARK  status: ('A' for Active; 'I' for Inactive)
ROOT
ATOM      1  C2' OXE d   1      -1.943   0.211  -0.109  0.00  0.00     0.078 C 
ATOM      2  C1' OXE d   1       0.311  -1.429   0.227  0.00  0.00     0.078 C 
ATOM      3  C1  OXE d   1       0.532   0.060   0.130  0.00  0.00    -0.078 A 
ATOM      4  C2  OXE d   1      -0.572   0.851  -0.081  0.00  0.00    -0.078 A 
ATOM      5  C3  OXE d   1      -0.430   2.235  -0.124  0.00  0.00     0.003 A 
ATOM      6  C4  OXE d   1       0.842   2.818  -0.108  0.00  0.00    -0.002 A 
ATOM      7  C5  OXE d   1       1.983   2.028   0.066  0.00  0.00    -0.002 A 
ATOM      8  C6  OXE d   1       1.842   0.654   0.229  0.00  0.00     0.003 A 
ENDROOT
TORSDOF 0
ENDMDL
