MODEL 1
REMARK minimizedAffinity 2.63622332
REMARK minimizedRMSD -1
REMARK  0 active torsions:
REMARK  status: ('A' for Active; 'I' for Inactive)
ROOT
ATOM      1  C2' OXE d   1      -0.233  -1.321   0.002  0.00  0.00     0.078 C 
ATOM      2  C1' OXE d   1      -2.456   0.338   0.434  0.00  0.00     0.078 C 
ATOM      3  C1  OXE d   1      -1.085   0.959   0.535  0.00  0.00    -0.078 A 
ATOM      4  C2  OXE d   1      -0.002   0.129   0.368  0.00  0.00    -0.078 A 
ATOM      5  C3  OXE d   1       1.285   0.661   0.397  0.00  0.00     0.003 A 
ATOM      6  C4  OXE d   1       1.490   2.001   0.746  0.00  0.00    -0.002 A 
ATOM      7  C5  OXE d   1       0.402   2.854   0.959  0.00  0.00    -0.002 A 
ATOM      8  C6  OXE d   1      -0.890   2.360   0.816  0.00  0.00     0.003 A 
ENDROOT
TORSDOF 0
ENDMDL
