MODEL 1
REMARK minimizedAffinity -6.4773674
REMARK minimizedRMSD -1
REMARK  0 active torsions:
REMARK  status: ('A' for Active; 'I' for Inactive)
ROOT
ATOM      1  C2' OXE d   1       0.915  -0.537   0.437  0.00  0.00     0.078 C 
ATOM      2  C1' OXE d   1      -1.166   1.332   0.673  0.00  0.00     0.078 C 
ATOM      3  C1  OXE d   1       0.240   1.859   0.536  0.00  0.00    -0.078 A 
ATOM      4  C2  OXE d   1       1.257   0.937   0.469  0.00  0.00    -0.078 A 
ATOM      5  C3  OXE d   1       2.568   1.369   0.287  0.00  0.00     0.003 A 
ATOM      6  C4  OXE d   1       2.877   2.734   0.328  0.00  0.00    -0.002 A 
ATOM      7  C5  OXE d   1       1.860   3.689   0.436  0.00  0.00    -0.002 A 
ATOM      8  C6  OXE d   1       0.536   3.270   0.498  0.00  0.00     0.003 A 
ENDROOT
TORSDOF 0
ENDMDL
