MODEL 1
REMARK minimizedAffinity -4.07749319
REMARK minimizedRMSD -1
REMARK  0 active torsions:
REMARK  status: ('A' for Active; 'I' for Inactive)
ROOT
ATOM      1  C2' OXE d   1       2.389  -0.618   0.821  0.00  0.00     0.078 C 
ATOM      2  C1' OXE d   1       2.554   2.146   1.287  0.00  0.00     0.078 C 
ATOM      3  C1  OXE d   1       1.201   1.568   0.957  0.00  0.00    -0.078 A 
ATOM      4  C2  OXE d   1       1.137   0.222   0.685  0.00  0.00    -0.078 A 
ATOM      5  C3  OXE d   1      -0.095  -0.372   0.428  0.00  0.00     0.003 A 
ATOM      6  C4  OXE d   1      -1.246   0.413   0.294  0.00  0.00    -0.002 A 
ATOM      7  C5  OXE d   1      -1.197   1.792   0.527  0.00  0.00    -0.002 A 
ATOM      8  C6  OXE d   1       0.008   2.376   0.901  0.00  0.00     0.003 A 
ENDROOT
TORSDOF 0
ENDMDL
