MODEL 1
REMARK minimizedAffinity 6.05802155
REMARK minimizedRMSD -1
REMARK  0 active torsions:
REMARK  status: ('A' for Active; 'I' for Inactive)
ROOT
ATOM      1  C   UNL d   1      -1.857  -1.634  -2.037  0.00  0.00     0.077 C 
ATOM      2  C1  UNL d   1      -1.435  -1.721  -0.600  0.00  0.00    -0.074 A 
ATOM      3  C2  UNL d   1      -1.797  -2.816   0.191  0.00  0.00    -0.005 A 
ATOM      4  C3  UNL d   1      -1.390  -2.887   1.523  0.00  0.00     0.006 A 
ATOM      5  C4  UNL d   1      -0.617  -1.866   2.077  0.00  0.00    -0.005 A 
ATOM      6  C5  UNL d   1      -0.244  -0.764   1.301  0.00  0.00    -0.074 A 
ATOM      7  C6  UNL d   1       0.595   0.338   1.878  0.00  0.00     0.077 C 
ATOM      8  C7  UNL d   1      -0.652  -0.703  -0.038  0.00  0.00    -0.001 A 
ENDROOT
TORSDOF 0
ENDMDL
