MODEL 1
REMARK minimizedAffinity 8.82404709
REMARK minimizedRMSD -1
REMARK  0 active torsions:
REMARK  status: ('A' for Active; 'I' for Inactive)
ROOT
ATOM      1  C   UNL d   1      -3.660   3.009   3.393  0.00  0.00     0.077 C 
ATOM      2  C1  UNL d   1      -4.481   1.754   3.412  0.00  0.00    -0.074 A 
ATOM      3  C2  UNL d   1      -4.876   1.135   2.221  0.00  0.00    -0.005 A 
ATOM      4  C3  UNL d   1      -5.632  -0.036   2.255  0.00  0.00     0.006 A 
ATOM      5  C4  UNL d   1      -6.000  -0.601   3.477  0.00  0.00    -0.005 A 
ATOM      6  C5  UNL d   1      -5.613   0.003   4.677  0.00  0.00    -0.074 A 
ATOM      7  C6  UNL d   1      -5.992  -0.596   5.999  0.00  0.00     0.077 C 
ATOM      8  C7  UNL d   1      -4.848   1.177   4.635  0.00  0.00    -0.001 A 
ENDROOT
TORSDOF 0
ENDMDL
