MODEL 1
REMARK minimizedAffinity 6.56193066
REMARK minimizedRMSD -1
REMARK  0 active torsions:
REMARK  status: ('A' for Active; 'I' for Inactive)
ROOT
ATOM      1  C   UNL d   1       5.998  -1.126  -0.898  0.00  0.00     0.077 C 
ATOM      2  C1  UNL d   1       5.143  -0.879   0.310  0.00  0.00    -0.074 A 
ATOM      3  C2  UNL d   1       3.857  -0.345   0.183  0.00  0.00    -0.005 A 
ATOM      4  C3  UNL d   1       3.070  -0.129   1.314  0.00  0.00     0.006 A 
ATOM      5  C4  UNL d   1       3.561  -0.444   2.582  0.00  0.00    -0.005 A 
ATOM      6  C5  UNL d   1       4.845  -0.979   2.728  0.00  0.00    -0.074 A 
ATOM      7  C6  UNL d   1       5.384  -1.332   4.083  0.00  0.00     0.077 C 
ATOM      8  C7  UNL d   1       5.626  -1.200   1.586  0.00  0.00    -0.001 A 
ENDROOT
TORSDOF 0
ENDMDL
