MODEL 1
REMARK minimizedAffinity 9.82541943
REMARK minimizedRMSD -1
REMARK  0 active torsions:
REMARK  status: ('A' for Active; 'I' for Inactive)
ROOT
ATOM      1  C   UNL d   1       0.670   1.407   2.095  0.00  0.00     0.077 C 
ATOM      2  C1  UNL d   1       1.970   1.197   1.377  0.00  0.00    -0.074 A 
ATOM      3  C2  UNL d   1       2.812   0.131   1.710  0.00  0.00    -0.005 A 
ATOM      4  C3  UNL d   1       4.013  -0.056   1.027  0.00  0.00     0.006 A 
ATOM      5  C4  UNL d   1       4.385   0.819   0.005  0.00  0.00    -0.005 A 
ATOM      6  C5  UNL d   1       3.555   1.889  -0.343  0.00  0.00    -0.074 A 
ATOM      7  C6  UNL d   1       3.934   2.833  -1.445  0.00  0.00     0.077 C 
ATOM      8  C7  UNL d   1       2.346   2.067   0.344  0.00  0.00    -0.001 A 
ENDROOT
TORSDOF 0
ENDMDL
