MODEL 1
REMARK minimizedAffinity -1.12147284
REMARK minimizedRMSD -1
REMARK  0 active torsions:
REMARK  status: ('A' for Active; 'I' for Inactive)
ROOT
ATOM      1  C   UNL d   1      -4.303   0.715   2.673  0.00  0.00     0.077 C 
ATOM      2  C1  UNL d   1      -4.903   1.452   3.833  0.00  0.00    -0.074 A 
ATOM      3  C2  UNL d   1      -5.454   0.760   4.916  0.00  0.00    -0.005 A 
ATOM      4  C3  UNL d   1      -6.000   1.460   5.993  0.00  0.00     0.006 A 
ATOM      5  C4  UNL d   1      -5.999   2.855   5.998  0.00  0.00    -0.005 A 
ATOM      6  C5  UNL d   1      -5.451   3.564   4.924  0.00  0.00    -0.074 A 
ATOM      7  C6  UNL d   1      -5.433   5.063   4.917  0.00  0.00     0.077 C 
ATOM      8  C7  UNL d   1      -4.899   2.854   3.849  0.00  0.00    -0.001 A 
ENDROOT
TORSDOF 0
ENDMDL
