MODEL 1
REMARK minimizedAffinity 8.87792015
REMARK minimizedRMSD -1
REMARK  0 active torsions:
REMARK  status: ('A' for Active; 'I' for Inactive)
ROOT
ATOM      1  C   UNL d   1      -5.999   6.000   1.160  0.00  0.00     0.077 C 
ATOM      2  C1  UNL d   1      -5.578   5.261   2.396  0.00  0.00    -0.074 A 
ATOM      3  C2  UNL d   1      -5.505   5.911   3.632  0.00  0.00    -0.005 A 
ATOM      4  C3  UNL d   1      -5.122   5.208   4.774  0.00  0.00     0.006 A 
ATOM      5  C4  UNL d   1      -4.809   3.851   4.692  0.00  0.00    -0.005 A 
ATOM      6  C5  UNL d   1      -4.877   3.184   3.465  0.00  0.00    -0.074 A 
ATOM      7  C6  UNL d   1      -4.554   1.723   3.361  0.00  0.00     0.077 C 
ATOM      8  C7  UNL d   1      -5.270   3.895   2.323  0.00  0.00    -0.001 A 
ENDROOT
TORSDOF 0
ENDMDL
