MODEL 1
REMARK minimizedAffinity 2.09779525
REMARK minimizedRMSD -1
REMARK  0 active torsions:
REMARK  status: ('A' for Active; 'I' for Inactive)
ROOT
ATOM      1  C   UNL d   1      -5.994  -0.831   5.946  0.00  0.00     0.077 C 
ATOM      2  C1  UNL d   1      -5.768   0.467   5.230  0.00  0.00    -0.074 A 
ATOM      3  C2  UNL d   1      -5.374   0.489   3.888  0.00  0.00    -0.005 A 
ATOM      4  C3  UNL d   1      -5.176   1.704   3.233  0.00  0.00     0.006 A 
ATOM      5  C4  UNL d   1      -5.372   2.908   3.911  0.00  0.00    -0.005 A 
ATOM      6  C5  UNL d   1      -5.767   2.906   5.252  0.00  0.00    -0.074 A 
ATOM      7  C6  UNL d   1      -5.991   4.191   5.993  0.00  0.00     0.077 C 
ATOM      8  C7  UNL d   1      -5.970   1.681   5.902  0.00  0.00    -0.001 A 
ENDROOT
TORSDOF 0
ENDMDL
