MODEL 1
REMARK minimizedAffinity 11.4192753
REMARK minimizedRMSD -1
REMARK  0 active torsions:
REMARK  status: ('A' for Active; 'I' for Inactive)
ROOT
ATOM      1  C   UNL d   1       0.071  -0.048   4.848  0.00  0.00     0.077 C 
ATOM      2  C1  UNL d   1       0.749   0.460   3.611  0.00  0.00    -0.074 A 
ATOM      3  C2  UNL d   1       0.428   1.712   3.077  0.00  0.00    -0.005 A 
ATOM      4  C3  UNL d   1       1.074   2.175   1.931  0.00  0.00     0.006 A 
ATOM      5  C4  UNL d   1       2.047   1.392   1.308  0.00  0.00    -0.005 A 
ATOM      6  C5  UNL d   1       2.382   0.138   1.828  0.00  0.00    -0.074 A 
ATOM      7  C6  UNL d   1       3.433  -0.712   1.177  0.00  0.00     0.077 C 
ATOM      8  C7  UNL d   1       1.733  -0.317   2.984  0.00  0.00    -0.001 A 
ENDROOT
TORSDOF 0
ENDMDL
