MODEL 1
REMARK minimizedAffinity 15.6655283
REMARK minimizedRMSD -1
REMARK  0 active torsions:
REMARK  status: ('A' for Active; 'I' for Inactive)
ROOT
ATOM      1  C   UNL d   1       0.191  -4.734  -4.336  0.00  0.00     0.077 C 
ATOM      2  C1  UNL d   1      -0.977  -4.269  -3.517  0.00  0.00    -0.074 A 
ATOM      3  C2  UNL d   1      -1.254  -2.906  -3.372  0.00  0.00    -0.005 A 
ATOM      4  C3  UNL d   1      -2.349  -2.488  -2.615  0.00  0.00     0.006 A 
ATOM      5  C4  UNL d   1      -3.176  -3.428  -1.998  0.00  0.00    -0.005 A 
ATOM      6  C5  UNL d   1      -2.915  -4.795  -2.133  0.00  0.00    -0.074 A 
ATOM      7  C6  UNL d   1      -3.799  -5.818  -1.485  0.00  0.00     0.077 C 
ATOM      8  C7  UNL d   1      -1.817  -5.207  -2.901  0.00  0.00    -0.001 A 
ENDROOT
TORSDOF 0
ENDMDL
