MODEL 1
REMARK minimizedAffinity 16.3445854
REMARK minimizedRMSD -1
REMARK  0 active torsions:
REMARK  status: ('A' for Active; 'I' for Inactive)
ROOT
ATOM      1  C   UNL d   1       5.176  -0.663   1.868  0.00  0.00     0.077 C 
ATOM      2  C1  UNL d   1       4.210   0.281   1.215  0.00  0.00    -0.074 A 
ATOM      3  C2  UNL d   1       2.987   0.590   1.819  0.00  0.00    -0.005 A 
ATOM      4  C3  UNL d   1       2.104   1.477   1.204  0.00  0.00     0.006 A 
ATOM      5  C4  UNL d   1       2.434   2.064  -0.018  0.00  0.00    -0.005 A 
ATOM      6  C5  UNL d   1       3.653   1.768  -0.636  0.00  0.00    -0.074 A 
ATOM      7  C6  UNL d   1       4.028   2.397  -1.945  0.00  0.00     0.077 C 
ATOM      8  C7  UNL d   1       4.539   0.881  -0.009  0.00  0.00    -0.001 A 
ENDROOT
TORSDOF 0
ENDMDL
