MODEL 1
REMARK minimizedAffinity 10.9318018
REMARK minimizedRMSD -1
REMARK  0 active torsions:
REMARK  status: ('A' for Active; 'I' for Inactive)
ROOT
ATOM      1  C   UNL d   1      -6.000  -1.261   5.992  0.00  0.00     0.077 C 
ATOM      2  C1  UNL d   1      -5.398  -0.046   5.350  0.00  0.00    -0.074 A 
ATOM      3  C2  UNL d   1      -4.671  -0.148   4.160  0.00  0.00    -0.005 A 
ATOM      4  C3  UNL d   1      -4.125   0.992   3.570  0.00  0.00     0.006 A 
ATOM      5  C4  UNL d   1      -4.301   2.243   4.163  0.00  0.00    -0.005 A 
ATOM      6  C5  UNL d   1      -5.025   2.364   5.353  0.00  0.00    -0.074 A 
ATOM      7  C6  UNL d   1      -5.231   3.702   5.998  0.00  0.00     0.077 C 
ATOM      8  C7  UNL d   1      -5.576   1.215   5.936  0.00  0.00    -0.001 A 
ENDROOT
TORSDOF 0
ENDMDL
