MODEL 1
REMARK minimizedAffinity 7.87159252
REMARK minimizedRMSD -1
REMARK  0 active torsions:
REMARK  status: ('A' for Active; 'I' for Inactive)
ROOT
ATOM      1  C   UNL d   1      -1.175  -2.248  -5.112  0.00  0.00     0.077 C 
ATOM      2  C1  UNL d   1      -1.942  -2.409  -3.833  0.00  0.00    -0.074 A 
ATOM      3  C2  UNL d   1      -1.477  -1.845  -2.641  0.00  0.00    -0.005 A 
ATOM      4  C3  UNL d   1      -2.206  -1.995  -1.461  0.00  0.00     0.006 A 
ATOM      5  C4  UNL d   1      -3.405  -2.709  -1.462  0.00  0.00    -0.005 A 
ATOM      6  C5  UNL d   1      -3.886  -3.279  -2.645  0.00  0.00    -0.074 A 
ATOM      7  C6  UNL d   1      -5.177  -4.042  -2.665  0.00  0.00     0.077 C 
ATOM      8  C7  UNL d   1      -3.151  -3.118  -3.828  0.00  0.00    -0.001 A 
ENDROOT
TORSDOF 0
ENDMDL
