MODEL 1
REMARK minimizedAffinity 12.9100208
REMARK minimizedRMSD -1
REMARK  0 active torsions:
REMARK  status: ('A' for Active; 'I' for Inactive)
ROOT
ATOM      1  C   UNL d   1      -1.522  -2.225   0.669  0.00  0.00     0.077 C 
ATOM      2  C1  UNL d   1      -1.953  -3.544   1.238  0.00  0.00    -0.074 A 
ATOM      3  C2  UNL d   1      -1.197  -4.182   2.226  0.00  0.00    -0.005 A 
ATOM      4  C3  UNL d   1      -1.616  -5.404   2.753  0.00  0.00     0.006 A 
ATOM      5  C4  UNL d   1      -2.793  -5.999   2.297  0.00  0.00    -0.005 A 
ATOM      6  C5  UNL d   1      -3.562  -5.376   1.309  0.00  0.00    -0.074 A 
ATOM      7  C6  UNL d   1      -4.835  -5.997   0.815  0.00  0.00     0.077 C 
ATOM      8  C7  UNL d   1      -3.138  -4.144   0.791  0.00  0.00    -0.001 A 
ENDROOT
TORSDOF 0
ENDMDL
