MODEL 1
REMARK minimizedAffinity 14.3468246
REMARK minimizedRMSD -1
REMARK  0 active torsions:
REMARK  status: ('A' for Active; 'I' for Inactive)
ROOT
ATOM      1  C   UNL d   1      -6.000   5.953   2.248  0.00  0.00     0.077 C 
ATOM      2  C1  UNL d   1      -5.651   5.290   3.547  0.00  0.00    -0.074 A 
ATOM      3  C2  UNL d   1      -5.705   5.998   4.752  0.00  0.00    -0.005 A 
ATOM      4  C3  UNL d   1      -5.387   5.366   5.954  0.00  0.00     0.006 A 
ATOM      5  C4  UNL d   1      -5.013   4.021   5.963  0.00  0.00    -0.005 A 
ATOM      6  C5  UNL d   1      -4.955   3.297   4.768  0.00  0.00    -0.074 A 
ATOM      7  C6  UNL d   1      -4.564   1.849   4.761  0.00  0.00     0.077 C 
ATOM      8  C7  UNL d   1      -5.282   3.938   3.565  0.00  0.00    -0.001 A 
ENDROOT
TORSDOF 0
ENDMDL
