MODEL 1
REMARK minimizedAffinity 17.8284378
REMARK minimizedRMSD -1
REMARK  0 active torsions:
REMARK  status: ('A' for Active; 'I' for Inactive)
ROOT
ATOM      1  C   UNL d   1      -4.121  -4.695  -1.928  0.00  0.00     0.077 C 
ATOM      2  C1  UNL d   1      -3.074  -3.648  -2.164  0.00  0.00    -0.074 A 
ATOM      3  C2  UNL d   1      -2.818  -2.660  -1.207  0.00  0.00    -0.005 A 
ATOM      4  C3  UNL d   1      -1.834  -1.698  -1.436  0.00  0.00     0.006 A 
ATOM      5  C4  UNL d   1      -1.098  -1.713  -2.621  0.00  0.00    -0.005 A 
ATOM      6  C5  UNL d   1      -1.339  -2.694  -3.588  0.00  0.00    -0.074 A 
ATOM      7  C6  UNL d   1      -0.550  -2.731  -4.863  0.00  0.00     0.077 C 
ATOM      8  C7  UNL d   1      -2.324  -3.662  -3.348  0.00  0.00    -0.001 A 
ENDROOT
TORSDOF 0
ENDMDL
