MODEL 1
REMARK minimizedAffinity 11.1101351
REMARK minimizedRMSD -1
REMARK  0 active torsions:
REMARK  status: ('A' for Active; 'I' for Inactive)
ROOT
ATOM      1  C   UNL d   1       1.259   0.709   3.825  0.00  0.00     0.077 C 
ATOM      2  C1  UNL d   1       2.000   0.781   2.523  0.00  0.00    -0.074 A 
ATOM      3  C2  UNL d   1       1.591   1.654   1.510  0.00  0.00    -0.005 A 
ATOM      4  C3  UNL d   1       2.296   1.716   0.308  0.00  0.00     0.006 A 
ATOM      5  C4  UNL d   1       3.416   0.907   0.108  0.00  0.00    -0.005 A 
ATOM      6  C5  UNL d   1       3.840   0.029   1.110  0.00  0.00    -0.074 A 
ATOM      7  C6  UNL d   1       5.047  -0.840   0.914  0.00  0.00     0.077 C 
ATOM      8  C7  UNL d   1       3.130  -0.023   2.317  0.00  0.00    -0.001 A 
ENDROOT
TORSDOF 0
ENDMDL
