MODEL 1
REMARK minimizedAffinity -2.67063975
REMARK minimizedRMSD -1
REMARK  0 active torsions:
REMARK  status: ('A' for Active; 'I' for Inactive)
ROOT
ATOM      1  C1  BNZ d   1       1.890  -2.307   1.171  0.00  0.00     0.000 A 
ATOM      2  C2  BNZ d   1       0.555  -2.016   1.272  0.00  0.00     0.000 A 
ATOM      3  C3  BNZ d   1       0.072  -0.801   0.873  0.00  0.00     0.000 A 
ATOM      4  C4  BNZ d   1       0.928   0.134   0.412  0.00  0.00     0.000 A 
ATOM      5  C5  BNZ d   1       2.277  -0.141   0.313  0.00  0.00     0.000 A 
ATOM      6  C6  BNZ d   1       2.754  -1.379   0.679  0.00  0.00     0.000 A 
ENDROOT
TORSDOF 0
ENDMDL
