MODEL 1
REMARK minimizedAffinity -4.34324551
REMARK minimizedRMSD -1
REMARK  0 active torsions:
REMARK  status: ('A' for Active; 'I' for Inactive)
ROOT
ATOM      1  C1  BNZ d   1       2.017  -0.259   0.087  0.00  0.00     0.000 A 
ATOM      2  C2  BNZ d   1       2.561  -1.496   0.304  0.00  0.00     0.000 A 
ATOM      3  C3  BNZ d   1       1.762  -2.589   0.491  0.00  0.00     0.000 A 
ATOM      4  C4  BNZ d   1       0.422  -2.437   0.500  0.00  0.00     0.000 A 
ATOM      5  C5  BNZ d   1      -0.142  -1.195   0.291  0.00  0.00     0.000 A 
ATOM      6  C6  BNZ d   1       0.665  -0.103   0.065  0.00  0.00     0.000 A 
ENDROOT
TORSDOF 0
ENDMDL
