MODEL 1
REMARK minimizedAffinity -4.58188725
REMARK minimizedRMSD -1
REMARK  0 active torsions:
REMARK  status: ('A' for Active; 'I' for Inactive)
ROOT
ATOM      1  C1  BNZ d   1       0.460  -1.653   1.482  0.00  0.00     0.000 A 
ATOM      2  C2  BNZ d   1      -0.005  -0.544   0.827  0.00  0.00     0.000 A 
ATOM      3  C3  BNZ d   1       0.860   0.335   0.237  0.00  0.00     0.000 A 
ATOM      4  C4  BNZ d   1       2.188   0.126   0.337  0.00  0.00     0.000 A 
ATOM      5  C5  BNZ d   1       2.673  -0.983   1.002  0.00  0.00     0.000 A 
ATOM      6  C6  BNZ d   1       1.799  -1.886   1.561  0.00  0.00     0.000 A 
ENDROOT
TORSDOF 0
ENDMDL
