MODEL 1
REMARK minimizedAffinity -2.25617433
REMARK minimizedRMSD -1
REMARK  0 active torsions:
REMARK  status: ('A' for Active; 'I' for Inactive)
ROOT
ATOM      1  C1  BNZ d   1      -2.103   1.307  -3.758  0.00  0.00     0.000 A 
ATOM      2  C2  BNZ d   1      -0.785   1.150  -3.422  0.00  0.00     0.000 A 
ATOM      3  C3  BNZ d   1      -0.421   0.837  -2.142  0.00  0.00     0.000 A 
ATOM      4  C4  BNZ d   1      -1.371   0.722  -1.192  0.00  0.00     0.000 A 
ATOM      5  C5  BNZ d   1      -2.704   0.887  -1.513  0.00  0.00     0.000 A 
ATOM      6  C6  BNZ d   1      -3.069   1.163  -2.811  0.00  0.00     0.000 A 
ENDROOT
TORSDOF 0
ENDMDL
