MODEL 1
REMARK minimizedAffinity -3.25163794
REMARK minimizedRMSD -1
REMARK  0 active torsions:
REMARK  status: ('A' for Active; 'I' for Inactive)
ROOT
ATOM      1  C1  BNZ d   1       1.147  -1.667   0.676  0.00  0.00     0.000 A 
ATOM      2  C2  BNZ d   1      -0.112  -1.164   0.483  0.00  0.00     0.000 A 
ATOM      3  C3  BNZ d   1      -0.297   0.141   0.120  0.00  0.00     0.000 A 
ATOM      4  C4  BNZ d   1       0.774   0.950  -0.010  0.00  0.00     0.000 A 
ATOM      5  C5  BNZ d   1       2.049   0.461   0.190  0.00  0.00     0.000 A 
ATOM      6  C6  BNZ d   1       2.234  -0.863   0.517  0.00  0.00     0.000 A 
ENDROOT
TORSDOF 0
ENDMDL
