MODEL 1
REMARK minimizedAffinity -3.09781957
REMARK minimizedRMSD -1
REMARK  0 active torsions:
REMARK  status: ('A' for Active; 'I' for Inactive)
ROOT
ATOM      1  C1  BNZ d   1       2.066  -0.824  -1.276  0.00  0.00     0.000 A 
ATOM      2  C2  BNZ d   1       3.004  -1.173  -0.342  0.00  0.00     0.000 A 
ATOM      3  C3  BNZ d   1       2.744  -1.046   0.994  0.00  0.00     0.000 A 
ATOM      4  C4  BNZ d   1       1.562  -0.533   1.393  0.00  0.00     0.000 A 
ATOM      5  C5  BNZ d   1       0.609  -0.168   0.464  0.00  0.00     0.000 A 
ATOM      6  C6  BNZ d   1       0.860  -0.333  -0.879  0.00  0.00     0.000 A 
ENDROOT
TORSDOF 0
ENDMDL
