MODEL 1
REMARK minimizedAffinity -4.92130756
REMARK minimizedRMSD -1
REMARK  0 active torsions:
REMARK  status: ('A' for Active; 'I' for Inactive)
ROOT
ATOM      1  C1  BNZ d   1      -0.171   0.136   0.651  0.00  0.00     0.000 A 
ATOM      2  C2  BNZ d   1      -0.472  -0.588   1.774  0.00  0.00     0.000 A 
ATOM      3  C3  BNZ d   1       0.432  -1.462   2.308  0.00  0.00     0.000 A 
ATOM      4  C4  BNZ d   1       1.621  -1.642   1.696  0.00  0.00     0.000 A 
ATOM      5  C5  BNZ d   1       1.936  -0.927   0.557  0.00  0.00     0.000 A 
ATOM      6  C6  BNZ d   1       1.038  -0.019   0.046  0.00  0.00     0.000 A 
ENDROOT
TORSDOF 0
ENDMDL
