MODEL 1
REMARK minimizedAffinity -3.74513102
REMARK minimizedRMSD -1
REMARK  0 active torsions:
REMARK  status: ('A' for Active; 'I' for Inactive)
ROOT
ATOM      1  C1  BNZ d   1       1.287  -2.306   0.866  0.00  0.00     0.000 A 
ATOM      2  C2  BNZ d   1       0.008  -1.840   1.013  0.00  0.00     0.000 A 
ATOM      3  C3  BNZ d   1      -0.362  -0.633   0.489  0.00  0.00     0.000 A 
ATOM      4  C4  BNZ d   1       0.556   0.124  -0.145  0.00  0.00     0.000 A 
ATOM      5  C5  BNZ d   1       1.853  -0.328  -0.293  0.00  0.00     0.000 A 
ATOM      6  C6  BNZ d   1       2.211  -1.561   0.201  0.00  0.00     0.000 A 
ENDROOT
TORSDOF 0
ENDMDL
