MODEL 1
REMARK minimizedAffinity -4.75829935
REMARK minimizedRMSD -1
REMARK  0 active torsions:
REMARK  status: ('A' for Active; 'I' for Inactive)
ROOT
ATOM      1  C1  BNZ d   1       2.237  -0.888   0.444  0.00  0.00     0.000 A 
ATOM      2  C2  BNZ d   1       0.900  -0.630   0.587  0.00  0.00     0.000 A 
ATOM      3  C3  BNZ d   1       0.129  -1.379   1.432  0.00  0.00     0.000 A 
ATOM      4  C4  BNZ d   1       0.687  -2.409   2.100  0.00  0.00     0.000 A 
ATOM      5  C5  BNZ d   1       2.031  -2.688   1.959  0.00  0.00     0.000 A 
ATOM      6  C6  BNZ d   1       2.813  -1.907   1.138  0.00  0.00     0.000 A 
ENDROOT
TORSDOF 0
ENDMDL
