MODEL 1
REMARK minimizedAffinity -4.33572865
REMARK minimizedRMSD -1
REMARK  0 active torsions:
REMARK  status: ('A' for Active; 'I' for Inactive)
ROOT
ATOM      1  C1  BNZ d   1       0.377  -2.191   0.976  0.00  0.00     0.000 A 
ATOM      2  C2  BNZ d   1       1.684  -2.510   0.722  0.00  0.00     0.000 A 
ATOM      3  C3  BNZ d   1       2.546  -1.578   0.216  0.00  0.00     0.000 A 
ATOM      4  C4  BNZ d   1       2.091  -0.342  -0.074  0.00  0.00     0.000 A 
ATOM      5  C5  BNZ d   1       0.773  -0.008   0.168  0.00  0.00     0.000 A 
ATOM      6  C6  BNZ d   1      -0.082  -0.937   0.714  0.00  0.00     0.000 A 
ENDROOT
TORSDOF 0
ENDMDL
