MODEL 1
REMARK minimizedAffinity -2.57935405
REMARK minimizedRMSD -1
REMARK  0 active torsions:
REMARK  status: ('A' for Active; 'I' for Inactive)
ROOT
ATOM      1  C1  BNZ d   1       2.905  -1.211   0.837  0.00  0.00     0.000 A 
ATOM      2  C2  BNZ d   1       2.333   0.031   0.922  0.00  0.00     0.000 A 
ATOM      3  C3  BNZ d   1       1.200   0.330   0.217  0.00  0.00     0.000 A 
ATOM      4  C4  BNZ d   1       0.665  -0.599  -0.601  0.00  0.00     0.000 A 
ATOM      5  C5  BNZ d   1       1.235  -1.852  -0.705  0.00  0.00     0.000 A 
ATOM      6  C6  BNZ d   1       2.352  -2.162   0.036  0.00  0.00     0.000 A 
ENDROOT
TORSDOF 0
ENDMDL
