MODEL 1
REMARK minimizedAffinity -1.68799579
REMARK minimizedRMSD -1
REMARK  0 active torsions:
REMARK  status: ('A' for Active; 'I' for Inactive)
ROOT
ATOM      1  C1  BNZ d   1      -0.579   1.121  -0.107  0.00  0.00     0.000 A 
ATOM      2  C2  BNZ d   1       0.629   0.551  -0.410  0.00  0.00     0.000 A 
ATOM      3  C3  BNZ d   1       1.141  -0.456   0.360  0.00  0.00     0.000 A 
ATOM      4  C4  BNZ d   1       0.465  -0.864   1.453  0.00  0.00     0.000 A 
ATOM      5  C5  BNZ d   1      -0.749  -0.293   1.778  0.00  0.00     0.000 A 
ATOM      6  C6  BNZ d   1      -1.280   0.694   0.978  0.00  0.00     0.000 A 
ENDROOT
TORSDOF 0
ENDMDL
