MODEL 1
REMARK minimizedAffinity -4.57478285
REMARK minimizedRMSD -1
REMARK  0 active torsions:
REMARK  status: ('A' for Active; 'I' for Inactive)
ROOT
ATOM      1  C1  BNZ d   1       0.449  -0.267  -0.063  0.00  0.00     0.000 A 
ATOM      2  C2  BNZ d   1       1.749  -0.695  -0.017  0.00  0.00     0.000 A 
ATOM      3  C3  BNZ d   1       2.093  -1.815   0.686  0.00  0.00     0.000 A 
ATOM      4  C4  BNZ d   1       1.145  -2.482   1.376  0.00  0.00     0.000 A 
ATOM      5  C5  BNZ d   1      -0.168  -2.058   1.348  0.00  0.00     0.000 A 
ATOM      6  C6  BNZ d   1      -0.518  -0.953   0.606  0.00  0.00     0.000 A 
ENDROOT
TORSDOF 0
ENDMDL
