MODEL 1
REMARK minimizedAffinity 8.61388111
REMARK minimizedRMSD -1
REMARK  0 active torsions:
REMARK  status: ('A' for Active; 'I' for Inactive)
ROOT
ATOM      1  C   UNL d   1      -4.069   1.970   4.536  0.00  0.00     0.023 A 
ATOM      2  C1  UNL d   1      -4.348   1.252   3.374  0.00  0.00     0.003 A 
ATOM      3  C2  UNL d   1      -4.304  -0.144   3.386  0.00  0.00     0.048 A 
ATOM      4  C3  UNL d   1      -3.982  -0.815   4.566  0.00  0.00     0.023 A 
ATOM      5  C4  UNL d   1      -3.703  -0.100   5.732  0.00  0.00     0.048 A 
ATOM      6  C5  UNL d   1      -3.747   1.295   5.714  0.00  0.00     0.003 A 
ATOM      7  I   UNL d   1      -3.916  -2.892   4.587  0.00  0.00    -0.146 I 
ENDROOT
TORSDOF 0
ENDMDL
