MODEL 1
REMARK minimizedAffinity 11.3380203
REMARK minimizedRMSD -1
REMARK  0 active torsions:
REMARK  status: ('A' for Active; 'I' for Inactive)
ROOT
ATOM      1  C   UNL d   1      -2.294   1.489   3.105  0.00  0.00     0.023 A 
ATOM      2  C1  UNL d   1      -3.546   1.485   3.720  0.00  0.00     0.003 A 
ATOM      3  C2  UNL d   1      -4.462   0.471   3.435  0.00  0.00     0.048 A 
ATOM      4  C3  UNL d   1      -4.119  -0.537   2.534  0.00  0.00     0.023 A 
ATOM      5  C4  UNL d   1      -2.867  -0.538   1.917  0.00  0.00     0.048 A 
ATOM      6  C5  UNL d   1      -1.955   0.479   2.205  0.00  0.00     0.003 A 
ATOM      7  I   UNL d   1      -5.481  -2.049   2.108  0.00  0.00    -0.146 I 
ENDROOT
TORSDOF 0
ENDMDL
