MODEL 1
REMARK minimizedAffinity 5.8615284
REMARK minimizedRMSD -1
REMARK  0 active torsions:
REMARK  status: ('A' for Active; 'I' for Inactive)
ROOT
ATOM      1  C   UNL d   1      -1.836   0.598  -4.054  0.00  0.00     0.023 A 
ATOM      2  C1  UNL d   1      -2.200   1.659  -3.224  0.00  0.00     0.003 A 
ATOM      3  C2  UNL d   1      -2.649   2.859  -3.779  0.00  0.00     0.048 A 
ATOM      4  C3  UNL d   1      -2.732   2.991  -5.164  0.00  0.00     0.023 A 
ATOM      5  C4  UNL d   1      -2.370   1.933  -5.999  0.00  0.00     0.048 A 
ATOM      6  C5  UNL d   1      -1.920   0.735  -5.439  0.00  0.00     0.003 A 
ATOM      7  I   UNL d   1      -3.400   4.777  -5.993  0.00  0.00    -0.146 I 
ENDROOT
TORSDOF 0
ENDMDL
