MODEL 1
REMARK minimizedAffinity 12.1603642
REMARK minimizedRMSD -1
REMARK  0 active torsions:
REMARK  status: ('A' for Active; 'I' for Inactive)
ROOT
ATOM      1  C   UNL d   1      -4.809  -5.130   0.625  0.00  0.00     0.023 A 
ATOM      2  C1  UNL d   1      -3.608  -5.047   1.329  0.00  0.00     0.003 A 
ATOM      3  C2  UNL d   1      -3.297  -3.893   2.050  0.00  0.00     0.048 A 
ATOM      4  C3  UNL d   1      -4.193  -2.824   2.064  0.00  0.00     0.023 A 
ATOM      5  C4  UNL d   1      -5.397  -2.902   1.362  0.00  0.00     0.048 A 
ATOM      6  C5  UNL d   1      -5.702  -4.058   0.641  0.00  0.00     0.003 A 
ATOM      7  I   UNL d   1      -3.733  -1.105   3.137  0.00  0.00    -0.146 I 
ENDROOT
TORSDOF 0
ENDMDL
