MODEL 1
REMARK minimizedAffinity 20.4783592
REMARK minimizedRMSD -1
REMARK  0 active torsions:
REMARK  status: ('A' for Active; 'I' for Inactive)
ROOT
ATOM      1  C   UNL d   1       2.950   1.343  -1.683  0.00  0.00     0.023 A 
ATOM      2  C1  UNL d   1       2.255   0.507  -2.558  0.00  0.00     0.003 A 
ATOM      3  C2  UNL d   1       1.837  -0.756  -2.135  0.00  0.00     0.048 A 
ATOM      4  C3  UNL d   1       2.116  -1.178  -0.835  0.00  0.00     0.023 A 
ATOM      5  C4  UNL d   1       2.810  -0.345   0.044  0.00  0.00     0.048 A 
ATOM      6  C5  UNL d   1       3.227   0.917  -0.384  0.00  0.00     0.003 A 
ATOM      7  I   UNL d   1       1.495  -3.057  -0.203  0.00  0.00    -0.146 I 
ENDROOT
TORSDOF 0
ENDMDL
