MODEL 1
REMARK minimizedAffinity 6.5667634
REMARK minimizedRMSD -1
REMARK  0 active torsions:
REMARK  status: ('A' for Active; 'I' for Inactive)
ROOT
ATOM      1  C   UNL d   1      -0.748   3.003  -4.961  0.00  0.00     0.023 A 
ATOM      2  C1  UNL d   1      -1.022   4.156  -5.696  0.00  0.00     0.003 A 
ATOM      3  C2  UNL d   1      -2.342   4.499  -5.995  0.00  0.00     0.048 A 
ATOM      4  C3  UNL d   1      -3.384   3.684  -5.555  0.00  0.00     0.023 A 
ATOM      5  C4  UNL d   1      -3.115   2.529  -4.819  0.00  0.00     0.048 A 
ATOM      6  C5  UNL d   1      -1.794   2.190  -4.523  0.00  0.00     0.003 A 
ATOM      7  I   UNL d   1      -5.350   4.191  -5.998  0.00  0.00    -0.146 I 
ENDROOT
TORSDOF 0
ENDMDL
