MODEL 1
REMARK minimizedAffinity 11.5180168
REMARK minimizedRMSD -1
REMARK  0 active torsions:
REMARK  status: ('A' for Active; 'I' for Inactive)
ROOT
ATOM      1  C   UNL d   1      -3.585   0.861   2.203  0.00  0.00     0.023 A 
ATOM      2  C1  UNL d   1      -3.203   0.985   3.539  0.00  0.00     0.003 A 
ATOM      3  C2  UNL d   1      -3.363  -0.091   4.415  0.00  0.00     0.048 A 
ATOM      4  C3  UNL d   1      -3.903  -1.288   3.948  0.00  0.00     0.023 A 
ATOM      5  C4  UNL d   1      -4.285  -1.418   2.611  0.00  0.00     0.048 A 
ATOM      6  C5  UNL d   1      -4.125  -0.339   1.740  0.00  0.00     0.003 A 
ATOM      7  I   UNL d   1      -4.141  -2.891   5.249  0.00  0.00    -0.146 I 
ENDROOT
TORSDOF 0
ENDMDL
