MODEL 1
REMARK minimizedAffinity 7.56326199
REMARK minimizedRMSD -1
REMARK  0 active torsions:
REMARK  status: ('A' for Active; 'I' for Inactive)
ROOT
ATOM      1  C   UNL d   1      -6.000  -5.062  -5.807  0.00  0.00     0.023 A 
ATOM      2  C1  UNL d   1      -5.729  -3.707  -5.614  0.00  0.00     0.003 A 
ATOM      3  C2  UNL d   1      -4.409  -3.252  -5.607  0.00  0.00     0.048 A 
ATOM      4  C3  UNL d   1      -3.364  -4.157  -5.794  0.00  0.00     0.023 A 
ATOM      5  C4  UNL d   1      -3.631  -5.513  -5.988  0.00  0.00     0.048 A 
ATOM      6  C5  UNL d   1      -4.952  -5.964  -5.994  0.00  0.00     0.003 A 
ATOM      7  I   UNL d   1      -1.399  -3.482  -5.784  0.00  0.00    -0.146 I 
ENDROOT
TORSDOF 0
ENDMDL
