MODEL 1
REMARK minimizedAffinity 8.73216343
REMARK minimizedRMSD -1
REMARK  0 active torsions:
REMARK  status: ('A' for Active; 'I' for Inactive)
ROOT
ATOM      1  C   UNL d   1       1.460  -3.983  -4.079  0.00  0.00     0.023 A 
ATOM      2  C1  UNL d   1       0.440  -3.324  -3.392  0.00  0.00     0.003 A 
ATOM      3  C2  UNL d   1       0.750  -2.293  -2.502  0.00  0.00     0.048 A 
ATOM      4  C3  UNL d   1       2.081  -1.926  -2.304  0.00  0.00     0.023 A 
ATOM      5  C4  UNL d   1       3.104  -2.583  -2.990  0.00  0.00     0.048 A 
ATOM      6  C5  UNL d   1       2.790  -3.613  -3.878  0.00  0.00     0.003 A 
ATOM      7  I   UNL d   1       2.543  -0.392  -0.981  0.00  0.00    -0.146 I 
ENDROOT
TORSDOF 0
ENDMDL
