MODEL 1
REMARK minimizedAffinity 4.21672535
REMARK minimizedRMSD -1
REMARK  0 active torsions:
REMARK  status: ('A' for Active; 'I' for Inactive)
ROOT
ATOM      1  C   UNL d   1       1.761  -3.956  -2.401  0.00  0.00     0.023 A 
ATOM      2  C1  UNL d   1       2.191  -3.040  -3.362  0.00  0.00     0.003 A 
ATOM      3  C2  UNL d   1       2.509  -1.733  -2.989  0.00  0.00     0.048 A 
ATOM      4  C3  UNL d   1       2.396  -1.348  -1.653  0.00  0.00     0.023 A 
ATOM      5  C4  UNL d   1       1.967  -2.261  -0.689  0.00  0.00     0.048 A 
ATOM      6  C5  UNL d   1       1.649  -3.567  -1.066  0.00  0.00     0.003 A 
ATOM      7  I   UNL d   1       2.869   0.598  -1.096  0.00  0.00    -0.146 I 
ENDROOT
TORSDOF 0
ENDMDL
