MODEL 1
REMARK minimizedAffinity 4.12690353
REMARK minimizedRMSD -1
REMARK  0 active torsions:
REMARK  status: ('A' for Active; 'I' for Inactive)
ROOT
ATOM      1  C   UNL d   1       2.265  -1.314  -2.061  0.00  0.00     0.023 A 
ATOM      2  C1  UNL d   1       2.204  -2.260  -3.084  0.00  0.00     0.003 A 
ATOM      3  C2  UNL d   1       2.463  -3.605  -2.811  0.00  0.00     0.048 A 
ATOM      4  C3  UNL d   1       2.782  -3.997  -1.511  0.00  0.00     0.023 A 
ATOM      5  C4  UNL d   1       2.844  -3.054  -0.484  0.00  0.00     0.048 A 
ATOM      6  C5  UNL d   1       2.585  -1.711  -0.762  0.00  0.00     0.003 A 
ATOM      7  I   UNL d   1       3.168  -5.998  -1.102  0.00  0.00    -0.146 I 
ENDROOT
TORSDOF 0
ENDMDL
