MODEL 1
REMARK minimizedAffinity 6.29587507
REMARK minimizedRMSD -1
REMARK  0 active torsions:
REMARK  status: ('A' for Active; 'I' for Inactive)
ROOT
ATOM      1  C   UNL d   1       1.831  -2.410  -1.862  0.00  0.00     0.023 A 
ATOM      2  C1  UNL d   1       2.600  -2.598  -0.713  0.00  0.00     0.003 A 
ATOM      3  C2  UNL d   1       3.225  -1.508  -0.104  0.00  0.00     0.048 A 
ATOM      4  C3  UNL d   1       3.077  -0.233  -0.648  0.00  0.00     0.023 A 
ATOM      5  C4  UNL d   1       2.307  -0.040  -1.797  0.00  0.00     0.048 A 
ATOM      6  C5  UNL d   1       1.685  -1.133  -2.403  0.00  0.00     0.003 A 
ATOM      7  I   UNL d   1       4.007   1.391   0.256  0.00  0.00    -0.146 I 
ENDROOT
TORSDOF 0
ENDMDL
