MODEL 1
REMARK minimizedAffinity 12.3479452
REMARK minimizedRMSD -1
REMARK  0 active torsions:
REMARK  status: ('A' for Active; 'I' for Inactive)
ROOT
ATOM      1  C   UNL d   1       1.494  -0.829  -3.412  0.00  0.00     0.023 A 
ATOM      2  C1  UNL d   1       1.636  -2.200  -3.624  0.00  0.00     0.003 A 
ATOM      3  C2  UNL d   1       2.054  -3.030  -2.582  0.00  0.00     0.048 A 
ATOM      4  C3  UNL d   1       2.326  -2.482  -1.329  0.00  0.00     0.023 A 
ATOM      5  C4  UNL d   1       2.185  -1.111  -1.111  0.00  0.00     0.048 A 
ATOM      6  C5  UNL d   1       1.768  -0.285  -2.157  0.00  0.00     0.003 A 
ATOM      7  I   UNL d   1       2.947  -3.715   0.225  0.00  0.00    -0.146 I 
ENDROOT
TORSDOF 0
ENDMDL
