MODEL 1
REMARK minimizedAffinity 9.68917084
REMARK minimizedRMSD -1
REMARK  0 active torsions:
REMARK  status: ('A' for Active; 'I' for Inactive)
ROOT
ATOM      1  C   UNL d   1       1.831  -0.722  -2.909  0.00  0.00     0.023 A 
ATOM      2  C1  UNL d   1       2.311  -1.931  -3.413  0.00  0.00     0.003 A 
ATOM      3  C2  UNL d   1       3.069  -2.777  -2.600  0.00  0.00     0.048 A 
ATOM      4  C3  UNL d   1       3.342  -2.407  -1.283  0.00  0.00     0.023 A 
ATOM      5  C4  UNL d   1       2.863  -1.199  -0.774  0.00  0.00     0.048 A 
ATOM      6  C5  UNL d   1       2.106  -0.357  -1.591  0.00  0.00     0.003 A 
ATOM      7  I   UNL d   1       4.469  -3.664  -0.071  0.00  0.00    -0.146 I 
ENDROOT
TORSDOF 0
ENDMDL
