MODEL 1
REMARK minimizedAffinity 7.2447505
REMARK minimizedRMSD -1
REMARK  0 active torsions:
REMARK  status: ('A' for Active; 'I' for Inactive)
ROOT
ATOM      1  C   UNL d   1       1.614  -4.038  -2.128  0.00  0.00     0.023 A 
ATOM      2  C1  UNL d   1       2.085  -3.786  -0.840  0.00  0.00     0.003 A 
ATOM      3  C2  UNL d   1       2.325  -2.474  -0.427  0.00  0.00     0.048 A 
ATOM      4  C3  UNL d   1       2.091  -1.418  -1.308  0.00  0.00     0.023 A 
ATOM      5  C4  UNL d   1       1.619  -1.666  -2.598  0.00  0.00     0.048 A 
ATOM      6  C5  UNL d   1       1.381  -2.979  -3.006  0.00  0.00     0.003 A 
ATOM      7  I   UNL d   1       2.447   0.536  -0.696  0.00  0.00    -0.146 I 
ENDROOT
TORSDOF 0
ENDMDL
