MODEL 1
REMARK minimizedAffinity -3.65669394
REMARK minimizedRMSD -1
REMARK  0 active torsions:
REMARK  status: ('A' for Active; 'I' for Inactive)
ROOT
ATOM      1  C   UNL d   1       0.017   0.843  -0.499  0.00  0.00     0.172 C 
ATOM      2  N   UNL d   1       0.121  -0.597  -0.519  0.00  0.00    -0.070 N 
ATOM      3  C1  UNL d   1      -0.519  -1.456   0.334  0.00  0.00    -0.004 A 
ATOM      4  C2  UNL d   1      -0.160  -2.740  -0.012  0.00  0.00    -0.047 A 
ATOM      5  C3  UNL d   1       0.728  -2.650  -1.111  0.00  0.00    -0.047 A 
ATOM      6  C4  UNL d   1       0.885  -1.312  -1.404  0.00  0.00    -0.004 A 
ENDROOT
TORSDOF 0
ENDMDL
