MODEL 1
REMARK minimizedAffinity -2.71299314
REMARK minimizedRMSD -1
REMARK  0 active torsions:
REMARK  status: ('A' for Active; 'I' for Inactive)
ROOT
ATOM      1  C   UNL d   1       0.225   0.297  -0.477  0.00  0.00     0.172 C 
ATOM      2  N   UNL d   1       0.165  -1.104  -0.822  0.00  0.00    -0.070 N 
ATOM      3  C1  UNL d   1       0.557  -1.649  -2.015  0.00  0.00    -0.004 A 
ATOM      4  C2  UNL d   1       0.342  -3.009  -1.948  0.00  0.00    -0.047 A 
ATOM      5  C3  UNL d   1      -0.199  -3.290  -0.671  0.00  0.00    -0.047 A 
ATOM      6  C4  UNL d   1      -0.298  -2.092   0.005  0.00  0.00    -0.004 A 
ENDROOT
TORSDOF 0
ENDMDL
