MODEL 1
REMARK minimizedAffinity -4.11702347
REMARK minimizedRMSD -1
REMARK  0 active torsions:
REMARK  status: ('A' for Active; 'I' for Inactive)
ROOT
ATOM      1  C   UNL d   1      -0.034   0.800  -0.229  0.00  0.00     0.172 C 
ATOM      2  N   UNL d   1       0.038  -0.610   0.075  0.00  0.00    -0.070 N 
ATOM      3  C1  UNL d   1      -0.245  -1.180   1.288  0.00  0.00    -0.004 A 
ATOM      4  C2  UNL d   1      -0.058  -2.540   1.168  0.00  0.00    -0.047 A 
ATOM      5  C3  UNL d   1       0.352  -2.796  -0.162  0.00  0.00    -0.047 A 
ATOM      6  C4  UNL d   1       0.403  -1.583  -0.816  0.00  0.00    -0.004 A 
ENDROOT
TORSDOF 0
ENDMDL
