MODEL 1
REMARK minimizedAffinity -2.64260888
REMARK minimizedRMSD -1
REMARK  0 active torsions:
REMARK  status: ('A' for Active; 'I' for Inactive)
ROOT
ATOM      1  C   UNL d   1      -0.593  -2.700   0.554  0.00  0.00     0.172 C 
ATOM      2  N   UNL d   1      -0.270  -1.333   0.216  0.00  0.00    -0.070 N 
ATOM      3  C1  UNL d   1      -0.631  -0.226   0.937  0.00  0.00    -0.004 A 
ATOM      4  C2  UNL d   1      -0.133   0.882   0.286  0.00  0.00    -0.047 A 
ATOM      5  C3  UNL d   1       0.550   0.425  -0.866  0.00  0.00    -0.047 A 
ATOM      6  C4  UNL d   1       0.449  -0.950  -0.885  0.00  0.00    -0.004 A 
ENDROOT
TORSDOF 0
ENDMDL
