MODEL 1
REMARK minimizedAffinity -4.05095148
REMARK minimizedRMSD -1
REMARK  0 active torsions:
REMARK  status: ('A' for Active; 'I' for Inactive)
ROOT
ATOM      1  C   UNL d   1      -0.138  -2.902  -2.719  0.00  0.00     0.172 C 
ATOM      2  N   UNL d   1      -0.077  -2.789  -1.281  0.00  0.00    -0.070 N 
ATOM      3  C1  UNL d   1      -0.262  -3.814  -0.391  0.00  0.00    -0.004 A 
ATOM      4  C2  UNL d   1      -0.123  -3.300   0.880  0.00  0.00    -0.047 A 
ATOM      5  C3  UNL d   1       0.154  -1.918   0.750  0.00  0.00    -0.047 A 
ATOM      6  C4  UNL d   1       0.177  -1.629  -0.598  0.00  0.00    -0.004 A 
ENDROOT
TORSDOF 0
ENDMDL
