MODEL 1
REMARK minimizedAffinity -3.28248572
REMARK minimizedRMSD -1
REMARK  0 active torsions:
REMARK  status: ('A' for Active; 'I' for Inactive)
ROOT
ATOM      1  C   UNL d   1       0.351  -3.310   0.663  0.00  0.00     0.172 C 
ATOM      2  N   UNL d   1       0.022  -1.928   0.407  0.00  0.00    -0.070 N 
ATOM      3  C1  UNL d   1       0.514  -1.167  -0.620  0.00  0.00    -0.004 A 
ATOM      4  C2  UNL d   1      -0.042   0.090  -0.518  0.00  0.00    -0.047 A 
ATOM      5  C3  UNL d   1      -0.897   0.085   0.610  0.00  0.00    -0.047 A 
ATOM      6  C4  UNL d   1      -0.839  -1.177   1.163  0.00  0.00    -0.004 A 
ENDROOT
TORSDOF 0
ENDMDL
