MODEL 1
REMARK minimizedAffinity -2.06061745
REMARK minimizedRMSD -1
REMARK  0 active torsions:
REMARK  status: ('A' for Active; 'I' for Inactive)
ROOT
ATOM      1  C   UNL d   1      -0.923  -2.560   0.436  0.00  0.00     0.172 C 
ATOM      2  N   UNL d   1      -0.557  -1.225   0.023  0.00  0.00    -0.070 N 
ATOM      3  C1  UNL d   1       0.036  -0.891  -1.165  0.00  0.00    -0.004 A 
ATOM      4  C2  UNL d   1       0.220   0.474  -1.176  0.00  0.00    -0.047 A 
ATOM      5  C3  UNL d   1      -0.279   0.978   0.049  0.00  0.00    -0.047 A 
ATOM      6  C4  UNL d   1      -0.754  -0.095   0.772  0.00  0.00    -0.004 A 
ENDROOT
TORSDOF 0
ENDMDL
