MODEL 1
REMARK minimizedAffinity -3.12832403
REMARK minimizedRMSD -1
REMARK  0 active torsions:
REMARK  status: ('A' for Active; 'I' for Inactive)
ROOT
ATOM      1  C   UNL d   1      -1.034  -2.595   0.306  0.00  0.00     0.172 C 
ATOM      2  N   UNL d   1      -0.600  -1.326  -0.228  0.00  0.00    -0.070 N 
ATOM      3  C1  UNL d   1      -0.530  -0.149   0.467  0.00  0.00    -0.004 A 
ATOM      4  C2  UNL d   1      -0.070   0.824  -0.394  0.00  0.00    -0.047 A 
ATOM      5  C3  UNL d   1       0.142   0.210  -1.652  0.00  0.00    -0.047 A 
ATOM      6  C4  UNL d   1      -0.194  -1.121  -1.521  0.00  0.00    -0.004 A 
ENDROOT
TORSDOF 0
ENDMDL
