MODEL 1
REMARK minimizedAffinity -1.42341685
REMARK minimizedRMSD -1
REMARK  0 active torsions:
REMARK  status: ('A' for Active; 'I' for Inactive)
ROOT
ATOM      1  C   UNL d   1      -0.020   1.909  -1.769  0.00  0.00     0.172 C 
ATOM      2  N   UNL d   1       0.654   2.455  -0.615  0.00  0.00    -0.070 N 
ATOM      3  C1  UNL d   1       1.827   3.161  -0.636  0.00  0.00    -0.004 A 
ATOM      4  C2  UNL d   1       2.137   3.504   0.662  0.00  0.00    -0.047 A 
ATOM      5  C3  UNL d   1       1.115   2.985   1.492  0.00  0.00    -0.047 A 
ATOM      6  C4  UNL d   1       0.210   2.340   0.676  0.00  0.00    -0.004 A 
ENDROOT
TORSDOF 0
ENDMDL
