MODEL 1
REMARK minimizedAffinity -3.96064234
REMARK minimizedRMSD -1
REMARK  0 active torsions:
REMARK  status: ('A' for Active; 'I' for Inactive)
ROOT
ATOM      1  C   UNL d   1      -0.516   1.017  -0.135  0.00  0.00     0.172 C 
ATOM      2  N   UNL d   1      -0.360  -0.342   0.328  0.00  0.00    -0.070 N 
ATOM      3  C1  UNL d   1       0.309  -1.338  -0.331  0.00  0.00    -0.004 A 
ATOM      4  C2  UNL d   1       0.230  -2.479   0.438  0.00  0.00    -0.047 A 
ATOM      5  C3  UNL d   1      -0.513  -2.158   1.599  0.00  0.00    -0.047 A 
ATOM      6  C4  UNL d   1      -0.866  -0.828   1.505  0.00  0.00    -0.004 A 
ENDROOT
TORSDOF 0
ENDMDL
