MODEL 1
REMARK minimizedAffinity -4.21973562
REMARK minimizedRMSD -1
REMARK  0 active torsions:
REMARK  status: ('A' for Active; 'I' for Inactive)
ROOT
ATOM      1  C   UNL d   1      -0.543   0.778  -0.535  0.00  0.00     0.172 C 
ATOM      2  N   UNL d   1      -0.400  -0.638  -0.288  0.00  0.00    -0.070 N 
ATOM      3  C1  UNL d   1       0.078  -1.560  -1.180  0.00  0.00    -0.004 A 
ATOM      4  C2  UNL d   1       0.057  -2.793  -0.564  0.00  0.00    -0.047 A 
ATOM      5  C3  UNL d   1      -0.453  -2.605   0.743  0.00  0.00    -0.047 A 
ATOM      6  C4  UNL d   1      -0.727  -1.262   0.887  0.00  0.00    -0.004 A 
ENDROOT
TORSDOF 0
ENDMDL
