MODEL 1
REMARK minimizedAffinity -3.96259904
REMARK minimizedRMSD -1
REMARK  0 active torsions:
REMARK  status: ('A' for Active; 'I' for Inactive)
ROOT
ATOM      1  C   UNL d   1       0.071  -0.213   0.036  0.00  0.00     0.172 C 
ATOM      2  N   UNL d   1       0.087  -1.560  -0.484  0.00  0.00    -0.070 N 
ATOM      3  C1  UNL d   1      -0.317  -2.682   0.190  0.00  0.00    -0.004 A 
ATOM      4  C2  UNL d   1      -0.146  -3.762  -0.648  0.00  0.00    -0.047 A 
ATOM      5  C3  UNL d   1       0.379  -3.274  -1.868  0.00  0.00    -0.047 A 
ATOM      6  C4  UNL d   1       0.513  -1.907  -1.739  0.00  0.00    -0.004 A 
ENDROOT
TORSDOF 0
ENDMDL
