MODEL 1
REMARK minimizedAffinity -4.02950144
REMARK minimizedRMSD -1
REMARK  0 active torsions:
REMARK  status: ('A' for Active; 'I' for Inactive)
ROOT
ATOM      1  C   UNL d   1      -1.194  -0.295   0.688  0.00  0.00     0.172 C 
ATOM      2  N   UNL d   1      -0.620  -1.509   0.156  0.00  0.00    -0.070 N 
ATOM      3  C1  UNL d   1      -0.772  -2.763   0.686  0.00  0.00    -0.004 A 
ATOM      4  C2  UNL d   1      -0.074  -3.645  -0.110  0.00  0.00    -0.047 A 
ATOM      5  C3  UNL d   1       0.518  -2.895  -1.154  0.00  0.00    -0.047 A 
ATOM      6  C4  UNL d   1       0.164  -1.576  -0.965  0.00  0.00    -0.004 A 
ENDROOT
TORSDOF 0
ENDMDL
