MODEL 1
REMARK minimizedAffinity -3.9079566
REMARK minimizedRMSD -1
REMARK  0 active torsions:
REMARK  status: ('A' for Active; 'I' for Inactive)
ROOT
ATOM      1  C   UNL d   1       1.027  -2.621  -2.679  0.00  0.00     0.172 C 
ATOM      2  N   UNL d   1       0.487  -2.411  -1.357  0.00  0.00    -0.070 N 
ATOM      3  C1  UNL d   1       0.602  -1.261  -0.621  0.00  0.00    -0.004 A 
ATOM      4  C2  UNL d   1      -0.047  -1.462   0.578  0.00  0.00    -0.047 A 
ATOM      5  C3  UNL d   1      -0.569  -2.777   0.563  0.00  0.00    -0.047 A 
ATOM      6  C4  UNL d   1      -0.224  -3.342  -0.646  0.00  0.00    -0.004 A 
ENDROOT
TORSDOF 0
ENDMDL
