MODEL 1
REMARK minimizedAffinity -4.30935669
REMARK minimizedRMSD -1
REMARK  1 active torsions:
REMARK  status: ('A' for Active; 'I' for Inactive)
REMARK    1  A    between atoms: C1_2  and  C2_3 
ROOT
ATOM      1  C2  UNL d   1      -3.441  -4.236  -4.926  0.00  0.00    -0.077 A 
ATOM      2  C3  UNL d   1      -3.618  -2.985  -5.532  0.00  0.00     0.002 A 
ATOM      3  C4  UNL d   1      -4.885  -2.400  -5.590  0.00  0.00     0.002 A 
ATOM      4  C5  UNL d   1      -5.983  -3.058  -5.041  0.00  0.00    -0.004 A 
ATOM      5  C6  UNL d   1      -5.818  -4.304  -4.437  0.00  0.00     0.002 A 
ATOM      6  C7  UNL d   1      -4.553  -4.890  -4.379  0.00  0.00     0.002 A 
ENDROOT
BRANCH   1   7
ATOM      7  C1  UNL d   1      -2.068  -4.845  -4.818  0.00  0.00     0.055 C 
ATOM      8  C   UNL d   1      -1.557  -4.810  -3.385  0.00  0.00     0.019 C 
ENDBRANCH   1   7
TORSDOF 1
ENDMDL
