MODEL 1
REMARK minimizedAffinity -3.53736305
REMARK minimizedRMSD -1
REMARK  1 active torsions:
REMARK  status: ('A' for Active; 'I' for Inactive)
REMARK    1  A    between atoms: C1_2  and  C2_3 
ROOT
ATOM      1  C2  UNL d   1      -4.676  -3.785  -5.151  0.00  0.00    -0.077 A 
ATOM      2  C3  UNL d   1      -4.449  -4.849  -4.267  0.00  0.00     0.002 A 
ATOM      3  C4  UNL d   1      -3.207  -5.487  -4.235  0.00  0.00     0.002 A 
ATOM      4  C5  UNL d   1      -2.184  -5.067  -5.081  0.00  0.00    -0.004 A 
ATOM      5  C6  UNL d   1      -2.401  -4.011  -5.966  0.00  0.00     0.002 A 
ATOM      6  C7  UNL d   1      -3.641  -3.372  -6.000  0.00  0.00     0.002 A 
ENDROOT
BRANCH   1   7
ATOM      7  C1  UNL d   1      -5.999  -3.063  -5.153  0.00  0.00     0.055 C 
ATOM      8  C   UNL d   1      -5.819  -1.578  -4.872  0.00  0.00     0.019 C 
ENDBRANCH   1   7
TORSDOF 1
ENDMDL
