MODEL 1
REMARK minimizedAffinity -0.907619834
REMARK minimizedRMSD -1
REMARK  1 active torsions:
REMARK  status: ('A' for Active; 'I' for Inactive)
REMARK    1  A    between atoms: C1_2  and  C2_3 
ROOT
ATOM      1  C2  UNL d   1      -3.545  -5.307  -5.329  0.00  0.00    -0.077 A 
ATOM      2  C3  UNL d   1      -4.658  -5.997  -5.830  0.00  0.00     0.002 A 
ATOM      3  C4  UNL d   1      -5.880  -5.343  -5.994  0.00  0.00     0.002 A 
ATOM      4  C5  UNL d   1      -6.000  -3.995  -5.664  0.00  0.00    -0.004 A 
ATOM      5  C6  UNL d   1      -4.900  -3.300  -5.163  0.00  0.00     0.002 A 
ATOM      6  C7  UNL d   1      -3.678  -3.953  -4.997  0.00  0.00     0.002 A 
ENDROOT
BRANCH   1   7
ATOM      7  C1  UNL d   1      -2.213  -5.999  -5.198  0.00  0.00     0.055 C 
ATOM      8  C   UNL d   1      -1.111  -5.215  -5.896  0.00  0.00     0.019 C 
ENDBRANCH   1   7
TORSDOF 1
ENDMDL
