MODEL 1
REMARK minimizedAffinity -3.03951335
REMARK minimizedRMSD -1
REMARK  1 active torsions:
REMARK  status: ('A' for Active; 'I' for Inactive)
REMARK    1  A    between atoms: C1_2  and  C2_3 
ROOT
ATOM      1  C2  UNL d   1      -3.584  -5.295  -5.260  0.00  0.00    -0.077 A 
ATOM      2  C3  UNL d   1      -4.755  -5.516  -5.999  0.00  0.00     0.002 A 
ATOM      3  C4  UNL d   1      -5.958  -4.922  -5.611  0.00  0.00     0.002 A 
ATOM      4  C5  UNL d   1      -6.000  -4.100  -4.487  0.00  0.00    -0.004 A 
ATOM      5  C6  UNL d   1      -4.841  -3.876  -3.744  0.00  0.00     0.002 A 
ATOM      6  C7  UNL d   1      -3.639  -4.469  -4.130  0.00  0.00     0.002 A 
ENDROOT
BRANCH   1   7
ATOM      7  C1  UNL d   1      -2.276  -5.895  -5.706  0.00  0.00     0.055 C 
ATOM      8  C   UNL d   1      -1.141  -4.886  -5.603  0.00  0.00     0.019 C 
ENDBRANCH   1   7
TORSDOF 1
ENDMDL
