MODEL 1
REMARK minimizedAffinity -2.22100711
REMARK minimizedRMSD -1
REMARK  1 active torsions:
REMARK  status: ('A' for Active; 'I' for Inactive)
REMARK    1  A    between atoms: C1_2  and  C2_3 
ROOT
ATOM      1  C2  UNL d   1      -3.837  -4.930  -5.067  0.00  0.00    -0.077 A 
ATOM      2  C3  UNL d   1      -3.018  -4.279  -6.000  0.00  0.00     0.002 A 
ATOM      3  C4  UNL d   1      -1.638  -4.488  -5.994  0.00  0.00     0.002 A 
ATOM      4  C5  UNL d   1      -1.065  -5.350  -5.061  0.00  0.00    -0.004 A 
ATOM      5  C6  UNL d   1      -1.871  -6.000  -4.128  0.00  0.00     0.002 A 
ATOM      6  C7  UNL d   1      -3.251  -5.792  -4.131  0.00  0.00     0.002 A 
ENDROOT
BRANCH   1   7
ATOM      7  C1  UNL d   1      -5.332  -4.745  -5.103  0.00  0.00     0.055 C 
ATOM      8  C   UNL d   1      -5.715  -3.291  -4.868  0.00  0.00     0.019 C 
ENDBRANCH   1   7
TORSDOF 1
ENDMDL
