MODEL 1
REMARK minimizedAffinity -3.72575688
REMARK minimizedRMSD -1
REMARK  1 active torsions:
REMARK  status: ('A' for Active; 'I' for Inactive)
REMARK    1  A    between atoms: C1_2  and  C2_3 
ROOT
ATOM      1  C2  UNL d   1      -4.675  -3.861  -4.802  0.00  0.00    -0.077 A 
ATOM      2  C3  UNL d   1      -4.327  -4.624  -3.678  0.00  0.00     0.002 A 
ATOM      3  C4  UNL d   1      -3.113  -5.312  -3.640  0.00  0.00     0.002 A 
ATOM      4  C5  UNL d   1      -2.235  -5.241  -4.719  0.00  0.00    -0.004 A 
ATOM      5  C6  UNL d   1      -2.573  -4.487  -5.843  0.00  0.00     0.002 A 
ATOM      6  C7  UNL d   1      -3.787  -3.799  -5.884  0.00  0.00     0.002 A 
ENDROOT
BRANCH   1   7
ATOM      7  C1  UNL d   1      -5.962  -3.079  -4.826  0.00  0.00     0.055 C 
ATOM      8  C   UNL d   1      -5.999  -2.110  -5.998  0.00  0.00     0.019 C 
ENDBRANCH   1   7
TORSDOF 1
ENDMDL
