MODEL 1
REMARK minimizedAffinity -3.71336961
REMARK minimizedRMSD -1
REMARK  1 active torsions:
REMARK  status: ('A' for Active; 'I' for Inactive)
REMARK    1  A    between atoms: C1_2  and  C2_3 
ROOT
ATOM      1  C2  UNL d   1      -3.569  -4.025  -4.688  0.00  0.00    -0.077 A 
ATOM      2  C3  UNL d   1      -4.580  -4.889  -4.246  0.00  0.00     0.002 A 
ATOM      3  C4  UNL d   1      -5.789  -4.377  -3.770  0.00  0.00     0.002 A 
ATOM      4  C5  UNL d   1      -5.999  -3.001  -3.736  0.00  0.00    -0.004 A 
ATOM      5  C6  UNL d   1      -4.999  -2.132  -4.172  0.00  0.00     0.002 A 
ATOM      6  C7  UNL d   1      -3.790  -2.642  -4.647  0.00  0.00     0.002 A 
ENDROOT
BRANCH   1   7
ATOM      7  C1  UNL d   1      -2.284  -4.576  -5.248  0.00  0.00     0.055 C 
ATOM      8  C   UNL d   1      -2.521  -5.878  -6.000  0.00  0.00     0.019 C 
ENDBRANCH   1   7
TORSDOF 1
ENDMDL
