MODEL 1
REMARK minimizedAffinity -3.19141674
REMARK minimizedRMSD -1
REMARK  1 active torsions:
REMARK  status: ('A' for Active; 'I' for Inactive)
REMARK    1  A    between atoms: C1_2  and  C2_3 
ROOT
ATOM      1  C2  UNL d   1      -5.271  -3.225  -4.714  0.00  0.00    -0.077 A 
ATOM      2  C3  UNL d   1      -5.960  -4.185  -5.467  0.00  0.00     0.002 A 
ATOM      3  C4  UNL d   1      -5.292  -5.308  -5.960  0.00  0.00     0.002 A 
ATOM      4  C5  UNL d   1      -3.934  -5.483  -5.702  0.00  0.00    -0.004 A 
ATOM      5  C6  UNL d   1      -3.240  -4.532  -4.956  0.00  0.00     0.002 A 
ATOM      6  C7  UNL d   1      -3.905  -3.408  -4.463  0.00  0.00     0.002 A 
ENDROOT
BRANCH   1   7
ATOM      7  C1  UNL d   1      -6.000  -2.038  -4.139  0.00  0.00     0.055 C 
ATOM      8  C   UNL d   1      -5.660  -0.761  -4.895  0.00  0.00     0.019 C 
ENDBRANCH   1   7
TORSDOF 1
ENDMDL
