MODEL 1
REMARK minimizedAffinity -3.49653029
REMARK minimizedRMSD -1
REMARK  1 active torsions:
REMARK  status: ('A' for Active; 'I' for Inactive)
REMARK    1  A    between atoms: C1_2  and  C2_3 
ROOT
ATOM      1  C2  UNL d   1      -2.321  -5.460  -5.443  0.00  0.00    -0.077 A 
ATOM      2  C3  UNL d   1      -3.521  -5.923  -6.000  0.00  0.00     0.002 A 
ATOM      3  C4  UNL d   1      -4.744  -5.392  -5.584  0.00  0.00     0.002 A 
ATOM      4  C5  UNL d   1      -4.777  -4.393  -4.613  0.00  0.00    -0.004 A 
ATOM      5  C6  UNL d   1      -3.589  -3.927  -4.052  0.00  0.00     0.002 A 
ATOM      6  C7  UNL d   1      -2.366  -4.458  -4.466  0.00  0.00     0.002 A 
ENDROOT
BRANCH   1   7
ATOM      7  C1  UNL d   1      -0.998  -5.996  -5.926  0.00  0.00     0.055 C 
ATOM      8  C   UNL d   1       0.038  -5.999  -4.811  0.00  0.00     0.019 C 
ENDBRANCH   1   7
TORSDOF 1
ENDMDL
