MODEL 1
REMARK minimizedAffinity -1.18658721
REMARK minimizedRMSD -1
REMARK  1 active torsions:
REMARK  status: ('A' for Active; 'I' for Inactive)
REMARK    1  A    between atoms: C1_2  and  C2_3 
ROOT
ATOM      1  C2  UNL d   1      -3.585  -5.241  -5.554  0.00  0.00    -0.077 A 
ATOM      2  C3  UNL d   1      -3.599  -3.999  -4.903  0.00  0.00     0.002 A 
ATOM      3  C4  UNL d   1      -4.802  -3.319  -4.703  0.00  0.00     0.002 A 
ATOM      4  C5  UNL d   1      -6.000  -3.875  -5.148  0.00  0.00    -0.004 A 
ATOM      5  C6  UNL d   1      -5.997  -5.108  -5.798  0.00  0.00     0.002 A 
ATOM      6  C7  UNL d   1      -4.795  -5.788  -6.000  0.00  0.00     0.002 A 
ENDROOT
BRANCH   1   7
ATOM      7  C1  UNL d   1      -2.295  -5.998  -5.727  0.00  0.00     0.055 C 
ATOM      8  C   UNL d   1      -1.373  -5.801  -4.532  0.00  0.00     0.019 C 
ENDBRANCH   1   7
TORSDOF 1
ENDMDL
