MODEL 1
REMARK minimizedAffinity -3.76675153
REMARK minimizedRMSD -1
REMARK  1 active torsions:
REMARK  status: ('A' for Active; 'I' for Inactive)
REMARK    1  A    between atoms: C1_2  and  C2_3 
ROOT
ATOM      1  C2  UNL d   1      -5.112  -4.024  -4.503  0.00  0.00    -0.077 A 
ATOM      2  C3  UNL d   1      -3.758  -4.097  -4.148  0.00  0.00     0.002 A 
ATOM      3  C4  UNL d   1      -2.936  -5.082  -4.697  0.00  0.00     0.002 A 
ATOM      4  C5  UNL d   1      -3.456  -5.999  -5.608  0.00  0.00    -0.004 A 
ATOM      5  C6  UNL d   1      -4.802  -5.936  -5.967  0.00  0.00     0.002 A 
ATOM      6  C7  UNL d   1      -5.626  -4.953  -5.418  0.00  0.00     0.002 A 
ENDROOT
BRANCH   1   7
ATOM      7  C1  UNL d   1      -5.990  -2.932  -3.950  0.00  0.00     0.055 C 
ATOM      8  C   UNL d   1      -6.000  -1.714  -4.862  0.00  0.00     0.019 C 
ENDBRANCH   1   7
TORSDOF 1
ENDMDL
