MODEL 1
REMARK minimizedAffinity -2.67820382
REMARK minimizedRMSD -1
REMARK  1 active torsions:
REMARK  status: ('A' for Active; 'I' for Inactive)
REMARK    1  A    between atoms: C1_2  and  C2_3 
ROOT
ATOM      1  C2  UNL d   1      -5.551  -2.696  -5.005  0.00  0.00    -0.077 A 
ATOM      2  C3  UNL d   1      -5.774  -1.382  -5.441  0.00  0.00     0.002 A 
ATOM      3  C4  UNL d   1      -5.999  -0.360  -4.518  0.00  0.00     0.002 A 
ATOM      4  C5  UNL d   1      -5.999  -0.639  -3.153  0.00  0.00    -0.004 A 
ATOM      5  C6  UNL d   1      -5.780  -1.943  -2.709  0.00  0.00     0.002 A 
ATOM      6  C7  UNL d   1      -5.556  -2.966  -3.631  0.00  0.00     0.002 A 
ENDROOT
BRANCH   1   7
ATOM      7  C1  UNL d   1      -5.260  -3.791  -5.997  0.00  0.00     0.055 C 
ATOM      8  C   UNL d   1      -3.936  -4.477  -5.692  0.00  0.00     0.019 C 
ENDBRANCH   1   7
TORSDOF 1
ENDMDL
