MODEL 1
REMARK minimizedAffinity 12.5086632
REMARK minimizedRMSD -1
REMARK  0 active torsions:
REMARK  status: ('A' for Active; 'I' for Inactive)
ROOT
ATOM      1  C   UNL d   1       1.916  -2.546   0.891  0.00  0.00    -0.002 A 
ATOM      2  C1  UNL d   1       1.955  -1.957   2.147  0.00  0.00     0.010 A 
ATOM      3  C2  UNL d   1       2.099  -0.575   2.279  0.00  0.00     0.041 A 
ATOM      4  C3  UNL d   1       2.202   0.214   1.116  0.00  0.00    -0.075 A 
ATOM      5  S   UNL d   1       2.384   1.926   1.034  0.00  0.00     0.015 SA
ATOM      6  C4  UNL d   1       2.414   1.916  -0.670  0.00  0.00     0.022 A 
ATOM      7  C5  UNL d   1       2.290   0.646  -1.181  0.00  0.00     0.026 A 
ATOM      8  C6  UNL d   1       2.165  -0.356  -0.160  0.00  0.00    -0.082 A 
ATOM      9  C7  UNL d   1       2.019  -1.761  -0.260  0.00  0.00     0.045 A 
ENDROOT
TORSDOF 0
ENDMDL
