MODEL 1
REMARK minimizedAffinity 10.6623049
REMARK minimizedRMSD -1
REMARK  0 active torsions:
REMARK  status: ('A' for Active; 'I' for Inactive)
ROOT
ATOM      1  C   UNL d   1      -5.277   5.959   3.948  0.00  0.00    -0.002 A 
ATOM      2  C1  UNL d   1      -5.633   5.986   5.289  0.00  0.00     0.010 A 
ATOM      3  C2  UNL d   1      -5.827   4.798   5.997  0.00  0.00     0.041 A 
ATOM      4  C3  UNL d   1      -5.653   3.571   5.328  0.00  0.00    -0.075 A 
ATOM      5  S   UNL d   1      -5.836   1.990   5.993  0.00  0.00     0.015 SA
ATOM      6  C4  UNL d   1      -5.445   1.241   4.513  0.00  0.00     0.022 A 
ATOM      7  C5  UNL d   1      -5.179   2.160   3.525  0.00  0.00     0.026 A 
ATOM      8  C6  UNL d   1      -5.294   3.517   3.978  0.00  0.00    -0.082 A 
ATOM      9  C7  UNL d   1      -5.106   4.739   3.288  0.00  0.00     0.045 A 
ENDROOT
TORSDOF 0
ENDMDL
