MODEL 1
REMARK minimizedAffinity 17.0097828
REMARK minimizedRMSD -1
REMARK  0 active torsions:
REMARK  status: ('A' for Active; 'I' for Inactive)
ROOT
ATOM      1  C   UNL d   1       2.841   0.777   3.142  0.00  0.00    -0.002 A 
ATOM      2  C1  UNL d   1       3.407  -0.479   2.972  0.00  0.00     0.010 A 
ATOM      3  C2  UNL d   1       3.364  -1.115   1.730  0.00  0.00     0.041 A 
ATOM      4  C3  UNL d   1       2.738  -0.461   0.650  0.00  0.00    -0.075 A 
ATOM      5  S   UNL d   1       2.567  -1.047  -0.962  0.00  0.00     0.015 SA
ATOM      6  C4  UNL d   1       1.739   0.357  -1.463  0.00  0.00     0.022 A 
ATOM      7  C5  UNL d   1       1.589   1.260  -0.438  0.00  0.00     0.026 A 
ATOM      8  C6  UNL d   1       2.162   0.804   0.797  0.00  0.00    -0.082 A 
ATOM      9  C7  UNL d   1       2.222   1.423   2.069  0.00  0.00     0.045 A 
ENDROOT
TORSDOF 0
ENDMDL
