MODEL 1
REMARK minimizedAffinity -1.32740796
REMARK minimizedRMSD -1
REMARK  1 active torsions:
REMARK  status: ('A' for Active; 'I' for Inactive)
REMARK    1  A    between atoms: C1_2  and  C2_3 
ROOT
ATOM      1  C2  UNL d   1       0.432   0.027  -1.922  0.00  0.00    -0.073 A 
ATOM      2  C3  UNL d   1      -0.705   0.797  -1.654  0.00  0.00    -0.002 A 
ATOM      3  C4  UNL d   1      -1.038   1.129  -0.340  0.00  0.00     0.004 A 
ATOM      4  C5  UNL d   1      -0.234   0.701   0.717  0.00  0.00    -0.004 A 
ATOM      5  C6  UNL d   1       0.913  -0.058   0.468  0.00  0.00    -0.075 A 
ATOM      6  C7  UNL d   1       1.787  -0.528   1.594  0.00  0.00     0.076 C 
ATOM      7  C8  UNL d   1       1.239  -0.390  -0.854  0.00  0.00     0.001 A 
ENDROOT
BRANCH   1   8
ATOM      8  C1  UNL d   1       0.799  -0.328  -3.340  0.00  0.00     0.053 C 
ATOM      9  C   UNL d   1       0.141   0.600  -4.349  0.00  0.00     0.018 C 
ENDBRANCH   1   8
TORSDOF 1
ENDMDL
