MODEL 1
REMARK minimizedAffinity -4.8506856
REMARK minimizedRMSD -1
REMARK  0 active torsions:
REMARK  status: ('A' for Active; 'I' for Inactive)
ROOT
ATOM      1  C   UNL d   1       2.695  -1.081  -2.266  0.00  0.00     0.023 A 
ATOM      2  C1  UNL d   1       2.045  -2.170  -1.686  0.00  0.00     0.003 A 
ATOM      3  C2  UNL d   1       1.018  -1.962  -0.763  0.00  0.00     0.048 A 
ATOM      4  C3  UNL d   1       0.645  -0.661  -0.426  0.00  0.00     0.023 A 
ATOM      5  C4  UNL d   1       1.292   0.432  -1.005  0.00  0.00     0.048 A 
ATOM      6  C5  UNL d   1       2.319   0.219  -1.926  0.00  0.00     0.003 A 
ATOM      7  I   UNL d   1      -0.884  -0.348   0.947  0.00  0.00    -0.146 I 
ENDROOT
TORSDOF 0
ENDMDL
