MODEL 1
REMARK minimizedAffinity -4.24432611
REMARK minimizedRMSD -1
REMARK  0 active torsions:
REMARK  status: ('A' for Active; 'I' for Inactive)
ROOT
ATOM      1  C   UNL d   1       2.263  -1.115  -2.015  0.00  0.00     0.023 A 
ATOM      2  C1  UNL d   1       1.679   0.111  -1.694  0.00  0.00     0.003 A 
ATOM      3  C2  UNL d   1       0.598   0.160  -0.811  0.00  0.00     0.048 A 
ATOM      4  C3  UNL d   1       0.109  -1.019  -0.250  0.00  0.00     0.023 A 
ATOM      5  C4  UNL d   1       0.691  -2.247  -0.567  0.00  0.00     0.048 A 
ATOM      6  C5  UNL d   1       1.771  -2.292  -1.452  0.00  0.00     0.003 A 
ATOM      7  I   UNL d   1      -1.499  -0.947   1.065  0.00  0.00    -0.146 I 
ENDROOT
TORSDOF 0
ENDMDL
