MODEL 1
REMARK minimizedAffinity 5.46219254
REMARK minimizedRMSD -1
REMARK  0 active torsions:
REMARK  status: ('A' for Active; 'I' for Inactive)
ROOT
ATOM      1  C   UNL d   1       2.376   1.312  -1.000  0.00  0.00     0.023 A 
ATOM      2  C1  UNL d   1       1.921   0.284  -1.825  0.00  0.00     0.003 A 
ATOM      3  C2  UNL d   1       0.877   0.517  -2.722  0.00  0.00     0.048 A 
ATOM      4  C3  UNL d   1       0.294   1.782  -2.791  0.00  0.00     0.023 A 
ATOM      5  C4  UNL d   1       0.747   2.815  -1.969  0.00  0.00     0.048 A 
ATOM      6  C5  UNL d   1       1.790   2.576  -1.072  0.00  0.00     0.003 A 
ATOM      7  I   UNL d   1      -1.259   2.132  -4.127  0.00  0.00    -0.146 I 
ENDROOT
TORSDOF 0
ENDMDL
