MODEL 1
REMARK minimizedAffinity 2.89040017
REMARK minimizedRMSD -1
REMARK  0 active torsions:
REMARK  status: ('A' for Active; 'I' for Inactive)
ROOT
ATOM      1  C   UNL d   1       1.793   0.011  -1.374  0.00  0.00     0.023 A 
ATOM      2  C1  UNL d   1       1.251   0.630  -0.247  0.00  0.00     0.003 A 
ATOM      3  C2  UNL d   1       1.162   2.022  -0.188  0.00  0.00     0.048 A 
ATOM      4  C3  UNL d   1       1.616   2.790  -1.260  0.00  0.00     0.023 A 
ATOM      5  C4  UNL d   1       2.157   2.175  -2.390  0.00  0.00     0.048 A 
ATOM      6  C5  UNL d   1       2.245   0.783  -2.444  0.00  0.00     0.003 A 
ATOM      7  I   UNL d   1       1.484   4.862  -1.175  0.00  0.00    -0.146 I 
ENDROOT
TORSDOF 0
ENDMDL
