MODEL 1
REMARK minimizedAffinity 4.5264349
REMARK minimizedRMSD -1
REMARK  0 active torsions:
REMARK  status: ('A' for Active; 'I' for Inactive)
ROOT
ATOM      1  C   UNL d   1       2.121   2.327  -2.372  0.00  0.00     0.023 A 
ATOM      2  C1  UNL d   1       1.056   2.485  -1.485  0.00  0.00     0.003 A 
ATOM      3  C2  UNL d   1       0.596   1.395  -0.743  0.00  0.00     0.048 A 
ATOM      4  C3  UNL d   1       1.205   0.150  -0.893  0.00  0.00     0.023 A 
ATOM      5  C4  UNL d   1       2.271  -0.013  -1.780  0.00  0.00     0.048 A 
ATOM      6  C5  UNL d   1       2.728   1.079  -2.519  0.00  0.00     0.003 A 
ATOM      7  I   UNL d   1       0.522  -1.474   0.209  0.00  0.00    -0.146 I 
ENDROOT
TORSDOF 0
ENDMDL
