MODEL 1
REMARK minimizedAffinity 5.41950798
REMARK minimizedRMSD -1
REMARK  0 active torsions:
REMARK  status: ('A' for Active; 'I' for Inactive)
ROOT
ATOM      1  C   UNL d   1       1.723   0.150  -2.275  0.00  0.00     0.023 A 
ATOM      2  C1  UNL d   1       2.435   0.619  -1.171  0.00  0.00     0.003 A 
ATOM      3  C2  UNL d   1       2.321   1.955  -0.781  0.00  0.00     0.048 A 
ATOM      4  C3  UNL d   1       1.492   2.816  -1.499  0.00  0.00     0.023 A 
ATOM      5  C4  UNL d   1       0.777   2.351  -2.604  0.00  0.00     0.048 A 
ATOM      6  C5  UNL d   1       0.895   1.015  -2.991  0.00  0.00     0.003 A 
ATOM      7  I   UNL d   1       1.320   4.805  -0.920  0.00  0.00    -0.146 I 
ENDROOT
TORSDOF 0
ENDMDL
