MODEL 1
REMARK minimizedAffinity -3.80365014
REMARK minimizedRMSD -1
REMARK  0 active torsions:
REMARK  status: ('A' for Active; 'I' for Inactive)
ROOT
ATOM      1  C   UNL d   1       0.642  -0.536   0.066  0.00  0.00     0.023 A 
ATOM      2  C1  UNL d   1       0.071   0.736   0.070  0.00  0.00     0.003 A 
ATOM      3  C2  UNL d   1      -1.276   0.898   0.401  0.00  0.00     0.048 A 
ATOM      4  C3  UNL d   1      -2.046  -0.218   0.728  0.00  0.00     0.023 A 
ATOM      5  C4  UNL d   1      -1.479  -1.493   0.726  0.00  0.00     0.048 A 
ATOM      6  C5  UNL d   1      -0.132  -1.650   0.394  0.00  0.00     0.003 A 
ATOM      7  I   UNL d   1      -4.051   0.020   1.222  0.00  0.00    -0.146 I 
ENDROOT
TORSDOF 0
ENDMDL
