MODEL 1
REMARK minimizedAffinity -1.30062819
REMARK minimizedRMSD -1
REMARK  0 active torsions:
REMARK  status: ('A' for Active; 'I' for Inactive)
ROOT
ATOM      1  C   UNL d   1      -3.950   5.254  -5.925  0.00  0.00     0.023 A 
ATOM      2  C1  UNL d   1      -3.139   4.120  -5.903  0.00  0.00     0.003 A 
ATOM      3  C2  UNL d   1      -3.715   2.848  -5.924  0.00  0.00     0.048 A 
ATOM      4  C3  UNL d   1      -5.102   2.718  -5.968  0.00  0.00     0.023 A 
ATOM      5  C4  UNL d   1      -5.918   3.850  -5.992  0.00  0.00     0.048 A 
ATOM      6  C5  UNL d   1      -5.338   5.120  -5.970  0.00  0.00     0.003 A 
ATOM      7  I   UNL d   1      -5.962   0.825  -6.000  0.00  0.00    -0.146 I 
ENDROOT
TORSDOF 0
ENDMDL
