MODEL 1
REMARK minimizedAffinity -1.96393621
REMARK minimizedRMSD -1
REMARK  0 active torsions:
REMARK  status: ('A' for Active; 'I' for Inactive)
ROOT
ATOM      1  C   UNL d   1      -2.240   3.554  -5.708  0.00  0.00     0.023 A 
ATOM      2  C1  UNL d   1      -1.507   2.386  -5.917  0.00  0.00     0.003 A 
ATOM      3  C2  UNL d   1      -2.162   1.155  -6.000  0.00  0.00     0.048 A 
ATOM      4  C3  UNL d   1      -3.549   1.100  -5.874  0.00  0.00     0.023 A 
ATOM      5  C4  UNL d   1      -4.287   2.266  -5.666  0.00  0.00     0.048 A 
ATOM      6  C5  UNL d   1      -3.628   3.495  -5.583  0.00  0.00     0.003 A 
ATOM      7  I   UNL d   1      -4.525  -0.731  -5.998  0.00  0.00    -0.146 I 
ENDROOT
TORSDOF 0
ENDMDL
