MODEL 1
REMARK minimizedAffinity 1.78850234
REMARK minimizedRMSD -1
REMARK  0 active torsions:
REMARK  status: ('A' for Active; 'I' for Inactive)
ROOT
ATOM      1  C   UNL d   1       2.671   1.419  -1.052  0.00  0.00     0.023 A 
ATOM      2  C1  UNL d   1       2.986   0.123  -1.461  0.00  0.00     0.003 A 
ATOM      3  C2  UNL d   1       2.172  -0.946  -1.082  0.00  0.00     0.048 A 
ATOM      4  C3  UNL d   1       1.046  -0.713  -0.294  0.00  0.00     0.023 A 
ATOM      5  C4  UNL d   1       0.727   0.582   0.117  0.00  0.00     0.048 A 
ATOM      6  C5  UNL d   1       1.543   1.649  -0.264  0.00  0.00     0.003 A 
ATOM      7  I   UNL d   1      -0.167  -2.304   0.272  0.00  0.00    -0.146 I 
ENDROOT
TORSDOF 0
ENDMDL
