MODEL 1
REMARK minimizedAffinity -1.55491769
REMARK minimizedRMSD -1
REMARK  0 active torsions:
REMARK  status: ('A' for Active; 'I' for Inactive)
ROOT
ATOM      1  C   UNL d   1       0.792   0.052  -0.103  0.00  0.00     0.023 A 
ATOM      2  C1  UNL d   1       0.369   1.364   0.115  0.00  0.00     0.003 A 
ATOM      3  C2  UNL d   1      -0.890   1.610   0.666  0.00  0.00     0.048 A 
ATOM      4  C3  UNL d   1      -1.720   0.541   0.999  0.00  0.00     0.023 A 
ATOM      5  C4  UNL d   1      -1.301  -0.773   0.784  0.00  0.00     0.048 A 
ATOM      6  C5  UNL d   1      -0.042  -1.015   0.231  0.00  0.00     0.003 A 
ATOM      7  I   UNL d   1      -3.595   0.905   1.820  0.00  0.00    -0.146 I 
ENDROOT
TORSDOF 0
ENDMDL
