MODEL 1
REMARK minimizedAffinity -3.054178
REMARK minimizedRMSD -1
REMARK  0 active torsions:
REMARK  status: ('A' for Active; 'I' for Inactive)
ROOT
ATOM      1  C   UNL d   1      -0.797  -1.869   0.732  0.00  0.00     0.023 A 
ATOM      2  C1  UNL d   1      -2.183  -1.979   0.618  0.00  0.00     0.003 A 
ATOM      3  C2  UNL d   1      -3.004  -0.924   1.021  0.00  0.00     0.048 A 
ATOM      4  C3  UNL d   1      -2.433   0.239   1.536  0.00  0.00     0.023 A 
ATOM      5  C4  UNL d   1      -1.046   0.354   1.651  0.00  0.00     0.048 A 
ATOM      6  C5  UNL d   1      -0.229  -0.704   1.248  0.00  0.00     0.003 A 
ATOM      7  I   UNL d   1      -3.653   1.810   2.136  0.00  0.00    -0.146 I 
ENDROOT
TORSDOF 0
ENDMDL
