MODEL 1
REMARK minimizedAffinity -3.935745
REMARK minimizedRMSD -1
REMARK  1 active torsions:
REMARK  status: ('A' for Active; 'I' for Inactive)
REMARK    1  A    between atoms: C1_2  and  C2_3 
ROOT
ATOM      1  C2  UNL d   1      -1.653   1.502   1.573  0.00  0.00    -0.076 A 
ATOM      2  C3  UNL d   1      -0.456   2.059   1.090  0.00  0.00     0.004 A 
ATOM      3  C4  UNL d   1       0.656   1.258   0.834  0.00  0.00    -0.003 A 
ATOM      4  C5  UNL d   1       0.588  -0.113   1.056  0.00  0.00     0.000 A 
ATOM      5  C6  UNL d   1      -0.597  -0.685   1.519  0.00  0.00     0.000 A 
ATOM      6  C7  UNL d   1      -1.732   0.106   1.766  0.00  0.00    -0.073 A 
ATOM      7  C8  UNL d   1      -2.982  -0.562   2.269  0.00  0.00     0.078 C 
ENDROOT
BRANCH   1   8
ATOM      8  C1  UNL d   1      -2.817   2.424   1.857  0.00  0.00     0.053 C 
ATOM      9  C   UNL d   1      -3.505   2.104   3.176  0.00  0.00     0.018 C 
ENDBRANCH   1   8
TORSDOF 1
ENDMDL
