MODEL 1
REMARK minimizedAffinity 1.49082172
REMARK minimizedRMSD -1
REMARK  1 active torsions:
REMARK  status: ('A' for Active; 'I' for Inactive)
REMARK    1  A    between atoms: C1_2  and  C2_3 
ROOT
ATOM      1  C2  UNL d   1      -0.917   0.160   2.027  0.00  0.00    -0.076 A 
ATOM      2  C3  UNL d   1      -1.927   1.136   2.093  0.00  0.00     0.004 A 
ATOM      3  C4  UNL d   1      -1.647   2.476   1.832  0.00  0.00    -0.003 A 
ATOM      4  C5  UNL d   1      -0.354   2.862   1.499  0.00  0.00     0.000 A 
ATOM      5  C6  UNL d   1       0.657   1.905   1.411  0.00  0.00     0.000 A 
ATOM      6  C7  UNL d   1       0.388   0.547   1.656  0.00  0.00    -0.073 A 
ATOM      7  C8  UNL d   1       1.517  -0.442   1.553  0.00  0.00     0.078 C 
ENDROOT
BRANCH   1   8
ATOM      8  C1  UNL d   1      -1.274  -1.274   2.347  0.00  0.00     0.053 C 
ATOM      9  C   UNL d   1      -2.570  -1.390   3.134  0.00  0.00     0.018 C 
ENDBRANCH   1   8
TORSDOF 1
ENDMDL
