MODEL 1
REMARK minimizedAffinity 7.93923998
REMARK minimizedRMSD -1
REMARK  1 active torsions:
REMARK  status: ('A' for Active; 'I' for Inactive)
REMARK    1  A    between atoms: C1_2  and  C2_3 
ROOT
ATOM      1  C2  UNL d   1      -0.629   0.145   2.142  0.00  0.00    -0.076 A 
ATOM      2  C3  UNL d   1       0.515  -0.259   1.432  0.00  0.00     0.004 A 
ATOM      3  C4  UNL d   1       1.315   0.672   0.771  0.00  0.00    -0.003 A 
ATOM      4  C5  UNL d   1       0.983   2.021   0.808  0.00  0.00     0.000 A 
ATOM      5  C6  UNL d   1      -0.139   2.442   1.522  0.00  0.00     0.000 A 
ATOM      6  C7  UNL d   1      -0.947   1.518   2.208  0.00  0.00    -0.073 A 
ATOM      7  C8  UNL d   1      -2.148   2.026   2.956  0.00  0.00     0.078 C 
ENDROOT
BRANCH   1   8
ATOM      8  C1  UNL d   1      -1.473  -0.913   2.817  0.00  0.00     0.053 C 
ATOM      9  C   UNL d   1      -0.921  -2.315   2.616  0.00  0.00     0.018 C 
ENDBRANCH   1   8
TORSDOF 1
ENDMDL
