MODEL 1
REMARK minimizedAffinity 0.439237088
REMARK minimizedRMSD -1
REMARK  1 active torsions:
REMARK  status: ('A' for Active; 'I' for Inactive)
REMARK    1  A    between atoms: C1_2  and  C2_3 
ROOT
ATOM      1  C2  UNL d   1      -1.572   1.622   1.908  0.00  0.00    -0.076 A 
ATOM      2  C3  UNL d   1      -0.374   1.133   2.457  0.00  0.00     0.004 A 
ATOM      3  C4  UNL d   1       0.862   1.615   2.028  0.00  0.00    -0.003 A 
ATOM      4  C5  UNL d   1       0.919   2.593   1.042  0.00  0.00     0.000 A 
ATOM      5  C6  UNL d   1      -0.260   3.102   0.498  0.00  0.00     0.000 A 
ATOM      6  C7  UNL d   1      -1.514   2.640   0.931  0.00  0.00    -0.073 A 
ATOM      7  C8  UNL d   1      -2.753   3.219   0.306  0.00  0.00     0.078 C 
ENDROOT
BRANCH   1   8
ATOM      8  C1  UNL d   1      -2.881   1.043   2.394  0.00  0.00     0.053 C 
ATOM      9  C   UNL d   1      -2.841  -0.474   2.506  0.00  0.00     0.018 C 
ENDBRANCH   1   8
TORSDOF 1
ENDMDL
