MODEL 1
REMARK minimizedAffinity 1.21897459
REMARK minimizedRMSD -1
REMARK  1 active torsions:
REMARK  status: ('A' for Active; 'I' for Inactive)
REMARK    1  A    between atoms: C1_2  and  C2_3 
ROOT
ATOM      1  C2  UNL d   1      -0.893   0.387   1.207  0.00  0.00    -0.076 A 
ATOM      2  C3  UNL d   1      -0.854   1.707   0.724  0.00  0.00     0.004 A 
ATOM      3  C4  UNL d   1       0.359   2.365   0.530  0.00  0.00    -0.003 A 
ATOM      4  C5  UNL d   1       1.554   1.713   0.814  0.00  0.00     0.000 A 
ATOM      5  C6  UNL d   1       1.535   0.398   1.276  0.00  0.00     0.000 A 
ATOM      6  C7  UNL d   1       0.322  -0.286   1.462  0.00  0.00    -0.073 A 
ATOM      7  C8  UNL d   1       0.360  -1.701   1.969  0.00  0.00     0.078 C 
ENDROOT
BRANCH   1   8
ATOM      8  C1  UNL d   1      -2.239  -0.266   1.423  0.00  0.00     0.053 C 
ATOM      9  C   UNL d   1      -3.097   0.487   2.429  0.00  0.00     0.018 C 
ENDBRANCH   1   8
TORSDOF 1
ENDMDL
