MODEL 1
REMARK minimizedAffinity 7.75766897
REMARK minimizedRMSD -1
REMARK  1 active torsions:
REMARK  status: ('A' for Active; 'I' for Inactive)
REMARK    1  A    between atoms: C1_2  and  C2_3 
ROOT
ATOM      1  C2  UNL d   1       0.873   2.372   1.149  0.00  0.00    -0.076 A 
ATOM      2  C3  UNL d   1      -0.213   3.249   1.313  0.00  0.00     0.004 A 
ATOM      3  C4  UNL d   1      -1.448   2.786   1.765  0.00  0.00    -0.003 A 
ATOM      4  C5  UNL d   1      -1.616   1.438   2.061  0.00  0.00     0.000 A 
ATOM      5  C6  UNL d   1      -0.545   0.556   1.921  0.00  0.00     0.000 A 
ATOM      6  C7  UNL d   1       0.711   1.010   1.481  0.00  0.00    -0.073 A 
ATOM      7  C8  UNL d   1       1.829   0.014   1.342  0.00  0.00     0.078 C 
ENDROOT
BRANCH   1   8
ATOM      8  C1  UNL d   1       2.180   2.926   0.629  0.00  0.00     0.053 C 
ATOM      9  C   UNL d   1       2.364   4.398   0.967  0.00  0.00     0.018 C 
ENDBRANCH   1   8
TORSDOF 1
ENDMDL
