MODEL 1
REMARK minimizedAffinity 8.73877525
REMARK minimizedRMSD -1
REMARK  1 active torsions:
REMARK  status: ('A' for Active; 'I' for Inactive)
REMARK    1  A    between atoms: C1_2  and  C2_3 
ROOT
ATOM      1  C2  UNL d   1      -2.174  -2.644   0.168  0.00  0.00    -0.076 A 
ATOM      2  C3  UNL d   1      -1.474  -3.774  -0.288  0.00  0.00     0.004 A 
ATOM      3  C4  UNL d   1      -0.467  -4.354   0.482  0.00  0.00    -0.003 A 
ATOM      4  C5  UNL d   1      -0.145  -3.813   1.722  0.00  0.00     0.000 A 
ATOM      5  C6  UNL d   1      -0.841  -2.703   2.198  0.00  0.00     0.000 A 
ATOM      6  C7  UNL d   1      -1.869  -2.116   1.441  0.00  0.00    -0.073 A 
ATOM      7  C8  UNL d   1      -2.583  -0.916   2.001  0.00  0.00     0.078 C 
ENDROOT
BRANCH   1   8
ATOM      8  C1  UNL d   1      -3.237  -2.042  -0.723  0.00  0.00     0.053 C 
ATOM      9  C   UNL d   1      -2.682  -1.580  -2.061  0.00  0.00     0.018 C 
ENDBRANCH   1   8
TORSDOF 1
ENDMDL
