MODEL 1
REMARK minimizedAffinity 6.05014944
REMARK minimizedRMSD -1
REMARK  1 active torsions:
REMARK  status: ('A' for Active; 'I' for Inactive)
REMARK    1  A    between atoms: C1_2  and  C2_3 
ROOT
ATOM      1  C2  UNL d   1      -1.283   0.355   2.092  0.00  0.00    -0.076 A 
ATOM      2  C3  UNL d   1      -2.402   1.204   2.150  0.00  0.00     0.004 A 
ATOM      3  C4  UNL d   1      -2.287   2.562   1.857  0.00  0.00    -0.003 A 
ATOM      4  C5  UNL d   1      -1.052   3.093   1.502  0.00  0.00     0.000 A 
ATOM      5  C6  UNL d   1       0.065   2.262   1.423  0.00  0.00     0.000 A 
ATOM      6  C7  UNL d   1      -0.037   0.888   1.699  0.00  0.00    -0.073 A 
ATOM      7  C8  UNL d   1       1.202   0.040   1.604  0.00  0.00     0.078 C 
ENDROOT
BRANCH   1   8
ATOM      8  C1  UNL d   1      -1.462  -1.104   2.447  0.00  0.00     0.053 C 
ATOM      9  C   UNL d   1      -2.878  -1.423   2.901  0.00  0.00     0.018 C 
ENDBRANCH   1   8
TORSDOF 1
ENDMDL
