MODEL 1
REMARK minimizedAffinity 5.2232914
REMARK minimizedRMSD -1
REMARK  1 active torsions:
REMARK  status: ('A' for Active; 'I' for Inactive)
REMARK    1  A    between atoms: C1_2  and  C2_3 
ROOT
ATOM      1  C2  UNL d   1      -3.295  -2.551  -0.450  0.00  0.00    -0.076 A 
ATOM      2  C3  UNL d   1      -3.532  -1.375  -1.184  0.00  0.00     0.004 A 
ATOM      3  C4  UNL d   1      -3.418  -1.361  -2.573  0.00  0.00    -0.003 A 
ATOM      4  C5  UNL d   1      -3.066  -2.523  -3.251  0.00  0.00     0.000 A 
ATOM      5  C6  UNL d   1      -2.845  -3.703  -2.540  0.00  0.00     0.000 A 
ATOM      6  C7  UNL d   1      -2.972  -3.738  -1.141  0.00  0.00    -0.073 A 
ATOM      7  C8  UNL d   1      -2.716  -5.036  -0.425  0.00  0.00     0.078 C 
ENDROOT
BRANCH   1   8
ATOM      8  C1  UNL d   1      -3.408  -2.499   1.057  0.00  0.00     0.053 C 
ATOM      9  C   UNL d   1      -2.314  -1.656   1.694  0.00  0.00     0.018 C 
ENDBRANCH   1   8
TORSDOF 1
ENDMDL
