MODEL 1
REMARK minimizedAffinity -0.181887314
REMARK minimizedRMSD -1
REMARK  1 active torsions:
REMARK  status: ('A' for Active; 'I' for Inactive)
REMARK    1  A    between atoms: C1_2  and  C2_3 
ROOT
ATOM      1  C2  UNL d   1       0.258   2.130   1.084  0.00  0.00    -0.076 A 
ATOM      2  C3  UNL d   1       1.190   1.196   1.568  0.00  0.00     0.004 A 
ATOM      3  C4  UNL d   1       0.855  -0.150   1.700  0.00  0.00    -0.003 A 
ATOM      4  C5  UNL d   1      -0.419  -0.584   1.348  0.00  0.00     0.000 A 
ATOM      5  C6  UNL d   1      -1.350   0.325   0.850  0.00  0.00     0.000 A 
ATOM      6  C7  UNL d   1      -1.023   1.684   0.696  0.00  0.00    -0.073 A 
ATOM      7  C8  UNL d   1      -2.069   2.622   0.159  0.00  0.00     0.078 C 
ENDROOT
BRANCH   1   8
ATOM      8  C1  UNL d   1       0.670   3.582   0.989  0.00  0.00     0.053 C 
ATOM      9  C   UNL d   1       2.133   3.749   0.605  0.00  0.00     0.018 C 
ENDBRANCH   1   8
TORSDOF 1
ENDMDL
