MODEL 1
REMARK minimizedAffinity -1.23545635
REMARK minimizedRMSD -1
REMARK  1 active torsions:
REMARK  status: ('A' for Active; 'I' for Inactive)
REMARK    1  A    between atoms: C1_2  and  C2_3 
ROOT
ATOM      1  C2  UNL d   1      -0.132  -0.445   2.731  0.00  0.00    -0.076 A 
ATOM      2  C3  UNL d   1      -1.131   0.197   1.978  0.00  0.00     0.004 A 
ATOM      3  C4  UNL d   1      -0.828   1.295   1.174  0.00  0.00    -0.003 A 
ATOM      4  C5  UNL d   1       0.478   1.768   1.110  0.00  0.00     0.000 A 
ATOM      5  C6  UNL d   1       1.484   1.131   1.836  0.00  0.00     0.000 A 
ATOM      6  C7  UNL d   1       1.199   0.013   2.638  0.00  0.00    -0.073 A 
ATOM      7  C8  UNL d   1       2.322  -0.630   3.405  0.00  0.00     0.078 C 
ENDROOT
BRANCH   1   8
ATOM      8  C1  UNL d   1      -0.525  -1.615   3.606  0.00  0.00     0.053 C 
ATOM      9  C   UNL d   1      -1.940  -1.488   4.147  0.00  0.00     0.018 C 
ENDBRANCH   1   8
TORSDOF 1
ENDMDL
