MODEL 1
REMARK minimizedAffinity -0.967236996
REMARK minimizedRMSD -1
REMARK  0 active torsions:
REMARK  status: ('A' for Active; 'I' for Inactive)
ROOT
ATOM      1  N1  IND d   1      -0.603   1.579   0.375  0.00  0.00    -0.196 N 
ATOM      2  C2  IND d   1       0.007   2.245  -0.651  0.00  0.00     0.054 A 
ATOM      3  C3  IND d   1       0.740   1.389  -1.398  0.00  0.00    -0.031 A 
ATOM      4  C4  IND d   1       0.999  -1.163  -1.179  0.00  0.00     0.051 A 
ATOM      5  C5  IND d   1       0.662  -2.215  -0.375  0.00  0.00    -0.031 A 
ATOM      6  C6  IND d   1      -0.132  -2.053   0.742  0.00  0.00     0.015 A 
ATOM      7  C7  IND d   1      -0.631  -0.830   1.091  0.00  0.00    -0.016 A 
ATOM      8  C8  IND d   1      -0.285   0.242   0.280  0.00  0.00    -0.047 A 
ATOM      9  C9  IND d   1       0.556   0.091  -0.831  0.00  0.00    -0.096 A 
ATOM     10  HN1 IND d   1      -1.102   1.935   0.978  0.00  0.00     0.298 HD
ENDROOT
TORSDOF 0
ENDMDL
