MODEL 1
REMARK minimizedAffinity -5.90042686
REMARK minimizedRMSD -1
REMARK  0 active torsions:
REMARK  status: ('A' for Active; 'I' for Inactive)
ROOT
ATOM      1  N1  IND d   1       0.024   0.146  -1.099  0.00  0.00    -0.196 N 
ATOM      2  C2  IND d   1      -0.362   0.795   0.040  0.00  0.00     0.054 A 
ATOM      3  C3  IND d   1      -0.659  -0.097   1.012  0.00  0.00    -0.031 A 
ATOM      4  C4  IND d   1      -0.485  -2.665   0.983  0.00  0.00     0.051 A 
ATOM      5  C5  IND d   1      -0.214  -3.717   0.154  0.00  0.00    -0.031 A 
ATOM      6  C6  IND d   1       0.160  -3.532  -1.161  0.00  0.00     0.015 A 
ATOM      7  C7  IND d   1       0.289  -2.281  -1.695  0.00  0.00    -0.016 A 
ATOM      8  C8  IND d   1       0.008  -1.210  -0.858  0.00  0.00    -0.047 A 
ATOM      9  C9  IND d   1      -0.413  -1.393   0.465  0.00  0.00    -0.096 A 
ATOM     10  HN1 IND d   1       0.241   0.522  -1.842  0.00  0.00     0.298 HD
ENDROOT
TORSDOF 0
ENDMDL
