MODEL 1
REMARK minimizedAffinity -1.53217351
REMARK minimizedRMSD -1
REMARK  0 active torsions:
REMARK  status: ('A' for Active; 'I' for Inactive)
ROOT
ATOM      1  N1  IND d   1      -0.022  -2.289  -0.470  0.00  0.00    -0.196 N 
ATOM      2  C2  IND d   1      -0.608  -2.732   0.682  0.00  0.00     0.054 A 
ATOM      3  C3  IND d   1      -1.018  -1.686   1.434  0.00  0.00    -0.031 A 
ATOM      4  C4  IND d   1      -0.922   0.834   0.919  0.00  0.00     0.051 A 
ATOM      5  C5  IND d   1      -0.444   1.729   0.004  0.00  0.00    -0.031 A 
ATOM      6  C6  IND d   1       0.211   1.322  -1.141  0.00  0.00     0.015 A 
ATOM      7  C7  IND d   1       0.402  -0.001  -1.419  0.00  0.00    -0.016 A 
ATOM      8  C8  IND d   1      -0.076  -0.913  -0.489  0.00  0.00    -0.047 A 
ATOM      9  C9  IND d   1      -0.704  -0.504   0.695  0.00  0.00    -0.096 A 
ATOM     10  HN1 IND d   1       0.323  -2.786  -1.081  0.00  0.00     0.298 HD
ENDROOT
TORSDOF 0
ENDMDL
