MODEL 1
REMARK minimizedAffinity -3.30815625
REMARK minimizedRMSD -1
REMARK  0 active torsions:
REMARK  status: ('A' for Active; 'I' for Inactive)
ROOT
ATOM      1  N1  IND d   1       0.130  -2.347   0.826  0.00  0.00    -0.196 N 
ATOM      2  C2  IND d   1       1.006  -2.925  -0.050  0.00  0.00     0.054 A 
ATOM      3  C3  IND d   1       1.377  -2.037  -1.000  0.00  0.00    -0.031 A 
ATOM      4  C4  IND d   1       0.749   0.447  -1.249  0.00  0.00     0.051 A 
ATOM      5  C5  IND d   1      -0.052   1.415  -0.711  0.00  0.00    -0.031 A 
ATOM      6  C6  IND d   1      -0.847   1.175   0.390  0.00  0.00     0.015 A 
ATOM      7  C7  IND d   1      -0.862  -0.045   1.005  0.00  0.00    -0.016 A 
ATOM      8  C8  IND d   1      -0.056  -1.033   0.457  0.00  0.00    -0.047 A 
ATOM      9  C9  IND d   1       0.721  -0.807  -0.687  0.00  0.00    -0.096 A 
ATOM     10  HN1 IND d   1      -0.242  -2.739   1.495  0.00  0.00     0.298 HD
ENDROOT
TORSDOF 0
ENDMDL
