MODEL 1
REMARK minimizedAffinity -4.67135143
REMARK minimizedRMSD -1
REMARK  0 active torsions:
REMARK  status: ('A' for Active; 'I' for Inactive)
ROOT
ATOM      1  N1  IND d   1       1.023  -0.454  -2.721  0.00  0.00    -0.196 N 
ATOM      2  C2  IND d   1       0.667   0.862  -2.621  0.00  0.00     0.054 A 
ATOM      3  C3  IND d   1       0.238   1.140  -1.370  0.00  0.00    -0.031 A 
ATOM      4  C4  IND d   1       0.129  -0.388   0.699  0.00  0.00     0.051 A 
ATOM      5  C5  IND d   1       0.314  -1.683   1.092  0.00  0.00    -0.031 A 
ATOM      6  C6  IND d   1       0.755  -2.655   0.217  0.00  0.00     0.015 A 
ATOM      7  C7  IND d   1       1.041  -2.363  -1.086  0.00  0.00    -0.016 A 
ATOM      8  C8  IND d   1       0.848  -1.049  -1.491  0.00  0.00    -0.047 A 
ATOM      9  C9  IND d   1       0.360  -0.068  -0.618  0.00  0.00    -0.096 A 
ATOM     10  HN1 IND d   1       1.307  -0.845  -3.432  0.00  0.00     0.298 HD
ENDROOT
TORSDOF 0
ENDMDL
