MODEL 1
REMARK minimizedAffinity -4.71026516
REMARK minimizedRMSD -1
REMARK  0 active torsions:
REMARK  status: ('A' for Active; 'I' for Inactive)
ROOT
ATOM      1  N1  IND d   1       0.078  -2.890  -0.862  0.00  0.00    -0.196 N 
ATOM      2  C2  IND d   1      -0.432  -3.675   0.134  0.00  0.00     0.054 A 
ATOM      3  C3  IND d   1      -0.723  -2.925   1.221  0.00  0.00    -0.031 A 
ATOM      4  C4  IND d   1      -0.538  -0.379   1.548  0.00  0.00     0.051 A 
ATOM      5  C5  IND d   1      -0.091   0.757   0.933  0.00  0.00    -0.031 A 
ATOM      6  C6  IND d   1       0.443   0.735  -0.339  0.00  0.00     0.015 A 
ATOM      7  C7  IND d   1       0.540  -0.428  -1.051  0.00  0.00    -0.016 A 
ATOM      8  C8  IND d   1       0.094  -1.584  -0.426  0.00  0.00    -0.047 A 
ATOM      9  C9  IND d   1      -0.410  -1.574   0.881  0.00  0.00    -0.096 A 
ATOM     10  HN1 IND d   1       0.344  -3.167  -1.632  0.00  0.00     0.298 HD
ENDROOT
TORSDOF 0
ENDMDL
