MODEL 1
REMARK minimizedAffinity -1.18115699
REMARK minimizedRMSD -1
REMARK  0 active torsions:
REMARK  status: ('A' for Active; 'I' for Inactive)
ROOT
ATOM      1  N1  IND d   1       0.874  -0.410  -0.033  0.00  0.00    -0.196 N 
ATOM      2  C2  IND d   1      -0.460  -0.686   0.087  0.00  0.00     0.054 A 
ATOM      3  C3  IND d   1      -1.159   0.454   0.288  0.00  0.00    -0.031 A 
ATOM      4  C4  IND d   1      -0.332   2.891   0.355  0.00  0.00     0.051 A 
ATOM      5  C5  IND d   1       0.810   3.641   0.331  0.00  0.00    -0.031 A 
ATOM      6  C6  IND d   1       2.056   3.069   0.178  0.00  0.00     0.015 A 
ATOM      7  C7  IND d   1       2.207   1.719   0.032  0.00  0.00    -0.016 A 
ATOM      8  C8  IND d   1       1.050   0.952   0.064  0.00  0.00    -0.047 A 
ATOM      9  C9  IND d   1      -0.213   1.524   0.261  0.00  0.00    -0.096 A 
ATOM     10  HN1 IND d   1       1.497  -0.991  -0.148  0.00  0.00     0.298 HD
ENDROOT
TORSDOF 0
ENDMDL
