MODEL 1
REMARK minimizedAffinity 1.73152053
REMARK minimizedRMSD -1
REMARK  0 active torsions:
REMARK  status: ('A' for Active; 'I' for Inactive)
ROOT
ATOM      1  N1  IND d   1       2.903   2.377   0.043  0.00  0.00    -0.196 N 
ATOM      2  C2  IND d   1       2.628   3.439   0.858  0.00  0.00     0.054 A 
ATOM      3  C3  IND d   1       1.364   3.353   1.332  0.00  0.00    -0.031 A 
ATOM      4  C4  IND d   1      -0.392   1.504   0.980  0.00  0.00     0.051 A 
ATOM      5  C5  IND d   1      -0.615   0.349   0.285  0.00  0.00    -0.031 A 
ATOM      6  C6  IND d   1       0.343  -0.202  -0.541  0.00  0.00     0.015 A 
ATOM      7  C7  IND d   1       1.570   0.378  -0.695  0.00  0.00    -0.016 A 
ATOM      8  C8  IND d   1       1.798   1.555   0.004  0.00  0.00    -0.047 A 
ATOM      9  C9  IND d   1       0.814   2.142   0.811  0.00  0.00    -0.096 A 
ATOM     10  HN1 IND d   1       3.643   2.244  -0.376  0.00  0.00     0.298 HD
ENDROOT
TORSDOF 0
ENDMDL
