MODEL 1
REMARK minimizedAffinity -6.26729774
REMARK minimizedRMSD -1
REMARK  0 active torsions:
REMARK  status: ('A' for Active; 'I' for Inactive)
ROOT
ATOM      1  N1  IND d   1       0.057   0.464  -1.201  0.00  0.00    -0.196 N 
ATOM      2  C2  IND d   1      -0.369   0.975  -0.007  0.00  0.00     0.054 A 
ATOM      3  C3  IND d   1      -0.701  -0.024   0.841  0.00  0.00    -0.031 A 
ATOM      4  C4  IND d   1      -0.527  -2.572   0.515  0.00  0.00     0.051 A 
ATOM      5  C5  IND d   1      -0.228  -3.520  -0.423  0.00  0.00    -0.031 A 
ATOM      6  C6  IND d   1       0.192  -3.182  -1.693  0.00  0.00     0.015 A 
ATOM      7  C7  IND d   1       0.341  -1.877  -2.071  0.00  0.00    -0.016 A 
ATOM      8  C8  IND d   1       0.031  -0.912  -1.123  0.00  0.00    -0.047 A 
ATOM      9  C9  IND d   1      -0.436  -1.248   0.154  0.00  0.00    -0.096 A 
ATOM     10  HN1 IND d   1       0.299   0.923  -1.886  0.00  0.00     0.298 HD
ENDROOT
TORSDOF 0
ENDMDL
