MODEL 1
REMARK minimizedAffinity -5.71657896
REMARK minimizedRMSD -1
REMARK  0 active torsions:
REMARK  status: ('A' for Active; 'I' for Inactive)
ROOT
ATOM      1  N1  IND d   1       0.553  -2.485  -0.960  0.00  0.00    -0.196 N 
ATOM      2  C2  IND d   1       0.083  -3.311   0.024  0.00  0.00     0.054 A 
ATOM      3  C3  IND d   1      -0.562  -2.594   0.971  0.00  0.00    -0.031 A 
ATOM      4  C4  IND d   1      -1.055  -0.069   1.058  0.00  0.00     0.051 A 
ATOM      5  C5  IND d   1      -0.796   1.103   0.404  0.00  0.00    -0.031 A 
ATOM      6  C6  IND d   1      -0.062   1.138  -0.764  0.00  0.00     0.015 A 
ATOM      7  C7  IND d   1       0.434  -0.003  -1.329  0.00  0.00    -0.016 A 
ATOM      8  C8  IND d   1       0.179  -1.193  -0.663  0.00  0.00    -0.047 A 
ATOM      9  C9  IND d   1      -0.530  -1.231   0.545  0.00  0.00    -0.096 A 
ATOM     10  HN1 IND d   1       1.006  -2.732  -1.648  0.00  0.00     0.298 HD
ENDROOT
TORSDOF 0
ENDMDL
