MODEL 1
REMARK minimizedAffinity -4.26847887
REMARK minimizedRMSD -1
REMARK  0 active torsions:
REMARK  status: ('A' for Active; 'I' for Inactive)
ROOT
ATOM      1  N1  IND d   1       0.070  -1.303  -2.354  0.00  0.00    -0.196 N 
ATOM      2  C2  IND d   1       0.003  -2.625  -2.697  0.00  0.00     0.054 A 
ATOM      3  C3  IND d   1      -0.322  -3.374  -1.619  0.00  0.00    -0.031 A 
ATOM      4  C4  IND d   1      -0.888  -2.630   0.779  0.00  0.00     0.051 A 
ATOM      5  C5  IND d   1      -0.927  -1.526   1.584  0.00  0.00    -0.031 A 
ATOM      6  C6  IND d   1      -0.632  -0.266   1.107  0.00  0.00     0.015 A 
ATOM      7  C7  IND d   1      -0.297  -0.060  -0.202  0.00  0.00    -0.016 A 
ATOM      8  C8  IND d   1      -0.250  -1.179  -1.020  0.00  0.00    -0.047 A 
ATOM      9  C9  IND d   1      -0.506  -2.467  -0.531  0.00  0.00    -0.096 A 
ATOM     10  HN1 IND d   1       0.276  -0.657  -2.883  0.00  0.00     0.298 HD
ENDROOT
TORSDOF 0
ENDMDL
