MODEL 1
REMARK minimizedAffinity -3.90222645
REMARK minimizedRMSD -1
REMARK  0 active torsions:
REMARK  status: ('A' for Active; 'I' for Inactive)
ROOT
ATOM      1  N1  IND d   1       1.632   0.562   0.707  0.00  0.00    -0.196 N 
ATOM      2  C2  IND d   1       0.814   1.601   0.360  0.00  0.00     0.054 A 
ATOM      3  C3  IND d   1      -0.394   1.137  -0.030  0.00  0.00    -0.031 A 
ATOM      4  C4  IND d   1      -1.282  -1.279  -0.079  0.00  0.00     0.051 A 
ATOM      5  C5  IND d   1      -0.890  -2.574   0.113  0.00  0.00    -0.031 A 
ATOM      6  C6  IND d   1       0.387  -2.897   0.523  0.00  0.00     0.015 A 
ATOM      7  C7  IND d   1       1.321  -1.931   0.770  0.00  0.00    -0.016 A 
ATOM      8  C8  IND d   1       0.929  -0.615   0.569  0.00  0.00    -0.047 A 
ATOM      9  C9  IND d   1      -0.352  -0.284   0.112  0.00  0.00    -0.096 A 
ATOM     10  HN1 IND d   1       2.449   0.632   0.968  0.00  0.00     0.298 HD
ENDROOT
TORSDOF 0
ENDMDL
