MODEL 1
REMARK minimizedAffinity -4.06616783
REMARK minimizedRMSD -1
REMARK  0 active torsions:
REMARK  status: ('A' for Active; 'I' for Inactive)
ROOT
ATOM      1  N1  IND d   1       1.657   0.644  -0.227  0.00  0.00    -0.196 N 
ATOM      2  C2  IND d   1       1.225   1.866   0.209  0.00  0.00     0.054 A 
ATOM      3  C3  IND d   1       0.035   1.747   0.840  0.00  0.00    -0.031 A 
ATOM      4  C4  IND d   1      -1.336  -0.369   1.360  0.00  0.00     0.051 A 
ATOM      5  C5  IND d   1      -1.367  -1.716   1.131  0.00  0.00    -0.031 A 
ATOM      6  C6  IND d   1      -0.370  -2.359   0.425  0.00  0.00     0.015 A 
ATOM      7  C7  IND d   1       0.706  -1.676  -0.070  0.00  0.00    -0.016 A 
ATOM      8  C8  IND d   1       0.737  -0.308   0.155  0.00  0.00    -0.047 A 
ATOM      9  C9  IND d   1      -0.293   0.357   0.834  0.00  0.00    -0.096 A 
ATOM     10  HN1 IND d   1       2.381   0.495  -0.666  0.00  0.00     0.298 HD
ENDROOT
TORSDOF 0
ENDMDL
