MODEL 1
REMARK minimizedAffinity -2.9241271
REMARK minimizedRMSD -1
REMARK  0 active torsions:
REMARK  status: ('A' for Active; 'I' for Inactive)
ROOT
ATOM      1  N1  IND d   1       1.313   0.306  -0.652  0.00  0.00    -0.196 N 
ATOM      2  C2  IND d   1      -0.002  -0.068  -0.646  0.00  0.00     0.054 A 
ATOM      3  C3  IND d   1      -0.761   0.889  -0.066  0.00  0.00    -0.031 A 
ATOM      4  C4  IND d   1      -0.068   3.192   0.854  0.00  0.00     0.051 A 
ATOM      5  C5  IND d   1       1.030   3.966   1.102  0.00  0.00    -0.031 A 
ATOM      6  C6  IND d   1       2.304   3.554   0.769  0.00  0.00     0.015 A 
ATOM      7  C7  IND d   1       2.527   2.350   0.163  0.00  0.00    -0.016 A 
ATOM      8  C8  IND d   1       1.415   1.558  -0.084  0.00  0.00    -0.047 A 
ATOM      9  C9  IND d   1       0.124   1.953   0.290  0.00  0.00    -0.096 A 
ATOM     10  HN1 IND d   1       1.966  -0.162  -0.958  0.00  0.00     0.298 HD
ENDROOT
TORSDOF 0
ENDMDL
