MODEL 1
REMARK minimizedAffinity -3.84850645
REMARK minimizedRMSD -1
REMARK  0 active torsions:
REMARK  status: ('A' for Active; 'I' for Inactive)
ROOT
ATOM      1  N1  IND d   1      -0.041  -2.400  -0.911  0.00  0.00    -0.196 N 
ATOM      2  C2  IND d   1      -0.583  -3.152   0.094  0.00  0.00     0.054 A 
ATOM      3  C3  IND d   1      -0.966  -2.359   1.120  0.00  0.00    -0.031 A 
ATOM      4  C4  IND d   1      -0.891   0.207   1.321  0.00  0.00     0.051 A 
ATOM      5  C5  IND d   1      -0.448   1.325   0.673  0.00  0.00    -0.031 A 
ATOM      6  C6  IND d   1       0.164   1.258  -0.562  0.00  0.00     0.015 A 
ATOM      7  C7  IND d   1       0.346   0.065  -1.203  0.00  0.00    -0.016 A 
ATOM      8  C8  IND d   1      -0.097  -1.073  -0.545  0.00  0.00    -0.047 A 
ATOM      9  C9  IND d   1      -0.680  -1.015   0.727  0.00  0.00    -0.096 A 
ATOM     10  HN1 IND d   1       0.282  -2.705  -1.647  0.00  0.00     0.298 HD
ENDROOT
TORSDOF 0
ENDMDL
