MODEL 1
REMARK minimizedAffinity -2.60809278
REMARK minimizedRMSD -1
REMARK  0 active torsions:
REMARK  status: ('A' for Active; 'I' for Inactive)
ROOT
ATOM      1  N1  IND d   1       0.694   0.979  -0.101  0.00  0.00    -0.196 N 
ATOM      2  C2  IND d   1      -0.525   1.591  -0.187  0.00  0.00     0.054 A 
ATOM      3  C3  IND d   1      -1.518   0.679  -0.085  0.00  0.00    -0.031 A 
ATOM      4  C4  IND d   1      -1.372  -1.858   0.327  0.00  0.00     0.051 A 
ATOM      5  C5  IND d   1      -0.472  -2.881   0.438  0.00  0.00    -0.031 A 
ATOM      6  C6  IND d   1       0.889  -2.665   0.376  0.00  0.00     0.015 A 
ATOM      7  C7  IND d   1       1.405  -1.411   0.212  0.00  0.00    -0.016 A 
ATOM      8  C8  IND d   1       0.494  -0.370   0.092  0.00  0.00    -0.047 A 
ATOM      9  C9  IND d   1      -0.889  -0.589   0.112  0.00  0.00    -0.096 A 
ATOM     10  HN1 IND d   1       1.457   1.371  -0.158  0.00  0.00     0.298 HD
ENDROOT
TORSDOF 0
ENDMDL
