MODEL 1
REMARK minimizedAffinity 3.57383418
REMARK minimizedRMSD -1
REMARK  0 active torsions:
REMARK  status: ('A' for Active; 'I' for Inactive)
ROOT
ATOM      1  C   UNL d   1       1.942  -2.337   0.288  0.00  0.00     0.077 C 
ATOM      2  C1  UNL d   1       3.031  -3.011   1.069  0.00  0.00    -0.074 A 
ATOM      3  C2  UNL d   1       3.817  -4.013   0.489  0.00  0.00    -0.005 A 
ATOM      4  C3  UNL d   1       4.832  -4.624   1.224  0.00  0.00     0.006 A 
ATOM      5  C4  UNL d   1       5.072  -4.241   2.544  0.00  0.00    -0.005 A 
ATOM      6  C5  UNL d   1       4.298  -3.240   3.140  0.00  0.00    -0.074 A 
ATOM      7  C6  UNL d   1       4.549  -2.810   4.555  0.00  0.00     0.077 C 
ATOM      8  C7  UNL d   1       3.284  -2.626   2.393  0.00  0.00    -0.001 A 
ENDROOT
TORSDOF 0
ENDMDL
