MODEL 1
REMARK minimizedAffinity 3.43031335
REMARK minimizedRMSD -1
REMARK  0 active torsions:
REMARK  status: ('A' for Active; 'I' for Inactive)
ROOT
ATOM      1  C   UNL d   1      -3.359   3.404  -3.753  0.00  0.00     0.077 C 
ATOM      2  C1  UNL d   1      -3.796   2.175  -4.493  0.00  0.00    -0.074 A 
ATOM      3  C2  UNL d   1      -4.933   2.193  -5.308  0.00  0.00    -0.005 A 
ATOM      4  C3  UNL d   1      -5.323   1.045  -5.998  0.00  0.00     0.006 A 
ATOM      5  C4  UNL d   1      -4.580  -0.131  -5.880  0.00  0.00    -0.005 A 
ATOM      6  C5  UNL d   1      -3.440  -0.167  -5.072  0.00  0.00    -0.074 A 
ATOM      7  C6  UNL d   1      -2.625  -1.420  -4.942  0.00  0.00     0.077 C 
ATOM      8  C7  UNL d   1      -3.051   0.992  -4.387  0.00  0.00    -0.001 A 
ENDROOT
TORSDOF 0
ENDMDL
