MODEL 1
REMARK minimizedAffinity 1.18516302
REMARK minimizedRMSD -1
REMARK  0 active torsions:
REMARK  status: ('A' for Active; 'I' for Inactive)
ROOT
ATOM      1  C   UNL d   1      -4.867   5.999  -3.974  0.00  0.00     0.077 C 
ATOM      2  C1  UNL d   1      -4.037   4.836  -4.429  0.00  0.00    -0.074 A 
ATOM      3  C2  UNL d   1      -3.266   4.916  -5.594  0.00  0.00    -0.005 A 
ATOM      4  C3  UNL d   1      -2.492   3.829  -6.000  0.00  0.00     0.006 A 
ATOM      5  C4  UNL d   1      -2.480   2.654  -5.247  0.00  0.00    -0.005 A 
ATOM      6  C5  UNL d   1      -3.243   2.557  -4.079  0.00  0.00    -0.074 A 
ATOM      7  C6  UNL d   1      -3.234   1.305  -3.253  0.00  0.00     0.077 C 
ATOM      8  C7  UNL d   1      -4.014   3.656  -3.674  0.00  0.00    -0.001 A 
ENDROOT
TORSDOF 0
ENDMDL
