MODEL 1
REMARK minimizedAffinity -1.42003751
REMARK minimizedRMSD -1
REMARK  0 active torsions:
REMARK  status: ('A' for Active; 'I' for Inactive)
ROOT
ATOM      1  C   UNL d   1      -5.783   1.448  -5.209  0.00  0.00     0.077 C 
ATOM      2  C1  UNL d   1      -4.904   0.408  -4.580  0.00  0.00    -0.074 A 
ATOM      3  C2  UNL d   1      -5.130  -0.028  -3.270  0.00  0.00    -0.005 A 
ATOM      4  C3  UNL d   1      -4.310  -1.002  -2.702  0.00  0.00     0.006 A 
ATOM      5  C4  UNL d   1      -3.257  -1.549  -3.435  0.00  0.00    -0.005 A 
ATOM      6  C5  UNL d   1      -3.016  -1.127  -4.746  0.00  0.00    -0.074 A 
ATOM      7  C6  UNL d   1      -1.894  -1.712  -5.552  0.00  0.00     0.077 C 
ATOM      8  C7  UNL d   1      -3.849  -0.152  -5.313  0.00  0.00    -0.001 A 
ENDROOT
TORSDOF 0
ENDMDL
