MODEL 1
REMARK minimizedAffinity 0.95938617
REMARK minimizedRMSD -1
REMARK  1 active torsions:
REMARK  status: ('A' for Active; 'I' for Inactive)
REMARK    1  A    between atoms: C1_2  and  C2_3 
ROOT
ATOM      1  C2  UNL d   1       1.174  -1.453   1.088  0.00  0.00    -0.081 A 
ATOM      2  C3  UNL d   1      -0.152  -1.417   0.641  0.00  0.00     0.006 A 
ATOM      3  C4  UNL d   1      -1.136  -0.773   1.395  0.00  0.00     0.002 A 
ATOM      4  C5  UNL d   1      -0.810  -0.149   2.603  0.00  0.00    -0.080 A 
ATOM      5  C6  UNL d   1      -1.851   0.572   3.407  0.00  0.00     0.076 C 
ATOM      6  C7  UNL d   1       0.512  -0.200   3.059  0.00  0.00     0.002 A 
ATOM      7  C8  UNL d   1       1.496  -0.844   2.306  0.00  0.00     0.006 A 
ENDROOT
BRANCH   1   8
ATOM      8  C1  UNL d   1       2.250  -2.090   0.246  0.00  0.00     0.054 C 
ATOM      9  C   UNL d   1       3.341  -2.703   1.113  0.00  0.00     0.018 C 
ENDBRANCH   1   8
TORSDOF 1
ENDMDL
