MODEL 1
REMARK minimizedAffinity -1.45331872
REMARK minimizedRMSD -1
REMARK  1 active torsions:
REMARK  status: ('A' for Active; 'I' for Inactive)
REMARK    1  A    between atoms: C1_2  and  C2_3 
ROOT
ATOM      1  C2  UNL d   1       2.591   0.823   2.480  0.00  0.00    -0.081 A 
ATOM      2  C3  UNL d   1       2.124  -0.296   3.181  0.00  0.00     0.006 A 
ATOM      3  C4  UNL d   1       2.209  -1.571   2.616  0.00  0.00     0.002 A 
ATOM      4  C5  UNL d   1       2.769  -1.749   1.347  0.00  0.00    -0.080 A 
ATOM      5  C6  UNL d   1       2.894  -3.116   0.742  0.00  0.00     0.076 C 
ATOM      6  C7  UNL d   1       3.220  -0.629   0.640  0.00  0.00     0.002 A 
ATOM      7  C8  UNL d   1       3.135   0.646   1.203  0.00  0.00     0.006 A 
ENDROOT
BRANCH   1   8
ATOM      8  C1  UNL d   1       2.560   2.191   3.113  0.00  0.00     0.054 C 
ATOM      9  C   UNL d   1       2.332   3.277   2.071  0.00  0.00     0.018 C 
ENDBRANCH   1   8
TORSDOF 1
ENDMDL
