MODEL 1
REMARK minimizedAffinity 4.77389383
REMARK minimizedRMSD -1
REMARK  1 active torsions:
REMARK  status: ('A' for Active; 'I' for Inactive)
REMARK    1  A    between atoms: C1_2  and  C2_3 
ROOT
ATOM      1  C2  UNL d   1       1.578  -1.678   2.534  0.00  0.00    -0.081 A 
ATOM      2  C3  UNL d   1       0.359  -2.142   2.026  0.00  0.00     0.006 A 
ATOM      3  C4  UNL d   1      -0.835  -1.494   2.349  0.00  0.00     0.002 A 
ATOM      4  C5  UNL d   1      -0.830  -0.367   3.178  0.00  0.00    -0.080 A 
ATOM      5  C6  UNL d   1      -2.102   0.357   3.507  0.00  0.00     0.076 C 
ATOM      6  C7  UNL d   1       0.387   0.087   3.699  0.00  0.00     0.002 A 
ATOM      7  C8  UNL d   1       1.581  -0.562   3.378  0.00  0.00     0.006 A 
ENDROOT
BRANCH   1   8
ATOM      8  C1  UNL d   1       2.875  -2.336   2.136  0.00  0.00     0.054 C 
ATOM      9  C   UNL d   1       3.057  -2.330   0.625  0.00  0.00     0.018 C 
ENDBRANCH   1   8
TORSDOF 1
ENDMDL
