MODEL 1
REMARK minimizedAffinity 15.6055336
REMARK minimizedRMSD -1
REMARK  0 active torsions:
REMARK  status: ('A' for Active; 'I' for Inactive)
ROOT
ATOM      1  O1  BZF d   1       0.818  -0.294   2.409  0.00  0.00    -0.204 OA
ATOM      2  C2  BZF d   1       2.157  -0.592   2.565  0.00  0.00     0.174 A 
ATOM      3  C3  BZF d   1       2.572  -1.446   1.608  0.00  0.00    -0.012 A 
ATOM      4  C3A BZF d   1       1.443  -1.625   0.747  0.00  0.00    -0.107 A 
ATOM      5  C4  BZF d   1       1.236  -2.347  -0.393  0.00  0.00     0.055 A 
ATOM      6  C5  BZF d   1      -0.004  -2.365  -0.948  0.00  0.00    -0.016 A 
ATOM      7  C6  BZF d   1      -1.060  -1.677  -0.387  0.00  0.00     0.022 A 
ATOM      8  C7  BZF d   1      -0.903  -0.942   0.741  0.00  0.00     0.029 A 
ATOM      9  C7A BZF d   1       0.358  -0.895   1.285  0.00  0.00     0.058 A 
ENDROOT
TORSDOF 0
ENDMDL
