MODEL 1
REMARK minimizedAffinity 8.14469051
REMARK minimizedRMSD -1
REMARK  0 active torsions:
REMARK  status: ('A' for Active; 'I' for Inactive)
ROOT
ATOM      1  O1  BZF d   1       3.156  -5.029   5.217  0.00  0.00    -0.204 OA
ATOM      2  C2  BZF d   1       1.886  -5.546   5.052  0.00  0.00     0.174 A 
ATOM      3  C3  BZF d   1       1.020  -4.579   4.684  0.00  0.00    -0.012 A 
ATOM      4  C3A BZF d   1       1.816  -3.401   4.526  0.00  0.00    -0.107 A 
ATOM      5  C4  BZF d   1       1.531  -2.117   4.158  0.00  0.00     0.055 A 
ATOM      6  C5  BZF d   1       2.524  -1.189   4.174  0.00  0.00    -0.016 A 
ATOM      7  C6  BZF d   1       3.810  -1.509   4.556  0.00  0.00     0.022 A 
ATOM      8  C7  BZF d   1       4.143  -2.770   4.924  0.00  0.00     0.029 A 
ATOM      9  C7A BZF d   1       3.149  -3.717   4.878  0.00  0.00     0.058 A 
ENDROOT
TORSDOF 0
ENDMDL
