MODEL 1
REMARK minimizedAffinity 5.69145966
REMARK minimizedRMSD -1
REMARK  0 active torsions:
REMARK  status: ('A' for Active; 'I' for Inactive)
ROOT
ATOM      1  O1  BZF d   1       5.178  -1.458   4.004  0.00  0.00    -0.204 OA
ATOM      2  C2  BZF d   1       5.997  -1.877   5.034  0.00  0.00     0.174 A 
ATOM      3  C3  BZF d   1       5.279  -2.484   6.000  0.00  0.00    -0.012 A 
ATOM      4  C3A BZF d   1       3.938  -2.525   5.502  0.00  0.00    -0.107 A 
ATOM      5  C4  BZF d   1       2.767  -3.020   6.000  0.00  0.00     0.055 A 
ATOM      6  C5  BZF d   1       1.619  -2.834   5.296  0.00  0.00    -0.016 A 
ATOM      7  C6  BZF d   1       1.605  -2.153   4.096  0.00  0.00     0.022 A 
ATOM      8  C7  BZF d   1       2.743  -1.648   3.560  0.00  0.00     0.029 A 
ATOM      9  C7A BZF d   1       3.910  -1.864   4.253  0.00  0.00     0.058 A 
ENDROOT
TORSDOF 0
ENDMDL
