MODEL 1
REMARK minimizedAffinity 2.74157023
REMARK minimizedRMSD -1
REMARK  0 active torsions:
REMARK  status: ('A' for Active; 'I' for Inactive)
ROOT
ATOM      1  O1  BZF d   1       5.693  -1.066   3.374  0.00  0.00    -0.204 OA
ATOM      2  C2  BZF d   1       5.997  -1.873   4.453  0.00  0.00     0.174 A 
ATOM      3  C3  BZF d   1       4.876  -2.398   4.988  0.00  0.00    -0.012 A 
ATOM      4  C3A BZF d   1       3.812  -1.961   4.137  0.00  0.00    -0.107 A 
ATOM      5  C4  BZF d   1       2.462  -2.168   4.139  0.00  0.00     0.055 A 
ATOM      6  C5  BZF d   1       1.696  -1.539   3.210  0.00  0.00    -0.016 A 
ATOM      7  C6  BZF d   1       2.245  -0.692   2.269  0.00  0.00     0.022 A 
ATOM      8  C7  BZF d   1       3.579  -0.459   2.224  0.00  0.00     0.029 A 
ATOM      9  C7A BZF d   1       4.360  -1.119   3.141  0.00  0.00     0.058 A 
ENDROOT
TORSDOF 0
ENDMDL
