MODEL 1
REMARK minimizedAffinity -2.08364773
REMARK minimizedRMSD -1
REMARK  0 active torsions:
REMARK  status: ('A' for Active; 'I' for Inactive)
ROOT
ATOM      1  O1  BZF d   1       5.864  -1.593   4.310  0.00  0.00    -0.204 OA
ATOM      2  C2  BZF d   1       5.991  -2.253   5.516  0.00  0.00     0.174 A 
ATOM      3  C3  BZF d   1       4.781  -2.603   6.000  0.00  0.00    -0.012 A 
ATOM      4  C3A BZF d   1       3.845  -2.213   4.990  0.00  0.00    -0.107 A 
ATOM      5  C4  BZF d   1       2.488  -2.310   4.881  0.00  0.00     0.055 A 
ATOM      6  C5  BZF d   1       1.871  -1.766   3.799  0.00  0.00    -0.016 A 
ATOM      7  C6  BZF d   1       2.580  -1.113   2.812  0.00  0.00     0.022 A 
ATOM      8  C7  BZF d   1       3.929  -0.995   2.874  0.00  0.00     0.029 A 
ATOM      9  C7A BZF d   1       4.558  -1.573   3.950  0.00  0.00     0.058 A 
ENDROOT
TORSDOF 0
ENDMDL
