MODEL 1
REMARK minimizedAffinity 6.57384539
REMARK minimizedRMSD -1
REMARK  0 active torsions:
REMARK  status: ('A' for Active; 'I' for Inactive)
ROOT
ATOM      1  O1  BZF d   1       5.391  -0.448   2.092  0.00  0.00    -0.204 OA
ATOM      2  C2  BZF d   1       5.998  -1.474   2.791  0.00  0.00     0.174 A 
ATOM      3  C3  BZF d   1       5.081  -2.212   3.449  0.00  0.00    -0.012 A 
ATOM      4  C3A BZF d   1       3.815  -1.665   3.069  0.00  0.00    -0.107 A 
ATOM      5  C4  BZF d   1       2.524  -1.982   3.382  0.00  0.00     0.055 A 
ATOM      6  C5  BZF d   1       1.518  -1.205   2.901  0.00  0.00    -0.016 A 
ATOM      7  C6  BZF d   1       1.767  -0.102   2.110  0.00  0.00     0.022 A 
ATOM      8  C7  BZF d   1       3.031   0.248   1.768  0.00  0.00     0.029 A 
ATOM      9  C7A BZF d   1       4.047  -0.554   2.226  0.00  0.00     0.058 A 
ENDROOT
TORSDOF 0
ENDMDL
