MODEL 1
REMARK minimizedAffinity 15.0134211
REMARK minimizedRMSD -1
REMARK  0 active torsions:
REMARK  status: ('A' for Active; 'I' for Inactive)
ROOT
ATOM      1  C   UNL d   1      -3.365   4.315   5.528  0.00  0.00     0.020 A 
ATOM      2  C1  UNL d   1      -2.624   4.211   4.351  0.00  0.00     0.020 A 
ATOM      3  C2  UNL d   1      -2.601   3.006   3.645  0.00  0.00     0.034 A 
ATOM      4  C3  UNL d   1      -3.318   1.901   4.115  0.00  0.00     0.017 A 
ATOM      5  C4  UNL d   1      -4.061   2.006   5.297  0.00  0.00     0.017 A 
ATOM      6  C5  UNL d   1      -4.081   3.214   6.000  0.00  0.00     0.034 A 
ATOM      7 Cl   UNL d   1      -4.972   0.685   5.940  0.00  0.00    -0.070 Cl
ATOM      8 Cl1  UNL d   1      -3.244   0.442   3.191  0.00  0.00    -0.070 Cl
ENDROOT
TORSDOF 0
ENDMDL
