MODEL 1
REMARK minimizedAffinity 19.9740524
REMARK minimizedRMSD -1
REMARK  0 active torsions:
REMARK  status: ('A' for Active; 'I' for Inactive)
ROOT
ATOM      1  C   UNL d   1      -4.067   1.057  -3.771  0.00  0.00     0.020 A 
ATOM      2  C1  UNL d   1      -2.957   1.759  -3.303  0.00  0.00     0.020 A 
ATOM      3  C2  UNL d   1      -2.772   3.095  -3.666  0.00  0.00     0.034 A 
ATOM      4  C3  UNL d   1      -3.698   3.733  -4.500  0.00  0.00     0.017 A 
ATOM      5  C4  UNL d   1      -4.812   3.027  -4.969  0.00  0.00     0.017 A 
ATOM      6  C5  UNL d   1      -4.992   1.690  -4.602  0.00  0.00     0.034 A 
ATOM      7 Cl   UNL d   1      -5.998   3.746  -6.000  0.00  0.00    -0.070 Cl
ATOM      8 Cl1  UNL d   1      -3.407   5.386  -4.908  0.00  0.00    -0.070 Cl
ENDROOT
TORSDOF 0
ENDMDL
