MODEL 1
REMARK minimizedAffinity 11.3739529
REMARK minimizedRMSD -1
REMARK  0 active torsions:
REMARK  status: ('A' for Active; 'I' for Inactive)
ROOT
ATOM      1  C   UNL d   1      -3.193   1.094   3.891  0.00  0.00     0.020 A 
ATOM      2  C1  UNL d   1      -4.194   1.195   2.925  0.00  0.00     0.020 A 
ATOM      3  C2  UNL d   1      -4.193   0.334   1.826  0.00  0.00     0.034 A 
ATOM      4  C3  UNL d   1      -3.190  -0.631   1.688  0.00  0.00     0.017 A 
ATOM      5  C4  UNL d   1      -2.185  -0.732   2.658  0.00  0.00     0.017 A 
ATOM      6  C5  UNL d   1      -2.191   0.132   3.757  0.00  0.00     0.034 A 
ATOM      7 Cl   UNL d   1      -0.913  -1.898   2.557  0.00  0.00    -0.070 Cl
ATOM      8 Cl1  UNL d   1      -3.251  -1.662   0.303  0.00  0.00    -0.070 Cl
ENDROOT
TORSDOF 0
ENDMDL
