MODEL 1
REMARK minimizedAffinity 14.6435146
REMARK minimizedRMSD -1
REMARK  0 active torsions:
REMARK  status: ('A' for Active; 'I' for Inactive)
ROOT
ATOM      1  C   UNL d   1      -1.438   0.274  -2.514  0.00  0.00     0.020 A 
ATOM      2  C1  UNL d   1      -1.772   1.622  -2.392  0.00  0.00     0.020 A 
ATOM      3  C2  UNL d   1      -0.983   2.596  -3.008  0.00  0.00     0.034 A 
ATOM      4  C3  UNL d   1       0.144   2.222  -3.750  0.00  0.00     0.017 A 
ATOM      5  C4  UNL d   1       0.478   0.868  -3.872  0.00  0.00     0.017 A 
ATOM      6  C5  UNL d   1      -0.316  -0.102  -3.253  0.00  0.00     0.034 A 
ATOM      7 Cl   UNL d   1       1.853   0.330  -4.770  0.00  0.00    -0.070 Cl
ATOM      8 Cl1  UNL d   1       1.075   3.478  -4.485  0.00  0.00    -0.070 Cl
ENDROOT
TORSDOF 0
ENDMDL
