MODEL 1
REMARK minimizedAffinity 11.048789
REMARK minimizedRMSD -1
REMARK  0 active torsions:
REMARK  status: ('A' for Active; 'I' for Inactive)
ROOT
ATOM      1  C   UNL d   1       1.720  -2.660  -0.475  0.00  0.00     0.020 A 
ATOM      2  C1  UNL d   1       2.859  -3.414  -0.196  0.00  0.00     0.020 A 
ATOM      3  C2  UNL d   1       3.472  -3.317   1.055  0.00  0.00     0.034 A 
ATOM      4  C3  UNL d   1       2.947  -2.463   2.032  0.00  0.00     0.017 A 
ATOM      5  C4  UNL d   1       1.804  -1.706   1.751  0.00  0.00     0.017 A 
ATOM      6  C5  UNL d   1       1.194  -1.807   0.496  0.00  0.00     0.034 A 
ATOM      7 Cl   UNL d   1       1.097  -0.630   2.905  0.00  0.00    -0.070 Cl
ATOM      8 Cl1  UNL d   1       3.756  -2.393   3.557  0.00  0.00    -0.070 Cl
ENDROOT
TORSDOF 0
ENDMDL
