MODEL 1
REMARK minimizedAffinity 5.31062794
REMARK minimizedRMSD -1
REMARK  0 active torsions:
REMARK  status: ('A' for Active; 'I' for Inactive)
ROOT
ATOM      1  C   UNL d   1       3.125  -5.269  -3.847  0.00  0.00     0.077 C 
ATOM      2  C1  UNL d   1       3.880  -4.815  -2.633  0.00  0.00    -0.074 A 
ATOM      3  C2  UNL d   1       4.815  -5.650  -2.013  0.00  0.00    -0.005 A 
ATOM      4  C3  UNL d   1       5.516  -5.210  -0.890  0.00  0.00     0.006 A 
ATOM      5  C4  UNL d   1       5.289  -3.932  -0.376  0.00  0.00    -0.005 A 
ATOM      6  C5  UNL d   1       4.358  -3.083  -0.983  0.00  0.00    -0.074 A 
ATOM      7  C6  UNL d   1       4.109  -1.704  -0.449  0.00  0.00     0.077 C 
ATOM      8  C7  UNL d   1       3.663  -3.530  -2.115  0.00  0.00    -0.001 A 
ENDROOT
TORSDOF 0
ENDMDL
