MODEL 1
REMARK minimizedAffinity -2.10023594
REMARK minimizedRMSD -1
REMARK  0 active torsions:
REMARK  status: ('A' for Active; 'I' for Inactive)
ROOT
ATOM      1  C   UNL d   1       4.204  -5.669  -3.774  0.00  0.00     0.077 C 
ATOM      2  C1  UNL d   1       4.515  -4.555  -2.819  0.00  0.00    -0.074 A 
ATOM      3  C2  UNL d   1       5.677  -4.577  -2.042  0.00  0.00    -0.005 A 
ATOM      4  C3  UNL d   1       5.957  -3.529  -1.165  0.00  0.00     0.006 A 
ATOM      5  C4  UNL d   1       5.080  -2.450  -1.057  0.00  0.00    -0.005 A 
ATOM      6  C5  UNL d   1       3.913  -2.409  -1.827  0.00  0.00    -0.074 A 
ATOM      7  C6  UNL d   1       2.964  -1.252  -1.730  0.00  0.00     0.077 C 
ATOM      8  C7  UNL d   1       3.642  -3.463  -2.711  0.00  0.00    -0.001 A 
ENDROOT
TORSDOF 0
ENDMDL
