MODEL 1
REMARK minimizedAffinity -0.566714525
REMARK minimizedRMSD -1
REMARK  0 active torsions:
REMARK  status: ('A' for Active; 'I' for Inactive)
ROOT
ATOM      1  C   UNL d   1      -1.193   6.000  -1.572  0.00  0.00     0.077 C 
ATOM      2  C1  UNL d   1      -1.071   4.524  -1.335  0.00  0.00    -0.074 A 
ATOM      3  C2  UNL d   1       0.043   3.991  -0.679  0.00  0.00    -0.005 A 
ATOM      4  C3  UNL d   1       0.138   2.617  -0.457  0.00  0.00     0.006 A 
ATOM      5  C4  UNL d   1      -0.879   1.764  -0.888  0.00  0.00    -0.005 A 
ATOM      6  C5  UNL d   1      -2.001   2.279  -1.545  0.00  0.00    -0.074 A 
ATOM      7  C6  UNL d   1      -3.107   1.377  -2.005  0.00  0.00     0.077 C 
ATOM      8  C7  UNL d   1      -2.092   3.661  -1.758  0.00  0.00    -0.001 A 
ENDROOT
TORSDOF 0
ENDMDL
