MODEL 1
REMARK minimizedAffinity 1.27052045
REMARK minimizedRMSD -1
REMARK  0 active torsions:
REMARK  status: ('A' for Active; 'I' for Inactive)
ROOT
ATOM      1  C   UNL d   1      -0.202   1.721  -0.743  0.00  0.00     0.077 C 
ATOM      2  C1  UNL d   1      -0.342   3.214  -0.704  0.00  0.00    -0.074 A 
ATOM      3  C2  UNL d   1       0.464   4.032  -1.501  0.00  0.00    -0.005 A 
ATOM      4  C3  UNL d   1       0.316   5.419  -1.461  0.00  0.00     0.006 A 
ATOM      5  C4  UNL d   1      -0.639   5.999  -0.625  0.00  0.00    -0.005 A 
ATOM      6  C5  UNL d   1      -1.454   5.197   0.179  0.00  0.00    -0.074 A 
ATOM      7  C6  UNL d   1      -2.491   5.804   1.076  0.00  0.00     0.077 C 
ATOM      8  C7  UNL d   1      -1.304   3.804   0.128  0.00  0.00    -0.001 A 
ENDROOT
TORSDOF 0
ENDMDL
