MODEL 1
REMARK minimizedAffinity 2.91453886
REMARK minimizedRMSD -1
REMARK  0 active torsions:
REMARK  status: ('A' for Active; 'I' for Inactive)
ROOT
ATOM      1  C   UNL d   1      -5.646   3.718  -2.546  0.00  0.00     0.077 C 
ATOM      2  C1  UNL d   1      -4.736   2.574  -2.212  0.00  0.00    -0.074 A 
ATOM      3  C2  UNL d   1      -5.244   1.288  -2.003  0.00  0.00    -0.005 A 
ATOM      4  C3  UNL d   1      -4.384   0.232  -1.702  0.00  0.00     0.006 A 
ATOM      5  C4  UNL d   1      -3.009   0.451  -1.608  0.00  0.00    -0.005 A 
ATOM      6  C5  UNL d   1      -2.483   1.729  -1.815  0.00  0.00    -0.074 A 
ATOM      7  C6  UNL d   1      -1.006   1.980  -1.727  0.00  0.00     0.077 C 
ATOM      8  C7  UNL d   1      -3.353   2.784  -2.124  0.00  0.00    -0.001 A 
ENDROOT
TORSDOF 0
ENDMDL
