MODEL 1
REMARK minimizedAffinity -1.90522861
REMARK minimizedRMSD -1
REMARK  0 active torsions:
REMARK  status: ('A' for Active; 'I' for Inactive)
ROOT
ATOM      1  C   UNL d   1       5.344  -4.926  -3.863  0.00  0.00     0.077 C 
ATOM      2  C1  UNL d   1       4.598  -4.337  -2.703  0.00  0.00    -0.074 A 
ATOM      3  C2  UNL d   1       5.081  -3.207  -2.036  0.00  0.00    -0.005 A 
ATOM      4  C3  UNL d   1       4.372  -2.665  -0.965  0.00  0.00     0.006 A 
ATOM      5  C4  UNL d   1       3.173  -3.246  -0.550  0.00  0.00    -0.005 A 
ATOM      6  C5  UNL d   1       2.674  -4.376  -1.204  0.00  0.00    -0.074 A 
ATOM      7  C6  UNL d   1       1.382  -5.008  -0.777  0.00  0.00     0.077 C 
ATOM      8  C7  UNL d   1       3.389  -4.911  -2.285  0.00  0.00    -0.001 A 
ENDROOT
TORSDOF 0
ENDMDL
