MODEL 1
REMARK minimizedAffinity -0.589964807
REMARK minimizedRMSD -1
REMARK  0 active torsions:
REMARK  status: ('A' for Active; 'I' for Inactive)
ROOT
ATOM      1  C   UNL d   1       1.223  -5.252  -0.790  0.00  0.00     0.077 C 
ATOM      2  C1  UNL d   1       2.553  -4.572  -0.930  0.00  0.00    -0.074 A 
ATOM      3  C2  UNL d   1       3.584  -4.817  -0.018  0.00  0.00    -0.005 A 
ATOM      4  C3  UNL d   1       4.819  -4.185  -0.166  0.00  0.00     0.006 A 
ATOM      5  C4  UNL d   1       5.034  -3.303  -1.225  0.00  0.00    -0.005 A 
ATOM      6  C5  UNL d   1       4.014  -3.047  -2.148  0.00  0.00    -0.074 A 
ATOM      7  C6  UNL d   1       4.232  -2.109  -3.298  0.00  0.00     0.077 C 
ATOM      8  C7  UNL d   1       2.779  -3.691  -1.996  0.00  0.00    -0.001 A 
ENDROOT
TORSDOF 0
ENDMDL
