MODEL 1
REMARK minimizedAffinity 7.2717824
REMARK minimizedRMSD -1
REMARK  0 active torsions:
REMARK  status: ('A' for Active; 'I' for Inactive)
ROOT
ATOM      1  C   UNL d   1       0.044   1.623   1.466  0.00  0.00     0.077 C 
ATOM      2  C1  UNL d   1      -0.109   2.448   0.222  0.00  0.00    -0.074 A 
ATOM      3  C2  UNL d   1       0.282   3.790   0.197  0.00  0.00    -0.005 A 
ATOM      4  C3  UNL d   1       0.142   4.542  -0.970  0.00  0.00     0.006 A 
ATOM      5  C4  UNL d   1      -0.390   3.960  -2.121  0.00  0.00    -0.005 A 
ATOM      6  C5  UNL d   1      -0.786   2.619  -2.115  0.00  0.00    -0.074 A 
ATOM      7  C6  UNL d   1      -1.350   1.975  -3.347  0.00  0.00     0.077 C 
ATOM      8  C7  UNL d   1      -0.635   1.868  -0.941  0.00  0.00    -0.001 A 
ENDROOT
TORSDOF 0
ENDMDL
