MODEL 1
REMARK minimizedAffinity -0.0615784563
REMARK minimizedRMSD -1
REMARK  0 active torsions:
REMARK  status: ('A' for Active; 'I' for Inactive)
ROOT
ATOM      1  C   UNL d   1       4.233  -2.012  -0.211  0.00  0.00     0.077 C 
ATOM      2  C1  UNL d   1       4.366  -3.341  -0.893  0.00  0.00    -0.074 A 
ATOM      3  C2  UNL d   1       5.158  -4.354  -0.343  0.00  0.00    -0.005 A 
ATOM      4  C3  UNL d   1       5.264  -5.589  -0.984  0.00  0.00     0.006 A 
ATOM      5  C4  UNL d   1       4.582  -5.822  -2.178  0.00  0.00    -0.005 A 
ATOM      6  C5  UNL d   1       3.785  -4.821  -2.743  0.00  0.00    -0.074 A 
ATOM      7  C6  UNL d   1       3.038  -5.058  -4.021  0.00  0.00     0.077 C 
ATOM      8  C7  UNL d   1       3.677  -3.585  -2.089  0.00  0.00    -0.001 A 
ENDROOT
TORSDOF 0
ENDMDL
