MODEL 1
REMARK minimizedAffinity 6.41683006
REMARK minimizedRMSD -1
REMARK  0 active torsions:
REMARK  status: ('A' for Active; 'I' for Inactive)
ROOT
ATOM      1  C   UNL d   1       0.818   5.723  -0.786  0.00  0.00     0.077 C 
ATOM      2  C1  UNL d   1       0.349   4.313  -0.581  0.00  0.00    -0.074 A 
ATOM      3  C2  UNL d   1       0.071   3.482  -1.671  0.00  0.00    -0.005 A 
ATOM      4  C3  UNL d   1      -0.355   2.170  -1.465  0.00  0.00     0.006 A 
ATOM      5  C4  UNL d   1      -0.507   1.676  -0.169  0.00  0.00    -0.005 A 
ATOM      6  C5  UNL d   1      -0.233   2.492   0.933  0.00  0.00    -0.074 A 
ATOM      7  C6  UNL d   1      -0.382   1.974   2.333  0.00  0.00     0.077 C 
ATOM      8  C7  UNL d   1       0.202   3.807   0.718  0.00  0.00    -0.001 A 
ENDROOT
TORSDOF 0
ENDMDL
