MODEL 1
REMARK minimizedAffinity -4.82445145
REMARK minimizedRMSD -1
REMARK  1 active torsions:
REMARK  status: ('A' for Active; 'I' for Inactive)
REMARK    1  A    between atoms: C1_2  and  C2_3 
ROOT
ATOM      1  C2  UNL d   1       0.502   0.059  -0.339  0.00  0.00    -0.081 A 
ATOM      2  C3  UNL d   1       0.171   1.073  -1.246  0.00  0.00     0.006 A 
ATOM      3  C4  UNL d   1      -0.368   2.280  -0.794  0.00  0.00     0.002 A 
ATOM      4  C5  UNL d   1      -0.578   2.496   0.572  0.00  0.00    -0.080 A 
ATOM      5  C6  UNL d   1      -1.129   3.798   1.074  0.00  0.00     0.076 C 
ATOM      6  C7  UNL d   1      -0.264   1.476   1.477  0.00  0.00     0.002 A 
ATOM      7  C8  UNL d   1       0.275   0.269   1.026  0.00  0.00     0.006 A 
ENDROOT
BRANCH   1   8
ATOM      8  C1  UNL d   1       1.144  -1.218  -0.817  0.00  0.00     0.054 C 
ATOM      9  C   UNL d   1       0.141  -2.362  -0.852  0.00  0.00     0.018 C 
ENDBRANCH   1   8
TORSDOF 1
ENDMDL
