MODEL 1
REMARK minimizedAffinity -0.0604905672
REMARK minimizedRMSD -1
REMARK  1 active torsions:
REMARK  status: ('A' for Active; 'I' for Inactive)
REMARK    1  A    between atoms: C1_2  and  C2_3 
ROOT
ATOM      1  C2  UNL d   1       0.057  -0.758  -0.896  0.00  0.00    -0.081 A 
ATOM      2  C3  UNL d   1      -0.077  -1.026   0.472  0.00  0.00     0.006 A 
ATOM      3  C4  UNL d   1      -0.213   0.019   1.389  0.00  0.00     0.002 A 
ATOM      4  C5  UNL d   1      -0.226   1.348   0.953  0.00  0.00    -0.080 A 
ATOM      5  C6  UNL d   1      -0.402   2.478   1.924  0.00  0.00     0.076 C 
ATOM      6  C7  UNL d   1      -0.074   1.617  -0.411  0.00  0.00     0.002 A 
ATOM      7  C8  UNL d   1       0.063   0.573  -1.328  0.00  0.00     0.006 A 
ENDROOT
BRANCH   1   8
ATOM      8  C1  UNL d   1       0.139  -1.884  -1.893  0.00  0.00     0.054 C 
ATOM      9  C   UNL d   1       0.222  -3.235  -1.197  0.00  0.00     0.018 C 
ENDBRANCH   1   8
TORSDOF 1
ENDMDL
