MODEL 1
REMARK minimizedAffinity -1.71244931
REMARK minimizedRMSD -1
REMARK  1 active torsions:
REMARK  status: ('A' for Active; 'I' for Inactive)
REMARK    1  A    between atoms: C1_2  and  C2_3 
ROOT
ATOM      1  C2  UNL d   1       1.235  -4.779  -0.029  0.00  0.00    -0.081 A 
ATOM      2  C3  UNL d   1       1.099  -3.415  -0.313  0.00  0.00     0.006 A 
ATOM      3  C4  UNL d   1       0.154  -2.976  -1.243  0.00  0.00     0.002 A 
ATOM      4  C5  UNL d   1      -0.675  -3.892  -1.899  0.00  0.00    -0.080 A 
ATOM      5  C6  UNL d   1      -1.714  -3.431  -2.878  0.00  0.00     0.076 C 
ATOM      6  C7  UNL d   1      -0.527  -5.257  -1.629  0.00  0.00     0.002 A 
ATOM      7  C8  UNL d   1       0.418  -5.696  -0.699  0.00  0.00     0.006 A 
ENDROOT
BRANCH   1   8
ATOM      8  C1  UNL d   1       2.209  -5.250   1.021  0.00  0.00     0.054 C 
ATOM      9  C   UNL d   1       3.381  -5.992   0.396  0.00  0.00     0.018 C 
ENDBRANCH   1   8
TORSDOF 1
ENDMDL
