MODEL 1
REMARK minimizedAffinity -3.45121598
REMARK minimizedRMSD -1
REMARK  1 active torsions:
REMARK  status: ('A' for Active; 'I' for Inactive)
REMARK    1  A    between atoms: C1_2  and  C2_3 
ROOT
ATOM      1  C2  UNL d   1       0.690  -4.990   0.325  0.00  0.00    -0.081 A 
ATOM      2  C3  UNL d   1      -0.586  -5.391  -0.089  0.00  0.00     0.006 A 
ATOM      3  C4  UNL d   1      -1.308  -4.621  -1.005  0.00  0.00     0.002 A 
ATOM      4  C5  UNL d   1      -0.762  -3.443  -1.527  0.00  0.00    -0.080 A 
ATOM      5  C6  UNL d   1      -1.513  -2.624  -2.534  0.00  0.00     0.076 C 
ATOM      6  C7  UNL d   1       0.505  -3.034  -1.100  0.00  0.00     0.002 A 
ATOM      7  C8  UNL d   1       1.227  -3.803  -0.184  0.00  0.00     0.006 A 
ENDROOT
BRANCH   1   8
ATOM      8  C1  UNL d   1       1.496  -5.852   1.263  0.00  0.00     0.054 C 
ATOM      9  C   UNL d   1       2.987  -5.725   0.986  0.00  0.00     0.018 C 
ENDBRANCH   1   8
TORSDOF 1
ENDMDL
