MODEL 1
REMARK minimizedAffinity -2.01302814
REMARK minimizedRMSD -1
REMARK  1 active torsions:
REMARK  status: ('A' for Active; 'I' for Inactive)
REMARK    1  A    between atoms: C1_2  and  C2_3 
ROOT
ATOM      1  C2  UNL d   1       0.226  -0.985  -0.809  0.00  0.00    -0.081 A 
ATOM      2  C3  UNL d   1       0.308  -1.096   0.584  0.00  0.00     0.006 A 
ATOM      3  C4  UNL d   1       0.199   0.038   1.393  0.00  0.00     0.002 A 
ATOM      4  C5  UNL d   1      -0.001   1.300   0.823  0.00  0.00    -0.080 A 
ATOM      5  C6  UNL d   1      -0.150   2.521   1.681  0.00  0.00     0.076 C 
ATOM      6  C7  UNL d   1      -0.066   1.413  -0.570  0.00  0.00     0.002 A 
ATOM      7  C8  UNL d   1       0.044   0.280  -1.379  0.00  0.00     0.006 A 
ENDROOT
BRANCH   1   8
ATOM      8  C1  UNL d   1       0.279  -2.213  -1.681  0.00  0.00     0.054 C 
ATOM      9  C   UNL d   1       0.070  -3.480  -0.864  0.00  0.00     0.018 C 
ENDBRANCH   1   8
TORSDOF 1
ENDMDL
