MODEL 1
REMARK minimizedAffinity 7.00094891
REMARK minimizedRMSD -1
REMARK  0 active torsions:
REMARK  status: ('A' for Active; 'I' for Inactive)
ROOT
ATOM      1  C   UNL d   1       1.882  -3.613   3.472  0.00  0.00     0.124 A 
ATOM      2  C1  UNL d   1       1.203  -2.704   4.272  0.00  0.00     0.062 A 
ATOM      3  C2  UNL d   1       1.139  -1.362   3.909  0.00  0.00     0.162 A 
ATOM      4  C3  UNL d   1       1.755  -0.920   2.738  0.00  0.00    -0.034 A 
ATOM      5  C4  UNL d   1       2.436  -1.840   1.938  0.00  0.00     0.162 A 
ATOM      6  C5  UNL d   1       2.497  -3.180   2.306  0.00  0.00     0.062 A 
ATOM      7  F   UNL d   1       3.154  -4.056   1.531  0.00  0.00    -0.097 F 
ATOM      8  F1  UNL d   1       3.039  -1.449   0.806  0.00  0.00    -0.096 F 
ATOM      9  I   UNL d   1       1.661   1.085   2.190  0.00  0.00    -0.060 I 
ATOM     10  F2  UNL d   1       0.476  -0.507   4.701  0.00  0.00    -0.096 F 
ATOM     11  F3  UNL d   1       0.608  -3.120   5.400  0.00  0.00    -0.097 F 
ATOM     12  F4  UNL d   1       1.943  -4.903   3.825  0.00  0.00    -0.092 F 
ENDROOT
TORSDOF 0
ENDMDL
