MODEL 1
REMARK minimizedAffinity 15.8221502
REMARK minimizedRMSD -1
REMARK  0 active torsions:
REMARK  status: ('A' for Active; 'I' for Inactive)
ROOT
ATOM      1  C   UNL d   1       2.817  -1.632   2.612  0.00  0.00     0.124 A 
ATOM      2  C1  UNL d   1       1.498  -2.043   2.481  0.00  0.00     0.062 A 
ATOM      3  C2  UNL d   1       1.039  -3.156   3.180  0.00  0.00     0.162 A 
ATOM      4  C3  UNL d   1       1.900  -3.865   4.017  0.00  0.00    -0.034 A 
ATOM      5  C4  UNL d   1       3.226  -3.446   4.143  0.00  0.00     0.162 A 
ATOM      6  C5  UNL d   1       3.680  -2.333   3.442  0.00  0.00     0.062 A 
ATOM      7  F   UNL d   1       4.955  -1.937   3.570  0.00  0.00    -0.097 F 
ATOM      8  F1  UNL d   1       4.080  -4.105   4.940  0.00  0.00    -0.096 F 
ATOM      9  I   UNL d   1       1.218  -5.530   5.064  0.00  0.00    -0.060 I 
ATOM     10  F2  UNL d   1      -0.240  -3.531   3.034  0.00  0.00    -0.096 F 
ATOM     11  F3  UNL d   1       0.663  -1.367   1.678  0.00  0.00    -0.097 F 
ATOM     12  F4  UNL d   1       3.257  -0.561   1.938  0.00  0.00    -0.092 F 
ENDROOT
TORSDOF 0
ENDMDL
