MODEL 1
REMARK minimizedAffinity 14.4635859
REMARK minimizedRMSD -1
REMARK  0 active torsions:
REMARK  status: ('A' for Active; 'I' for Inactive)
ROOT
ATOM      1  C   UNL d   1      -1.958   3.896   2.435  0.00  0.00     0.124 A 
ATOM      2  C1  UNL d   1      -1.896   3.132   1.277  0.00  0.00     0.062 A 
ATOM      3  C2  UNL d   1      -3.047   2.899   0.530  0.00  0.00     0.162 A 
ATOM      4  C3  UNL d   1      -4.270   3.432   0.937  0.00  0.00    -0.034 A 
ATOM      5  C4  UNL d   1      -4.325   4.198   2.103  0.00  0.00     0.162 A 
ATOM      6  C5  UNL d   1      -3.172   4.428   2.846  0.00  0.00     0.062 A 
ATOM      7  F   UNL d   1      -3.234   5.166   3.964  0.00  0.00    -0.097 F 
ATOM      8  F1  UNL d   1      -5.485   4.725   2.523  0.00  0.00    -0.096 F 
ATOM      9  I   UNL d   1      -5.993   3.086  -0.178  0.00  0.00    -0.060 I 
ATOM     10  F2  UNL d   1      -2.957   2.158  -0.584  0.00  0.00    -0.096 F 
ATOM     11  F3  UNL d   1      -0.725   2.617   0.878  0.00  0.00    -0.097 F 
ATOM     12  F4  UNL d   1      -0.849   4.118   3.152  0.00  0.00    -0.092 F 
ENDROOT
TORSDOF 0
ENDMDL
