MODEL 1
REMARK minimizedAffinity 11.9571943
REMARK minimizedRMSD -1
REMARK  0 active torsions:
REMARK  status: ('A' for Active; 'I' for Inactive)
ROOT
ATOM      1  C   UNL d   1      -3.142   1.660  -2.705  0.00  0.00     0.124 A 
ATOM      2  C1  UNL d   1      -2.817   0.335  -2.444  0.00  0.00     0.062 A 
ATOM      3  C2  UNL d   1      -3.099  -0.652  -3.384  0.00  0.00     0.162 A 
ATOM      4  C3  UNL d   1      -3.709  -0.320  -4.593  0.00  0.00    -0.034 A 
ATOM      5  C4  UNL d   1      -4.034   1.014  -4.847  0.00  0.00     0.162 A 
ATOM      6  C5  UNL d   1      -3.750   1.998  -3.905  0.00  0.00     0.062 A 
ATOM      7  F   UNL d   1      -4.065   3.276  -4.159  0.00  0.00    -0.097 F 
ATOM      8  F1  UNL d   1      -4.622   1.369  -6.000  0.00  0.00    -0.096 F 
ATOM      9  I   UNL d   1      -4.133  -1.794  -6.000  0.00  0.00    -0.060 I 
ATOM     10  F2  UNL d   1      -2.774  -1.924  -3.105  0.00  0.00    -0.096 F 
ATOM     11  F3  UNL d   1      -2.230   0.006  -1.285  0.00  0.00    -0.097 F 
ATOM     12  F4  UNL d   1      -2.870   2.608  -1.799  0.00  0.00    -0.092 F 
ENDROOT
TORSDOF 0
ENDMDL
