MODEL 1
REMARK minimizedAffinity 9.55728722
REMARK minimizedRMSD -1
REMARK  0 active torsions:
REMARK  status: ('A' for Active; 'I' for Inactive)
ROOT
ATOM      1  C   UNL d   1       2.183  -0.664   2.609  0.00  0.00     0.124 A 
ATOM      2  C1  UNL d   1       2.355  -1.862   1.930  0.00  0.00     0.062 A 
ATOM      3  C2  UNL d   1       2.314  -3.070   2.620  0.00  0.00     0.162 A 
ATOM      4  C3  UNL d   1       2.099  -3.087   3.998  0.00  0.00    -0.034 A 
ATOM      5  C4  UNL d   1       1.928  -1.878   4.674  0.00  0.00     0.162 A 
ATOM      6  C5  UNL d   1       1.969  -0.673   3.981  0.00  0.00     0.062 A 
ATOM      7  F   UNL d   1       1.803   0.484   4.639  0.00  0.00    -0.097 F 
ATOM      8  F1  UNL d   1       1.719  -1.857   5.999  0.00  0.00    -0.096 F 
ATOM      9  I   UNL d   1       2.037  -4.891   5.033  0.00  0.00    -0.060 I 
ATOM     10  F2  UNL d   1       2.483  -4.212   1.937  0.00  0.00    -0.096 F 
ATOM     11  F3  UNL d   1       2.562  -1.855   0.605  0.00  0.00    -0.097 F 
ATOM     12  F4  UNL d   1       2.223   0.497   1.943  0.00  0.00    -0.092 F 
ENDROOT
TORSDOF 0
ENDMDL
