MODEL 1
REMARK minimizedAffinity 16.0739822
REMARK minimizedRMSD -1
REMARK  0 active torsions:
REMARK  status: ('A' for Active; 'I' for Inactive)
ROOT
ATOM      1  C   UNL d   1       2.687  -2.307   3.353  0.00  0.00     0.124 A 
ATOM      2  C1  UNL d   1       1.394  -2.693   3.027  0.00  0.00     0.062 A 
ATOM      3  C2  UNL d   1       0.787  -3.747   3.704  0.00  0.00     0.162 A 
ATOM      4  C3  UNL d   1       1.472  -4.423   4.713  0.00  0.00    -0.034 A 
ATOM      5  C4  UNL d   1       2.772  -4.030   5.034  0.00  0.00     0.162 A 
ATOM      6  C5  UNL d   1       3.375  -2.976   4.355  0.00  0.00     0.062 A 
ATOM      7  F   UNL d   1       4.624  -2.605   4.671  0.00  0.00    -0.097 F 
ATOM      8  F1  UNL d   1       3.460  -4.659   6.000  0.00  0.00    -0.096 F 
ATOM      9  I   UNL d   1       0.567  -6.000   5.727  0.00  0.00    -0.060 I 
ATOM     10  F2  UNL d   1      -0.464  -4.098   3.369  0.00  0.00    -0.096 F 
ATOM     11  F3  UNL d   1       0.728  -2.049   2.058  0.00  0.00    -0.097 F 
ATOM     12  F4  UNL d   1       3.269  -1.294   2.700  0.00  0.00    -0.092 F 
ENDROOT
TORSDOF 0
ENDMDL
