MODEL 1
REMARK minimizedAffinity 14.1309471
REMARK minimizedRMSD -1
REMARK  0 active torsions:
REMARK  status: ('A' for Active; 'I' for Inactive)
ROOT
ATOM      1  C   UNL d   1       2.359  -2.001   1.793  0.00  0.00     0.124 A 
ATOM      2  C1  UNL d   1       1.685  -1.221   2.723  0.00  0.00     0.062 A 
ATOM      3  C2  UNL d   1       1.160  -1.800   3.874  0.00  0.00     0.162 A 
ATOM      4  C3  UNL d   1       1.308  -3.168   4.103  0.00  0.00    -0.034 A 
ATOM      5  C4  UNL d   1       1.986  -3.947   3.163  0.00  0.00     0.162 A 
ATOM      6  C5  UNL d   1       2.509  -3.363   2.014  0.00  0.00     0.062 A 
ATOM      7  F   UNL d   1       3.159  -4.118   1.117  0.00  0.00    -0.097 F 
ATOM      8  F1  UNL d   1       2.146  -5.265   3.352  0.00  0.00    -0.096 F 
ATOM      9  I   UNL d   1       0.524  -4.039   5.824  0.00  0.00    -0.060 I 
ATOM     10  F2  UNL d   1       0.514  -1.022   4.755  0.00  0.00    -0.096 F 
ATOM     11  F3  UNL d   1       1.538   0.095   2.511  0.00  0.00    -0.097 F 
ATOM     12  F4  UNL d   1       2.862  -1.441   0.686  0.00  0.00    -0.092 F 
ENDROOT
TORSDOF 0
ENDMDL
