MODEL 1
REMARK minimizedAffinity 16.3616467
REMARK minimizedRMSD -1
REMARK  0 active torsions:
REMARK  status: ('A' for Active; 'I' for Inactive)
ROOT
ATOM      1  O1  BZF d   1       3.358  -2.246   0.532  0.00  0.00    -0.204 OA
ATOM      2  C2  BZF d   1       3.429  -3.293  -0.366  0.00  0.00     0.174 A 
ATOM      3  C3  BZF d   1       2.209  -3.829  -0.573  0.00  0.00    -0.012 A 
ATOM      4  C3A BZF d   1       1.306  -3.010   0.176  0.00  0.00    -0.107 A 
ATOM      5  C4  BZF d   1      -0.048  -3.027   0.356  0.00  0.00     0.055 A 
ATOM      6  C5  BZF d   1      -0.612  -2.132   1.208  0.00  0.00    -0.016 A 
ATOM      7  C6  BZF d   1       0.147  -1.210   1.899  0.00  0.00     0.022 A 
ATOM      8  C7  BZF d   1       1.493  -1.151   1.750  0.00  0.00     0.029 A 
ATOM      9  C7A BZF d   1       2.062  -2.033   0.864  0.00  0.00     0.058 A 
ENDROOT
TORSDOF 0
ENDMDL
