MODEL 1
REMARK minimizedAffinity 10.5366383
REMARK minimizedRMSD -1
REMARK  0 active torsions:
REMARK  status: ('A' for Active; 'I' for Inactive)
ROOT
ATOM      1  O1  BZF d   1      -4.458  -0.600   2.629  0.00  0.00    -0.204 OA
ATOM      2  C2  BZF d   1      -5.555  -1.271   3.133  0.00  0.00     0.174 A 
ATOM      3  C3  BZF d   1      -5.625  -1.132   4.473  0.00  0.00    -0.012 A 
ATOM      4  C3A BZF d   1      -4.555  -0.247   4.817  0.00  0.00    -0.107 A 
ATOM      5  C4  BZF d   1      -4.117   0.283   5.997  0.00  0.00     0.055 A 
ATOM      6  C5  BZF d   1      -2.999   1.055   6.000  0.00  0.00    -0.016 A 
ATOM      7  C6  BZF d   1      -2.291   1.311   4.844  0.00  0.00     0.022 A 
ATOM      8  C7  BZF d   1      -2.688   0.811   3.649  0.00  0.00     0.029 A 
ATOM      9  C7A BZF d   1      -3.837   0.058   3.637  0.00  0.00     0.058 A 
ENDROOT
TORSDOF 0
ENDMDL
