MODEL 1
REMARK minimizedAffinity 16.4054832
REMARK minimizedRMSD -1
REMARK  0 active torsions:
REMARK  status: ('A' for Active; 'I' for Inactive)
ROOT
ATOM      1  O1  BZF d   1       1.906   2.192  -3.319  0.00  0.00    -0.204 OA
ATOM      2  C2  BZF d   1       0.698   2.815  -3.073  0.00  0.00     0.174 A 
ATOM      3  C3  BZF d   1       0.891   4.066  -2.606  0.00  0.00    -0.012 A 
ATOM      4  C3A BZF d   1       2.307   4.267  -2.644  0.00  0.00    -0.107 A 
ATOM      5  C4  BZF d   1       3.115   5.318  -2.319  0.00  0.00     0.055 A 
ATOM      6  C5  BZF d   1       4.463   5.166  -2.402  0.00  0.00    -0.016 A 
ATOM      7  C6  BZF d   1       5.036   3.976  -2.801  0.00  0.00     0.022 A 
ATOM      8  C7  BZF d   1       4.276   2.907  -3.138  0.00  0.00     0.029 A 
ATOM      9  C7A BZF d   1       2.913   3.068  -3.087  0.00  0.00     0.058 A 
ENDROOT
TORSDOF 0
ENDMDL
