MODEL 1
REMARK minimizedAffinity 0.191716671
REMARK minimizedRMSD -1
REMARK  0 active torsions:
REMARK  status: ('A' for Active; 'I' for Inactive)
ROOT
ATOM      1  O1  BZF d   1      -2.059   1.131   4.660  0.00  0.00    -0.204 OA
ATOM      2  C2  BZF d   1      -2.799   1.365   5.803  0.00  0.00     0.174 A 
ATOM      3  C3  BZF d   1      -3.996   0.746   5.734  0.00  0.00    -0.012 A 
ATOM      4  C3A BZF d   1      -3.967   0.009   4.508  0.00  0.00    -0.107 A 
ATOM      5  C4  BZF d   1      -4.860  -0.818   3.889  0.00  0.00     0.055 A 
ATOM      6  C5  BZF d   1      -4.555  -1.321   2.664  0.00  0.00    -0.016 A 
ATOM      7  C6  BZF d   1      -3.371  -1.014   2.027  0.00  0.00     0.022 A 
ATOM      8  C7  BZF d   1      -2.451  -0.202   2.604  0.00  0.00     0.029 A 
ATOM      9  C7A BZF d   1      -2.742   0.282   3.856  0.00  0.00     0.058 A 
ENDROOT
TORSDOF 0
ENDMDL
