MODEL 1
REMARK minimizedAffinity 9.41437054
REMARK minimizedRMSD -1
REMARK  0 active torsions:
REMARK  status: ('A' for Active; 'I' for Inactive)
ROOT
ATOM      1  O1  BZF d   1      -4.227  -1.537   2.569  0.00  0.00    -0.204 OA
ATOM      2  C2  BZF d   1      -5.416  -1.835   3.206  0.00  0.00     0.174 A 
ATOM      3  C3  BZF d   1      -5.486  -1.218   4.403  0.00  0.00    -0.012 A 
ATOM      4  C3A BZF d   1      -4.305  -0.414   4.481  0.00  0.00    -0.107 A 
ATOM      5  C4  BZF d   1      -3.814   0.443   5.424  0.00  0.00     0.055 A 
ATOM      6  C5  BZF d   1      -2.596   1.014   5.227  0.00  0.00    -0.016 A 
ATOM      7  C6  BZF d   1      -1.842   0.746   4.104  0.00  0.00     0.022 A 
ATOM      8  C7  BZF d   1      -2.289  -0.094   3.139  0.00  0.00     0.029 A 
ATOM      9  C7A BZF d   1      -3.534  -0.647   3.319  0.00  0.00     0.058 A 
ENDROOT
TORSDOF 0
ENDMDL
