MODEL 1
REMARK minimizedAffinity 11.9903326
REMARK minimizedRMSD -1
REMARK  0 active torsions:
REMARK  status: ('A' for Active; 'I' for Inactive)
ROOT
ATOM      1  O1  BZF d   1       4.818  -3.420  -1.264  0.00  0.00    -0.204 OA
ATOM      2  C2  BZF d   1       4.449  -4.708  -0.927  0.00  0.00     0.174 A 
ATOM      3  C3  BZF d   1       3.611  -4.704   0.130  0.00  0.00    -0.012 A 
ATOM      4  C3A BZF d   1       3.374  -3.323   0.418  0.00  0.00    -0.107 A 
ATOM      5  C4  BZF d   1       2.614  -2.675   1.348  0.00  0.00     0.055 A 
ATOM      6  C5  BZF d   1       2.658  -1.318   1.409  0.00  0.00    -0.016 A 
ATOM      7  C6  BZF d   1       3.455  -0.579   0.559  0.00  0.00     0.022 A 
ATOM      8  C7  BZF d   1       4.223  -1.177  -0.384  0.00  0.00     0.029 A 
ATOM      9  C7A BZF d   1       4.155  -2.546  -0.470  0.00  0.00     0.058 A 
ENDROOT
TORSDOF 0
ENDMDL
