MODEL 1
REMARK minimizedAffinity 7.03965139
REMARK minimizedRMSD -1
REMARK  0 active torsions:
REMARK  status: ('A' for Active; 'I' for Inactive)
ROOT
ATOM      1  O1  BZF d   1      -5.963   0.265  -3.935  0.00  0.00    -0.204 OA
ATOM      2  C2  BZF d   1      -5.946   0.190  -2.556  0.00  0.00     0.174 A 
ATOM      3  C3  BZF d   1      -5.992  -1.094  -2.146  0.00  0.00    -0.012 A 
ATOM      4  C3A BZF d   1      -5.947  -1.874  -3.345  0.00  0.00    -0.107 A 
ATOM      5  C4  BZF d   1      -5.946  -3.217  -3.592  0.00  0.00     0.055 A 
ATOM      6  C5  BZF d   1      -5.970  -3.652  -4.879  0.00  0.00    -0.016 A 
ATOM      7  C6  BZF d   1      -6.000  -2.773  -5.942  0.00  0.00     0.022 A 
ATOM      8  C7  BZF d   1      -5.997  -1.432  -5.747  0.00  0.00     0.029 A 
ATOM      9  C7A BZF d   1      -5.940  -0.989  -4.448  0.00  0.00     0.058 A 
ENDROOT
TORSDOF 0
ENDMDL
