MODEL 1
REMARK minimizedAffinity 2.16581559
REMARK minimizedRMSD -1
REMARK  0 active torsions:
REMARK  status: ('A' for Active; 'I' for Inactive)
ROOT
ATOM      1  O1  BZF d   1       4.854  -4.120  -0.465  0.00  0.00    -0.204 OA
ATOM      2  C2  BZF d   1       5.991  -4.903  -0.424  0.00  0.00     0.174 A 
ATOM      3  C3  BZF d   1       6.000  -5.787  -1.442  0.00  0.00    -0.012 A 
ATOM      4  C3A BZF d   1       4.838  -5.479  -2.218  0.00  0.00    -0.107 A 
ATOM      5  C4  BZF d   1       4.309  -6.000  -3.364  0.00  0.00     0.055 A 
ATOM      6  C5  BZF d   1       3.123  -5.521  -3.821  0.00  0.00    -0.016 A 
ATOM      7  C6  BZF d   1       2.436  -4.527  -3.155  0.00  0.00     0.022 A 
ATOM      8  C7  BZF d   1       2.923  -3.976  -2.017  0.00  0.00     0.029 A 
ATOM      9  C7A BZF d   1       4.138  -4.435  -1.570  0.00  0.00     0.058 A 
ENDROOT
TORSDOF 0
ENDMDL
