MODEL 1
REMARK minimizedAffinity 14.0174847
REMARK minimizedRMSD -1
REMARK  0 active torsions:
REMARK  status: ('A' for Active; 'I' for Inactive)
ROOT
ATOM      1  O1  BZF d   1      -5.982  -5.230   2.365  0.00  0.00    -0.204 OA
ATOM      2  C2  BZF d   1      -5.271  -4.289   1.646  0.00  0.00     0.174 A 
ATOM      3  C3  BZF d   1      -4.385  -3.651   2.439  0.00  0.00    -0.012 A 
ATOM      4  C3A BZF d   1      -4.489  -4.294   3.713  0.00  0.00    -0.107 A 
ATOM      5  C4  BZF d   1      -3.852  -4.117   4.908  0.00  0.00     0.055 A 
ATOM      6  C5  BZF d   1      -4.238  -4.861   5.978  0.00  0.00    -0.016 A 
ATOM      7  C6  BZF d   1      -5.258  -5.785   5.890  0.00  0.00     0.022 A 
ATOM      8  C7  BZF d   1      -5.916  -5.999   4.724  0.00  0.00     0.029 A 
ATOM      9  C7A BZF d   1      -5.506  -5.272   3.633  0.00  0.00     0.058 A 
ENDROOT
TORSDOF 0
ENDMDL
