MODEL 1
REMARK minimizedAffinity 24.5114822
REMARK minimizedRMSD -1
REMARK  0 active torsions:
REMARK  status: ('A' for Active; 'I' for Inactive)
ROOT
ATOM      1  O1  BZF d   1      -1.213   0.633   4.695  0.00  0.00    -0.204 OA
ATOM      2  C2  BZF d   1      -2.229   0.997   3.833  0.00  0.00     0.174 A 
ATOM      3  C3  BZF d   1      -2.029   0.470   2.608  0.00  0.00    -0.012 A 
ATOM      4  C3A BZF d   1      -0.860  -0.345   2.734  0.00  0.00    -0.107 A 
ATOM      5  C4  BZF d   1      -0.170  -1.138   1.863  0.00  0.00     0.055 A 
ATOM      6  C5  BZF d   1       0.973  -1.742   2.283  0.00  0.00    -0.016 A 
ATOM      7  C6  BZF d   1       1.457  -1.570   3.564  0.00  0.00     0.022 A 
ATOM      8  C7  BZF d   1       0.804  -0.796   4.465  0.00  0.00     0.029 A 
ATOM      9  C7A BZF d   1      -0.369  -0.211   4.054  0.00  0.00     0.058 A 
ENDROOT
TORSDOF 0
ENDMDL
