MODEL 1
REMARK minimizedAffinity 24.2125301
REMARK minimizedRMSD -1
REMARK  0 active torsions:
REMARK  status: ('A' for Active; 'I' for Inactive)
ROOT
ATOM      1  O1  BZF d   1       5.997  -3.146  -0.754  0.00  0.00    -0.204 OA
ATOM      2  C2  BZF d   1       5.495  -1.859  -0.749  0.00  0.00     0.174 A 
ATOM      3  C3  BZF d   1       4.150  -1.869  -0.844  0.00  0.00    -0.012 A 
ATOM      4  C3A BZF d   1       3.782  -3.252  -0.820  0.00  0.00    -0.107 A 
ATOM      5  C4  BZF d   1       2.584  -3.905  -0.866  0.00  0.00     0.055 A 
ATOM      6  C5  BZF d   1       2.573  -5.264  -0.897  0.00  0.00    -0.016 A 
ATOM      7  C6  BZF d   1       3.740  -6.000  -0.889  0.00  0.00     0.022 A 
ATOM      8  C7  BZF d   1       4.953  -5.396  -0.838  0.00  0.00     0.029 A 
ATOM      9  C7A BZF d   1       4.966  -4.024  -0.773  0.00  0.00     0.058 A 
ENDROOT
TORSDOF 0
ENDMDL
