MODEL 1
REMARK minimizedAffinity 7.21377993
REMARK minimizedRMSD -1
REMARK  0 active torsions:
REMARK  status: ('A' for Active; 'I' for Inactive)
ROOT
ATOM      1  O1  BZF d   1       2.656  -4.374  -0.427  0.00  0.00    -0.204 OA
ATOM      2  C2  BZF d   1       3.770  -3.947  -1.124  0.00  0.00     0.174 A 
ATOM      3  C3  BZF d   1       4.182  -2.743  -0.677  0.00  0.00    -0.012 A 
ATOM      4  C3A BZF d   1       3.325  -2.438   0.427  0.00  0.00    -0.107 A 
ATOM      5  C4  BZF d   1       3.248  -1.384   1.292  0.00  0.00     0.055 A 
ATOM      6  C5  BZF d   1       2.249  -1.358   2.213  0.00  0.00    -0.016 A 
ATOM      7  C6  BZF d   1       1.308  -2.363   2.293  0.00  0.00     0.022 A 
ATOM      8  C7  BZF d   1       1.346  -3.431   1.459  0.00  0.00     0.029 A 
ATOM      9  C7A BZF d   1       2.374  -3.477   0.549  0.00  0.00     0.058 A 
ENDROOT
TORSDOF 0
ENDMDL
