MODEL 1
REMARK minimizedAffinity 11.4774599
REMARK minimizedRMSD -1
REMARK  0 active torsions:
REMARK  status: ('A' for Active; 'I' for Inactive)
ROOT
ATOM      1  O1  BZF d   1       0.552  -4.766  -3.598  0.00  0.00    -0.204 OA
ATOM      2  C2  BZF d   1      -0.763  -4.683  -4.014  0.00  0.00     0.174 A 
ATOM      3  C3  BZF d   1      -1.588  -4.515  -2.961  0.00  0.00    -0.012 A 
ATOM      4  C3A BZF d   1      -0.728  -4.398  -1.823  0.00  0.00    -0.107 A 
ATOM      5  C4  BZF d   1      -0.954  -4.201  -0.491  0.00  0.00     0.055 A 
ATOM      6  C5  BZF d   1       0.100  -4.208   0.366  0.00  0.00    -0.016 A 
ATOM      7  C6  BZF d   1       1.391  -4.415  -0.073  0.00  0.00     0.022 A 
ATOM      8  C7  BZF d   1       1.666  -4.610  -1.386  0.00  0.00     0.029 A 
ATOM      9  C7A BZF d   1       0.607  -4.570  -2.259  0.00  0.00     0.058 A 
ENDROOT
TORSDOF 0
ENDMDL
