MODEL 1
REMARK minimizedAffinity 17.4038162
REMARK minimizedRMSD -1
REMARK  0 active torsions:
REMARK  status: ('A' for Active; 'I' for Inactive)
ROOT
ATOM      1  O1  BZF d   1      -2.190  -0.325   1.120  0.00  0.00    -0.204 OA
ATOM      2  C2  BZF d   1      -2.117  -0.192   2.493  0.00  0.00     0.174 A 
ATOM      3  C3  BZF d   1      -3.275   0.289   2.989  0.00  0.00    -0.012 A 
ATOM      4  C3A BZF d   1      -4.157   0.381   1.866  0.00  0.00    -0.107 A 
ATOM      5  C4  BZF d   1      -5.456   0.777   1.722  0.00  0.00     0.055 A 
ATOM      6  C5  BZF d   1      -6.000   0.817   0.477  0.00  0.00    -0.016 A 
ATOM      7  C6  BZF d   1      -5.273   0.474  -0.644  0.00  0.00     0.022 A 
ATOM      8  C7  BZF d   1      -3.983   0.071  -0.551  0.00  0.00     0.029 A 
ATOM      9  C7A BZF d   1      -3.440  -0.003   0.709  0.00  0.00     0.058 A 
ENDROOT
TORSDOF 0
ENDMDL
