MODEL 1
REMARK minimizedAffinity 10.6218023
REMARK minimizedRMSD -1
REMARK  0 active torsions:
REMARK  status: ('A' for Active; 'I' for Inactive)
ROOT
ATOM      1  O1  BZF d   1       0.186  -3.025   1.396  0.00  0.00    -0.204 OA
ATOM      2  C2  BZF d   1       1.354  -2.294   1.490  0.00  0.00     0.174 A 
ATOM      3  C3  BZF d   1       1.086  -0.978   1.618  0.00  0.00    -0.012 A 
ATOM      4  C3A BZF d   1      -0.340  -0.891   1.697  0.00  0.00    -0.107 A 
ATOM      5  C4  BZF d   1      -1.210   0.151   1.846  0.00  0.00     0.055 A 
ATOM      6  C5  BZF d   1      -2.546  -0.093   1.810  0.00  0.00    -0.016 A 
ATOM      7  C6  BZF d   1      -3.047  -1.365   1.623  0.00  0.00     0.022 A 
ATOM      8  C7  BZF d   1      -2.223  -2.431   1.476  0.00  0.00     0.029 A 
ATOM      9  C7A BZF d   1      -0.872  -2.192   1.544  0.00  0.00     0.058 A 
ENDROOT
TORSDOF 0
ENDMDL
