MODEL 1
REMARK minimizedAffinity -4.98840427
REMARK minimizedRMSD -1
REMARK  0 active torsions:
REMARK  status: ('A' for Active; 'I' for Inactive)
ROOT
ATOM      1  O1  BZF d   1       1.674   0.676  -0.457  0.00  0.00    -0.204 OA
ATOM      2  C2  BZF d   1       0.963   1.753  -0.950  0.00  0.00     0.174 A 
ATOM      3  C3  BZF d   1      -0.364   1.522  -0.884  0.00  0.00    -0.012 A 
ATOM      4  C3A BZF d   1      -0.492   0.256  -0.228  0.00  0.00    -0.107 A 
ATOM      5  C4  BZF d   1      -1.564  -0.504   0.142  0.00  0.00     0.055 A 
ATOM      6  C5  BZF d   1      -1.348  -1.725   0.698  0.00  0.00    -0.016 A 
ATOM      7  C6  BZF d   1      -0.074  -2.218   0.894  0.00  0.00     0.022 A 
ATOM      8  C7  BZF d   1       1.021  -1.498   0.548  0.00  0.00     0.029 A 
ATOM      9  C7A BZF d   1       0.805  -0.250   0.015  0.00  0.00     0.058 A 
ENDROOT
TORSDOF 0
ENDMDL
