MODEL 1
REMARK minimizedAffinity -0.28814739
REMARK minimizedRMSD -1
REMARK  0 active torsions:
REMARK  status: ('A' for Active; 'I' for Inactive)
ROOT
ATOM      1  O1  BZF d   1      -2.182   0.251   2.362  0.00  0.00    -0.204 OA
ATOM      2  C2  BZF d   1      -2.175   1.494   1.759  0.00  0.00     0.174 A 
ATOM      3  C3  BZF d   1      -1.157   1.594   0.881  0.00  0.00    -0.012 A 
ATOM      4  C3A BZF d   1      -0.540   0.303   0.871  0.00  0.00    -0.107 A 
ATOM      5  C4  BZF d   1       0.516  -0.228   0.187  0.00  0.00     0.055 A 
ATOM      6  C5  BZF d   1       0.908  -1.499   0.461  0.00  0.00    -0.016 A 
ATOM      7  C6  BZF d   1       0.273  -2.265   1.417  0.00  0.00     0.022 A 
ATOM      8  C7  BZF d   1      -0.782  -1.784   2.118  0.00  0.00     0.029 A 
ATOM      9  C7A BZF d   1      -1.202  -0.510   1.819  0.00  0.00     0.058 A 
ENDROOT
TORSDOF 0
ENDMDL
