MODEL 1
REMARK minimizedAffinity -6.34097052
REMARK minimizedRMSD -1
REMARK  3 active torsions:
REMARK  status: ('A' for Active; 'I' for Inactive)
REMARK    1  A    between atoms: C3'_2  and  C2'_3 
REMARK    2  A    between atoms: C2'_3  and  C1'_4 
REMARK    3  A    between atoms: C1'_4  and  C1_5 
ROOT
ATOM      1  C1  N4B d   1       1.723  -2.103   0.387  0.00  0.00    -0.075 A 
ATOM      2  C2  N4B d   1       0.517  -2.791   0.130  0.00  0.00     0.002 A 
ATOM      3  C3  N4B d   1      -0.688  -2.174   0.361  0.00  0.00     0.002 A 
ATOM      4  C4  N4B d   1      -0.712  -0.883   0.865  0.00  0.00    -0.004 A 
ATOM      5  C5  N4B d   1       0.457  -0.216   1.087  0.00  0.00     0.002 A 
ATOM      6  C6  N4B d   1       1.676  -0.822   0.856  0.00  0.00     0.002 A 
ENDROOT
BRANCH   1   7
ATOM      7  C1' N4B d   1       3.065  -2.765   0.231  0.00  0.00     0.057 C 
BRANCH   7   8
ATOM      8  C2' N4B d   1       2.889  -4.278   0.321  0.00  0.00     0.009 C 
BRANCH   8   9
ATOM      9  C3' N4B d   1       4.096  -5.024  -0.222  0.00  0.00     0.004 C 
ATOM     10  C4' N4B d   1       4.667  -6.000   0.763  0.00  0.00     0.003 C 
ENDBRANCH   8   9
ENDBRANCH   7   8
ENDBRANCH   1   7
TORSDOF 3
ENDMDL
