MODEL 1
REMARK minimizedAffinity 8.46997738
REMARK minimizedRMSD -1
REMARK  3 active torsions:
REMARK  status: ('A' for Active; 'I' for Inactive)
REMARK    1  A    between atoms: C3'_2  and  C2'_3 
REMARK    2  A    between atoms: C2'_3  and  C1'_4 
REMARK    3  A    between atoms: C1'_4  and  C1_5 
ROOT
ATOM      1  C1  N4B d   1       0.863  -1.138  -1.278  0.00  0.00    -0.075 A 
ATOM      2  C2  N4B d   1       1.693  -0.635  -0.252  0.00  0.00     0.002 A 
ATOM      3  C3  N4B d   1       1.200  -0.495   1.022  0.00  0.00     0.002 A 
ATOM      4  C4  N4B d   1      -0.119  -0.832   1.289  0.00  0.00    -0.004 A 
ATOM      5  C5  N4B d   1      -0.906  -1.341   0.297  0.00  0.00     0.002 A 
ATOM      6  C6  N4B d   1      -0.423  -1.491  -0.987  0.00  0.00     0.002 A 
ENDROOT
BRANCH   1   7
ATOM      7  C1' N4B d   1       1.331  -1.228  -2.705  0.00  0.00     0.057 C 
BRANCH   7   8
ATOM      8  C2' N4B d   1       1.643   0.174  -3.220  0.00  0.00     0.009 C 
BRANCH   8   9
ATOM      9  C3' N4B d   1       3.117   0.515  -3.082  0.00  0.00     0.004 C 
ATOM     10  C4' N4B d   1       3.382   1.989  -3.166  0.00  0.00     0.003 C 
ENDBRANCH   8   9
ENDBRANCH   7   8
ENDBRANCH   1   7
TORSDOF 3
ENDMDL
