MODEL 1
REMARK minimizedAffinity -2.42261839
REMARK minimizedRMSD -1
REMARK  3 active torsions:
REMARK  status: ('A' for Active; 'I' for Inactive)
REMARK    1  A    between atoms: C3'_2  and  C2'_3 
REMARK    2  A    between atoms: C2'_3  and  C1'_4 
REMARK    3  A    between atoms: C1'_4  and  C1_5 
ROOT
ATOM      1  C1  N4B d   1       1.245  -2.740   0.178  0.00  0.00    -0.075 A 
ATOM      2  C2  N4B d   1      -0.132  -2.452   0.308  0.00  0.00     0.002 A 
ATOM      3  C3  N4B d   1      -0.537  -1.197   0.690  0.00  0.00     0.002 A 
ATOM      4  C4  N4B d   1       0.412  -0.224   0.967  0.00  0.00    -0.004 A 
ATOM      5  C5  N4B d   1       1.738  -0.503   0.815  0.00  0.00     0.002 A 
ATOM      6  C6  N4B d   1       2.160  -1.759   0.427  0.00  0.00     0.002 A 
ENDROOT
BRANCH   1   7
ATOM      7  C1' N4B d   1       1.739  -4.122  -0.154  0.00  0.00     0.057 C 
BRANCH   7   8
ATOM      8  C2' N4B d   1       3.261  -4.145  -0.062  0.00  0.00     0.009 C 
BRANCH   8   9
ATOM      9  C3' N4B d   1       3.807  -5.562  -0.024  0.00  0.00     0.004 C 
ATOM     10  C4' N4B d   1       5.234  -5.623   0.433  0.00  0.00     0.003 C 
ENDBRANCH   8   9
ENDBRANCH   7   8
ENDBRANCH   1   7
TORSDOF 3
ENDMDL
