MODEL 1
REMARK minimizedAffinity -3.24049807
REMARK minimizedRMSD -1
REMARK  3 active torsions:
REMARK  status: ('A' for Active; 'I' for Inactive)
REMARK    1  A    between atoms: C3'_2  and  C2'_3 
REMARK    2  A    between atoms: C2'_3  and  C1'_4 
REMARK    3  A    between atoms: C1'_4  and  C1_5 
ROOT
ATOM      1  C1  N4B d   1       1.427  -2.526   0.040  0.00  0.00    -0.075 A 
ATOM      2  C2  N4B d   1       0.138  -2.607   0.613  0.00  0.00     0.002 A 
ATOM      3  C3  N4B d   1      -0.428  -1.495   1.188  0.00  0.00     0.002 A 
ATOM      4  C4  N4B d   1       0.279  -0.303   1.218  0.00  0.00    -0.004 A 
ATOM      5  C5  N4B d   1       1.513  -0.227   0.640  0.00  0.00     0.002 A 
ATOM      6  C6  N4B d   1       2.093  -1.335   0.056  0.00  0.00     0.002 A 
ENDROOT
BRANCH   1   7
ATOM      7  C1' N4B d   1       2.122  -3.735  -0.523  0.00  0.00     0.057 C 
BRANCH   7   8
ATOM      8  C2' N4B d   1       3.628  -3.583  -0.329  0.00  0.00     0.009 C 
BRANCH   8   9
ATOM      9  C3' N4B d   1       4.384  -4.832  -0.748  0.00  0.00     0.004 C 
ATOM     10  C4' N4B d   1       4.728  -5.719   0.411  0.00  0.00     0.003 C 
ENDBRANCH   8   9
ENDBRANCH   7   8
ENDBRANCH   1   7
TORSDOF 3
ENDMDL
