MODEL 1
REMARK minimizedAffinity -2.68569827
REMARK minimizedRMSD -1
REMARK  3 active torsions:
REMARK  status: ('A' for Active; 'I' for Inactive)
REMARK    1  A    between atoms: C3'_2  and  C2'_3 
REMARK    2  A    between atoms: C2'_3  and  C1'_4 
REMARK    3  A    between atoms: C1'_4  and  C1_5 
ROOT
ATOM      1  C1  N4B d   1       1.000  -1.933   0.054  0.00  0.00    -0.075 A 
ATOM      2  C2  N4B d   1      -0.219  -1.297   0.376  0.00  0.00     0.002 A 
ATOM      3  C3  N4B d   1      -0.211  -0.060   0.974  0.00  0.00     0.002 A 
ATOM      4  C4  N4B d   1       0.998   0.548   1.276  0.00  0.00    -0.004 A 
ATOM      5  C5  N4B d   1       2.171  -0.063   0.939  0.00  0.00     0.002 A 
ATOM      6  C6  N4B d   1       2.178  -1.303   0.334  0.00  0.00     0.002 A 
ENDROOT
BRANCH   1   7
ATOM      7  C1' N4B d   1       1.043  -3.322  -0.522  0.00  0.00     0.057 C 
BRANCH   7   8
ATOM      8  C2' N4B d   1       1.976  -4.186   0.322  0.00  0.00     0.009 C 
BRANCH   8   9
ATOM      9  C3' N4B d   1       3.202  -4.628  -0.458  0.00  0.00     0.004 C 
ATOM     10  C4' N4B d   1       4.047  -5.610   0.297  0.00  0.00     0.003 C 
ENDBRANCH   8   9
ENDBRANCH   7   8
ENDBRANCH   1   7
TORSDOF 3
ENDMDL
