MODEL 1
REMARK minimizedAffinity 0.179899991
REMARK minimizedRMSD -1
REMARK  3 active torsions:
REMARK  status: ('A' for Active; 'I' for Inactive)
REMARK    1  A    between atoms: C3'_2  and  C2'_3 
REMARK    2  A    between atoms: C2'_3  and  C1'_4 
REMARK    3  A    between atoms: C1'_4  and  C1_5 
ROOT
ATOM      1  C1  N4B d   1       0.750  -2.859   0.349  0.00  0.00    -0.075 A 
ATOM      2  C2  N4B d   1       1.646  -1.966   0.977  0.00  0.00     0.002 A 
ATOM      3  C3  N4B d   1       1.242  -0.689   1.283  0.00  0.00     0.002 A 
ATOM      4  C4  N4B d   1      -0.041  -0.279   0.955  0.00  0.00    -0.004 A 
ATOM      5  C5  N4B d   1      -0.909  -1.156   0.371  0.00  0.00     0.002 A 
ATOM      6  C6  N4B d   1      -0.517  -2.443   0.062  0.00  0.00     0.002 A 
ENDROOT
BRANCH   1   7
ATOM      7  C1' N4B d   1       1.174  -4.236  -0.082  0.00  0.00     0.057 C 
BRANCH   7   8
ATOM      8  C2' N4B d   1       2.590  -4.505   0.418  0.00  0.00     0.009 C 
BRANCH   8   9
ATOM      9  C3' N4B d   1       3.278  -5.597  -0.382  0.00  0.00     0.004 C 
ATOM     10  C4' N4B d   1       4.600  -5.999   0.201  0.00  0.00     0.003 C 
ENDBRANCH   8   9
ENDBRANCH   7   8
ENDBRANCH   1   7
TORSDOF 3
ENDMDL
