MODEL 1
REMARK minimizedAffinity -2.81091595
REMARK minimizedRMSD -1
REMARK  0 active torsions:
REMARK  status: ('A' for Active; 'I' for Inactive)
ROOT
ATOM      1  C1  BNZ d   1       1.187   1.293   0.417  0.00  0.00     0.000 A 
ATOM      2  C2  BNZ d   1       2.424   1.690   0.850  0.00  0.00     0.000 A 
ATOM      3  C3  BNZ d   1       2.678   3.003   1.134  0.00  0.00     0.000 A 
ATOM      4  C4  BNZ d   1       1.708   3.921   0.947  0.00  0.00     0.000 A 
ATOM      5  C5  BNZ d   1       0.459   3.538   0.502  0.00  0.00     0.000 A 
ATOM      6  C6  BNZ d   1       0.195   2.210   0.254  0.00  0.00     0.000 A 
ENDROOT
TORSDOF 0
ENDMDL
