MODEL 1
REMARK minimizedAffinity -1.96951258
REMARK minimizedRMSD -1
REMARK  0 active torsions:
REMARK  status: ('A' for Active; 'I' for Inactive)
ROOT
ATOM      1  C1  BNZ d   1       0.964  -1.902  -0.435  0.00  0.00     0.000 A 
ATOM      2  C2  BNZ d   1       0.266  -0.959   0.270  0.00  0.00     0.000 A 
ATOM      3  C3  BNZ d   1      -0.865  -1.295   0.960  0.00  0.00     0.000 A 
ATOM      4  C4  BNZ d   1      -1.318  -2.564   0.911  0.00  0.00     0.000 A 
ATOM      5  C5  BNZ d   1      -0.631  -3.525   0.197  0.00  0.00     0.000 A 
ATOM      6  C6  BNZ d   1       0.529  -3.191  -0.464  0.00  0.00     0.000 A 
ENDROOT
TORSDOF 0
ENDMDL
