MODEL 1
REMARK minimizedAffinity -4.32171106
REMARK minimizedRMSD -1
REMARK  0 active torsions:
REMARK  status: ('A' for Active; 'I' for Inactive)
ROOT
ATOM      1  C1  BNZ d   1       0.280  -1.940  -0.246  0.00  0.00     0.000 A 
ATOM      2  C2  BNZ d   1      -0.222  -1.128   0.736  0.00  0.00     0.000 A 
ATOM      3  C3  BNZ d   1      -0.269   0.228   0.567  0.00  0.00     0.000 A 
ATOM      4  C4  BNZ d   1       0.221   0.772  -0.565  0.00  0.00     0.000 A 
ATOM      5  C5  BNZ d   1       0.739  -0.032  -1.561  0.00  0.00     0.000 A 
ATOM      6  C6  BNZ d   1       0.750  -1.399  -1.404  0.00  0.00     0.000 A 
ENDROOT
TORSDOF 0
ENDMDL
