MODEL 1
REMARK minimizedAffinity -3.20541883
REMARK minimizedRMSD -1
REMARK  0 active torsions:
REMARK  status: ('A' for Active; 'I' for Inactive)
ROOT
ATOM      1  C1  BNZ d   1      -0.287   0.571   0.259  0.00  0.00     0.000 A 
ATOM      2  C2  BNZ d   1      -0.910  -0.246   1.165  0.00  0.00     0.000 A 
ATOM      3  C3  BNZ d   1      -0.910  -1.603   0.999  0.00  0.00     0.000 A 
ATOM      4  C4  BNZ d   1      -0.322  -2.137  -0.091  0.00  0.00     0.000 A 
ATOM      5  C5  BNZ d   1       0.302  -1.326  -1.017  0.00  0.00     0.000 A 
ATOM      6  C6  BNZ d   1       0.334   0.036  -0.827  0.00  0.00     0.000 A 
ENDROOT
TORSDOF 0
ENDMDL
