MODEL 1
REMARK minimizedAffinity -1.17168009
REMARK minimizedRMSD -1
REMARK  0 active torsions:
REMARK  status: ('A' for Active; 'I' for Inactive)
ROOT
ATOM      1  C1  BNZ d   1       5.262  -2.166  -2.218  0.00  0.00     0.000 A 
ATOM      2  C2  BNZ d   1       5.259  -1.623  -0.961  0.00  0.00     0.000 A 
ATOM      3  C3  BNZ d   1       5.648  -2.360   0.122  0.00  0.00     0.000 A 
ATOM      4  C4  BNZ d   1       6.000  -3.651  -0.047  0.00  0.00     0.000 A 
ATOM      5  C5  BNZ d   1       5.999  -4.217  -1.307  0.00  0.00     0.000 A 
ATOM      6  C6  BNZ d   1       5.645  -3.460  -2.400  0.00  0.00     0.000 A 
ENDROOT
TORSDOF 0
ENDMDL
