MODEL 1
REMARK minimizedAffinity -3.00670147
REMARK minimizedRMSD -1
REMARK  0 active torsions:
REMARK  status: ('A' for Active; 'I' for Inactive)
ROOT
ATOM      1  C1  BNZ d   1       0.177  -1.190  -1.557  0.00  0.00     0.000 A 
ATOM      2  C2  BNZ d   1      -0.345  -2.456  -1.594  0.00  0.00     0.000 A 
ATOM      3  C3  BNZ d   1      -0.957  -2.993  -0.496  0.00  0.00     0.000 A 
ATOM      4  C4  BNZ d   1      -1.011  -2.281   0.648  0.00  0.00     0.000 A 
ATOM      5  C5  BNZ d   1      -0.481  -1.007   0.704  0.00  0.00     0.000 A 
ATOM      6  C6  BNZ d   1       0.100  -0.455  -0.415  0.00  0.00     0.000 A 
ENDROOT
TORSDOF 0
ENDMDL
