MODEL 1
REMARK minimizedAffinity -3.94447994
REMARK minimizedRMSD -1
REMARK  0 active torsions:
REMARK  status: ('A' for Active; 'I' for Inactive)
ROOT
ATOM      1  C1  BNZ d   1      -0.339  -1.802  -0.230  0.00  0.00     0.000 A 
ATOM      2  C2  BNZ d   1       0.178  -1.000  -1.213  0.00  0.00     0.000 A 
ATOM      3  C3  BNZ d   1      -0.020   0.352  -1.190  0.00  0.00     0.000 A 
ATOM      4  C4  BNZ d   1      -0.767   0.896  -0.208  0.00  0.00     0.000 A 
ATOM      5  C5  BNZ d   1      -1.303   0.100   0.785  0.00  0.00     0.000 A 
ATOM      6  C6  BNZ d   1      -1.069  -1.256   0.780  0.00  0.00     0.000 A 
ENDROOT
TORSDOF 0
ENDMDL
