MODEL 1
REMARK minimizedAffinity -1.41177177
REMARK minimizedRMSD -1
REMARK  0 active torsions:
REMARK  status: ('A' for Active; 'I' for Inactive)
ROOT
ATOM      1  C1  BNZ d   1       0.001   0.744  -1.271  0.00  0.00     0.000 A 
ATOM      2  C2  BNZ d   1      -0.413   1.073  -0.008  0.00  0.00     0.000 A 
ATOM      3  C3  BNZ d   1      -0.766   0.103   0.887  0.00  0.00     0.000 A 
ATOM      4  C4  BNZ d   1      -0.744  -1.191   0.506  0.00  0.00     0.000 A 
ATOM      5  C5  BNZ d   1      -0.338  -1.538  -0.767  0.00  0.00     0.000 A 
ATOM      6  C6  BNZ d   1       0.054  -0.561  -1.653  0.00  0.00     0.000 A 
ENDROOT
TORSDOF 0
ENDMDL
