MODEL 1
REMARK minimizedAffinity -3.54793119
REMARK minimizedRMSD -1
REMARK  0 active torsions:
REMARK  status: ('A' for Active; 'I' for Inactive)
ROOT
ATOM      1  C1  BNZ d   1      -1.060  -2.171   1.048  0.00  0.00     0.000 A 
ATOM      2  C2  BNZ d   1      -0.752  -0.841   1.157  0.00  0.00     0.000 A 
ATOM      3  C3  BNZ d   1      -0.198  -0.163   0.107  0.00  0.00     0.000 A 
ATOM      4  C4  BNZ d   1       0.084  -0.825  -1.035  0.00  0.00     0.000 A 
ATOM      5  C5  BNZ d   1      -0.212  -2.168  -1.156  0.00  0.00     0.000 A 
ATOM      6  C6  BNZ d   1      -0.805  -2.838  -0.110  0.00  0.00     0.000 A 
ENDROOT
TORSDOF 0
ENDMDL
