MODEL 1
REMARK minimizedAffinity -3.10132027
REMARK minimizedRMSD -1
REMARK  0 active torsions:
REMARK  status: ('A' for Active; 'I' for Inactive)
ROOT
ATOM      1  C1  BNZ d   1      -0.717   0.788   0.413  0.00  0.00     0.000 A 
ATOM      2  C2  BNZ d   1      -1.004  -0.280   1.222  0.00  0.00     0.000 A 
ATOM      3  C3  BNZ d   1      -0.665  -1.551   0.849  0.00  0.00     0.000 A 
ATOM      4  C4  BNZ d   1      -0.077  -1.756  -0.347  0.00  0.00     0.000 A 
ATOM      5  C5  BNZ d   1       0.210  -0.691  -1.177  0.00  0.00     0.000 A 
ATOM      6  C6  BNZ d   1      -0.097   0.590  -0.782  0.00  0.00     0.000 A 
ENDROOT
TORSDOF 0
ENDMDL
