MODEL 1
REMARK minimizedAffinity -2.79643631
REMARK minimizedRMSD -1
REMARK  0 active torsions:
REMARK  status: ('A' for Active; 'I' for Inactive)
ROOT
ATOM      1  C1  BNZ d   1      -0.319   0.549   1.065  0.00  0.00     0.000 A 
ATOM      2  C2  BNZ d   1      -0.910  -0.444   1.801  0.00  0.00     0.000 A 
ATOM      3  C3  BNZ d   1      -0.934  -1.732   1.346  0.00  0.00     0.000 A 
ATOM      4  C4  BNZ d   1      -0.403  -2.019   0.139  0.00  0.00     0.000 A 
ATOM      5  C5  BNZ d   1       0.188  -1.028  -0.618  0.00  0.00     0.000 A 
ATOM      6  C6  BNZ d   1       0.244   0.261  -0.140  0.00  0.00     0.000 A 
ENDROOT
TORSDOF 0
ENDMDL
