MODEL 1
REMARK minimizedAffinity -0.435879558
REMARK minimizedRMSD -1
REMARK  0 active torsions:
REMARK  status: ('A' for Active; 'I' for Inactive)
ROOT
ATOM      1  C1  BNZ d   1      -0.333   1.313   0.332  0.00  0.00     0.000 A 
ATOM      2  C2  BNZ d   1      -0.716   0.381   1.259  0.00  0.00     0.000 A 
ATOM      3  C3  BNZ d   1      -0.525  -0.953   1.030  0.00  0.00     0.000 A 
ATOM      4  C4  BNZ d   1       0.009  -1.355  -0.142  0.00  0.00     0.000 A 
ATOM      5  C5  BNZ d   1       0.390  -0.427  -1.090  0.00  0.00     0.000 A 
ATOM      6  C6  BNZ d   1       0.233   0.917  -0.840  0.00  0.00     0.000 A 
ENDROOT
TORSDOF 0
ENDMDL
