MODEL 1
REMARK minimizedAffinity 24.6253262
REMARK minimizedRMSD -1
REMARK  2 active torsions:
REMARK  status: ('A' for Active; 'I' for Inactive)
REMARK    1  A    between atoms: C2'_3  and  C1'_4 
REMARK    2  A    between atoms: C1'_4  and  C1_5 
ROOT
ATOM      1  C1  I4B d   1       2.043   2.722  -0.967  0.00  0.00    -0.075 A 
ATOM      2  C2  I4B d   1       1.820   2.798   0.385  0.00  0.00     0.003 A 
ATOM      3  C3  I4B d   1       1.186   3.936   0.940  0.00  0.00     0.002 A 
ATOM      4  C4  I4B d   1       0.839   4.989   0.119  0.00  0.00    -0.004 A 
ATOM      5  C5  I4B d   1       1.045   4.901  -1.255  0.00  0.00     0.002 A 
ATOM      6  C6  I4B d   1       1.639   3.755  -1.804  0.00  0.00     0.003 A 
ENDROOT
BRANCH   1   7
ATOM      7  C1' I4B d   1       2.744   1.520  -1.515  0.00  0.00     0.060 C 
BRANCH   7   8
ATOM      8  C2' I4B d   1       2.760   0.456  -0.437  0.00  0.00    -0.013 C 
ATOM      9  C4' I4B d   1       2.331  -0.880  -0.983  0.00  0.00     0.013 C 
ATOM     10  C3' I4B d   1       4.147   0.391   0.129  0.00  0.00     0.013 C 
ENDBRANCH   7   8
ENDBRANCH   1   7
TORSDOF 2
ENDMDL
