MODEL 1
REMARK minimizedAffinity 19.0729351
REMARK minimizedRMSD -1
REMARK  2 active torsions:
REMARK  status: ('A' for Active; 'I' for Inactive)
REMARK    1  A    between atoms: C2'_3  and  C1'_4 
REMARK    2  A    between atoms: C1'_4  and  C1_5 
ROOT
ATOM      1  C1  I4B d   1      -3.175   1.395   3.847  0.00  0.00    -0.075 A 
ATOM      2  C2  I4B d   1      -3.415   1.703   5.163  0.00  0.00     0.003 A 
ATOM      3  C3  I4B d   1      -2.355   2.129   5.999  0.00  0.00     0.002 A 
ATOM      4  C4  I4B d   1      -1.072   2.184   5.496  0.00  0.00    -0.004 A 
ATOM      5  C5  I4B d   1      -0.834   1.893   4.155  0.00  0.00     0.002 A 
ATOM      6  C6  I4B d   1      -1.895   1.509   3.322  0.00  0.00     0.003 A 
ENDROOT
BRANCH   1   7
ATOM      7  C1' I4B d   1      -4.312   0.918   3.000  0.00  0.00     0.060 C 
BRANCH   7   8
ATOM      8  C2' I4B d   1      -4.337  -0.596   3.063  0.00  0.00    -0.013 C 
ATOM      9  C4' I4B d   1      -4.023  -1.089   4.451  0.00  0.00     0.013 C 
ATOM     10  C3' I4B d   1      -5.694  -1.056   2.619  0.00  0.00     0.013 C 
ENDBRANCH   7   8
ENDBRANCH   1   7
TORSDOF 2
ENDMDL
