MODEL 1
REMARK minimizedAffinity 21.2338791
REMARK minimizedRMSD -1
REMARK  2 active torsions:
REMARK  status: ('A' for Active; 'I' for Inactive)
REMARK    1  A    between atoms: C2'_3  and  C1'_4 
REMARK    2  A    between atoms: C1'_4  and  C1_5 
ROOT
ATOM      1  C1  I4B d   1      -2.825   3.699  -5.325  0.00  0.00    -0.075 A 
ATOM      2  C2  I4B d   1      -1.625   3.402  -5.923  0.00  0.00     0.003 A 
ATOM      3  C3  I4B d   1      -0.786   2.400  -5.379  0.00  0.00     0.002 A 
ATOM      4  C4  I4B d   1      -1.159   1.760  -4.214  0.00  0.00    -0.004 A 
ATOM      5  C5  I4B d   1      -2.385   2.047  -3.622  0.00  0.00     0.002 A 
ATOM      6  C6  I4B d   1      -3.229   3.013  -4.187  0.00  0.00     0.003 A 
ENDROOT
BRANCH   1   7
ATOM      7  C1' I4B d   1      -3.671   4.785  -5.908  0.00  0.00     0.060 C 
BRANCH   7   8
ATOM      8  C2' I4B d   1      -5.087   4.595  -5.404  0.00  0.00    -0.013 C 
ATOM      9  C4' I4B d   1      -5.961   5.764  -5.776  0.00  0.00     0.013 C 
ATOM     10  C3' I4B d   1      -5.617   3.317  -5.983  0.00  0.00     0.013 C 
ENDBRANCH   7   8
ENDBRANCH   1   7
TORSDOF 2
ENDMDL
