MODEL 1
REMARK minimizedAffinity 18.4427605
REMARK minimizedRMSD -1
REMARK  2 active torsions:
REMARK  status: ('A' for Active; 'I' for Inactive)
REMARK    1  A    between atoms: C2'_3  and  C1'_4 
REMARK    2  A    between atoms: C1'_4  and  C1_5 
ROOT
ATOM      1  C1  I4B d   1      -0.371  -2.140  -1.609  0.00  0.00    -0.075 A 
ATOM      2  C2  I4B d   1      -1.136  -1.098  -2.069  0.00  0.00     0.003 A 
ATOM      3  C3  I4B d   1      -2.451  -1.332  -2.540  0.00  0.00     0.002 A 
ATOM      4  C4  I4B d   1      -2.939  -2.622  -2.579  0.00  0.00    -0.004 A 
ATOM      5  C5  I4B d   1      -2.170  -3.675  -2.090  0.00  0.00     0.002 A 
ATOM      6  C6  I4B d   1      -0.883  -3.431  -1.591  0.00  0.00     0.003 A 
ENDROOT
BRANCH   1   7
ATOM      7  C1' I4B d   1       1.025  -1.862  -1.150  0.00  0.00     0.060 C 
BRANCH   7   8
ATOM      8  C2' I4B d   1       1.459  -0.540  -1.751  0.00  0.00    -0.013 C 
ATOM      9  C4' I4B d   1       2.666   0.012  -1.039  0.00  0.00     0.013 C 
ATOM     10  C3' I4B d   1       1.745  -0.765  -3.206  0.00  0.00     0.013 C 
ENDBRANCH   7   8
ENDBRANCH   1   7
TORSDOF 2
ENDMDL
