MODEL 1
REMARK minimizedAffinity 4.32631063
REMARK minimizedRMSD -1
REMARK  2 active torsions:
REMARK  status: ('A' for Active; 'I' for Inactive)
REMARK    1  A    between atoms: C2'_3  and  C1'_4 
REMARK    2  A    between atoms: C1'_4  and  C1_5 
ROOT
ATOM      1  C1  I4B d   1      -4.604   1.170   5.028  0.00  0.00    -0.075 A 
ATOM      2  C2  I4B d   1      -5.364   0.069   5.334  0.00  0.00     0.003 A 
ATOM      3  C3  I4B d   1      -5.453  -1.011   4.423  0.00  0.00     0.002 A 
ATOM      4  C4  I4B d   1      -4.812  -0.927   3.204  0.00  0.00    -0.004 A 
ATOM      5  C5  I4B d   1      -4.024   0.181   2.905  0.00  0.00     0.002 A 
ATOM      6  C6  I4B d   1      -3.909   1.231   3.827  0.00  0.00     0.003 A 
ENDROOT
BRANCH   1   7
ATOM      7  C1' I4B d   1      -4.559   2.307   5.999  0.00  0.00     0.060 C 
BRANCH   7   8
ATOM      8  C2' I4B d   1      -5.677   3.267   5.648  0.00  0.00    -0.013 C 
ATOM      9  C4' I4B d   1      -5.311   4.684   6.000  0.00  0.00     0.013 C 
ATOM     10  C3' I4B d   1      -5.962   3.129   4.182  0.00  0.00     0.013 C 
ENDBRANCH   7   8
ENDBRANCH   1   7
TORSDOF 2
ENDMDL
