MODEL 1
REMARK minimizedAffinity 9.07012844
REMARK minimizedRMSD -1
REMARK  2 active torsions:
REMARK  status: ('A' for Active; 'I' for Inactive)
REMARK    1  A    between atoms: C2'_3  and  C1'_4 
REMARK    2  A    between atoms: C1'_4  and  C1_5 
ROOT
ATOM      1  C1  I4B d   1      -3.777  -4.309  -3.495  0.00  0.00    -0.075 A 
ATOM      2  C2  I4B d   1      -3.748  -5.463  -2.752  0.00  0.00     0.003 A 
ATOM      3  C3  I4B d   1      -2.512  -5.993  -2.307  0.00  0.00     0.002 A 
ATOM      4  C4  I4B d   1      -1.335  -5.370  -2.668  0.00  0.00    -0.004 A 
ATOM      5  C5  I4B d   1      -1.368  -4.187  -3.402  0.00  0.00     0.002 A 
ATOM      6  C6  I4B d   1      -2.597  -3.647  -3.808  0.00  0.00     0.003 A 
ENDROOT
BRANCH   1   7
ATOM      7  C1' I4B d   1      -5.097  -3.795  -3.976  0.00  0.00     0.060 C 
BRANCH   7   8
ATOM      8  C2' I4B d   1      -5.100  -3.863  -5.490  0.00  0.00    -0.013 C 
ATOM      9  C4' I4B d   1      -5.561  -5.212  -5.974  0.00  0.00     0.013 C 
ATOM     10  C3' I4B d   1      -5.992  -2.771  -6.000  0.00  0.00     0.013 C 
ENDBRANCH   7   8
ENDBRANCH   1   7
TORSDOF 2
ENDMDL
