MODEL 1
REMARK minimizedAffinity 24.8068638
REMARK minimizedRMSD -1
REMARK  2 active torsions:
REMARK  status: ('A' for Active; 'I' for Inactive)
REMARK    1  A    between atoms: C2'_3  and  C1'_4 
REMARK    2  A    between atoms: C1'_4  and  C1_5 
ROOT
ATOM      1  C1  I4B d   1      -0.123  -1.599  -2.833  0.00  0.00    -0.075 A 
ATOM      2  C2  I4B d   1      -1.246  -0.823  -2.693  0.00  0.00     0.003 A 
ATOM      3  C3  I4B d   1      -2.525  -1.426  -2.622  0.00  0.00     0.002 A 
ATOM      4  C4  I4B d   1      -2.638  -2.795  -2.745  0.00  0.00    -0.004 A 
ATOM      5  C5  I4B d   1      -1.497  -3.583  -2.865  0.00  0.00     0.002 A 
ATOM      6  C6  I4B d   1      -0.230  -2.982  -2.896  0.00  0.00     0.003 A 
ENDROOT
BRANCH   1   7
ATOM      7  C1' I4B d   1       1.210  -0.927  -2.938  0.00  0.00     0.060 C 
BRANCH   7   8
ATOM      8  C2' I4B d   1       1.298  -0.275  -4.303  0.00  0.00    -0.013 C 
ATOM      9  C4' I4B d   1       1.253   1.226  -4.194  0.00  0.00     0.013 C 
ATOM     10  C3' I4B d   1       2.569  -0.734  -4.953  0.00  0.00     0.013 C 
ENDBRANCH   7   8
ENDBRANCH   1   7
TORSDOF 2
ENDMDL
