MODEL 1
REMARK minimizedAffinity 13.3553562
REMARK minimizedRMSD -1
REMARK  2 active torsions:
REMARK  status: ('A' for Active; 'I' for Inactive)
REMARK    1  A    between atoms: C2'_3  and  C1'_4 
REMARK    2  A    between atoms: C1'_4  and  C1_5 
ROOT
ATOM      1  C1  I4B d   1      -0.588  -2.386  -2.561  0.00  0.00    -0.075 A 
ATOM      2  C2  I4B d   1      -1.453  -1.664  -3.345  0.00  0.00     0.003 A 
ATOM      3  C3  I4B d   1      -2.676  -2.237  -3.770  0.00  0.00     0.002 A 
ATOM      4  C4  I4B d   1      -2.969  -3.542  -3.432  0.00  0.00    -0.004 A 
ATOM      5  C5  I4B d   1      -2.101  -4.265  -2.619  0.00  0.00     0.002 A 
ATOM      6  C6  I4B d   1      -0.908  -3.679  -2.170  0.00  0.00     0.003 A 
ENDROOT
BRANCH   1   7
ATOM      7  C1' I4B d   1       0.710  -1.761  -2.157  0.00  0.00     0.060 C 
BRANCH   7   8
ATOM      8  C2' I4B d   1       0.841  -1.886  -0.653  0.00  0.00    -0.013 C 
ATOM      9  C4' I4B d   1       1.361  -3.244  -0.262  0.00  0.00     0.013 C 
ATOM     10  C3' I4B d   1       1.755  -0.798  -0.175  0.00  0.00     0.013 C 
ENDBRANCH   7   8
ENDBRANCH   1   7
TORSDOF 2
ENDMDL
