MODEL 1
REMARK minimizedAffinity 10.5431719
REMARK minimizedRMSD -1
REMARK  2 active torsions:
REMARK  status: ('A' for Active; 'I' for Inactive)
REMARK    1  A    between atoms: C2'_3  and  C1'_4 
REMARK    2  A    between atoms: C1'_4  and  C1_5 
ROOT
ATOM      1  C1  I4B d   1       3.141  -2.854  -2.890  0.00  0.00    -0.075 A 
ATOM      2  C2  I4B d   1       2.806  -1.549  -3.153  0.00  0.00     0.003 A 
ATOM      3  C3  I4B d   1       2.241  -0.739  -2.138  0.00  0.00     0.002 A 
ATOM      4  C4  I4B d   1       1.982  -1.287  -0.898  0.00  0.00    -0.004 A 
ATOM      5  C5  I4B d   1       2.343  -2.603  -0.627  0.00  0.00     0.002 A 
ATOM      6  C6  I4B d   1       2.937  -3.389  -1.625  0.00  0.00     0.003 A 
ENDROOT
BRANCH   1   7
ATOM      7  C1' I4B d   1       3.706  -3.689  -3.995  0.00  0.00     0.060 C 
BRANCH   7   8
ATOM      8  C2' I4B d   1       4.391  -2.762  -4.978  0.00  0.00    -0.013 C 
ATOM      9  C4' I4B d   1       5.570  -3.435  -5.630  0.00  0.00     0.013 C 
ATOM     10  C3' I4B d   1       3.377  -2.338  -5.998  0.00  0.00     0.013 C 
ENDBRANCH   7   8
ENDBRANCH   1   7
TORSDOF 2
ENDMDL
