MODEL 1
REMARK minimizedAffinity 19.0534992
REMARK minimizedRMSD -1
REMARK  2 active torsions:
REMARK  status: ('A' for Active; 'I' for Inactive)
REMARK    1  A    between atoms: C2'_3  and  C1'_4 
REMARK    2  A    between atoms: C1'_4  and  C1_5 
ROOT
ATOM      1  C1  I4B d   1       0.411  -0.158  -2.946  0.00  0.00    -0.075 A 
ATOM      2  C2  I4B d   1      -0.700  -0.844  -2.523  0.00  0.00     0.003 A 
ATOM      3  C3  I4B d   1      -1.993  -0.310  -2.743  0.00  0.00     0.002 A 
ATOM      4  C4  I4B d   1      -2.125   0.927  -3.341  0.00  0.00    -0.004 A 
ATOM      5  C5  I4B d   1      -0.999   1.609  -3.789  0.00  0.00     0.002 A 
ATOM      6  C6  I4B d   1       0.277   1.058  -3.602  0.00  0.00     0.003 A 
ENDROOT
BRANCH   1   7
ATOM      7  C1' I4B d   1       1.763  -0.735  -2.667  0.00  0.00     0.060 C 
BRANCH   7   8
ATOM      8  C2' I4B d   1       2.030  -0.604  -1.182  0.00  0.00    -0.013 C 
ATOM      9  C4' I4B d   1       2.746  -1.816  -0.647  0.00  0.00     0.013 C 
ATOM     10  C3' I4B d   1       2.836   0.641  -0.964  0.00  0.00     0.013 C 
ENDBRANCH   7   8
ENDBRANCH   1   7
TORSDOF 2
ENDMDL
