MODEL 1
REMARK minimizedAffinity 8.13001919
REMARK minimizedRMSD -1
REMARK  2 active torsions:
REMARK  status: ('A' for Active; 'I' for Inactive)
REMARK    1  A    between atoms: C2'_3  and  C1'_4 
REMARK    2  A    between atoms: C1'_4  and  C1_5 
ROOT
ATOM      1  C1  I4B d   1      -3.124   1.284   3.124  0.00  0.00    -0.075 A 
ATOM      2  C2  I4B d   1      -3.670   1.915   4.214  0.00  0.00     0.003 A 
ATOM      3  C3  I4B d   1      -2.855   2.700   5.066  0.00  0.00     0.002 A 
ATOM      4  C4  I4B d   1      -1.500   2.784   4.821  0.00  0.00    -0.004 A 
ATOM      5  C5  I4B d   1      -0.952   2.162   3.703  0.00  0.00     0.002 A 
ATOM      6  C6  I4B d   1      -1.771   1.417   2.841  0.00  0.00     0.003 A 
ENDROOT
BRANCH   1   7
ATOM      7  C1' I4B d   1      -4.008   0.437   2.264  0.00  0.00     0.060 C 
BRANCH   7   8
ATOM      8  C2' I4B d   1      -4.889  -0.393   3.175  0.00  0.00    -0.013 C 
ATOM      9  C4' I4B d   1      -5.949  -1.122   2.392  0.00  0.00     0.013 C 
ATOM     10  C3' I4B d   1      -4.010  -1.353   3.920  0.00  0.00     0.013 C 
ENDBRANCH   7   8
ENDBRANCH   1   7
TORSDOF 2
ENDMDL
