MODEL 1
REMARK minimizedAffinity -1.3636744
REMARK minimizedRMSD -1
REMARK  2 active torsions:
REMARK  status: ('A' for Active; 'I' for Inactive)
REMARK    1  A    between atoms: C2'_3  and  C1'_4 
REMARK    2  A    between atoms: C1'_4  and  C1_5 
ROOT
ATOM      1  C1  I4B d   1       0.504  -0.489  -0.479  0.00  0.00    -0.075 A 
ATOM      2  C2  I4B d   1       0.814  -0.672  -1.803  0.00  0.00     0.003 A 
ATOM      3  C3  I4B d   1       1.274   0.415  -2.585  0.00  0.00     0.002 A 
ATOM      4  C4  I4B d   1       1.362   1.670  -2.019  0.00  0.00    -0.004 A 
ATOM      5  C5  I4B d   1       1.070   1.850  -0.670  0.00  0.00     0.002 A 
ATOM      6  C6  I4B d   1       0.650   0.761   0.109  0.00  0.00     0.003 A 
ENDROOT
BRANCH   1   7
ATOM      7  C1' I4B d   1      -0.011  -1.651   0.309  0.00  0.00     0.060 C 
BRANCH   7   8
ATOM      8  C2' I4B d   1      -0.241  -2.801  -0.651  0.00  0.00    -0.013 C 
ATOM      9  C4' I4B d   1      -0.137  -4.128   0.053  0.00  0.00     0.013 C 
ATOM     10  C3' I4B d   1      -1.594  -2.621  -1.272  0.00  0.00     0.013 C 
ENDBRANCH   7   8
ENDBRANCH   1   7
TORSDOF 2
ENDMDL
