MODEL 1
REMARK minimizedAffinity -0.0760887489
REMARK minimizedRMSD -1
REMARK  0 active torsions:
REMARK  status: ('A' for Active; 'I' for Inactive)
ROOT
ATOM      1  N1  IND d   1       0.878   0.583  -0.407  0.00  0.00    -0.196 N 
ATOM      2  C2  IND d   1      -0.066  -0.272   0.088  0.00  0.00     0.054 A 
ATOM      3  C3  IND d   1      -0.728  -0.878  -0.923  0.00  0.00    -0.031 A 
ATOM      4  C4  IND d   1      -0.359  -0.691  -3.463  0.00  0.00     0.051 A 
ATOM      5  C5  IND d   1       0.366  -0.008  -4.399  0.00  0.00    -0.031 A 
ATOM      6  C6  IND d   1       1.319   0.925  -4.045  0.00  0.00     0.015 A 
ATOM      7  C7  IND d   1       1.593   1.201  -2.735  0.00  0.00    -0.016 A 
ATOM      8  C8  IND d   1       0.854   0.514  -1.782  0.00  0.00    -0.047 A 
ATOM      9  C9  IND d   1      -0.144  -0.402  -2.136  0.00  0.00    -0.096 A 
ATOM     10  HN1 IND d   1       1.400   1.081   0.062  0.00  0.00     0.298 HD
ENDROOT
TORSDOF 0
ENDMDL
