MODEL 1
REMARK minimizedAffinity -5.64149714
REMARK minimizedRMSD -1
REMARK  0 active torsions:
REMARK  status: ('A' for Active; 'I' for Inactive)
ROOT
ATOM      1  N1  IND d   1      -0.640   1.598   3.224  0.00  0.00    -0.196 N 
ATOM      2  C2  IND d   1       0.697   1.611   3.507  0.00  0.00     0.054 A 
ATOM      3  C3  IND d   1       1.376   0.865   2.607  0.00  0.00    -0.031 A 
ATOM      4  C4  IND d   1       0.507  -0.383   0.530  0.00  0.00     0.051 A 
ATOM      5  C5  IND d   1      -0.647  -0.716  -0.122  0.00  0.00    -0.031 A 
ATOM      6  C6  IND d   1      -1.883  -0.283   0.315  0.00  0.00     0.015 A 
ATOM      7  C7  IND d   1      -2.010   0.511   1.419  0.00  0.00    -0.016 A 
ATOM      8  C8  IND d   1      -0.840   0.845   2.088  0.00  0.00    -0.047 A 
ATOM      9  C9  IND d   1       0.412   0.374   1.673  0.00  0.00    -0.096 A 
ATOM     10  HN1 IND d   1      -1.253   1.993   3.679  0.00  0.00     0.298 HD
ENDROOT
TORSDOF 0
ENDMDL
