MODEL 1
REMARK minimizedAffinity -3.51221609
REMARK minimizedRMSD -1
REMARK  0 active torsions:
REMARK  status: ('A' for Active; 'I' for Inactive)
ROOT
ATOM      1  N1  IND d   1       1.068  -0.457  -0.291  0.00  0.00    -0.196 N 
ATOM      2  C2  IND d   1       0.302  -0.756  -1.383  0.00  0.00     0.054 A 
ATOM      3  C3  IND d   1      -0.985  -0.400  -1.167  0.00  0.00    -0.031 A 
ATOM      4  C4  IND d   1      -2.035   0.781   0.866  0.00  0.00     0.051 A 
ATOM      5  C5  IND d   1      -1.741   1.223   2.125  0.00  0.00    -0.031 A 
ATOM      6  C6  IND d   1      -0.470   1.129   2.653  0.00  0.00     0.015 A 
ATOM      7  C7  IND d   1       0.563   0.596   1.934  0.00  0.00    -0.016 A 
ATOM      8  C8  IND d   1       0.266   0.139   0.657  0.00  0.00    -0.047 A 
ATOM      9  C9  IND d   1      -1.031   0.194   0.132  0.00  0.00    -0.096 A 
ATOM     10  HN1 IND d   1       1.909  -0.615  -0.210  0.00  0.00     0.298 HD
ENDROOT
TORSDOF 0
ENDMDL
