MODEL 1
REMARK minimizedAffinity -3.91382766
REMARK minimizedRMSD -1
REMARK  0 active torsions:
REMARK  status: ('A' for Active; 'I' for Inactive)
ROOT
ATOM      1  N1  IND d   1       1.421  -0.829  -0.554  0.00  0.00    -0.196 N 
ATOM      2  C2  IND d   1       0.335  -0.756  -1.382  0.00  0.00     0.054 A 
ATOM      3  C3  IND d   1      -0.626   0.018  -0.830  0.00  0.00    -0.031 A 
ATOM      4  C4  IND d   1      -0.590   1.346   1.376  0.00  0.00     0.051 A 
ATOM      5  C5  IND d   1       0.170   1.563   2.490  0.00  0.00    -0.031 A 
ATOM      6  C6  IND d   1       1.413   0.984   2.649  0.00  0.00     0.015 A 
ATOM      7  C7  IND d   1       1.948   0.172   1.690  0.00  0.00    -0.016 A 
ATOM      8  C8  IND d   1       1.176  -0.056   0.560  0.00  0.00    -0.047 A 
ATOM      9  C9  IND d   1      -0.104   0.495   0.412  0.00  0.00    -0.096 A 
ATOM     10  HN1 IND d   1       2.137  -1.282  -0.704  0.00  0.00     0.298 HD
ENDROOT
TORSDOF 0
ENDMDL
