MODEL 1
REMARK minimizedAffinity -6.05487585
REMARK minimizedRMSD -1
REMARK  0 active torsions:
REMARK  status: ('A' for Active; 'I' for Inactive)
ROOT
ATOM      1  N1  IND d   1       0.652  -0.434  -0.156  0.00  0.00    -0.196 N 
ATOM      2  C2  IND d   1      -0.463  -0.203  -0.911  0.00  0.00     0.054 A 
ATOM      3  C3  IND d   1      -1.435   0.357  -0.156  0.00  0.00    -0.031 A 
ATOM      4  C4  IND d   1      -1.377   1.075   2.315  0.00  0.00     0.051 A 
ATOM      5  C5  IND d   1      -0.587   1.035   3.430  0.00  0.00    -0.031 A 
ATOM      6  C6  IND d   1       0.682   0.496   3.406  0.00  0.00     0.015 A 
ATOM      7  C7  IND d   1       1.217  -0.017   2.257  0.00  0.00    -0.016 A 
ATOM      8  C8  IND d   1       0.415   0.015   1.125  0.00  0.00    -0.047 A 
ATOM      9  C9  IND d   1      -0.890   0.523   1.154  0.00  0.00    -0.096 A 
ATOM     10  HN1 IND d   1       1.380  -0.798  -0.433  0.00  0.00     0.298 HD
ENDROOT
TORSDOF 0
ENDMDL
