MODEL 1
REMARK minimizedAffinity -4.8150239
REMARK minimizedRMSD -1
REMARK  0 active torsions:
REMARK  status: ('A' for Active; 'I' for Inactive)
ROOT
ATOM      1  N1  IND d   1       1.960  -0.664   1.673  0.00  0.00    -0.196 N 
ATOM      2  C2  IND d   1       1.905  -0.844   0.319  0.00  0.00     0.054 A 
ATOM      3  C3  IND d   1       0.736  -0.375  -0.172  0.00  0.00    -0.031 A 
ATOM      4  C4  IND d   1      -1.189   0.820   1.052  0.00  0.00     0.051 A 
ATOM      5  C5  IND d   1      -1.612   1.181   2.300  0.00  0.00    -0.031 A 
ATOM      6  C6  IND d   1      -0.849   0.944   3.425  0.00  0.00     0.015 A 
ATOM      7  C7  IND d   1       0.375   0.344   3.343  0.00  0.00    -0.016 A 
ATOM      8  C8  IND d   1       0.805  -0.031   2.077  0.00  0.00    -0.047 A 
ATOM      9  C9  IND d   1       0.017   0.168   0.937  0.00  0.00    -0.096 A 
ATOM     10  HN1 IND d   1       2.606  -0.905   2.185  0.00  0.00     0.298 HD
ENDROOT
TORSDOF 0
ENDMDL
