MODEL 1
REMARK minimizedAffinity 2.01916766
REMARK minimizedRMSD -1
REMARK  2 active torsions:
REMARK  status: ('A' for Active; 'I' for Inactive)
REMARK    1  A    between atoms: C2'_3  and  C1'_4 
REMARK    2  A    between atoms: C1'_4  and  C1_5 
ROOT
ATOM      1  C1  I4B d   1       2.204  -0.510  -1.250  0.00  0.00    -0.075 A 
ATOM      2  C2  I4B d   1       2.170   0.849  -1.441  0.00  0.00     0.003 A 
ATOM      3  C3  I4B d   1       3.085   1.467  -2.327  0.00  0.00     0.002 A 
ATOM      4  C4  I4B d   1       4.043   0.700  -2.959  0.00  0.00    -0.004 A 
ATOM      5  C5  I4B d   1       4.061  -0.680  -2.782  0.00  0.00     0.002 A 
ATOM      6  C6  I4B d   1       3.128  -1.291  -1.932  0.00  0.00     0.003 A 
ENDROOT
BRANCH   1   7
ATOM      7  C1' I4B d   1       1.245  -1.126  -0.282  0.00  0.00     0.060 C 
BRANCH   7   8
ATOM      8  C2' I4B d   1       1.069  -0.165   0.877  0.00  0.00    -0.013 C 
ATOM      9  C4' I4B d   1       0.013  -0.651   1.833  0.00  0.00     0.013 C 
ATOM     10  C3' I4B d   1       2.395  -0.020   1.563  0.00  0.00     0.013 C 
ENDBRANCH   7   8
ENDBRANCH   1   7
TORSDOF 2
ENDMDL
