MODEL 1
REMARK minimizedAffinity 6.58851767
REMARK minimizedRMSD -1
REMARK  2 active torsions:
REMARK  status: ('A' for Active; 'I' for Inactive)
REMARK    1  A    between atoms: C2'_3  and  C1'_4 
REMARK    2  A    between atoms: C1'_4  and  C1_5 
ROOT
ATOM      1  C1  I4B d   1       2.635  -0.935  -1.453  0.00  0.00    -0.075 A 
ATOM      2  C2  I4B d   1       2.009  -1.946  -0.767  0.00  0.00     0.003 A 
ATOM      3  C3  I4B d   1       1.114  -1.644   0.288  0.00  0.00     0.002 A 
ATOM      4  C4  I4B d   1       0.915  -0.328   0.654  0.00  0.00    -0.004 A 
ATOM      5  C5  I4B d   1       1.533   0.696  -0.057  0.00  0.00     0.002 A 
ATOM      6  C6  I4B d   1       2.389   0.392  -1.125  0.00  0.00     0.003 A 
ENDROOT
BRANCH   1   7
ATOM      7  C1' I4B d   1       3.600  -1.291  -2.540  0.00  0.00     0.060 C 
BRANCH   7   8
ATOM      8  C2' I4B d   1       4.764  -0.324  -2.465  0.00  0.00    -0.013 C 
ATOM      9  C4' I4B d   1       5.955  -0.847  -3.224  0.00  0.00     0.013 C 
ATOM     10  C3' I4B d   1       4.308   0.994  -3.015  0.00  0.00     0.013 C 
ENDBRANCH   7   8
ENDBRANCH   1   7
TORSDOF 2
ENDMDL
