MODEL 1
REMARK minimizedAffinity 5.23415756
REMARK minimizedRMSD -1
REMARK  2 active torsions:
REMARK  status: ('A' for Active; 'I' for Inactive)
REMARK    1  A    between atoms: C2'_3  and  C1'_4 
REMARK    2  A    between atoms: C1'_4  and  C1_5 
ROOT
ATOM      1  C1  I4B d   1       2.943  -1.498  -0.877  0.00  0.00    -0.075 A 
ATOM      2  C2  I4B d   1       2.921  -0.621   0.179  0.00  0.00     0.003 A 
ATOM      3  C3  I4B d   1       2.087  -0.871   1.295  0.00  0.00     0.002 A 
ATOM      4  C4  I4B d   1       1.259  -1.975   1.292  0.00  0.00    -0.004 A 
ATOM      5  C5  I4B d   1       1.300  -2.875   0.230  0.00  0.00     0.002 A 
ATOM      6  C6  I4B d   1       2.156  -2.642  -0.856  0.00  0.00     0.003 A 
ENDROOT
BRANCH   1   7
ATOM      7  C1' I4B d   1       3.811  -1.186  -2.055  0.00  0.00     0.060 C 
BRANCH   7   8
ATOM      8  C2' I4B d   1       4.563   0.095  -1.754  0.00  0.00    -0.013 C 
ATOM      9  C4' I4B d   1       5.763   0.246  -2.652  0.00  0.00     0.013 C 
ATOM     10  C3' I4B d   1       3.611   1.241  -1.924  0.00  0.00     0.013 C 
ENDBRANCH   7   8
ENDBRANCH   1   7
TORSDOF 2
ENDMDL
