MODEL 1
REMARK minimizedAffinity -3.95605254
REMARK minimizedRMSD -1
REMARK  2 active torsions:
REMARK  status: ('A' for Active; 'I' for Inactive)
REMARK    1  A    between atoms: C2'_3  and  C1'_4 
REMARK    2  A    between atoms: C1'_4  and  C1_5 
ROOT
ATOM      1  C1  I4B d   1      -3.527   3.629  -3.492  0.00  0.00    -0.075 A 
ATOM      2  C2  I4B d   1      -3.610   3.079  -2.237  0.00  0.00     0.003 A 
ATOM      3  C3  I4B d   1      -4.860   2.649  -1.729  0.00  0.00     0.002 A 
ATOM      4  C4  I4B d   1      -6.000   2.833  -2.484  0.00  0.00    -0.004 A 
ATOM      5  C5  I4B d   1      -5.910   3.370  -3.765  0.00  0.00     0.002 A 
ATOM      6  C6  I4B d   1      -4.664   3.759  -4.277  0.00  0.00     0.003 A 
ENDROOT
BRANCH   1   7
ATOM      7  C1' I4B d   1      -2.196   4.103  -3.984  0.00  0.00     0.060 C 
BRANCH   7   8
ATOM      8  C2' I4B d   1      -1.307   4.331  -2.779  0.00  0.00    -0.013 C 
ATOM      9  C4' I4B d   1       0.012   3.619  -2.931  0.00  0.00     0.013 C 
ATOM     10  C3' I4B d   1      -1.108   5.810  -2.623  0.00  0.00     0.013 C 
ENDBRANCH   7   8
ENDBRANCH   1   7
TORSDOF 2
ENDMDL
