MODEL 1
REMARK minimizedAffinity -0.319351763
REMARK minimizedRMSD -1
REMARK  2 active torsions:
REMARK  status: ('A' for Active; 'I' for Inactive)
REMARK    1  A    between atoms: C2'_3  and  C1'_4 
REMARK    2  A    between atoms: C1'_4  and  C1_5 
ROOT
ATOM      1  C1  I4B d   1       1.606   0.860  -0.537  0.00  0.00    -0.075 A 
ATOM      2  C2  I4B d   1       2.341  -0.058  -1.245  0.00  0.00     0.003 A 
ATOM      3  C3  I4B d   1       2.386  -1.410  -0.827  0.00  0.00     0.002 A 
ATOM      4  C4  I4B d   1       1.728  -1.788   0.325  0.00  0.00    -0.004 A 
ATOM      5  C5  I4B d   1       0.965  -0.861   1.030  0.00  0.00     0.002 A 
ATOM      6  C6  I4B d   1       0.894   0.469   0.590  0.00  0.00     0.003 A 
ENDROOT
BRANCH   1   7
ATOM      7  C1' I4B d   1       1.607   2.286  -0.987  0.00  0.00     0.060 C 
BRANCH   7   8
ATOM      8  C2' I4B d   1       1.826   3.160   0.230  0.00  0.00    -0.013 C 
ATOM      9  C4' I4B d   1       3.247   3.654   0.300  0.00  0.00     0.013 C 
ATOM     10  C3' I4B d   1       0.858   4.304   0.159  0.00  0.00     0.013 C 
ENDBRANCH   7   8
ENDBRANCH   1   7
TORSDOF 2
ENDMDL
