MODEL 1
REMARK minimizedAffinity 8.54183102
REMARK minimizedRMSD -1
REMARK  2 active torsions:
REMARK  status: ('A' for Active; 'I' for Inactive)
REMARK    1  A    between atoms: C2'_3  and  C1'_4 
REMARK    2  A    between atoms: C1'_4  and  C1_5 
ROOT
ATOM      1  C1  I4B d   1       1.358  -0.266   0.337  0.00  0.00    -0.075 A 
ATOM      2  C2  I4B d   1       1.586   0.150   1.625  0.00  0.00     0.003 A 
ATOM      3  C3  I4B d   1       1.989   1.482   1.884  0.00  0.00     0.002 A 
ATOM      4  C4  I4B d   1       2.200   2.345   0.828  0.00  0.00    -0.004 A 
ATOM      5  C5  I4B d   1       1.946   1.929  -0.476  0.00  0.00     0.002 A 
ATOM      6  C6  I4B d   1       1.510   0.619  -0.722  0.00  0.00     0.003 A 
ENDROOT
BRANCH   1   7
ATOM      7  C1' I4B d   1       0.965  -1.689   0.098  0.00  0.00     0.060 C 
BRANCH   7   8
ATOM      8  C2' I4B d   1       2.099  -2.368  -0.644  0.00  0.00    -0.013 C 
ATOM      9  C4' I4B d   1       1.796  -2.484  -2.114  0.00  0.00     0.013 C 
ATOM     10  C3' I4B d   1       3.348  -1.572  -0.408  0.00  0.00     0.013 C 
ENDBRANCH   7   8
ENDBRANCH   1   7
TORSDOF 2
ENDMDL
