MODEL 1
REMARK minimizedAffinity 2.33943129
REMARK minimizedRMSD -1
REMARK  2 active torsions:
REMARK  status: ('A' for Active; 'I' for Inactive)
REMARK    1  A    between atoms: C2'_3  and  C1'_4 
REMARK    2  A    between atoms: C1'_4  and  C1_5 
ROOT
ATOM      1  C1  I4B d   1       2.450  -0.640  -0.692  0.00  0.00    -0.075 A 
ATOM      2  C2  I4B d   1       2.289   0.718  -0.810  0.00  0.00     0.003 A 
ATOM      3  C3  I4B d   1       3.138   1.466  -1.661  0.00  0.00     0.002 A 
ATOM      4  C4  I4B d   1       4.160   0.827  -2.333  0.00  0.00    -0.004 A 
ATOM      5  C5  I4B d   1       4.308  -0.553  -2.229  0.00  0.00     0.002 A 
ATOM      6  C6  I4B d   1       3.440  -1.293  -1.414  0.00  0.00     0.003 A 
ENDROOT
BRANCH   1   7
ATOM      7  C1' I4B d   1       1.557  -1.393   0.242  0.00  0.00     0.060 C 
BRANCH   7   8
ATOM      8  C2' I4B d   1       0.723  -0.385   1.005  0.00  0.00    -0.013 C 
ATOM      9  C4' I4B d   1      -0.552  -1.006   1.514  0.00  0.00     0.013 C 
ATOM     10  C3' I4B d   1       1.555   0.145   2.134  0.00  0.00     0.013 C 
ENDBRANCH   7   8
ENDBRANCH   1   7
TORSDOF 2
ENDMDL
