MODEL 1
REMARK minimizedAffinity -2.17600346
REMARK minimizedRMSD -1
REMARK  2 active torsions:
REMARK  status: ('A' for Active; 'I' for Inactive)
REMARK    1  A    between atoms: C2'_3  and  C1'_4 
REMARK    2  A    between atoms: C1'_4  and  C1_5 
ROOT
ATOM      1  C1  I4B d   1       0.479   2.092  -0.679  0.00  0.00    -0.075 A 
ATOM      2  C2  I4B d   1       0.014   3.293  -0.206  0.00  0.00     0.003 A 
ATOM      3  C3  I4B d   1      -0.592   4.220  -1.088  0.00  0.00     0.002 A 
ATOM      4  C4  I4B d   1      -0.667   3.928  -2.435  0.00  0.00    -0.004 A 
ATOM      5  C5  I4B d   1      -0.215   2.699  -2.909  0.00  0.00     0.002 A 
ATOM      6  C6  I4B d   1       0.350   1.770  -2.024  0.00  0.00     0.003 A 
ENDROOT
BRANCH   1   7
ATOM      7  C1' I4B d   1       1.144   1.150   0.275  0.00  0.00     0.060 C 
BRANCH   7   8
ATOM      8  C2' I4B d   1       0.942  -0.259  -0.243  0.00  0.00    -0.013 C 
ATOM      9  C4' I4B d   1       2.221  -0.821  -0.808  0.00  0.00     0.013 C 
ATOM     10  C3' I4B d   1       0.435  -1.101   0.889  0.00  0.00     0.013 C 
ENDBRANCH   7   8
ENDBRANCH   1   7
TORSDOF 2
ENDMDL
