MODEL 1
REMARK minimizedAffinity 0.751705825
REMARK minimizedRMSD -1
REMARK  2 active torsions:
REMARK  status: ('A' for Active; 'I' for Inactive)
REMARK    1  A    between atoms: C2'_3  and  C1'_4 
REMARK    2  A    between atoms: C1'_4  and  C1_5 
ROOT
ATOM      1  C1  I4B d   1       1.389  -0.979   0.412  0.00  0.00    -0.075 A 
ATOM      2  C2  I4B d   1       2.367  -1.527  -0.380  0.00  0.00     0.003 A 
ATOM      3  C3  I4B d   1       3.043  -0.729  -1.335  0.00  0.00     0.002 A 
ATOM      4  C4  I4B d   1       2.676   0.591  -1.498  0.00  0.00    -0.004 A 
ATOM      5  C5  I4B d   1       1.700   1.151  -0.679  0.00  0.00     0.002 A 
ATOM      6  C6  I4B d   1       1.061   0.365   0.291  0.00  0.00     0.003 A 
ENDROOT
BRANCH   1   7
ATOM      7  C1' I4B d   1       0.674  -1.859   1.387  0.00  0.00     0.060 C 
BRANCH   7   8
ATOM      8  C2' I4B d   1      -0.558  -1.118   1.868  0.00  0.00    -0.013 C 
ATOM      9  C4' I4B d   1      -1.752  -2.033   1.938  0.00  0.00     0.013 C 
ATOM     10  C3' I4B d   1      -0.248  -0.528   3.211  0.00  0.00     0.013 C 
ENDBRANCH   7   8
ENDBRANCH   1   7
TORSDOF 2
ENDMDL
