MODEL 1
REMARK minimizedAffinity 4.38412189
REMARK minimizedRMSD -1
REMARK  2 active torsions:
REMARK  status: ('A' for Active; 'I' for Inactive)
REMARK    1  A    between atoms: C2'_3  and  C1'_4 
REMARK    2  A    between atoms: C1'_4  and  C1_5 
ROOT
ATOM      1  C1  I4B d   1       2.675  -0.936  -1.017  0.00  0.00    -0.075 A 
ATOM      2  C2  I4B d   1       3.637  -1.315  -1.919  0.00  0.00     0.003 A 
ATOM      3  C3  I4B d   1       4.464  -0.342  -2.531  0.00  0.00     0.002 A 
ATOM      4  C4  I4B d   1       4.262   0.994  -2.251  0.00  0.00    -0.004 A 
ATOM      5  C5  I4B d   1       3.301   1.375  -1.318  0.00  0.00     0.002 A 
ATOM      6  C6  I4B d   1       2.511   0.403  -0.687  0.00  0.00     0.003 A 
ENDROOT
BRANCH   1   7
ATOM      7  C1' I4B d   1       1.797  -1.988  -0.414  0.00  0.00     0.060 C 
BRANCH   7   8
ATOM      8  C2' I4B d   1       0.716  -1.291   0.386  0.00  0.00    -0.013 C 
ATOM      9  C4' I4B d   1      -0.166  -2.286   1.093  0.00  0.00     0.013 C 
ATOM     10  C3' I4B d   1       1.385  -0.370   1.363  0.00  0.00     0.013 C 
ENDBRANCH   7   8
ENDBRANCH   1   7
TORSDOF 2
ENDMDL
