MODEL 1
REMARK minimizedAffinity -0.675682127
REMARK minimizedRMSD -1
REMARK  2 active torsions:
REMARK  status: ('A' for Active; 'I' for Inactive)
REMARK    1  A    between atoms: C2'_3  and  C1'_4 
REMARK    2  A    between atoms: C1'_4  and  C1_5 
ROOT
ATOM      1  C1  I4B d   1       1.201  -1.090   0.380  0.00  0.00    -0.075 A 
ATOM      2  C2  I4B d   1       2.144  -1.831  -0.288  0.00  0.00     0.003 A 
ATOM      3  C3  I4B d   1       3.005  -1.211  -1.226  0.00  0.00     0.002 A 
ATOM      4  C4  I4B d   1       2.856   0.133  -1.500  0.00  0.00    -0.004 A 
ATOM      5  C5  I4B d   1       1.914   0.887  -0.806  0.00  0.00     0.002 A 
ATOM      6  C6  I4B d   1       1.090   0.275   0.149  0.00  0.00     0.003 A 
ENDROOT
BRANCH   1   7
ATOM      7  C1' I4B d   1       0.286  -1.783   1.339  0.00  0.00     0.060 C 
BRANCH   7   8
ATOM      8  C2' I4B d   1      -0.802  -0.806   1.735  0.00  0.00    -0.013 C 
ATOM      9  C4' I4B d   1      -2.146  -1.482   1.795  0.00  0.00     0.013 C 
ATOM     10  C3' I4B d   1      -0.433  -0.215   3.063  0.00  0.00     0.013 C 
ENDBRANCH   7   8
ENDBRANCH   1   7
TORSDOF 2
ENDMDL
