MODEL 1
REMARK minimizedAffinity 8.52746964
REMARK minimizedRMSD -1
REMARK  2 active torsions:
REMARK  status: ('A' for Active; 'I' for Inactive)
REMARK    1  A    between atoms: C2'_3  and  C1'_4 
REMARK    2  A    between atoms: C1'_4  and  C1_5 
ROOT
ATOM      1  C1  I4B d   1       1.031  -0.783   0.814  0.00  0.00    -0.075 A 
ATOM      2  C2  I4B d   1       1.547  -1.503  -0.235  0.00  0.00     0.003 A 
ATOM      3  C3  I4B d   1       2.370  -0.870  -1.197  0.00  0.00     0.002 A 
ATOM      4  C4  I4B d   1       2.609   0.486  -1.101  0.00  0.00    -0.004 A 
ATOM      5  C5  I4B d   1       2.104   1.209  -0.024  0.00  0.00     0.002 A 
ATOM      6  C6  I4B d   1       1.321   0.569   0.946  0.00  0.00     0.003 A 
ENDROOT
BRANCH   1   7
ATOM      7  C1' I4B d   1       0.138  -1.476   1.794  0.00  0.00     0.060 C 
BRANCH   7   8
ATOM      8  C2' I4B d   1      -1.278  -0.992   1.558  0.00  0.00    -0.013 C 
ATOM      9  C4' I4B d   1      -2.263  -2.128   1.642  0.00  0.00     0.013 C 
ATOM     10  C3' I4B d   1      -1.582   0.064   2.578  0.00  0.00     0.013 C 
ENDBRANCH   7   8
ENDBRANCH   1   7
TORSDOF 2
ENDMDL
