MODEL 1
REMARK minimizedAffinity 2.99961352
REMARK minimizedRMSD -1
REMARK  2 active torsions:
REMARK  status: ('A' for Active; 'I' for Inactive)
REMARK    1  A    between atoms: C2'_3  and  C1'_4 
REMARK    2  A    between atoms: C1'_4  and  C1_5 
ROOT
ATOM      1  C1  I4B d   1       1.448  -3.267   4.366  0.00  0.00    -0.075 A 
ATOM      2  C2  I4B d   1       1.175  -1.954   4.077  0.00  0.00     0.003 A 
ATOM      3  C3  I4B d   1       1.791  -1.325   2.968  0.00  0.00     0.002 A 
ATOM      4  C4  I4B d   1       2.706  -2.027   2.211  0.00  0.00    -0.004 A 
ATOM      5  C5  I4B d   1       2.964  -3.365   2.491  0.00  0.00     0.002 A 
ATOM      6  C6  I4B d   1       2.323  -3.994   3.568  0.00  0.00     0.003 A 
ENDROOT
BRANCH   1   7
ATOM      7  C1' I4B d   1       0.805  -3.891   5.565  0.00  0.00     0.060 C 
BRANCH   7   8
ATOM      8  C2' I4B d   1       0.835  -5.394   5.381  0.00  0.00    -0.013 C 
ATOM      9  C4' I4B d   1       2.071  -5.995   5.997  0.00  0.00     0.013 C 
ATOM     10  C3' I4B d   1      -0.409  -5.961   5.999  0.00  0.00     0.013 C 
ENDBRANCH   7   8
ENDBRANCH   1   7
TORSDOF 2
ENDMDL
