MODEL 1
REMARK minimizedAffinity 9.31330585
REMARK minimizedRMSD -1
REMARK  2 active torsions:
REMARK  status: ('A' for Active; 'I' for Inactive)
REMARK    1  A    between atoms: C2'_3  and  C1'_4 
REMARK    2  A    between atoms: C1'_4  and  C1_5 
ROOT
ATOM      1  C1  I4B d   1       2.203  -3.456   1.862  0.00  0.00    -0.075 A 
ATOM      2  C2  I4B d   1       2.973  -2.379   1.500  0.00  0.00     0.003 A 
ATOM      3  C3  I4B d   1       2.578  -1.068   1.858  0.00  0.00     0.002 A 
ATOM      4  C4  I4B d   1       1.388  -0.876   2.530  0.00  0.00    -0.004 A 
ATOM      5  C5  I4B d   1       0.620  -1.970   2.916  0.00  0.00     0.002 A 
ATOM      6  C6  I4B d   1       1.035  -3.270   2.591  0.00  0.00     0.003 A 
ENDROOT
BRANCH   1   7
ATOM      7  C1' I4B d   1       2.633  -4.825   1.439  0.00  0.00     0.060 C 
BRANCH   7   8
ATOM      8  C2' I4B d   1       2.266  -4.999  -0.021  0.00  0.00    -0.013 C 
ATOM      9  C4' I4B d   1       3.453  -5.447  -0.831  0.00  0.00     0.013 C 
ATOM     10  C3' I4B d   1       1.147  -5.995  -0.101  0.00  0.00     0.013 C 
ENDBRANCH   7   8
ENDBRANCH   1   7
TORSDOF 2
ENDMDL
