MODEL 1
REMARK minimizedAffinity 4.7174263
REMARK minimizedRMSD -1
REMARK  2 active torsions:
REMARK  status: ('A' for Active; 'I' for Inactive)
REMARK    1  A    between atoms: C2'_3  and  C1'_4 
REMARK    2  A    between atoms: C1'_4  and  C1_5 
ROOT
ATOM      1  C1  I4B d   1       2.546  -3.424   2.026  0.00  0.00    -0.075 A 
ATOM      2  C2  I4B d   1       1.617  -3.816   2.956  0.00  0.00     0.003 A 
ATOM      3  C3  I4B d   1       1.008  -2.859   3.804  0.00  0.00     0.002 A 
ATOM      4  C4  I4B d   1       1.393  -1.536   3.722  0.00  0.00    -0.004 A 
ATOM      5  C5  I4B d   1       2.319  -1.137   2.763  0.00  0.00     0.002 A 
ATOM      6  C6  I4B d   1       2.891  -2.084   1.901  0.00  0.00     0.003 A 
ENDROOT
BRANCH   1   7
ATOM      7  C1' I4B d   1       3.194  -4.465   1.170  0.00  0.00     0.060 C 
BRANCH   7   8
ATOM      8  C2' I4B d   1       2.531  -4.428  -0.192  0.00  0.00    -0.013 C 
ATOM      9  C4' I4B d   1       3.544  -4.219  -1.286  0.00  0.00     0.013 C 
ATOM     10  C3' I4B d   1       1.788  -5.718  -0.380  0.00  0.00     0.013 C 
ENDBRANCH   7   8
ENDBRANCH   1   7
TORSDOF 2
ENDMDL
