MODEL 1
REMARK minimizedAffinity 5.81006145
REMARK minimizedRMSD -1
REMARK  2 active torsions:
REMARK  status: ('A' for Active; 'I' for Inactive)
REMARK    1  A    between atoms: C2'_3  and  C1'_4 
REMARK    2  A    between atoms: C1'_4  and  C1_5 
ROOT
ATOM      1  C1  I4B d   1       2.314  -2.060   2.918  0.00  0.00    -0.075 A 
ATOM      2  C2  I4B d   1       1.626  -3.234   2.739  0.00  0.00     0.003 A 
ATOM      3  C3  I4B d   1       2.057  -4.418   3.386  0.00  0.00     0.002 A 
ATOM      4  C4  I4B d   1       3.201  -4.393   4.157  0.00  0.00    -0.004 A 
ATOM      5  C5  I4B d   1       3.884  -3.196   4.356  0.00  0.00     0.002 A 
ATOM      6  C6  I4B d   1       3.431  -2.019   3.742  0.00  0.00     0.003 A 
ENDROOT
BRANCH   1   7
ATOM      7  C1' I4B d   1       1.850  -0.836   2.193  0.00  0.00     0.060 C 
BRANCH   7   8
ATOM      8  C2' I4B d   1       3.000  -0.332   1.345  0.00  0.00    -0.013 C 
ATOM      9  C4' I4B d   1       3.056  -1.047   0.021  0.00  0.00     0.013 C 
ATOM     10  C3' I4B d   1       2.823   1.145   1.156  0.00  0.00     0.013 C 
ENDBRANCH   7   8
ENDBRANCH   1   7
TORSDOF 2
ENDMDL
