MODEL 1
REMARK minimizedAffinity 8.26090431
REMARK minimizedRMSD -1
REMARK  2 active torsions:
REMARK  status: ('A' for Active; 'I' for Inactive)
REMARK    1  A    between atoms: C2'_3  and  C1'_4 
REMARK    2  A    between atoms: C1'_4  and  C1_5 
ROOT
ATOM      1  C1  I4B d   1      -4.084   3.456   1.568  0.00  0.00    -0.075 A 
ATOM      2  C2  I4B d   1      -2.878   2.926   1.182  0.00  0.00     0.003 A 
ATOM      3  C3  I4B d   1      -1.687   3.306   1.845  0.00  0.00     0.002 A 
ATOM      4  C4  I4B d   1      -1.740   4.250   2.850  0.00  0.00    -0.004 A 
ATOM      5  C5  I4B d   1      -2.966   4.770   3.256  0.00  0.00     0.002 A 
ATOM      6  C6  I4B d   1      -4.147   4.361   2.620  0.00  0.00     0.003 A 
ENDROOT
BRANCH   1   7
ATOM      7  C1' I4B d   1      -5.319   3.057   0.824  0.00  0.00     0.060 C 
BRANCH   7   8
ATOM      8  C2' I4B d   1      -5.242   3.661  -0.564  0.00  0.00    -0.013 C 
ATOM      9  C4' I4B d   1      -5.998   2.826  -1.564  0.00  0.00     0.013 C 
ATOM     10  C3' I4B d   1      -5.794   5.053  -0.495  0.00  0.00     0.013 C 
ENDBRANCH   7   8
ENDBRANCH   1   7
TORSDOF 2
ENDMDL
