MODEL 1
REMARK minimizedAffinity 8.91647911
REMARK minimizedRMSD -1
REMARK  2 active torsions:
REMARK  status: ('A' for Active; 'I' for Inactive)
REMARK    1  A    between atoms: C2'_3  and  C1'_4 
REMARK    2  A    between atoms: C1'_4  and  C1_5 
ROOT
ATOM      1  C1  I4B d   1      -3.660   1.334  -3.156  0.00  0.00    -0.075 A 
ATOM      2  C2  I4B d   1      -3.331   0.208  -2.443  0.00  0.00     0.003 A 
ATOM      3  C3  I4B d   1      -3.069  -1.010  -3.116  0.00  0.00     0.002 A 
ATOM      4  C4  I4B d   1      -3.195  -1.069  -4.489  0.00  0.00    -0.004 A 
ATOM      5  C5  I4B d   1      -3.505   0.079  -5.212  0.00  0.00     0.002 A 
ATOM      6  C6  I4B d   1      -3.727   1.291  -4.542  0.00  0.00     0.003 A 
ENDROOT
BRANCH   1   7
ATOM      7  C1' I4B d   1      -3.962   2.595  -2.411  0.00  0.00     0.060 C 
BRANCH   7   8
ATOM      8  C2' I4B d   1      -5.466   2.698  -2.260  0.00  0.00    -0.013 C 
ATOM      9  C4' I4B d   1      -5.839   3.352  -0.955  0.00  0.00     0.013 C 
ATOM     10  C3' I4B d   1      -5.997   3.476  -3.427  0.00  0.00     0.013 C 
ENDBRANCH   7   8
ENDBRANCH   1   7
TORSDOF 2
ENDMDL
