MODEL 1
REMARK minimizedAffinity 7.5471468
REMARK minimizedRMSD -1
REMARK  2 active torsions:
REMARK  status: ('A' for Active; 'I' for Inactive)
REMARK    1  A    between atoms: C2'_3  and  C1'_4 
REMARK    2  A    between atoms: C1'_4  and  C1_5 
ROOT
ATOM      1  C1  I4B d   1       1.079  -3.564   3.781  0.00  0.00    -0.075 A 
ATOM      2  C2  I4B d   1       1.673  -4.553   3.037  0.00  0.00     0.003 A 
ATOM      3  C3  I4B d   1       2.458  -4.221   1.907  0.00  0.00     0.002 A 
ATOM      4  C4  I4B d   1       2.581  -2.900   1.530  0.00  0.00    -0.004 A 
ATOM      5  C5  I4B d   1       1.998  -1.897   2.298  0.00  0.00     0.002 A 
ATOM      6  C6  I4B d   1       1.253  -2.229   3.438  0.00  0.00     0.003 A 
ENDROOT
BRANCH   1   7
ATOM      7  C1' I4B d   1       0.230  -3.952   4.950  0.00  0.00     0.060 C 
BRANCH   7   8
ATOM      8  C2' I4B d   1       0.467  -5.421   5.232  0.00  0.00    -0.013 C 
ATOM      9  C4' I4B d   1       1.746  -5.629   6.000  0.00  0.00     0.013 C 
ATOM     10  C3' I4B d   1      -0.713  -5.943   5.996  0.00  0.00     0.013 C 
ENDBRANCH   7   8
ENDBRANCH   1   7
TORSDOF 2
ENDMDL
