MODEL 1
REMARK minimizedAffinity 4.70509195
REMARK minimizedRMSD -1
REMARK  2 active torsions:
REMARK  status: ('A' for Active; 'I' for Inactive)
REMARK    1  A    between atoms: C2'_3  and  C1'_4 
REMARK    2  A    between atoms: C1'_4  and  C1_5 
ROOT
ATOM      1  C1  I4B d   1       2.020  -1.695   2.779  0.00  0.00    -0.075 A 
ATOM      2  C2  I4B d   1       1.988  -1.323   4.100  0.00  0.00     0.003 A 
ATOM      3  C3  I4B d   1       2.070  -2.303   5.119  0.00  0.00     0.002 A 
ATOM      4  C4  I4B d   1       2.131  -3.638   4.775  0.00  0.00    -0.004 A 
ATOM      5  C5  I4B d   1       2.186  -4.012   3.435  0.00  0.00     0.002 A 
ATOM      6  C6  I4B d   1       2.143  -3.034   2.431  0.00  0.00     0.003 A 
ENDROOT
BRANCH   1   7
ATOM      7  C1' I4B d   1       1.899  -0.637   1.729  0.00  0.00     0.060 C 
BRANCH   7   8
ATOM      8  C2' I4B d   1       3.213   0.115   1.670  0.00  0.00    -0.013 C 
ATOM      9  C4' I4B d   1       3.979  -0.223   0.418  0.00  0.00     0.013 C 
ATOM     10  C3' I4B d   1       2.910   1.582   1.740  0.00  0.00     0.013 C 
ENDBRANCH   7   8
ENDBRANCH   1   7
TORSDOF 2
ENDMDL
