MODEL 1
REMARK minimizedAffinity 0.466151953
REMARK minimizedRMSD -1
REMARK  2 active torsions:
REMARK  status: ('A' for Active; 'I' for Inactive)
REMARK    1  A    between atoms: C2'_3  and  C1'_4 
REMARK    2  A    between atoms: C1'_4  and  C1_5 
ROOT
ATOM      1  C1  I4B d   1       1.710  -3.138   4.276  0.00  0.00    -0.075 A 
ATOM      2  C2  I4B d   1       1.373  -1.841   3.976  0.00  0.00     0.003 A 
ATOM      3  C3  I4B d   1       1.824  -1.248   2.773  0.00  0.00     0.002 A 
ATOM      4  C4  I4B d   1       2.647  -1.964   1.928  0.00  0.00    -0.004 A 
ATOM      5  C5  I4B d   1       2.969  -3.286   2.222  0.00  0.00     0.002 A 
ATOM      6  C6  I4B d   1       2.488  -3.881   3.398  0.00  0.00     0.003 A 
ENDROOT
BRANCH   1   7
ATOM      7  C1' I4B d   1       1.244  -3.723   5.571  0.00  0.00     0.060 C 
BRANCH   7   8
ATOM      8  C2' I4B d   1       1.048  -5.211   5.367  0.00  0.00    -0.013 C 
ATOM      9  C4' I4B d   1       2.191  -5.997   5.954  0.00  0.00     0.013 C 
ATOM     10  C3' I4B d   1      -0.256  -5.598   6.000  0.00  0.00     0.013 C 
ENDBRANCH   7   8
ENDBRANCH   1   7
TORSDOF 2
ENDMDL
