MODEL 1
REMARK minimizedAffinity 7.20880365
REMARK minimizedRMSD -1
REMARK  0 active torsions:
REMARK  status: ('A' for Active; 'I' for Inactive)
ROOT
ATOM      1  C   UNL d   1       1.837   4.862   0.376  0.00  0.00     0.020 A 
ATOM      2  C1  UNL d   1       1.321   5.999  -0.246  0.00  0.00     0.020 A 
ATOM      3  C2  UNL d   1       0.045   5.968  -0.811  0.00  0.00     0.034 A 
ATOM      4  C3  UNL d   1      -0.721   4.797  -0.755  0.00  0.00     0.017 A 
ATOM      5  C4  UNL d   1      -0.203   3.657  -0.131  0.00  0.00     0.017 A 
ATOM      6  C5  UNL d   1       1.076   3.694   0.433  0.00  0.00     0.034 A 
ATOM      7 Cl   UNL d   1      -1.088   2.176  -0.023  0.00  0.00    -0.070 Cl
ATOM      8 Cl1  UNL d   1      -2.292   4.830  -1.474  0.00  0.00    -0.070 Cl
ENDROOT
TORSDOF 0
ENDMDL
