MODEL 1
REMARK minimizedAffinity 6.56839848
REMARK minimizedRMSD -1
REMARK  0 active torsions:
REMARK  status: ('A' for Active; 'I' for Inactive)
ROOT
ATOM      1  C   UNL d   1       1.879  -6.000   0.000  0.00  0.00     0.020 A 
ATOM      2  C1  UNL d   1       3.200  -5.673  -0.304  0.00  0.00     0.020 A 
ATOM      3  C2  UNL d   1       3.554  -5.345  -1.614  0.00  0.00     0.034 A 
ATOM      4  C3  UNL d   1       2.586  -5.344  -2.626  0.00  0.00     0.017 A 
ATOM      5  C4  UNL d   1       1.261  -5.673  -2.319  0.00  0.00     0.017 A 
ATOM      6  C5  UNL d   1       0.912  -6.000  -1.005  0.00  0.00     0.034 A 
ATOM      7 Cl   UNL d   1       0.011  -5.693  -3.513  0.00  0.00    -0.070 Cl
ATOM      8 Cl1  UNL d   1       3.095  -4.929  -4.224  0.00  0.00    -0.070 Cl
ENDROOT
TORSDOF 0
ENDMDL
