MODEL 1
REMARK minimizedAffinity 5.84574604
REMARK minimizedRMSD -1
REMARK  0 active torsions:
REMARK  status: ('A' for Active; 'I' for Inactive)
ROOT
ATOM      1  C   UNL d   1      -0.047   3.523   0.442  0.00  0.00     0.020 A 
ATOM      2  C1  UNL d   1       1.252   3.190   0.824  0.00  0.00     0.020 A 
ATOM      3  C2  UNL d   1       1.469   2.428   1.974  0.00  0.00     0.034 A 
ATOM      4  C3  UNL d   1       0.384   1.997   2.747  0.00  0.00     0.017 A 
ATOM      5  C4  UNL d   1      -0.919   2.332   2.363  0.00  0.00     0.017 A 
ATOM      6  C5  UNL d   1      -1.130   3.094   1.210  0.00  0.00     0.034 A 
ATOM      7 Cl   UNL d   1      -2.308   1.836   3.265  0.00  0.00    -0.070 Cl
ATOM      8 Cl1  UNL d   1       0.725   1.058   4.157  0.00  0.00    -0.070 Cl
ENDROOT
TORSDOF 0
ENDMDL
