MODEL 1
REMARK minimizedAffinity 5.56106424
REMARK minimizedRMSD -1
REMARK  0 active torsions:
REMARK  status: ('A' for Active; 'I' for Inactive)
ROOT
ATOM      1  C   UNL d   1       0.019   5.999   0.443  0.00  0.00     0.020 A 
ATOM      2  C1  UNL d   1       0.309   5.465  -0.812  0.00  0.00     0.020 A 
ATOM      3  C2  UNL d   1       0.394   4.081  -0.979  0.00  0.00     0.034 A 
ATOM      4  C3  UNL d   1       0.188   3.227   0.110  0.00  0.00     0.017 A 
ATOM      5  C4  UNL d   1      -0.103   3.764   1.369  0.00  0.00     0.017 A 
ATOM      6  C5  UNL d   1      -0.187   5.150   1.531  0.00  0.00     0.034 A 
ATOM      7 Cl   UNL d   1      -0.370   2.773   2.760  0.00  0.00    -0.070 Cl
ATOM      8 Cl1  UNL d   1       0.308   1.526  -0.170  0.00  0.00    -0.070 Cl
ENDROOT
TORSDOF 0
ENDMDL
