MODEL 1
REMARK minimizedAffinity 14.1239157
REMARK minimizedRMSD -1
REMARK  0 active torsions:
REMARK  status: ('A' for Active; 'I' for Inactive)
ROOT
ATOM      1  C   UNL d   1      -0.465   3.587   0.244  0.00  0.00     0.020 A 
ATOM      2  C1  UNL d   1       0.522   4.571   0.213  0.00  0.00     0.020 A 
ATOM      3  C2  UNL d   1       1.520   4.590   1.190  0.00  0.00     0.034 A 
ATOM      4  C3  UNL d   1       1.533   3.623   2.202  0.00  0.00     0.017 A 
ATOM      5  C4  UNL d   1       0.542   2.635   2.231  0.00  0.00     0.017 A 
ATOM      6  C5  UNL d   1      -0.455   2.621   1.251  0.00  0.00     0.034 A 
ATOM      7 Cl   UNL d   1       0.492   1.408   3.448  0.00  0.00    -0.070 Cl
ATOM      8 Cl1  UNL d   1       2.797   3.706   3.377  0.00  0.00    -0.070 Cl
ENDROOT
TORSDOF 0
ENDMDL
