MODEL 1
REMARK minimizedAffinity 13.2853346
REMARK minimizedRMSD -1
REMARK  0 active torsions:
REMARK  status: ('A' for Active; 'I' for Inactive)
ROOT
ATOM      1  C   UNL d   1      -0.055   5.377  -0.841  0.00  0.00     0.020 A 
ATOM      2  C1  UNL d   1      -0.715   5.825   0.302  0.00  0.00     0.020 A 
ATOM      3  C2  UNL d   1      -0.938   4.950   1.367  0.00  0.00     0.034 A 
ATOM      4  C3  UNL d   1      -0.502   3.623   1.291  0.00  0.00     0.017 A 
ATOM      5  C4  UNL d   1       0.160   3.174   0.142  0.00  0.00     0.017 A 
ATOM      6  C5  UNL d   1       0.382   4.055  -0.921  0.00  0.00     0.034 A 
ATOM      7 Cl   UNL d   1       0.729   1.550  -0.025  0.00  0.00    -0.070 Cl
ATOM      8 Cl1  UNL d   1      -0.811   2.596   2.646  0.00  0.00    -0.070 Cl
ENDROOT
TORSDOF 0
ENDMDL
