MODEL 1
REMARK minimizedAffinity 6.97688055
REMARK minimizedRMSD -1
REMARK  0 active torsions:
REMARK  status: ('A' for Active; 'I' for Inactive)
ROOT
ATOM      1  C   UNL d   1       0.891   4.472  -0.177  0.00  0.00     0.020 A 
ATOM      2  C1  UNL d   1      -0.404   4.472   0.339  0.00  0.00     0.020 A 
ATOM      3  C2  UNL d   1      -1.465   4.948  -0.436  0.00  0.00     0.034 A 
ATOM      4  C3  UNL d   1      -1.231   5.426  -1.730  0.00  0.00     0.017 A 
ATOM      5  C4  UNL d   1       0.069   5.426  -2.248  0.00  0.00     0.017 A 
ATOM      6  C5  UNL d   1       1.127   4.948  -1.468  0.00  0.00     0.034 A 
ATOM      7 Cl   UNL d   1       0.435   5.999  -3.836  0.00  0.00    -0.070 Cl
ATOM      8 Cl1  UNL d   1      -2.589   6.000  -2.632  0.00  0.00    -0.070 Cl
ENDROOT
TORSDOF 0
ENDMDL
