MODEL 1
REMARK minimizedAffinity 3.40768623
REMARK minimizedRMSD -1
REMARK  0 active torsions:
REMARK  status: ('A' for Active; 'I' for Inactive)
ROOT
ATOM      1  C   UNL d   1       2.177  -0.742  -0.854  0.00  0.00     0.124 A 
ATOM      2  C1  UNL d   1       2.108   0.355  -0.005  0.00  0.00     0.062 A 
ATOM      3  C2  UNL d   1       3.003   1.410  -0.150  0.00  0.00     0.162 A 
ATOM      4  C3  UNL d   1       3.976   1.376  -1.150  0.00  0.00    -0.034 A 
ATOM      5  C4  UNL d   1       4.040   0.269  -1.999  0.00  0.00     0.162 A 
ATOM      6  C5  UNL d   1       3.143  -0.783  -1.849  0.00  0.00     0.062 A 
ATOM      7  F   UNL d   1       3.212  -1.842  -2.670  0.00  0.00    -0.097 F 
ATOM      8  F1  UNL d   1       4.963   0.203  -2.970  0.00  0.00    -0.096 F 
ATOM      9  I   UNL d   1       5.316   2.952  -1.370  0.00  0.00    -0.060 I 
ATOM     10  F2  UNL d   1       2.912   2.457   0.684  0.00  0.00    -0.096 F 
ATOM     11  F3  UNL d   1       1.176   0.397   0.958  0.00  0.00    -0.097 F 
ATOM     12  F4  UNL d   1       1.315  -1.756  -0.711  0.00  0.00    -0.092 F 
ENDROOT
TORSDOF 0
ENDMDL
