MODEL 1
REMARK minimizedAffinity 4.74544716
REMARK minimizedRMSD -1
REMARK  0 active torsions:
REMARK  status: ('A' for Active; 'I' for Inactive)
ROOT
ATOM      1  C   UNL d   1       1.836  -0.829  -0.850  0.00  0.00     0.124 A 
ATOM      2  C1  UNL d   1       2.702  -0.620  -1.914  0.00  0.00     0.062 A 
ATOM      3  C2  UNL d   1       3.532   0.497  -1.932  0.00  0.00     0.162 A 
ATOM      4  C3  UNL d   1       3.501   1.414  -0.881  0.00  0.00    -0.034 A 
ATOM      5  C4  UNL d   1       2.626   1.197   0.186  0.00  0.00     0.162 A 
ATOM      6  C5  UNL d   1       1.799   0.079   0.199  0.00  0.00     0.062 A 
ATOM      7  F   UNL d   1       0.963  -0.121   1.228  0.00  0.00    -0.097 F 
ATOM      8  F1  UNL d   1       2.571   2.058   1.213  0.00  0.00    -0.096 F 
ATOM      9  I   UNL d   1       4.740   3.085  -0.903  0.00  0.00    -0.060 I 
ATOM     10  F2  UNL d   1       4.359   0.674  -2.973  0.00  0.00    -0.096 F 
ATOM     11  F3  UNL d   1       2.738  -1.495  -2.929  0.00  0.00    -0.097 F 
ATOM     12  F4  UNL d   1       1.037  -1.904  -0.836  0.00  0.00    -0.092 F 
ENDROOT
TORSDOF 0
ENDMDL
