MODEL 1
REMARK minimizedAffinity 5.42102289
REMARK minimizedRMSD -1
REMARK  0 active torsions:
REMARK  status: ('A' for Active; 'I' for Inactive)
ROOT
ATOM      1  C   UNL d   1       1.631  -1.014  -0.498  0.00  0.00     0.124 A 
ATOM      2  C1  UNL d   1       1.442   0.050   0.372  0.00  0.00     0.062 A 
ATOM      3  C2  UNL d   1       2.255   1.177   0.288  0.00  0.00     0.162 A 
ATOM      4  C3  UNL d   1       3.266   1.245  -0.671  0.00  0.00    -0.034 A 
ATOM      5  C4  UNL d   1       3.451   0.170  -1.542  0.00  0.00     0.162 A 
ATOM      6  C5  UNL d   1       2.635  -0.953  -1.454  0.00  0.00     0.062 A 
ATOM      7  F   UNL d   1       2.820  -1.981  -2.296  0.00  0.00    -0.097 F 
ATOM      8  F1  UNL d   1       4.413   0.203  -2.476  0.00  0.00    -0.096 F 
ATOM      9  I   UNL d   1       4.484   2.927  -0.800  0.00  0.00    -0.060 I 
ATOM     10  F2  UNL d   1       2.049   2.191   1.142  0.00  0.00    -0.096 F 
ATOM     11  F3  UNL d   1       0.473  -0.006   1.297  0.00  0.00    -0.097 F 
ATOM     12  F4  UNL d   1       0.848  -2.097  -0.414  0.00  0.00    -0.092 F 
ENDROOT
TORSDOF 0
ENDMDL
