MODEL 1
REMARK minimizedAffinity 17.1689472
REMARK minimizedRMSD -1
REMARK  0 active torsions:
REMARK  status: ('A' for Active; 'I' for Inactive)
ROOT
ATOM      1  C   UNL d   1       3.683   3.045   0.536  0.00  0.00     0.124 A 
ATOM      2  C1  UNL d   1       4.461   2.668  -0.550  0.00  0.00     0.062 A 
ATOM      3  C2  UNL d   1       4.129   1.537  -1.290  0.00  0.00     0.162 A 
ATOM      4  C3  UNL d   1       3.011   0.775  -0.948  0.00  0.00    -0.034 A 
ATOM      5  C4  UNL d   1       2.234   1.160   0.146  0.00  0.00     0.162 A 
ATOM      6  C5  UNL d   1       2.570   2.291   0.882  0.00  0.00     0.062 A 
ATOM      7  F   UNL d   1       1.817   2.655   1.931  0.00  0.00    -0.097 F 
ATOM      8  F1  UNL d   1       1.153   0.451   0.502  0.00  0.00    -0.096 F 
ATOM      9  I   UNL d   1       2.511  -0.916  -2.052  0.00  0.00    -0.060 I 
ATOM     10  F2  UNL d   1       4.899   1.196  -2.334  0.00  0.00    -0.096 F 
ATOM     11  F3  UNL d   1       5.537   3.393  -0.886  0.00  0.00    -0.097 F 
ATOM     12  F4  UNL d   1       4.005   4.133   1.247  0.00  0.00    -0.092 F 
ENDROOT
TORSDOF 0
ENDMDL
