MODEL 1
REMARK minimizedAffinity 14.1697197
REMARK minimizedRMSD -1
REMARK  0 active torsions:
REMARK  status: ('A' for Active; 'I' for Inactive)
ROOT
ATOM      1  C   UNL d   1       2.370   1.748   1.281  0.00  0.00     0.124 A 
ATOM      2  C1  UNL d   1       1.249   0.954   1.082  0.00  0.00     0.062 A 
ATOM      3  C2  UNL d   1       1.181   0.101  -0.016  0.00  0.00     0.162 A 
ATOM      4  C3  UNL d   1       2.238   0.037  -0.924  0.00  0.00    -0.034 A 
ATOM      5  C4  UNL d   1       3.362   0.840  -0.718  0.00  0.00     0.162 A 
ATOM      6  C5  UNL d   1       3.424   1.691   0.381  0.00  0.00     0.062 A 
ATOM      7  F   UNL d   1       4.508   2.458   0.571  0.00  0.00    -0.097 F 
ATOM      8  F1  UNL d   1       4.396   0.803  -1.571  0.00  0.00    -0.096 F 
ATOM      9  I   UNL d   1       2.141  -1.237  -2.566  0.00  0.00    -0.060 I 
ATOM     10  F2  UNL d   1       0.086  -0.656  -0.182  0.00  0.00    -0.096 F 
ATOM     11  F3  UNL d   1       0.228   1.008   1.950  0.00  0.00    -0.097 F 
ATOM     12  F4  UNL d   1       2.432   2.569   2.337  0.00  0.00    -0.092 F 
ENDROOT
TORSDOF 0
ENDMDL
