MODEL 1
REMARK minimizedAffinity 18.4960747
REMARK minimizedRMSD -1
REMARK  0 active torsions:
REMARK  status: ('A' for Active; 'I' for Inactive)
ROOT
ATOM      1  C   UNL d   1       2.247   0.101  -1.429  0.00  0.00     0.124 A 
ATOM      2  C1  UNL d   1       2.522   0.856  -0.297  0.00  0.00     0.062 A 
ATOM      3  C2  UNL d   1       3.539   1.805  -0.318  0.00  0.00     0.162 A 
ATOM      4  C3  UNL d   1       4.290   2.007  -1.476  0.00  0.00    -0.034 A 
ATOM      5  C4  UNL d   1       4.009   1.243  -2.611  0.00  0.00     0.162 A 
ATOM      6  C5  UNL d   1       2.991   0.295  -2.584  0.00  0.00     0.062 A 
ATOM      7  F   UNL d   1       2.727  -0.433  -3.679  0.00  0.00    -0.097 F 
ATOM      8  F1  UNL d   1       4.711   1.411  -3.741  0.00  0.00    -0.096 F 
ATOM      9  I   UNL d   1       5.812   3.425  -1.513  0.00  0.00    -0.060 I 
ATOM     10  F2  UNL d   1       3.783   2.520   0.790  0.00  0.00    -0.096 F 
ATOM     11  F3  UNL d   1       1.806   0.670   0.821  0.00  0.00    -0.097 F 
ATOM     12  F4  UNL d   1       1.268  -0.812  -1.405  0.00  0.00    -0.092 F 
ENDROOT
TORSDOF 0
ENDMDL
