MODEL 1
REMARK minimizedAffinity 5.13433552
REMARK minimizedRMSD -1
REMARK  0 active torsions:
REMARK  status: ('A' for Active; 'I' for Inactive)
ROOT
ATOM      1  C   UNL d   1       1.642  -0.229  -0.242  0.00  0.00     0.124 A 
ATOM      2  C1  UNL d   1       2.274   1.006  -0.266  0.00  0.00     0.062 A 
ATOM      3  C2  UNL d   1       3.344   1.229  -1.128  0.00  0.00     0.162 A 
ATOM      4  C3  UNL d   1       3.788   0.214  -1.976  0.00  0.00    -0.034 A 
ATOM      5  C4  UNL d   1       3.148  -1.026  -1.946  0.00  0.00     0.162 A 
ATOM      6  C5  UNL d   1       2.079  -1.244  -1.082  0.00  0.00     0.062 A 
ATOM      7  F   UNL d   1       1.470  -2.438  -1.061  0.00  0.00    -0.097 F 
ATOM      8  F1  UNL d   1       3.549  -2.024  -2.747  0.00  0.00    -0.096 F 
ATOM      9  I   UNL d   1       5.387   0.543  -3.267  0.00  0.00    -0.060 I 
ATOM     10  F2  UNL d   1       3.936   2.433  -1.130  0.00  0.00    -0.096 F 
ATOM     11  F3  UNL d   1       1.855   1.988   0.545  0.00  0.00    -0.097 F 
ATOM     12  F4  UNL d   1       0.614  -0.441   0.589  0.00  0.00    -0.092 F 
ENDROOT
TORSDOF 0
ENDMDL
