MODEL 1
REMARK minimizedAffinity 8.96514416
REMARK minimizedRMSD -1
REMARK  0 active torsions:
REMARK  status: ('A' for Active; 'I' for Inactive)
ROOT
ATOM      1  C   UNL d   1       4.150   1.778  -2.041  0.00  0.00     0.124 A 
ATOM      2  C1  UNL d   1       4.117   0.555  -2.696  0.00  0.00     0.062 A 
ATOM      3  C2  UNL d   1       3.268  -0.454  -2.253  0.00  0.00     0.162 A 
ATOM      4  C3  UNL d   1       2.442  -0.245  -1.148  0.00  0.00    -0.034 A 
ATOM      5  C4  UNL d   1       2.482   0.988  -0.493  0.00  0.00     0.162 A 
ATOM      6  C5  UNL d   1       3.333   1.993  -0.940  0.00  0.00     0.062 A 
ATOM      7  F   UNL d   1       3.363   3.174  -0.306  0.00  0.00    -0.097 F 
ATOM      8  F1  UNL d   1       1.702   1.223   0.572  0.00  0.00    -0.096 F 
ATOM      9  I   UNL d   1       1.171  -1.751  -0.481  0.00  0.00    -0.060 I 
ATOM     10  F2  UNL d   1       3.257  -1.626  -2.905  0.00  0.00    -0.096 F 
ATOM     11  F3  UNL d   1       4.907   0.344  -3.759  0.00  0.00    -0.097 F 
ATOM     12  F4  UNL d   1       4.969   2.747  -2.469  0.00  0.00    -0.092 F 
ENDROOT
TORSDOF 0
ENDMDL
