MODEL 1
REMARK minimizedAffinity -3.52605629
REMARK minimizedRMSD -1
REMARK  2 active torsions:
REMARK  status: ('A' for Active; 'I' for Inactive)
REMARK    1  A    between atoms: C2'_3  and  C1'_4 
REMARK    2  A    between atoms: C1'_4  and  C1_5 
ROOT
ATOM      1  C1  I4B d   1      -0.032  -0.384   0.318  0.00  0.00    -0.075 A 
ATOM      2  C2  I4B d   1       0.904  -0.761   1.248  0.00  0.00     0.003 A 
ATOM      3  C3  I4B d   1       0.545  -0.887   2.611  0.00  0.00     0.002 A 
ATOM      4  C4  I4B d   1      -0.741  -0.579   3.006  0.00  0.00    -0.004 A 
ATOM      5  C5  I4B d   1      -1.695  -0.219   2.059  0.00  0.00     0.002 A 
ATOM      6  C6  I4B d   1      -1.342  -0.133   0.704  0.00  0.00     0.003 A 
ENDROOT
BRANCH   1   7
ATOM      7  C1' I4B d   1       0.390  -0.230  -1.109  0.00  0.00     0.060 C 
BRANCH   7   8
ATOM      8  C2' I4B d   1       0.792  -1.596  -1.627  0.00  0.00    -0.013 C 
ATOM      9  C4' I4B d   1      -0.416  -2.422  -1.980  0.00  0.00     0.013 C 
ATOM     10  C3' I4B d   1       1.679  -1.396  -2.820  0.00  0.00     0.013 C 
ENDBRANCH   7   8
ENDBRANCH   1   7
TORSDOF 2
ENDMDL
