MODEL 1
REMARK minimizedAffinity -4.09485769
REMARK minimizedRMSD -1
REMARK  2 active torsions:
REMARK  status: ('A' for Active; 'I' for Inactive)
REMARK    1  A    between atoms: C2'_3  and  C1'_4 
REMARK    2  A    between atoms: C1'_4  and  C1_5 
ROOT
ATOM      1  C1  I4B d   1      -0.126  -0.343   0.021  0.00  0.00    -0.075 A 
ATOM      2  C2  I4B d   1       1.069   0.015   0.593  0.00  0.00     0.003 A 
ATOM      3  C3  I4B d   1       1.252  -0.099   1.993  0.00  0.00     0.002 A 
ATOM      4  C4  I4B d   1       0.204  -0.525   2.783  0.00  0.00    -0.004 A 
ATOM      5  C5  I4B d   1      -0.999  -0.909   2.199  0.00  0.00     0.002 A 
ATOM      6  C6  I4B d   1      -1.162  -0.830   0.808  0.00  0.00     0.003 A 
ENDROOT
BRANCH   1   7
ATOM      7  C1' I4B d   1      -0.296  -0.179  -1.456  0.00  0.00     0.060 C 
BRANCH   7   8
ATOM      8  C2' I4B d   1       0.769  -1.008  -2.144  0.00  0.00    -0.013 C 
ATOM      9  C4' I4B d   1       0.171  -2.215  -2.817  0.00  0.00     0.013 C 
ATOM     10  C3' I4B d   1       1.473  -0.129  -3.134  0.00  0.00     0.013 C 
ENDBRANCH   7   8
ENDBRANCH   1   7
TORSDOF 2
ENDMDL
