MODEL 1
REMARK minimizedAffinity -4.93070364
REMARK minimizedRMSD -1
REMARK  2 active torsions:
REMARK  status: ('A' for Active; 'I' for Inactive)
REMARK    1  A    between atoms: C2'_3  and  C1'_4 
REMARK    2  A    between atoms: C1'_4  and  C1_5 
ROOT
ATOM      1  C1  I4B d   1      -1.058   0.038   0.888  0.00  0.00    -0.075 A 
ATOM      2  C2  I4B d   1      -0.012  -0.325   1.698  0.00  0.00     0.003 A 
ATOM      3  C3  I4B d   1      -0.248  -0.692   3.045  0.00  0.00     0.002 A 
ATOM      4  C4  I4B d   1      -1.531  -0.634   3.551  0.00  0.00    -0.004 A 
ATOM      5  C5  I4B d   1      -2.593  -0.288   2.721  0.00  0.00     0.002 A 
ATOM      6  C6  I4B d   1      -2.358   0.039   1.377  0.00  0.00     0.003 A 
ENDROOT
BRANCH   1   7
ATOM      7  C1' I4B d   1      -0.769   0.452  -0.521  0.00  0.00     0.060 C 
BRANCH   7   8
ATOM      8  C2' I4B d   1       0.710   0.241  -0.775  0.00  0.00    -0.013 C 
ATOM      9  C4' I4B d   1       0.991   0.069  -2.244  0.00  0.00     0.013 C 
ATOM     10  C3' I4B d   1       1.449   1.420  -0.216  0.00  0.00     0.013 C 
ENDBRANCH   7   8
ENDBRANCH   1   7
TORSDOF 2
ENDMDL
