MODEL 1
REMARK minimizedAffinity -2.70750976
REMARK minimizedRMSD -1
REMARK  2 active torsions:
REMARK  status: ('A' for Active; 'I' for Inactive)
REMARK    1  A    between atoms: C2'_3  and  C1'_4 
REMARK    2  A    between atoms: C1'_4  and  C1_5 
ROOT
ATOM      1  C1  I4B d   1      -0.788   0.200   0.903  0.00  0.00    -0.075 A 
ATOM      2  C2  I4B d   1      -1.322  -1.054   1.072  0.00  0.00     0.003 A 
ATOM      3  C3  I4B d   1      -1.287  -1.678   2.342  0.00  0.00     0.002 A 
ATOM      4  C4  I4B d   1      -0.667  -1.039   3.397  0.00  0.00    -0.004 A 
ATOM      5  C5  I4B d   1      -0.147   0.241   3.230  0.00  0.00     0.002 A 
ATOM      6  C6  I4B d   1      -0.219   0.870   1.978  0.00  0.00     0.003 A 
ENDROOT
BRANCH   1   7
ATOM      7  C1' I4B d   1      -0.813   0.816  -0.459  0.00  0.00     0.060 C 
BRANCH   7   8
ATOM      8  C2' I4B d   1       0.582   0.718  -1.042  0.00  0.00    -0.013 C 
ATOM      9  C4' I4B d   1       1.611   0.514   0.039  0.00  0.00     0.013 C 
ATOM     10  C3' I4B d   1       0.596  -0.416  -2.023  0.00  0.00     0.013 C 
ENDBRANCH   7   8
ENDBRANCH   1   7
TORSDOF 2
ENDMDL
