MODEL 1
REMARK minimizedAffinity -5.19611025
REMARK minimizedRMSD -1
REMARK  2 active torsions:
REMARK  status: ('A' for Active; 'I' for Inactive)
REMARK    1  A    between atoms: C2'_3  and  C1'_4 
REMARK    2  A    between atoms: C1'_4  and  C1_5 
ROOT
ATOM      1  C1  I4B d   1      -1.201  -0.505   1.166  0.00  0.00    -0.075 A 
ATOM      2  C2  I4B d   1      -0.307  -0.025   0.241  0.00  0.00     0.003 A 
ATOM      3  C3  I4B d   1      -0.746   0.836  -0.794  0.00  0.00     0.002 A 
ATOM      4  C4  I4B d   1      -2.086   1.148  -0.896  0.00  0.00    -0.004 A 
ATOM      5  C5  I4B d   1      -2.987   0.680   0.056  0.00  0.00     0.002 A 
ATOM      6  C6  I4B d   1      -2.540  -0.142   1.101  0.00  0.00     0.003 A 
ENDROOT
BRANCH   1   7
ATOM      7  C1' I4B d   1      -0.710  -1.438   2.227  0.00  0.00     0.060 C 
BRANCH   7   8
ATOM      8  C2' I4B d   1      -0.618  -0.662   3.525  0.00  0.00    -0.013 C 
ATOM      9  C4' I4B d   1      -0.262   0.780   3.274  0.00  0.00     0.013 C 
ATOM     10  C3' I4B d   1      -1.936  -0.779   4.229  0.00  0.00     0.013 C 
ENDBRANCH   7   8
ENDBRANCH   1   7
TORSDOF 2
ENDMDL
