MODEL 1
REMARK minimizedAffinity -3.00504947
REMARK minimizedRMSD -1
REMARK  2 active torsions:
REMARK  status: ('A' for Active; 'I' for Inactive)
REMARK    1  A    between atoms: C2'_3  and  C1'_4 
REMARK    2  A    between atoms: C1'_4  and  C1_5 
ROOT
ATOM      1  C1  I4B d   1      -0.122   0.207   1.478  0.00  0.00    -0.075 A 
ATOM      2  C2  I4B d   1      -0.767  -1.002   1.559  0.00  0.00     0.003 A 
ATOM      3  C3  I4B d   1      -1.144  -1.526   2.820  0.00  0.00     0.002 A 
ATOM      4  C4  I4B d   1      -0.813  -0.837   3.969  0.00  0.00    -0.004 A 
ATOM      5  C5  I4B d   1      -0.179   0.400   3.883  0.00  0.00     0.002 A 
ATOM      6  C6  I4B d   1       0.157   0.931   2.630  0.00  0.00     0.003 A 
ENDROOT
BRANCH   1   7
ATOM      7  C1' I4B d   1       0.290   0.715   0.133  0.00  0.00     0.060 C 
BRANCH   7   8
ATOM      8  C2' I4B d   1      -0.660   0.136  -0.896  0.00  0.00    -0.013 C 
ATOM      9  C4' I4B d   1      -1.826   1.057  -1.141  0.00  0.00     0.013 C 
ATOM     10  C3' I4B d   1       0.115  -0.104  -2.157  0.00  0.00     0.013 C 
ENDBRANCH   7   8
ENDBRANCH   1   7
TORSDOF 2
ENDMDL
