MODEL 1
REMARK minimizedAffinity -3.70175791
REMARK minimizedRMSD -1
REMARK  2 active torsions:
REMARK  status: ('A' for Active; 'I' for Inactive)
REMARK    1  A    between atoms: C2'_3  and  C1'_4 
REMARK    2  A    between atoms: C1'_4  and  C1_5 
ROOT
ATOM      1  C1  I4B d   1      -0.306  -0.224  -1.030  0.00  0.00    -0.075 A 
ATOM      2  C2  I4B d   1      -1.456   0.525  -1.018  0.00  0.00     0.003 A 
ATOM      3  C3  I4B d   1      -2.384   0.389   0.043  0.00  0.00     0.002 A 
ATOM      4  C4  I4B d   1      -2.147  -0.537   1.038  0.00  0.00    -0.004 A 
ATOM      5  C5  I4B d   1      -0.969  -1.279   1.036  0.00  0.00     0.002 A 
ATOM      6  C6  I4B d   1      -0.036  -1.113   0.002  0.00  0.00     0.003 A 
ENDROOT
BRANCH   1   7
ATOM      7  C1' I4B d   1       0.636  -0.079  -2.183  0.00  0.00     0.060 C 
BRANCH   7   8
ATOM      8  C2' I4B d   1       1.074  -1.467  -2.605  0.00  0.00    -0.013 C 
ATOM      9  C4' I4B d   1      -0.015  -2.174  -3.368  0.00  0.00     0.013 C 
ATOM     10  C3' I4B d   1       2.314  -1.328  -3.437  0.00  0.00     0.013 C 
ENDBRANCH   7   8
ENDBRANCH   1   7
TORSDOF 2
ENDMDL
