MODEL 1
REMARK minimizedAffinity 0.135125652
REMARK minimizedRMSD -1
REMARK  2 active torsions:
REMARK  status: ('A' for Active; 'I' for Inactive)
REMARK    1  A    between atoms: C2'_3  and  C1'_4 
REMARK    2  A    between atoms: C1'_4  and  C1_5 
ROOT
ATOM      1  C1  I4B d   1      -0.276   0.492   1.080  0.00  0.00    -0.075 A 
ATOM      2  C2  I4B d   1       0.438  -0.083   0.059  0.00  0.00     0.003 A 
ATOM      3  C3  I4B d   1      -0.190  -0.371  -1.177  0.00  0.00     0.002 A 
ATOM      4  C4  I4B d   1      -1.537  -0.115  -1.330  0.00  0.00    -0.004 A 
ATOM      5  C5  I4B d   1      -2.255   0.489  -0.302  0.00  0.00     0.002 A 
ATOM      6  C6  I4B d   1      -1.618   0.806   0.907  0.00  0.00     0.003 A 
ENDROOT
BRANCH   1   7
ATOM      7  C1' I4B d   1       0.410   0.752   2.384  0.00  0.00     0.060 C 
BRANCH   7   8
ATOM      8  C2' I4B d   1      -0.650   1.091   3.411  0.00  0.00    -0.013 C 
ATOM      9  C4' I4B d   1      -0.979  -0.101   4.270  0.00  0.00     0.013 C 
ATOM     10  C3' I4B d   1      -0.143   2.234   4.240  0.00  0.00     0.013 C 
ENDBRANCH   7   8
ENDBRANCH   1   7
TORSDOF 2
ENDMDL
