MODEL 1
REMARK minimizedAffinity -3.33930516
REMARK minimizedRMSD -1
REMARK  2 active torsions:
REMARK  status: ('A' for Active; 'I' for Inactive)
REMARK    1  A    between atoms: C2'_3  and  C1'_4 
REMARK    2  A    between atoms: C1'_4  and  C1_5 
ROOT
ATOM      1  C1  I4B d   1      -0.089   0.017  -0.095  0.00  0.00    -0.075 A 
ATOM      2  C2  I4B d   1       1.023   0.525   0.529  0.00  0.00     0.003 A 
ATOM      3  C3  I4B d   1       1.159   0.428   1.935  0.00  0.00     0.002 A 
ATOM      4  C4  I4B d   1       0.142  -0.136   2.679  0.00  0.00    -0.004 A 
ATOM      5  C5  I4B d   1      -0.974  -0.671   2.042  0.00  0.00     0.002 A 
ATOM      6  C6  I4B d   1      -1.085  -0.605   0.646  0.00  0.00     0.003 A 
ENDROOT
BRANCH   1   7
ATOM      7  C1' I4B d   1      -0.215   0.167  -1.578  0.00  0.00     0.060 C 
BRANCH   7   8
ATOM      8  C2' I4B d   1       0.762  -0.791  -2.228  0.00  0.00    -0.013 C 
ATOM      9  C4' I4B d   1       0.043  -1.828  -3.050  0.00  0.00     0.013 C 
ATOM     10  C3' I4B d   1       1.705   0.012  -3.074  0.00  0.00     0.013 C 
ENDBRANCH   7   8
ENDBRANCH   1   7
TORSDOF 2
ENDMDL
