MODEL 1
REMARK minimizedAffinity -3.07306504
REMARK minimizedRMSD -1
REMARK  2 active torsions:
REMARK  status: ('A' for Active; 'I' for Inactive)
REMARK    1  A    between atoms: C2'_3  and  C1'_4 
REMARK    2  A    between atoms: C1'_4  and  C1_5 
ROOT
ATOM      1  C1  I4B d   1      -0.164  -0.346   0.192  0.00  0.00    -0.075 A 
ATOM      2  C2  I4B d   1       0.712   0.596   0.671  0.00  0.00     0.003 A 
ATOM      3  C3  I4B d   1       0.934   0.722   2.063  0.00  0.00     0.002 A 
ATOM      4  C4  I4B d   1       0.225  -0.076   2.939  0.00  0.00    -0.004 A 
ATOM      5  C5  I4B d   1      -0.645  -1.047   2.451  0.00  0.00     0.002 A 
ATOM      6  C6  I4B d   1      -0.832  -1.191   1.069  0.00  0.00     0.003 A 
ENDROOT
BRANCH   1   7
ATOM      7  C1' I4B d   1      -0.399  -0.429  -1.283  0.00  0.00     0.060 C 
BRANCH   7   8
ATOM      8  C2' I4B d   1       0.808  -1.096  -1.911  0.00  0.00    -0.013 C 
ATOM      9  C4' I4B d   1       0.403  -2.290  -2.735  0.00  0.00     0.013 C 
ATOM     10  C3' I4B d   1       1.517  -0.075  -2.749  0.00  0.00     0.013 C 
ENDBRANCH   7   8
ENDBRANCH   1   7
TORSDOF 2
ENDMDL
