MODEL 1
REMARK minimizedAffinity -2.44045901
REMARK minimizedRMSD -1
REMARK  0 active torsions:
REMARK  status: ('A' for Active; 'I' for Inactive)
ROOT
ATOM      1  C1  BNZ d   1      -1.625  -0.774   0.069  0.00  0.00     0.000 A 
ATOM      2  C2  BNZ d   1      -1.073  -0.554   1.303  0.00  0.00     0.000 A 
ATOM      3  C3  BNZ d   1      -0.004   0.284   1.452  0.00  0.00     0.000 A 
ATOM      4  C4  BNZ d   1       0.537   0.869   0.364  0.00  0.00     0.000 A 
ATOM      5  C5  BNZ d   1      -0.002   0.650  -0.888  0.00  0.00     0.000 A 
ATOM      6  C6  BNZ d   1      -1.102  -0.164  -1.030  0.00  0.00     0.000 A 
ENDROOT
TORSDOF 0
ENDMDL
