MODEL 1
REMARK minimizedAffinity -3.43791175
REMARK minimizedRMSD -1
REMARK  0 active torsions:
REMARK  status: ('A' for Active; 'I' for Inactive)
ROOT
ATOM      1  C1  BNZ d   1       0.054  -0.016  -0.291  0.00  0.00     0.000 A 
ATOM      2  C2  BNZ d   1       0.821  -0.643   0.654  0.00  0.00     0.000 A 
ATOM      3  C3  BNZ d   1       0.446  -0.650   1.969  0.00  0.00     0.000 A 
ATOM      4  C4  BNZ d   1      -0.673   0.005   2.342  0.00  0.00     0.000 A 
ATOM      5  C5  BNZ d   1      -1.452   0.650   1.403  0.00  0.00     0.000 A 
ATOM      6  C6  BNZ d   1      -1.092   0.621   0.075  0.00  0.00     0.000 A 
ENDROOT
TORSDOF 0
ENDMDL
