MODEL 1
REMARK minimizedAffinity -3.77066541
REMARK minimizedRMSD -1
REMARK  0 active torsions:
REMARK  status: ('A' for Active; 'I' for Inactive)
ROOT
ATOM      1  C1  BNZ d   1       1.339  -1.194   0.673  0.00  0.00     0.000 A 
ATOM      2  C2  BNZ d   1       0.787  -0.271  -0.174  0.00  0.00     0.000 A 
ATOM      3  C3  BNZ d   1      -0.048   0.702   0.299  0.00  0.00     0.000 A 
ATOM      4  C4  BNZ d   1      -0.362   0.727   1.610  0.00  0.00     0.000 A 
ATOM      5  C5  BNZ d   1       0.179  -0.203   2.476  0.00  0.00     0.000 A 
ATOM      6  C6  BNZ d   1       1.050  -1.157   2.002  0.00  0.00     0.000 A 
ENDROOT
TORSDOF 0
ENDMDL
