MODEL 1
REMARK minimizedAffinity -3.61427021
REMARK minimizedRMSD -1
REMARK  0 active torsions:
REMARK  status: ('A' for Active; 'I' for Inactive)
ROOT
ATOM      1  C1  BNZ d   1      -0.902   0.063   2.233  0.00  0.00     0.000 A 
ATOM      2  C2  BNZ d   1      -1.091   0.794   1.091  0.00  0.00     0.000 A 
ATOM      3  C3  BNZ d   1      -0.491   0.428  -0.082  0.00  0.00     0.000 A 
ATOM      4  C4  BNZ d   1       0.328  -0.643  -0.101  0.00  0.00     0.000 A 
ATOM      5  C5  BNZ d   1       0.536  -1.385   1.045  0.00  0.00     0.000 A 
ATOM      6  C6  BNZ d   1      -0.100  -1.036   2.214  0.00  0.00     0.000 A 
ENDROOT
TORSDOF 0
ENDMDL
