MODEL 1
REMARK minimizedAffinity -3.75919962
REMARK minimizedRMSD -1
REMARK  0 active torsions:
REMARK  status: ('A' for Active; 'I' for Inactive)
ROOT
ATOM      1  C1  BNZ d   1      -0.822  -0.164  -0.164  0.00  0.00     0.000 A 
ATOM      2  C2  BNZ d   1      -1.329  -0.112   1.107  0.00  0.00     0.000 A 
ATOM      3  C3  BNZ d   1      -0.695  -0.743   2.140  0.00  0.00     0.000 A 
ATOM      4  C4  BNZ d   1       0.422  -1.458   1.895  0.00  0.00     0.000 A 
ATOM      5  C5  BNZ d   1       0.941  -1.528   0.618  0.00  0.00     0.000 A 
ATOM      6  C6  BNZ d   1       0.321  -0.859  -0.413  0.00  0.00     0.000 A 
ENDROOT
TORSDOF 0
ENDMDL
