MODEL 1
REMARK minimizedAffinity -0.77206403
REMARK minimizedRMSD -1
REMARK  0 active torsions:
REMARK  status: ('A' for Active; 'I' for Inactive)
ROOT
ATOM      1  C1  BNZ d   1      -0.366   0.719  -1.469  0.00  0.00     0.000 A 
ATOM      2  C2  BNZ d   1      -1.520   1.454  -1.504  0.00  0.00     0.000 A 
ATOM      3  C3  BNZ d   1      -1.643   2.525  -2.345  0.00  0.00     0.000 A 
ATOM      4  C4  BNZ d   1      -0.598   2.883  -3.120  0.00  0.00     0.000 A 
ATOM      5  C5  BNZ d   1       0.576   2.157  -3.089  0.00  0.00     0.000 A 
ATOM      6  C6  BNZ d   1       0.682   1.056  -2.270  0.00  0.00     0.000 A 
ENDROOT
TORSDOF 0
ENDMDL
