MODEL 1
REMARK minimizedAffinity -3.03736043
REMARK minimizedRMSD -1
REMARK  0 active torsions:
REMARK  status: ('A' for Active; 'I' for Inactive)
ROOT
ATOM      1  C1  BNZ d   1       0.225   0.741   0.539  0.00  0.00     0.000 A 
ATOM      2  C2  BNZ d   1       0.369   1.933  -0.120  0.00  0.00     0.000 A 
ATOM      3  C3  BNZ d   1      -0.069   2.078  -1.407  0.00  0.00     0.000 A 
ATOM      4  C4  BNZ d   1      -0.611   1.021  -2.046  0.00  0.00     0.000 A 
ATOM      5  C5  BNZ d   1      -0.754  -0.189  -1.398  0.00  0.00     0.000 A 
ATOM      6  C6  BNZ d   1      -0.349  -0.320  -0.090  0.00  0.00     0.000 A 
ENDROOT
TORSDOF 0
ENDMDL
