MODEL 1
REMARK minimizedAffinity -3.30996108
REMARK minimizedRMSD -1
REMARK  0 active torsions:
REMARK  status: ('A' for Active; 'I' for Inactive)
ROOT
ATOM      1  C1  BNZ d   1      -1.246   3.092  -2.643  0.00  0.00     0.000 A 
ATOM      2  C2  BNZ d   1      -1.107   1.766  -2.330  0.00  0.00     0.000 A 
ATOM      3  C3  BNZ d   1      -0.022   1.323  -1.626  0.00  0.00     0.000 A 
ATOM      4  C4  BNZ d   1       0.941   2.198  -1.272  0.00  0.00     0.000 A 
ATOM      5  C5  BNZ d   1       0.820   3.536  -1.588  0.00  0.00     0.000 A 
ATOM      6  C6  BNZ d   1      -0.292   3.985  -2.263  0.00  0.00     0.000 A 
ENDROOT
TORSDOF 0
ENDMDL
