MODEL 1
REMARK minimizedAffinity -1.54875278
REMARK minimizedRMSD -1
REMARK  0 active torsions:
REMARK  status: ('A' for Active; 'I' for Inactive)
ROOT
ATOM      1  C1  BNZ d   1      -1.362  -1.103   1.119  0.00  0.00     0.000 A 
ATOM      2  C2  BNZ d   1      -0.974  -0.983  -0.188  0.00  0.00     0.000 A 
ATOM      3  C3  BNZ d   1      -0.201   0.068  -0.596  0.00  0.00     0.000 A 
ATOM      4  C4  BNZ d   1       0.149   1.018   0.295  0.00  0.00     0.000 A 
ATOM      5  C5  BNZ d   1      -0.243   0.917   1.615  0.00  0.00     0.000 A 
ATOM      6  C6  BNZ d   1      -0.988  -0.163   2.030  0.00  0.00     0.000 A 
ENDROOT
TORSDOF 0
ENDMDL
