MODEL 1
REMARK minimizedAffinity -3.09093857
REMARK minimizedRMSD -1
REMARK  0 active torsions:
REMARK  status: ('A' for Active; 'I' for Inactive)
ROOT
ATOM      1  C1  BNZ d   1      -1.191   0.000   0.516  0.00  0.00     0.000 A 
ATOM      2  C2  BNZ d   1      -0.671   0.001  -0.751  0.00  0.00     0.000 A 
ATOM      3  C3  BNZ d   1       0.538  -0.580  -1.012  0.00  0.00     0.000 A 
ATOM      4  C4  BNZ d   1       1.244  -1.125   0.000  0.00  0.00     0.000 A 
ATOM      5  C5  BNZ d   1       0.738  -1.125   1.285  0.00  0.00     0.000 A 
ATOM      6  C6  BNZ d   1      -0.497  -0.574   1.537  0.00  0.00     0.000 A 
ENDROOT
TORSDOF 0
ENDMDL
