MODEL 1
REMARK minimizedAffinity 4.67882633
REMARK minimizedRMSD -1
REMARK  0 active torsions:
REMARK  status: ('A' for Active; 'I' for Inactive)
ROOT
ATOM      1  C   UNL d   1       1.219  -2.597  -2.089  0.00  0.00     0.124 A 
ATOM      2  C1  UNL d   1       0.293  -1.658  -2.522  0.00  0.00     0.062 A 
ATOM      3  C2  UNL d   1      -0.324  -0.810  -1.607  0.00  0.00     0.162 A 
ATOM      4  C3  UNL d   1      -0.016  -0.896  -0.249  0.00  0.00    -0.034 A 
ATOM      5  C4  UNL d   1       0.915  -1.843   0.179  0.00  0.00     0.162 A 
ATOM      6  C5  UNL d   1       1.529  -2.689  -0.740  0.00  0.00     0.062 A 
ATOM      7  F   UNL d   1       2.424  -3.595  -0.320  0.00  0.00    -0.097 F 
ATOM      8  F1  UNL d   1       1.235  -1.953   1.477  0.00  0.00    -0.096 F 
ATOM      9  I   UNL d   1      -0.937   0.370   1.123  0.00  0.00    -0.060 I 
ATOM     10  F2  UNL d   1      -1.216   0.088  -2.053  0.00  0.00    -0.096 F 
ATOM     11  F3  UNL d   1      -0.010  -1.568  -3.825  0.00  0.00    -0.097 F 
ATOM     12  F4  UNL d   1       1.810  -3.412  -2.972  0.00  0.00    -0.092 F 
ENDROOT
TORSDOF 0
ENDMDL
