MODEL 1
REMARK minimizedAffinity -2.92456651
REMARK minimizedRMSD -1
REMARK  0 active torsions:
REMARK  status: ('A' for Active; 'I' for Inactive)
ROOT
ATOM      1  C   UNL d   1      -0.909  -0.750   1.368  0.00  0.00     0.124 A 
ATOM      2  C1  UNL d   1      -1.432  -1.874   0.744  0.00  0.00     0.062 A 
ATOM      3  C2  UNL d   1      -0.816  -2.396  -0.390  0.00  0.00     0.162 A 
ATOM      4  C3  UNL d   1       0.331  -1.795  -0.907  0.00  0.00    -0.034 A 
ATOM      5  C4  UNL d   1       0.851  -0.665  -0.275  0.00  0.00     0.162 A 
ATOM      6  C5  UNL d   1       0.232  -0.147   0.858  0.00  0.00     0.062 A 
ATOM      7  F   UNL d   1       0.739   0.939   1.459  0.00  0.00    -0.097 F 
ATOM      8  F1  UNL d   1       1.953  -0.062  -0.746  0.00  0.00    -0.096 F 
ATOM      9  I   UNL d   1       1.255  -2.573  -2.602  0.00  0.00    -0.060 I 
ATOM     10  F2  UNL d   1      -1.344  -3.484  -0.972  0.00  0.00    -0.096 F 
ATOM     11  F3  UNL d   1      -2.535  -2.459   1.234  0.00  0.00    -0.097 F 
ATOM     12  F4  UNL d   1      -1.504  -0.250   2.458  0.00  0.00    -0.092 F 
ENDROOT
TORSDOF 0
ENDMDL
