MODEL 1
REMARK minimizedAffinity -0.409663081
REMARK minimizedRMSD -1
REMARK  0 active torsions:
REMARK  status: ('A' for Active; 'I' for Inactive)
ROOT
ATOM      1  C   UNL d   1      -0.160   2.580   0.815  0.00  0.00     0.124 A 
ATOM      2  C1  UNL d   1      -0.554   1.439   1.500  0.00  0.00     0.062 A 
ATOM      3  C2  UNL d   1      -0.119   0.186   1.080  0.00  0.00     0.162 A 
ATOM      4  C3  UNL d   1       0.717   0.066  -0.030  0.00  0.00    -0.034 A 
ATOM      5  C4  UNL d   1       1.108   1.218  -0.715  0.00  0.00     0.162 A 
ATOM      6  C5  UNL d   1       0.671   2.469  -0.291  0.00  0.00     0.062 A 
ATOM      7  F   UNL d   1       1.052   3.570  -0.955  0.00  0.00    -0.097 F 
ATOM      8  F1  UNL d   1       1.911   1.139  -1.786  0.00  0.00    -0.096 F 
ATOM      9  I   UNL d   1       1.370  -1.807  -0.660  0.00  0.00    -0.060 I 
ATOM     10  F2  UNL d   1      -0.515  -0.900   1.761  0.00  0.00    -0.096 F 
ATOM     11  F3  UNL d   1      -1.357   1.544   2.568  0.00  0.00    -0.097 F 
ATOM     12  F4  UNL d   1      -0.581   3.785   1.220  0.00  0.00    -0.092 F 
ENDROOT
TORSDOF 0
ENDMDL
