MODEL 1
REMARK minimizedAffinity -2.51005697
REMARK minimizedRMSD -1
REMARK  0 active torsions:
REMARK  status: ('A' for Active; 'I' for Inactive)
ROOT
ATOM      1  C   UNL d   1      -1.116  -0.314   1.248  0.00  0.00     0.124 A 
ATOM      2  C1  UNL d   1      -1.271  -1.661   0.953  0.00  0.00     0.062 A 
ATOM      3  C2  UNL d   1      -0.478  -2.260  -0.022  0.00  0.00     0.162 A 
ATOM      4  C3  UNL d   1       0.478  -1.512  -0.709  0.00  0.00    -0.034 A 
ATOM      5  C4  UNL d   1       0.628  -0.157  -0.407  0.00  0.00     0.162 A 
ATOM      6  C5  UNL d   1      -0.167   0.437   0.569  0.00  0.00     0.062 A 
ATOM      7  F   UNL d   1      -0.016   1.738   0.853  0.00  0.00    -0.097 F 
ATOM      8  F1  UNL d   1       1.538   0.592  -1.047  0.00  0.00    -0.096 F 
ATOM      9  I   UNL d   1       1.666  -2.403  -2.167  0.00  0.00    -0.060 I 
ATOM     10  F2  UNL d   1      -0.649  -3.564  -0.287  0.00  0.00    -0.096 F 
ATOM     11  F3  UNL d   1      -2.187  -2.389   1.607  0.00  0.00    -0.097 F 
ATOM     12  F4  UNL d   1      -1.880   0.259   2.186  0.00  0.00    -0.092 F 
ENDROOT
TORSDOF 0
ENDMDL
