MODEL 1
REMARK minimizedAffinity 1.0944519
REMARK minimizedRMSD -1
REMARK  0 active torsions:
REMARK  status: ('A' for Active; 'I' for Inactive)
ROOT
ATOM      1  C   UNL d   1       1.188  -2.081  -2.141  0.00  0.00     0.124 A 
ATOM      2  C1  UNL d   1       0.284  -2.839  -1.409  0.00  0.00     0.062 A 
ATOM      3  C2  UNL d   1      -0.394  -2.275  -0.333  0.00  0.00     0.162 A 
ATOM      4  C3  UNL d   1      -0.172  -0.943   0.018  0.00  0.00    -0.034 A 
ATOM      5  C4  UNL d   1       0.739  -0.187  -0.721  0.00  0.00     0.162 A 
ATOM      6  C5  UNL d   1       1.414  -0.756  -1.796  0.00  0.00     0.062 A 
ATOM      7  F   UNL d   1       2.287  -0.021  -2.501  0.00  0.00    -0.097 F 
ATOM      8  F1  UNL d   1       0.976   1.096  -0.411  0.00  0.00    -0.096 F 
ATOM      9  I   UNL d   1      -1.185  -0.095   1.627  0.00  0.00    -0.060 I 
ATOM     10  F2  UNL d   1      -1.261  -3.031   0.356  0.00  0.00    -0.096 F 
ATOM     11  F3  UNL d   1       0.065  -4.120  -1.740  0.00  0.00    -0.097 F 
ATOM     12  F4  UNL d   1       1.840  -2.627  -3.175  0.00  0.00    -0.092 F 
ENDROOT
TORSDOF 0
ENDMDL
