MODEL 1
REMARK minimizedAffinity -0.0357071273
REMARK minimizedRMSD -1
REMARK  0 active torsions:
REMARK  status: ('A' for Active; 'I' for Inactive)
ROOT
ATOM      1  C   UNL d   1      -0.418   1.980   1.186  0.00  0.00     0.124 A 
ATOM      2  C1  UNL d   1      -0.692   0.784   1.834  0.00  0.00     0.062 A 
ATOM      3  C2  UNL d   1      -0.256  -0.421   1.292  0.00  0.00     0.162 A 
ATOM      4  C3  UNL d   1       0.459  -0.437   0.095  0.00  0.00    -0.034 A 
ATOM      5  C4  UNL d   1       0.730   0.770  -0.552  0.00  0.00     0.162 A 
ATOM      6  C5  UNL d   1       0.293   1.972  -0.006  0.00  0.00     0.062 A 
ATOM      7  F   UNL d   1       0.558   3.127  -0.634  0.00  0.00    -0.097 F 
ATOM      8  F1  UNL d   1       1.416   0.791  -1.704  0.00  0.00    -0.096 F 
ATOM      9  I   UNL d   1       1.113  -2.238  -0.718  0.00  0.00    -0.060 I 
ATOM     10  F2  UNL d   1      -0.536  -1.562   1.940  0.00  0.00    -0.096 F 
ATOM     11  F3  UNL d   1      -1.380   0.789   2.985  0.00  0.00    -0.097 F 
ATOM     12  F4  UNL d   1      -0.840   3.139   1.709  0.00  0.00    -0.092 F 
ENDROOT
TORSDOF 0
ENDMDL
