MODEL 1
REMARK minimizedAffinity 4.32472086
REMARK minimizedRMSD -1
REMARK  0 active torsions:
REMARK  status: ('A' for Active; 'I' for Inactive)
ROOT
ATOM      1  C   UNL d   1      -0.686   2.271   0.827  0.00  0.00     0.124 A 
ATOM      2  C1  UNL d   1      -1.012   1.078   1.457  0.00  0.00     0.062 A 
ATOM      3  C2  UNL d   1      -0.436  -0.117   1.035  0.00  0.00     0.162 A 
ATOM      4  C3  UNL d   1       0.473  -0.125  -0.023  0.00  0.00    -0.034 A 
ATOM      5  C4  UNL d   1       0.795   1.078  -0.652  0.00  0.00     0.162 A 
ATOM      6  C5  UNL d   1       0.217   2.270  -0.227  0.00  0.00     0.062 A 
ATOM      7  F   UNL d   1       0.534   3.422  -0.837  0.00  0.00    -0.097 F 
ATOM      8  F1  UNL d   1       1.666   1.107  -1.672  0.00  0.00    -0.096 F 
ATOM      9  I   UNL d   1       1.336  -1.910  -0.657  0.00  0.00    -0.060 I 
ATOM     10  F2  UNL d   1      -0.770  -1.255   1.662  0.00  0.00    -0.096 F 
ATOM     11  F3  UNL d   1      -1.885   1.076   2.475  0.00  0.00    -0.097 F 
ATOM     12  F4  UNL d   1      -1.242   3.419   1.235  0.00  0.00    -0.092 F 
ENDROOT
TORSDOF 0
ENDMDL
