MODEL 1
REMARK minimizedAffinity 0.750611305
REMARK minimizedRMSD -1
REMARK  0 active torsions:
REMARK  status: ('A' for Active; 'I' for Inactive)
ROOT
ATOM      1  C   UNL d   1      -0.631   1.553   0.972  0.00  0.00     0.124 A 
ATOM      2  C1  UNL d   1      -1.089   0.363   1.520  0.00  0.00     0.062 A 
ATOM      3  C2  UNL d   1      -0.765  -0.853   0.925  0.00  0.00     0.162 A 
ATOM      4  C3  UNL d   1       0.023  -0.885  -0.226  0.00  0.00    -0.034 A 
ATOM      5  C4  UNL d   1       0.479   0.316  -0.772  0.00  0.00     0.162 A 
ATOM      6  C5  UNL d   1       0.152   1.528  -0.173  0.00  0.00     0.062 A 
ATOM      7  F   UNL d   1       0.596   2.677  -0.704  0.00  0.00    -0.097 F 
ATOM      8  F1  UNL d   1       1.239   0.321  -1.877  0.00  0.00    -0.096 F 
ATOM      9  I   UNL d   1       0.510  -2.701  -1.119  0.00  0.00    -0.060 I 
ATOM     10  F2  UNL d   1      -1.221  -1.987   1.477  0.00  0.00    -0.096 F 
ATOM     11  F3  UNL d   1      -1.847   0.384   2.626  0.00  0.00    -0.097 F 
ATOM     12  F4  UNL d   1      -0.945   2.721   1.546  0.00  0.00    -0.092 F 
ENDROOT
TORSDOF 0
ENDMDL
