MODEL 1
REMARK minimizedAffinity 3.74142957
REMARK minimizedRMSD -1
REMARK  0 active torsions:
REMARK  status: ('A' for Active; 'I' for Inactive)
ROOT
ATOM      1  C   UNL d   1       0.461  -2.792  -1.283  0.00  0.00     0.124 A 
ATOM      2  C1  UNL d   1       1.465  -1.927  -0.871  0.00  0.00     0.062 A 
ATOM      3  C2  UNL d   1       1.176  -0.884   0.005  0.00  0.00     0.162 A 
ATOM      4  C3  UNL d   1      -0.124  -0.701   0.476  0.00  0.00    -0.034 A 
ATOM      5  C4  UNL d   1      -1.129  -1.575   0.056  0.00  0.00     0.162 A 
ATOM      6  C5  UNL d   1      -0.835  -2.615  -0.819  0.00  0.00     0.062 A 
ATOM      7  F   UNL d   1      -1.806  -3.450  -1.216  0.00  0.00    -0.097 F 
ATOM      8  F1  UNL d   1      -2.390  -1.428   0.490  0.00  0.00    -0.096 F 
ATOM      9  I   UNL d   1      -0.561   0.856   1.785  0.00  0.00    -0.060 I 
ATOM     10  F2  UNL d   1       2.166  -0.064   0.386  0.00  0.00    -0.096 F 
ATOM     11  F3  UNL d   1       2.718  -2.094  -1.319  0.00  0.00    -0.097 F 
ATOM     12  F4  UNL d   1       0.742  -3.793  -2.126  0.00  0.00    -0.092 F 
ENDROOT
TORSDOF 0
ENDMDL
