MODEL 1
REMARK minimizedAffinity 3.94530344
REMARK minimizedRMSD -1
REMARK  0 active torsions:
REMARK  status: ('A' for Active; 'I' for Inactive)
ROOT
ATOM      1  C   UNL d   1      -0.620   1.503   1.393  0.00  0.00     0.124 A 
ATOM      2  C1  UNL d   1      -1.025   0.227   1.760  0.00  0.00     0.062 A 
ATOM      3  C2  UNL d   1      -0.667  -0.872   0.983  0.00  0.00     0.162 A 
ATOM      4  C3  UNL d   1       0.101  -0.699  -0.168  0.00  0.00    -0.034 A 
ATOM      5  C4  UNL d   1       0.504   0.587  -0.532  0.00  0.00     0.162 A 
ATOM      6  C5  UNL d   1       0.144   1.682   0.248  0.00  0.00     0.062 A 
ATOM      7  F   UNL d   1       0.536   2.914  -0.108  0.00  0.00    -0.097 F 
ATOM      8  F1  UNL d   1       1.243   0.789  -1.632  0.00  0.00    -0.096 F 
ATOM      9  I   UNL d   1       0.638  -2.339  -1.332  0.00  0.00    -0.060 I 
ATOM     10  F2  UNL d   1      -1.072  -2.093   1.362  0.00  0.00    -0.096 F 
ATOM     11  F3  UNL d   1      -1.764   0.051   2.865  0.00  0.00    -0.097 F 
ATOM     12  F4  UNL d   1      -0.967   2.558   2.141  0.00  0.00    -0.092 F 
ENDROOT
TORSDOF 0
ENDMDL
