MODEL 1
REMARK minimizedAffinity -3.7870605
REMARK minimizedRMSD -1
REMARK  0 active torsions:
REMARK  status: ('A' for Active; 'I' for Inactive)
ROOT
ATOM      1  C   UNL d   1      -0.523   1.604   0.686  0.00  0.00     0.124 A 
ATOM      2  C1  UNL d   1       0.516   1.662  -0.233  0.00  0.00     0.062 A 
ATOM      3  C2  UNL d   1       1.153   0.494  -0.644  0.00  0.00     0.162 A 
ATOM      4  C3  UNL d   1       0.752  -0.742  -0.136  0.00  0.00    -0.034 A 
ATOM      5  C4  UNL d   1      -0.292  -0.791   0.789  0.00  0.00     0.162 A 
ATOM      6  C5  UNL d   1      -0.925   0.378   1.196  0.00  0.00     0.062 A 
ATOM      7  F   UNL d   1      -1.929   0.321   2.084  0.00  0.00    -0.097 F 
ATOM      8  F1  UNL d   1      -0.702  -1.963   1.297  0.00  0.00    -0.096 F 
ATOM      9  I   UNL d   1       1.702  -2.490  -0.747  0.00  0.00    -0.060 I 
ATOM     10  F2  UNL d   1       2.153   0.580  -1.533  0.00  0.00    -0.096 F 
ATOM     11  F3  UNL d   1       0.908   2.845  -0.726  0.00  0.00    -0.097 F 
ATOM     12  F4  UNL d   1      -1.133   2.729   1.080  0.00  0.00    -0.092 F 
ENDROOT
TORSDOF 0
ENDMDL
