MODEL 1
REMARK minimizedAffinity -5.09578562
REMARK minimizedRMSD -1
REMARK  0 active torsions:
REMARK  status: ('A' for Active; 'I' for Inactive)
ROOT
ATOM      1  C   UNL d   1      -0.633   2.791   0.751  0.00  0.00     0.124 A 
ATOM      2  C1  UNL d   1      -1.017   1.553   1.246  0.00  0.00     0.062 A 
ATOM      3  C2  UNL d   1      -0.596   0.386   0.615  0.00  0.00     0.162 A 
ATOM      4  C3  UNL d   1       0.214   0.451  -0.518  0.00  0.00    -0.034 A 
ATOM      5  C4  UNL d   1       0.596   1.701  -1.011  0.00  0.00     0.162 A 
ATOM      6  C5  UNL d   1       0.173   2.864  -0.376  0.00  0.00     0.062 A 
ATOM      7  F   UNL d   1       0.545   4.060  -0.856  0.00  0.00    -0.097 F 
ATOM      8  F1  UNL d   1       1.375   1.800  -2.098  0.00  0.00    -0.096 F 
ATOM      9  I   UNL d   1       0.845  -1.292  -1.464  0.00  0.00    -0.060 I 
ATOM     10  F2  UNL d   1      -0.983  -0.797   1.116  0.00  0.00    -0.096 F 
ATOM     11  F3  UNL d   1      -1.796   1.480   2.335  0.00  0.00    -0.097 F 
ATOM     12  F4  UNL d   1      -1.040   3.913   1.360  0.00  0.00    -0.092 F 
ENDROOT
TORSDOF 0
ENDMDL
