MODEL 1
REMARK minimizedAffinity -0.167963982
REMARK minimizedRMSD -1
REMARK  0 active torsions:
REMARK  status: ('A' for Active; 'I' for Inactive)
ROOT
ATOM      1  C   UNL d   1      -0.473   2.440   1.171  0.00  0.00     0.124 A 
ATOM      2  C1  UNL d   1       0.224   2.476  -0.029  0.00  0.00     0.062 A 
ATOM      3  C2  UNL d   1       0.685   1.296  -0.605  0.00  0.00     0.162 A 
ATOM      4  C3  UNL d   1       0.450   0.070   0.016  0.00  0.00    -0.034 A 
ATOM      5  C4  UNL d   1      -0.252   0.042   1.223  0.00  0.00     0.162 A 
ATOM      6  C5  UNL d   1      -0.711   1.224   1.795  0.00  0.00     0.062 A 
ATOM      7  F   UNL d   1      -1.384   1.188   2.954  0.00  0.00    -0.097 F 
ATOM      8  F1  UNL d   1      -0.496  -1.120   1.847  0.00  0.00    -0.096 F 
ATOM      9  I   UNL d   1       1.137  -1.696  -0.843  0.00  0.00    -0.060 I 
ATOM     10  F2  UNL d   1       1.356   1.361  -1.765  0.00  0.00    -0.096 F 
ATOM     11  F3  UNL d   1       0.456   3.650  -0.633  0.00  0.00    -0.097 F 
ATOM     12  F4  UNL d   1      -0.915   3.577   1.724  0.00  0.00    -0.092 F 
ENDROOT
TORSDOF 0
ENDMDL
