MODEL 1
REMARK minimizedAffinity -0.691883326
REMARK minimizedRMSD -1
REMARK  0 active torsions:
REMARK  status: ('A' for Active; 'I' for Inactive)
ROOT
ATOM      1  C   UNL d   1      -0.562   1.677   0.908  0.00  0.00     0.124 A 
ATOM      2  C1  UNL d   1      -1.103   0.508   1.425  0.00  0.00     0.062 A 
ATOM      3  C2  UNL d   1      -0.811  -0.718   0.835  0.00  0.00     0.162 A 
ATOM      4  C3  UNL d   1       0.027  -0.783  -0.278  0.00  0.00    -0.034 A 
ATOM      5  C4  UNL d   1       0.566   0.398  -0.793  0.00  0.00     0.162 A 
ATOM      6  C5  UNL d   1       0.272   1.621  -0.200  0.00  0.00     0.062 A 
ATOM      7  F   UNL d   1       0.795   2.750  -0.701  0.00  0.00    -0.097 F 
ATOM      8  F1  UNL d   1       1.375   0.372  -1.862  0.00  0.00    -0.096 F 
ATOM      9  I   UNL d   1       0.465  -2.615  -1.163  0.00  0.00    -0.060 I 
ATOM     10  F2  UNL d   1      -1.348  -1.832   1.355  0.00  0.00    -0.096 F 
ATOM     11  F3  UNL d   1      -1.910   0.560   2.494  0.00  0.00    -0.097 F 
ATOM     12  F4  UNL d   1      -0.845   2.856   1.477  0.00  0.00    -0.092 F 
ENDROOT
TORSDOF 0
ENDMDL
