MODEL 1
REMARK minimizedAffinity -0.474755436
REMARK minimizedRMSD -1
REMARK  0 active torsions:
REMARK  status: ('A' for Active; 'I' for Inactive)
ROOT
ATOM      1  C   UNL d   1      -0.343   2.559   1.004  0.00  0.00     0.124 A 
ATOM      2  C1  UNL d   1       0.411   2.563  -0.161  0.00  0.00     0.062 A 
ATOM      3  C2  UNL d   1       0.778   1.362  -0.762  0.00  0.00     0.162 A 
ATOM      4  C3  UNL d   1       0.390   0.146  -0.199  0.00  0.00    -0.034 A 
ATOM      5  C4  UNL d   1      -0.367   0.150   0.973  0.00  0.00     0.162 A 
ATOM      6  C5  UNL d   1      -0.731   1.353   1.570  0.00  0.00     0.062 A 
ATOM      7  F   UNL d   1      -1.460   1.346   2.696  0.00  0.00    -0.097 F 
ATOM      8  F1  UNL d   1      -0.757  -1.001   1.541  0.00  0.00    -0.096 F 
ATOM      9  I   UNL d   1       0.937  -1.651  -1.095  0.00  0.00    -0.060 I 
ATOM     10  F2  UNL d   1       1.507   1.397  -1.888  0.00  0.00    -0.096 F 
ATOM     11  F3  UNL d   1       0.789   3.727  -0.709  0.00  0.00    -0.097 F 
ATOM     12  F4  UNL d   1      -0.693   3.715   1.581  0.00  0.00    -0.092 F 
ENDROOT
TORSDOF 0
ENDMDL
