MODEL 1
REMARK minimizedAffinity -4.26244831
REMARK minimizedRMSD -1
REMARK  1 active torsions:
REMARK  status: ('A' for Active; 'I' for Inactive)
REMARK    1  A    between atoms: C1_2  and  C2_3 
ROOT
ATOM      1  C2  UNL d   1      -1.761  -0.368   1.460  0.00  0.00    -0.077 A 
ATOM      2  C3  UNL d   1      -2.896  -0.777   0.746  0.00  0.00     0.002 A 
ATOM      3  C4  UNL d   1      -4.134  -0.176   0.982  0.00  0.00     0.002 A 
ATOM      4  C5  UNL d   1      -4.247   0.840   1.929  0.00  0.00    -0.004 A 
ATOM      5  C6  UNL d   1      -3.125   1.252   2.646  0.00  0.00     0.002 A 
ATOM      6  C7  UNL d   1      -1.887   0.652   2.412  0.00  0.00     0.002 A 
ENDROOT
BRANCH   1   7
ATOM      7  C1  UNL d   1      -0.415  -0.981   1.172  0.00  0.00     0.055 C 
ATOM      8  C   UNL d   1      -0.422  -1.733  -0.151  0.00  0.00     0.019 C 
ENDBRANCH   1   7
TORSDOF 1
ENDMDL
