MODEL 1
REMARK minimizedAffinity -4.82608271
REMARK minimizedRMSD -1
REMARK  1 active torsions:
REMARK  status: ('A' for Active; 'I' for Inactive)
REMARK    1  A    between atoms: C1_2  and  C2_3 
ROOT
ATOM      1  C2  UNL d   1       0.451  -1.870  -1.507  0.00  0.00    -0.077 A 
ATOM      2  C3  UNL d   1       0.516  -0.885  -0.511  0.00  0.00     0.002 A 
ATOM      3  C4  UNL d   1       1.747  -0.354  -0.122  0.00  0.00     0.002 A 
ATOM      4  C5  UNL d   1       2.921  -0.796  -0.727  0.00  0.00    -0.004 A 
ATOM      5  C6  UNL d   1       2.868  -1.776  -1.718  0.00  0.00     0.002 A 
ATOM      6  C7  UNL d   1       1.638  -2.310  -2.107  0.00  0.00     0.002 A 
ENDROOT
BRANCH   1   7
ATOM      7  C1  UNL d   1      -0.879  -2.409  -1.962  0.00  0.00     0.055 C 
ATOM      8  C   UNL d   1      -1.074  -2.211  -3.459  0.00  0.00     0.019 C 
ENDBRANCH   1   7
TORSDOF 1
ENDMDL
