MODEL 1
REMARK minimizedAffinity 0.0730930567
REMARK minimizedRMSD -1
REMARK  1 active torsions:
REMARK  status: ('A' for Active; 'I' for Inactive)
REMARK    1  A    between atoms: C1_2  and  C2_3 
ROOT
ATOM      1  C2  UNL d   1      -2.142  -0.671   2.129  0.00  0.00    -0.077 A 
ATOM      2  C3  UNL d   1      -2.989  -1.339   1.233  0.00  0.00     0.002 A 
ATOM      3  C4  UNL d   1      -2.558  -1.631  -0.062  0.00  0.00     0.002 A 
ATOM      4  C5  UNL d   1      -1.278  -1.263  -0.472  0.00  0.00    -0.004 A 
ATOM      5  C6  UNL d   1      -0.429  -0.597   0.411  0.00  0.00     0.002 A 
ATOM      6  C7  UNL d   1      -0.859  -0.303   1.706  0.00  0.00     0.002 A 
ENDROOT
BRANCH   1   7
ATOM      7  C1  UNL d   1      -2.587  -0.399   3.542  0.00  0.00     0.055 C 
ATOM      8  C   UNL d   1      -2.944  -1.688   4.268  0.00  0.00     0.019 C 
ENDBRANCH   1   7
TORSDOF 1
ENDMDL
