MODEL 1
REMARK minimizedAffinity -3.98744178
REMARK minimizedRMSD -1
REMARK  1 active torsions:
REMARK  status: ('A' for Active; 'I' for Inactive)
REMARK    1  A    between atoms: C1_2  and  C2_3 
ROOT
ATOM      1  C2  UNL d   1      -1.172  -1.328   0.121  0.00  0.00    -0.077 A 
ATOM      2  C3  UNL d   1      -0.597  -1.001   1.357  0.00  0.00     0.002 A 
ATOM      3  C4  UNL d   1      -1.333  -0.305   2.317  0.00  0.00     0.002 A 
ATOM      4  C5  UNL d   1      -2.650   0.067   2.053  0.00  0.00    -0.004 A 
ATOM      5  C6  UNL d   1      -3.231  -0.252   0.826  0.00  0.00     0.002 A 
ATOM      6  C7  UNL d   1      -2.495  -0.947  -0.135  0.00  0.00     0.002 A 
ENDROOT
BRANCH   1   7
ATOM      7  C1  UNL d   1      -0.396  -2.122  -0.896  0.00  0.00     0.055 C 
ATOM      8  C   UNL d   1      -0.237  -1.349  -2.198  0.00  0.00     0.019 C 
ENDBRANCH   1   7
TORSDOF 1
ENDMDL
