MODEL 1
REMARK minimizedAffinity -2.34609127
REMARK minimizedRMSD -1
REMARK  1 active torsions:
REMARK  status: ('A' for Active; 'I' for Inactive)
REMARK    1  A    between atoms: C1_2  and  C2_3 
ROOT
ATOM      1  C2  UNL d   1      -0.904  -0.885   1.745  0.00  0.00    -0.077 A 
ATOM      2  C3  UNL d   1      -0.958  -1.236   0.389  0.00  0.00     0.002 A 
ATOM      3  C4  UNL d   1      -1.971  -0.735  -0.430  0.00  0.00     0.002 A 
ATOM      4  C5  UNL d   1      -2.935   0.122   0.096  0.00  0.00    -0.004 A 
ATOM      5  C6  UNL d   1      -2.891   0.476   1.444  0.00  0.00     0.002 A 
ATOM      6  C7  UNL d   1      -1.880  -0.025   2.265  0.00  0.00     0.002 A 
ENDROOT
BRANCH   1   7
ATOM      7  C1  UNL d   1       0.217  -1.385   2.619  0.00  0.00     0.055 C 
ATOM      8  C   UNL d   1       1.498  -1.576   1.821  0.00  0.00     0.019 C 
ENDBRANCH   1   7
TORSDOF 1
ENDMDL
