MODEL 1
REMARK minimizedAffinity -4.69292259
REMARK minimizedRMSD -1
REMARK  1 active torsions:
REMARK  status: ('A' for Active; 'I' for Inactive)
REMARK    1  A    between atoms: C1_2  and  C2_3 
ROOT
ATOM      1  C2  UNL d   1      -1.892  -1.761   0.149  0.00  0.00    -0.077 A 
ATOM      2  C3  UNL d   1      -0.968  -1.067   0.942  0.00  0.00     0.002 A 
ATOM      3  C4  UNL d   1      -1.340   0.110   1.594  0.00  0.00     0.002 A 
ATOM      4  C5  UNL d   1      -2.637   0.601   1.462  0.00  0.00    -0.004 A 
ATOM      5  C6  UNL d   1      -3.563  -0.081   0.674  0.00  0.00     0.002 A 
ATOM      6  C7  UNL d   1      -3.193  -1.257   0.020  0.00  0.00     0.002 A 
ENDROOT
BRANCH   1   7
ATOM      7  C1  UNL d   1      -1.507  -3.058  -0.515  0.00  0.00     0.055 C 
ATOM      8  C   UNL d   1      -0.073  -3.014  -1.023  0.00  0.00     0.019 C 
ENDBRANCH   1   7
TORSDOF 1
ENDMDL
