MODEL 1
REMARK minimizedAffinity -5.94940138
REMARK minimizedRMSD -1
REMARK  1 active torsions:
REMARK  status: ('A' for Active; 'I' for Inactive)
REMARK    1  A    between atoms: C1_2  and  C2_3 
ROOT
ATOM      1  C2  UNL d   1      -0.845  -0.725  -0.076  0.00  0.00    -0.077 A 
ATOM      2  C3  UNL d   1      -0.252  -0.458   1.166  0.00  0.00     0.002 A 
ATOM      3  C4  UNL d   1      -1.015   0.056   2.217  0.00  0.00     0.002 A 
ATOM      4  C5  UNL d   1      -2.374   0.304   2.037  0.00  0.00    -0.004 A 
ATOM      5  C6  UNL d   1      -2.972   0.044   0.805  0.00  0.00     0.002 A 
ATOM      6  C7  UNL d   1      -2.212  -0.469  -0.247  0.00  0.00     0.002 A 
ENDROOT
BRANCH   1   7
ATOM      7  C1  UNL d   1      -0.036  -1.326  -1.195  0.00  0.00     0.055 C 
ATOM      8  C   UNL d   1      -0.877  -1.511  -2.450  0.00  0.00     0.019 C 
ENDBRANCH   1   7
TORSDOF 1
ENDMDL
