MODEL 1
REMARK minimizedAffinity -4.18595076
REMARK minimizedRMSD -1
REMARK  1 active torsions:
REMARK  status: ('A' for Active; 'I' for Inactive)
REMARK    1  A    between atoms: C1_2  and  C2_3 
ROOT
ATOM      1  C2  UNL d   1      -1.589  -0.434   1.582  0.00  0.00    -0.077 A 
ATOM      2  C3  UNL d   1      -0.595  -0.337   2.567  0.00  0.00     0.002 A 
ATOM      3  C4  UNL d   1       0.661  -0.911   2.362  0.00  0.00     0.002 A 
ATOM      4  C5  UNL d   1       0.936  -1.583   1.173  0.00  0.00    -0.004 A 
ATOM      5  C6  UNL d   1      -0.046  -1.687   0.189  0.00  0.00     0.002 A 
ATOM      6  C7  UNL d   1      -1.302  -1.115   0.392  0.00  0.00     0.002 A 
ENDROOT
BRANCH   1   7
ATOM      7  C1  UNL d   1      -2.928   0.227   1.781  0.00  0.00     0.055 C 
ATOM      8  C   UNL d   1      -3.839   0.003   0.583  0.00  0.00     0.019 C 
ENDBRANCH   1   7
TORSDOF 1
ENDMDL
