MODEL 1
REMARK minimizedAffinity 11.9023008
REMARK minimizedRMSD -1
REMARK  0 active torsions:
REMARK  status: ('A' for Active; 'I' for Inactive)
ROOT
ATOM      1  C1  DEN d   1       4.437   1.038  -3.028  0.00  0.00     0.130 A 
ATOM      2  C2  DEN d   1       5.354   2.010  -2.439  0.00  0.00    -0.031 A 
ATOM      3  C3  DEN d   1       5.149   2.004  -0.977  0.00  0.00     0.027 A 
ATOM      4  C4  DEN d   1       3.510   0.590   0.426  0.00  0.00     0.027 A 
ATOM      5  C5  DEN d   1       2.520  -0.366   0.370  0.00  0.00    -0.003 A 
ATOM      6  C6  DEN d   1       2.079  -0.891  -0.816  0.00  0.00     0.001 A 
ATOM      7  C7  DEN d   1       2.661  -0.497  -1.991  0.00  0.00     0.017 A 
ATOM      8  C8  DEN d   1       3.655   0.472  -1.943  0.00  0.00    -0.094 A 
ATOM      9  C9  DEN d   1       4.096   0.982  -0.734  0.00  0.00    -0.072 A 
ENDROOT
TORSDOF 0
ENDMDL
