MODEL 1
REMARK minimizedAffinity 3.10195518
REMARK minimizedRMSD -1
REMARK  0 active torsions:
REMARK  status: ('A' for Active; 'I' for Inactive)
ROOT
ATOM      1  C1  DEN d   1       1.869   2.623   6.000  0.00  0.00     0.130 A 
ATOM      2  C2  DEN d   1       1.128   1.977   4.920  0.00  0.00    -0.031 A 
ATOM      3  C3  DEN d   1       1.805   2.296   3.647  0.00  0.00     0.027 A 
ATOM      4  C4  DEN d   1       3.921   3.716   3.247  0.00  0.00     0.027 A 
ATOM      5  C5  DEN d   1       4.892   4.479   3.856  0.00  0.00    -0.003 A 
ATOM      6  C6  DEN d   1       4.905   4.703   5.207  0.00  0.00     0.001 A 
ATOM      7  C7  DEN d   1       3.952   4.121   6.000  0.00  0.00     0.017 A 
ATOM      8  C8  DEN d   1       2.964   3.356   5.392  0.00  0.00    -0.094 A 
ATOM      9  C9  DEN d   1       2.976   3.131   4.026  0.00  0.00    -0.072 A 
ENDROOT
TORSDOF 0
ENDMDL
