MODEL 1
REMARK minimizedAffinity 10.2693624
REMARK minimizedRMSD -1
REMARK  0 active torsions:
REMARK  status: ('A' for Active; 'I' for Inactive)
ROOT
ATOM      1  C1  DEN d   1      -0.238   0.422   0.474  0.00  0.00     0.130 A 
ATOM      2  C2  DEN d   1       0.799   1.418   0.729  0.00  0.00    -0.031 A 
ATOM      3  C3  DEN d   1       2.093   0.848   0.305  0.00  0.00     0.027 A 
ATOM      4  C4  DEN d   1       2.589  -1.467  -0.720  0.00  0.00     0.027 A 
ATOM      5  C5  DEN d   1       2.031  -2.663  -1.114  0.00  0.00    -0.003 A 
ATOM      6  C6  DEN d   1       0.694  -2.925  -0.977  0.00  0.00     0.001 A 
ATOM      7  C7  DEN d   1      -0.139  -1.961  -0.473  0.00  0.00     0.017 A 
ATOM      8  C8  DEN d   1       0.418  -0.755  -0.066  0.00  0.00    -0.094 A 
ATOM      9  C9  DEN d   1       1.770  -0.505  -0.224  0.00  0.00    -0.072 A 
ENDROOT
TORSDOF 0
ENDMDL
