MODEL 1
REMARK minimizedAffinity -3.13069797
REMARK minimizedRMSD -1
REMARK  0 active torsions:
REMARK  status: ('A' for Active; 'I' for Inactive)
ROOT
ATOM      1  C   UNL d   1      -0.615   1.558   3.547  0.00  0.00     0.077 C 
ATOM      2  C1  UNL d   1      -0.980   1.346   2.108  0.00  0.00    -0.074 A 
ATOM      3  C2  UNL d   1      -2.089   1.986   1.545  0.00  0.00    -0.005 A 
ATOM      4  C3  UNL d   1      -2.410   1.785   0.203  0.00  0.00     0.006 A 
ATOM      5  C4  UNL d   1      -1.626   0.945  -0.589  0.00  0.00    -0.005 A 
ATOM      6  C5  UNL d   1      -0.513   0.298  -0.044  0.00  0.00    -0.074 A 
ATOM      7  C6  UNL d   1       0.345  -0.601  -0.884  0.00  0.00     0.077 C 
ATOM      8  C7  UNL d   1      -0.193   0.509   1.304  0.00  0.00    -0.001 A 
ENDROOT
TORSDOF 0
ENDMDL
