MODEL 1
REMARK minimizedAffinity -4.62728786
REMARK minimizedRMSD -1
REMARK  0 active torsions:
REMARK  status: ('A' for Active; 'I' for Inactive)
ROOT
ATOM      1  C   UNL d   1      -2.248   3.287   1.020  0.00  0.00     0.077 C 
ATOM      2  C1  UNL d   1      -1.303   2.144   0.799  0.00  0.00    -0.074 A 
ATOM      3  C2  UNL d   1      -1.299   1.038   1.655  0.00  0.00    -0.005 A 
ATOM      4  C3  UNL d   1      -0.420  -0.022   1.431  0.00  0.00     0.006 A 
ATOM      5  C4  UNL d   1       0.462   0.013   0.350  0.00  0.00    -0.005 A 
ATOM      6  C5  UNL d   1       0.471   1.110  -0.517  0.00  0.00    -0.074 A 
ATOM      7  C6  UNL d   1       1.405   1.158  -1.690  0.00  0.00     0.077 C 
ATOM      8  C7  UNL d   1      -0.420   2.168  -0.290  0.00  0.00    -0.001 A 
ENDROOT
TORSDOF 0
ENDMDL
