MODEL 1
REMARK minimizedAffinity -4.06815434
REMARK minimizedRMSD -1
REMARK  0 active torsions:
REMARK  status: ('A' for Active; 'I' for Inactive)
ROOT
ATOM      1  C   UNL d   1      -0.949   0.785   1.598  0.00  0.00     0.077 C 
ATOM      2  C1  UNL d   1      -0.099   0.505   0.394  0.00  0.00    -0.074 A 
ATOM      3  C2  UNL d   1       0.541   1.543  -0.291  0.00  0.00    -0.005 A 
ATOM      4  C3  UNL d   1       1.336   1.266  -1.403  0.00  0.00     0.006 A 
ATOM      5  C4  UNL d   1       1.498  -0.048  -1.841  0.00  0.00    -0.005 A 
ATOM      6  C5  UNL d   1       0.866  -1.099  -1.169  0.00  0.00    -0.074 A 
ATOM      7  C6  UNL d   1       1.038  -2.519  -1.621  0.00  0.00     0.077 C 
ATOM      8  C7  UNL d   1       0.075  -0.814  -0.048  0.00  0.00    -0.001 A 
ENDROOT
TORSDOF 0
ENDMDL
