MODEL 1
REMARK minimizedAffinity -1.90483999
REMARK minimizedRMSD -1
REMARK  0 active torsions:
REMARK  status: ('A' for Active; 'I' for Inactive)
ROOT
ATOM      1  C   UNL d   1      -0.127   0.773  -0.571  0.00  0.00     0.077 C 
ATOM      2  C1  UNL d   1       0.272  -0.645  -0.856  0.00  0.00    -0.074 A 
ATOM      3  C2  UNL d   1       1.297  -1.262  -0.131  0.00  0.00    -0.005 A 
ATOM      4  C3  UNL d   1       1.651  -2.584  -0.401  0.00  0.00     0.006 A 
ATOM      5  C4  UNL d   1       0.984  -3.301  -1.395  0.00  0.00    -0.005 A 
ATOM      6  C5  UNL d   1      -0.044  -2.701  -2.129  0.00  0.00    -0.074 A 
ATOM      7  C6  UNL d   1      -0.777  -3.460  -3.195  0.00  0.00     0.077 C 
ATOM      8  C7  UNL d   1      -0.398  -1.374  -1.848  0.00  0.00    -0.001 A 
ENDROOT
TORSDOF 0
ENDMDL
