MODEL 1
REMARK minimizedAffinity -4.77387381
REMARK minimizedRMSD -1
REMARK  0 active torsions:
REMARK  status: ('A' for Active; 'I' for Inactive)
ROOT
ATOM      1  C   UNL d   1      -2.113   1.889   0.822  0.00  0.00     0.077 C 
ATOM      2  C1  UNL d   1      -0.933   1.386   0.045  0.00  0.00    -0.074 A 
ATOM      3  C2  UNL d   1      -0.357   2.159  -0.968  0.00  0.00    -0.005 A 
ATOM      4  C3  UNL d   1       0.746   1.682  -1.676  0.00  0.00     0.006 A 
ATOM      5  C4  UNL d   1       1.283   0.428  -1.379  0.00  0.00    -0.005 A 
ATOM      6  C5  UNL d   1       0.720  -0.359  -0.369  0.00  0.00    -0.074 A 
ATOM      7  C6  UNL d   1       1.290  -1.704  -0.031  0.00  0.00     0.077 C 
ATOM      8  C7  UNL d   1      -0.384   0.131   0.343  0.00  0.00    -0.001 A 
ENDROOT
TORSDOF 0
ENDMDL
