MODEL 1
REMARK minimizedAffinity 4.79245234
REMARK minimizedRMSD -1
REMARK  0 active torsions:
REMARK  status: ('A' for Active; 'I' for Inactive)
ROOT
ATOM      1  C   UNL d   1       1.181  -0.350   0.372  0.00  0.00     0.077 C 
ATOM      2  C1  UNL d   1       0.347   0.676  -0.337  0.00  0.00    -0.074 A 
ATOM      3  C2  UNL d   1       0.910   1.877  -0.782  0.00  0.00    -0.005 A 
ATOM      4  C3  UNL d   1       0.124   2.817  -1.449  0.00  0.00     0.006 A 
ATOM      5  C4  UNL d   1      -1.229   2.566  -1.678  0.00  0.00    -0.005 A 
ATOM      6  C5  UNL d   1      -1.809   1.370  -1.242  0.00  0.00    -0.074 A 
ATOM      7  C6  UNL d   1      -3.260   1.080  -1.488  0.00  0.00     0.077 C 
ATOM      8  C7  UNL d   1      -1.011   0.428  -0.578  0.00  0.00    -0.001 A 
ENDROOT
TORSDOF 0
ENDMDL
