MODEL 1
REMARK minimizedAffinity -3.38764405
REMARK minimizedRMSD -1
REMARK  0 active torsions:
REMARK  status: ('A' for Active; 'I' for Inactive)
ROOT
ATOM      1  C   UNL d   1       1.229   2.018  -1.511  0.00  0.00     0.077 C 
ATOM      2  C1  UNL d   1       0.307   1.669  -0.381  0.00  0.00    -0.074 A 
ATOM      3  C2  UNL d   1      -0.750   2.514  -0.028  0.00  0.00    -0.005 A 
ATOM      4  C3  UNL d   1      -1.605   2.171   1.019  0.00  0.00     0.006 A 
ATOM      5  C4  UNL d   1      -1.413   0.981   1.722  0.00  0.00    -0.005 A 
ATOM      6  C5  UNL d   1      -0.362   0.123   1.383  0.00  0.00    -0.074 A 
ATOM      7  C6  UNL d   1      -0.148  -1.164   2.122  0.00  0.00     0.077 C 
ATOM      8  C7  UNL d   1       0.489   0.471   0.325  0.00  0.00    -0.001 A 
ENDROOT
TORSDOF 0
ENDMDL
