MODEL 1
REMARK minimizedAffinity -3.56285834
REMARK minimizedRMSD -1
REMARK  0 active torsions:
REMARK  status: ('A' for Active; 'I' for Inactive)
ROOT
ATOM      1  C   UNL d   1       0.400   1.482  -1.653  0.00  0.00     0.077 C 
ATOM      2  C1  UNL d   1      -0.333   1.241  -0.367  0.00  0.00    -0.074 A 
ATOM      3  C2  UNL d   1      -1.253   2.174   0.122  0.00  0.00    -0.005 A 
ATOM      4  C3  UNL d   1      -1.934   1.932   1.315  0.00  0.00     0.006 A 
ATOM      5  C4  UNL d   1      -1.703   0.756   2.029  0.00  0.00    -0.005 A 
ATOM      6  C5  UNL d   1      -0.788  -0.189   1.555  0.00  0.00    -0.074 A 
ATOM      7  C6  UNL d   1      -0.535  -1.463   2.306  0.00  0.00     0.077 C 
ATOM      8  C7  UNL d   1      -0.112   0.058   0.352  0.00  0.00    -0.001 A 
ENDROOT
TORSDOF 0
ENDMDL
