MODEL 1
REMARK minimizedAffinity -4.62417412
REMARK minimizedRMSD -1
REMARK  0 active torsions:
REMARK  status: ('A' for Active; 'I' for Inactive)
ROOT
ATOM      1  C   UNL d   1       1.066  -0.644  -1.062  0.00  0.00     0.077 C 
ATOM      2  C1  UNL d   1       0.290  -0.159   0.126  0.00  0.00    -0.074 A 
ATOM      3  C2  UNL d   1       0.507  -0.702   1.397  0.00  0.00    -0.005 A 
ATOM      4  C3  UNL d   1      -0.215  -0.234   2.495  0.00  0.00     0.006 A 
ATOM      5  C4  UNL d   1      -1.161   0.779   2.333  0.00  0.00    -0.005 A 
ATOM      6  C5  UNL d   1      -1.392   1.334   1.070  0.00  0.00    -0.074 A 
ATOM      7  C6  UNL d   1      -2.398   2.430   0.881  0.00  0.00     0.077 C 
ATOM      8  C7  UNL d   1      -0.657   0.864  -0.026  0.00  0.00    -0.001 A 
ENDROOT
TORSDOF 0
ENDMDL
