MODEL 1
REMARK minimizedAffinity -3.12117386
REMARK minimizedRMSD -1
REMARK  0 active torsions:
REMARK  status: ('A' for Active; 'I' for Inactive)
ROOT
ATOM      1  C   UNL d   1      -0.413   2.470  -1.380  0.00  0.00     0.077 C 
ATOM      2  C1  UNL d   1      -0.184   1.254  -0.532  0.00  0.00    -0.074 A 
ATOM      3  C2  UNL d   1      -0.754   1.147   0.740  0.00  0.00    -0.005 A 
ATOM      4  C3  UNL d   1      -0.539   0.006   1.513  0.00  0.00     0.006 A 
ATOM      5  C4  UNL d   1       0.246  -1.038   1.022  0.00  0.00    -0.005 A 
ATOM      6  C5  UNL d   1       0.823  -0.950  -0.249  0.00  0.00    -0.074 A 
ATOM      7  C6  UNL d   1       1.661  -2.067  -0.796  0.00  0.00     0.077 C 
ATOM      8  C7  UNL d   1       0.597   0.197  -1.022  0.00  0.00    -0.001 A 
ENDROOT
TORSDOF 0
ENDMDL
