MODEL 1
REMARK minimizedAffinity -2.20780134
REMARK minimizedRMSD -1
REMARK  0 active torsions:
REMARK  status: ('A' for Active; 'I' for Inactive)
ROOT
ATOM      1  C   UNL d   1      -0.006  -1.719   2.701  0.00  0.00     0.077 C 
ATOM      2  C1  UNL d   1      -0.213  -0.696   1.624  0.00  0.00    -0.074 A 
ATOM      3  C2  UNL d   1       0.294  -0.896   0.336  0.00  0.00    -0.005 A 
ATOM      4  C3  UNL d   1       0.086   0.060  -0.658  0.00  0.00     0.006 A 
ATOM      5  C4  UNL d   1      -0.631   1.223  -0.375  0.00  0.00    -0.005 A 
ATOM      6  C5  UNL d   1      -1.146   1.440   0.907  0.00  0.00    -0.074 A 
ATOM      7  C6  UNL d   1      -1.927   2.681   1.225  0.00  0.00     0.077 C 
ATOM      8  C7  UNL d   1      -0.938   0.472   1.899  0.00  0.00    -0.001 A 
ENDROOT
TORSDOF 0
ENDMDL
