MODEL 1
REMARK minimizedAffinity -2.76640058
REMARK minimizedRMSD -1
REMARK  0 active torsions:
REMARK  status: ('A' for Active; 'I' for Inactive)
ROOT
ATOM      1  C   UNL d   1       1.241   1.516  -2.358  0.00  0.00     0.077 C 
ATOM      2  C1  UNL d   1       0.694   0.849  -1.130  0.00  0.00    -0.074 A 
ATOM      3  C2  UNL d   1       1.097  -0.442  -0.773  0.00  0.00    -0.005 A 
ATOM      4  C3  UNL d   1       0.588  -1.045   0.377  0.00  0.00     0.006 A 
ATOM      5  C4  UNL d   1      -0.328  -0.364   1.180  0.00  0.00    -0.005 A 
ATOM      6  C5  UNL d   1      -0.741   0.928   0.840  0.00  0.00    -0.074 A 
ATOM      7  C6  UNL d   1      -1.717   1.677   1.698  0.00  0.00     0.077 C 
ATOM      8  C7  UNL d   1      -0.220   1.530  -0.313  0.00  0.00    -0.001 A 
ENDROOT
TORSDOF 0
ENDMDL
