MODEL 1
REMARK minimizedAffinity -5.49059057
REMARK minimizedRMSD -1
REMARK  0 active torsions:
REMARK  status: ('A' for Active; 'I' for Inactive)
ROOT
ATOM      1  C   UNL d   1      -2.287   3.214   1.170  0.00  0.00     0.077 C 
ATOM      2  C1  UNL d   1      -1.381   2.188   0.557  0.00  0.00    -0.074 A 
ATOM      3  C2  UNL d   1      -0.388   2.559  -0.356  0.00  0.00    -0.005 A 
ATOM      4  C3  UNL d   1       0.454   1.596  -0.911  0.00  0.00     0.006 A 
ATOM      5  C4  UNL d   1       0.312   0.253  -0.560  0.00  0.00    -0.005 A 
ATOM      6  C5  UNL d   1      -0.675  -0.138   0.352  0.00  0.00    -0.074 A 
ATOM      7  C6  UNL d   1      -0.834  -1.576   0.748  0.00  0.00     0.077 C 
ATOM      8  C7  UNL d   1      -1.512   0.838   0.911  0.00  0.00    -0.001 A 
ENDROOT
TORSDOF 0
ENDMDL
