MODEL 1
REMARK minimizedAffinity -3.82907534
REMARK minimizedRMSD -1
REMARK  0 active torsions:
REMARK  status: ('A' for Active; 'I' for Inactive)
ROOT
ATOM      1  C   UNL d   1       1.452   1.445  -1.927  0.00  0.00     0.077 C 
ATOM      2  C1  UNL d   1       0.695   0.997  -0.712  0.00  0.00    -0.074 A 
ATOM      3  C2  UNL d   1       1.034  -0.187  -0.050  0.00  0.00    -0.005 A 
ATOM      4  C3  UNL d   1       0.328  -0.586   1.084  0.00  0.00     0.006 A 
ATOM      5  C4  UNL d   1      -0.724   0.194   1.567  0.00  0.00    -0.005 A 
ATOM      6  C5  UNL d   1      -1.077   1.381   0.919  0.00  0.00    -0.074 A 
ATOM      7  C6  UNL d   1      -2.198   2.236   1.431  0.00  0.00     0.077 C 
ATOM      8  C7  UNL d   1      -0.358   1.779  -0.216  0.00  0.00    -0.001 A 
ENDROOT
TORSDOF 0
ENDMDL
