MODEL 1
REMARK minimizedAffinity -5.72779083
REMARK minimizedRMSD -1
REMARK  0 active torsions:
REMARK  status: ('A' for Active; 'I' for Inactive)
ROOT
ATOM      1  C   UNL d   1      -2.443   1.728   0.712  0.00  0.00     0.077 C 
ATOM      2  C1  UNL d   1      -1.356   0.700   0.608  0.00  0.00    -0.074 A 
ATOM      3  C2  UNL d   1      -0.520   0.426   1.696  0.00  0.00    -0.005 A 
ATOM      4  C3  UNL d   1       0.481  -0.539   1.587  0.00  0.00     0.006 A 
ATOM      5  C4  UNL d   1       0.656  -1.239   0.393  0.00  0.00    -0.005 A 
ATOM      6  C5  UNL d   1      -0.171  -0.980  -0.705  0.00  0.00    -0.074 A 
ATOM      7  C6  UNL d   1      -0.003  -1.730  -1.992  0.00  0.00     0.077 C 
ATOM      8  C7  UNL d   1      -1.179  -0.013  -0.586  0.00  0.00    -0.001 A 
ENDROOT
TORSDOF 0
ENDMDL
