MODEL 1
REMARK minimizedAffinity 17.0703468
REMARK minimizedRMSD -1
REMARK  0 active torsions:
REMARK  status: ('A' for Active; 'I' for Inactive)
ROOT
ATOM      1  C   UNL d   1      -2.708   1.316  -3.115  0.00  0.00     0.077 C 
ATOM      2  C1  UNL d   1      -2.529   0.585  -1.818  0.00  0.00    -0.074 A 
ATOM      3  C2  UNL d   1      -3.257  -0.577  -1.541  0.00  0.00    -0.005 A 
ATOM      4  C3  UNL d   1      -3.073  -1.252  -0.335  0.00  0.00     0.006 A 
ATOM      5  C4  UNL d   1      -2.161  -0.773   0.606  0.00  0.00    -0.005 A 
ATOM      6  C5  UNL d   1      -1.423   0.387   0.347  0.00  0.00    -0.074 A 
ATOM      7  C6  UNL d   1      -0.431   0.910   1.343  0.00  0.00     0.077 C 
ATOM      8  C7  UNL d   1      -1.609   1.055  -0.871  0.00  0.00    -0.001 A 
ENDROOT
TORSDOF 0
ENDMDL
