MODEL 1
REMARK minimizedAffinity 7.74411964
REMARK minimizedRMSD -1
REMARK  0 active torsions:
REMARK  status: ('A' for Active; 'I' for Inactive)
ROOT
ATOM      1  C   UNL d   1       1.424  -1.339   4.621  0.00  0.00     0.077 C 
ATOM      2  C1  UNL d   1       1.458  -1.209   3.127  0.00  0.00    -0.074 A 
ATOM      3  C2  UNL d   1       2.386  -1.925   2.364  0.00  0.00    -0.005 A 
ATOM      4  C3  UNL d   1       2.399  -1.801   0.975  0.00  0.00     0.006 A 
ATOM      5  C4  UNL d   1       1.486  -0.961   0.336  0.00  0.00    -0.005 A 
ATOM      6  C5  UNL d   1       0.551  -0.238   1.082  0.00  0.00    -0.074 A 
ATOM      7  C6  UNL d   1      -0.444   0.661   0.410  0.00  0.00     0.077 C 
ATOM      8  C7  UNL d   1       0.539  -0.373   2.477  0.00  0.00    -0.001 A 
ENDROOT
TORSDOF 0
ENDMDL
