MODEL 1
REMARK minimizedAffinity 9.71148586
REMARK minimizedRMSD -1
REMARK  0 active torsions:
REMARK  status: ('A' for Active; 'I' for Inactive)
ROOT
ATOM      1  C   UNL d   1      -2.239  -5.462  -1.850  0.00  0.00     0.077 C 
ATOM      2  C1  UNL d   1      -2.370  -4.177  -1.086  0.00  0.00    -0.074 A 
ATOM      3  C2  UNL d   1      -1.806  -4.036   0.186  0.00  0.00    -0.005 A 
ATOM      4  C3  UNL d   1      -1.928  -2.833   0.880  0.00  0.00     0.006 A 
ATOM      5  C4  UNL d   1      -2.614  -1.760   0.310  0.00  0.00    -0.005 A 
ATOM      6  C5  UNL d   1      -3.184  -1.882  -0.961  0.00  0.00    -0.074 A 
ATOM      7  C6  UNL d   1      -3.917  -0.735  -1.592  0.00  0.00     0.077 C 
ATOM      8  C7  UNL d   1      -3.051  -3.092  -1.655  0.00  0.00    -0.001 A 
ENDROOT
TORSDOF 0
ENDMDL
