MODEL 1
REMARK minimizedAffinity 2.91435671
REMARK minimizedRMSD -1
REMARK  0 active torsions:
REMARK  status: ('A' for Active; 'I' for Inactive)
ROOT
ATOM      1  C   UNL d   1      -5.962   3.955   1.615  0.00  0.00     0.077 C 
ATOM      2  C1  UNL d   1      -5.967   3.781   0.126  0.00  0.00    -0.074 A 
ATOM      3  C2  UNL d   1      -5.979   2.506  -0.450  0.00  0.00    -0.005 A 
ATOM      4  C3  UNL d   1      -5.994   2.361  -1.837  0.00  0.00     0.006 A 
ATOM      5  C4  UNL d   1      -5.997   3.486  -2.661  0.00  0.00    -0.005 A 
ATOM      6  C5  UNL d   1      -5.986   4.769  -2.104  0.00  0.00    -0.074 A 
ATOM      7  C6  UNL d   1      -5.999   5.989  -2.976  0.00  0.00     0.077 C 
ATOM      8  C7  UNL d   1      -5.979   4.907  -0.710  0.00  0.00    -0.001 A 
ENDROOT
TORSDOF 0
ENDMDL
