MODEL 1
REMARK minimizedAffinity 6.49448395
REMARK minimizedRMSD -1
REMARK  0 active torsions:
REMARK  status: ('A' for Active; 'I' for Inactive)
ROOT
ATOM      1  C   UNL d   1       1.095  -0.021   4.424  0.00  0.00     0.077 C 
ATOM      2  C1  UNL d   1       1.216  -0.409   2.980  0.00  0.00    -0.074 A 
ATOM      3  C2  UNL d   1       1.986  -1.510   2.594  0.00  0.00    -0.005 A 
ATOM      4  C3  UNL d   1       2.082  -1.865   1.248  0.00  0.00     0.006 A 
ATOM      5  C4  UNL d   1       1.408  -1.123   0.277  0.00  0.00    -0.005 A 
ATOM      6  C5  UNL d   1       0.632  -0.019   0.644  0.00  0.00    -0.074 A 
ATOM      7  C6  UNL d   1      -0.106   0.784  -0.386  0.00  0.00     0.077 C 
ATOM      8  C7  UNL d   1       0.536   0.327   1.999  0.00  0.00    -0.001 A 
ENDROOT
TORSDOF 0
ENDMDL
