MODEL 1
REMARK minimizedAffinity 4.166821
REMARK minimizedRMSD -1
REMARK  0 active torsions:
REMARK  status: ('A' for Active; 'I' for Inactive)
ROOT
ATOM      1  C   UNL d   1      -1.061   2.863  -0.216  0.00  0.00     0.077 C 
ATOM      2  C1  UNL d   1      -1.011   1.506   0.420  0.00  0.00    -0.074 A 
ATOM      3  C2  UNL d   1      -2.074   0.607   0.281  0.00  0.00    -0.005 A 
ATOM      4  C3  UNL d   1      -2.010  -0.655   0.871  0.00  0.00     0.006 A 
ATOM      5  C4  UNL d   1      -0.884  -1.032   1.604  0.00  0.00    -0.005 A 
ATOM      6  C5  UNL d   1       0.189  -0.147   1.753  0.00  0.00    -0.074 A 
ATOM      7  C6  UNL d   1       1.411  -0.539   2.530  0.00  0.00     0.077 C 
ATOM      8  C7  UNL d   1       0.120   1.117   1.152  0.00  0.00    -0.001 A 
ENDROOT
TORSDOF 0
ENDMDL
