MODEL 1
REMARK minimizedAffinity 2.99004555
REMARK minimizedRMSD -1
REMARK  0 active torsions:
REMARK  status: ('A' for Active; 'I' for Inactive)
ROOT
ATOM      1  C   UNL d   1       3.212  -1.997   1.141  0.00  0.00     0.077 C 
ATOM      2  C1  UNL d   1       2.453  -1.460   2.318  0.00  0.00    -0.074 A 
ATOM      3  C2  UNL d   1       1.855  -0.196   2.270  0.00  0.00    -0.005 A 
ATOM      4  C3  UNL d   1       1.144   0.286   3.369  0.00  0.00     0.006 A 
ATOM      5  C4  UNL d   1       1.024  -0.487   4.524  0.00  0.00    -0.005 A 
ATOM      6  C5  UNL d   1       1.615  -1.753   4.589  0.00  0.00    -0.074 A 
ATOM      7  C6  UNL d   1       1.488  -2.602   5.819  0.00  0.00     0.077 C 
ATOM      8  C7  UNL d   1       2.322  -2.234   3.479  0.00  0.00    -0.001 A 
ENDROOT
TORSDOF 0
ENDMDL
