MODEL 1
REMARK minimizedAffinity 12.2570639
REMARK minimizedRMSD -1
REMARK  0 active torsions:
REMARK  status: ('A' for Active; 'I' for Inactive)
ROOT
ATOM      1  C   UNL d   1       1.369  -2.462   5.984  0.00  0.00     0.077 C 
ATOM      2  C1  UNL d   1       1.340  -1.487   4.845  0.00  0.00    -0.074 A 
ATOM      3  C2  UNL d   1       1.176  -0.118   5.075  0.00  0.00    -0.005 A 
ATOM      4  C3  UNL d   1       1.160   0.778   4.006  0.00  0.00     0.006 A 
ATOM      5  C4  UNL d   1       1.308   0.314   2.698  0.00  0.00    -0.005 A 
ATOM      6  C5  UNL d   1       1.474  -1.052   2.449  0.00  0.00    -0.074 A 
ATOM      7  C6  UNL d   1       1.644  -1.566   1.050  0.00  0.00     0.077 C 
ATOM      8  C7  UNL d   1       1.495  -1.945   3.529  0.00  0.00    -0.001 A 
ENDROOT
TORSDOF 0
ENDMDL
