MODEL 1
REMARK minimizedAffinity 10.0578804
REMARK minimizedRMSD -1
REMARK  0 active torsions:
REMARK  status: ('A' for Active; 'I' for Inactive)
ROOT
ATOM      1  C2' OXE d   1       3.164  -2.407   1.118  0.00  0.00     0.078 C 
ATOM      2  C1' OXE d   1       5.659  -1.151   1.391  0.00  0.00     0.078 C 
ATOM      3  C1  OXE d   1       4.566  -0.396   0.677  0.00  0.00    -0.078 A 
ATOM      4  C2  OXE d   1       3.362  -1.037   0.507  0.00  0.00    -0.078 A 
ATOM      5  C3  OXE d   1       2.303  -0.365  -0.096  0.00  0.00     0.003 A 
ATOM      6  C4  OXE d   1       2.497   0.898  -0.667  0.00  0.00    -0.002 A 
ATOM      7  C5  OXE d   1       3.727   1.553  -0.540  0.00  0.00    -0.002 A 
ATOM      8  C6  OXE d   1       4.757   0.939   0.165  0.00  0.00     0.003 A 
ENDROOT
TORSDOF 0
ENDMDL
