MODEL 1
REMARK minimizedAffinity 11.6861839
REMARK minimizedRMSD -1
REMARK  0 active torsions:
REMARK  status: ('A' for Active; 'I' for Inactive)
ROOT
ATOM      1  C2' OXE d   1      -5.042   5.549   1.953  0.00  0.00     0.078 C 
ATOM      2  C1' OXE d   1      -4.771   2.807   2.492  0.00  0.00     0.078 C 
ATOM      3  C1  OXE d   1      -5.131   3.717   3.639  0.00  0.00    -0.078 A 
ATOM      4  C2  OXE d   1      -5.216   5.063   3.376  0.00  0.00    -0.078 A 
ATOM      5  C3  OXE d   1      -5.599   5.940   4.387  0.00  0.00     0.003 A 
ATOM      6  C4  OXE d   1      -5.749   5.484   5.702  0.00  0.00    -0.002 A 
ATOM      7  C5  OXE d   1      -5.628   4.123   6.000  0.00  0.00    -0.002 A 
ATOM      8  C6  OXE d   1      -5.362   3.222   4.974  0.00  0.00     0.003 A 
ENDROOT
TORSDOF 0
ENDMDL
