MODEL 1
REMARK minimizedAffinity 9.95982265
REMARK minimizedRMSD -1
REMARK  0 active torsions:
REMARK  status: ('A' for Active; 'I' for Inactive)
ROOT
ATOM      1  C2' OXE d   1       2.186  -2.488   1.596  0.00  0.00     0.078 C 
ATOM      2  C1' OXE d   1       1.309  -2.207  -1.056  0.00  0.00     0.078 C 
ATOM      3  C1  OXE d   1       2.239  -1.153  -0.507  0.00  0.00    -0.078 A 
ATOM      4  C2  OXE d   1       2.626  -1.274   0.806  0.00  0.00    -0.078 A 
ATOM      5  C3  OXE d   1       3.526  -0.360   1.346  0.00  0.00     0.003 A 
ATOM      6  C4  OXE d   1       3.920   0.765   0.612  0.00  0.00    -0.002 A 
ATOM      7  C5  OXE d   1       3.506   0.928  -0.714  0.00  0.00    -0.002 A 
ATOM      8  C6  OXE d   1       2.701  -0.042  -1.301  0.00  0.00     0.003 A 
ENDROOT
TORSDOF 0
ENDMDL
