MODEL 1
REMARK minimizedAffinity 17.2787628
REMARK minimizedRMSD -1
REMARK  0 active torsions:
REMARK  status: ('A' for Active; 'I' for Inactive)
ROOT
ATOM      1  C2' OXE d   1       2.289  -2.066   1.031  0.00  0.00     0.078 C 
ATOM      2  C1' OXE d   1       2.179  -1.993  -1.773  0.00  0.00     0.078 C 
ATOM      3  C1  OXE d   1       2.583  -0.731  -1.051  0.00  0.00    -0.078 A 
ATOM      4  C2  OXE d   1       2.589  -0.763   0.322  0.00  0.00    -0.078 A 
ATOM      5  C3  OXE d   1       3.008   0.357   1.036  0.00  0.00     0.003 A 
ATOM      6  C4  OXE d   1       3.274   1.561   0.373  0.00  0.00    -0.002 A 
ATOM      7  C5  OXE d   1       3.235   1.626  -1.024  0.00  0.00    -0.002 A 
ATOM      8  C6  OXE d   1       2.934   0.480  -1.751  0.00  0.00     0.003 A 
ENDROOT
TORSDOF 0
ENDMDL
