MODEL 1
REMARK minimizedAffinity 7.31906986
REMARK minimizedRMSD -1
REMARK  0 active torsions:
REMARK  status: ('A' for Active; 'I' for Inactive)
ROOT
ATOM      1  C2' OXE d   1       2.187   0.607  -0.299  0.00  0.00     0.078 C 
ATOM      2  C1' OXE d   1       4.415   2.192   0.334  0.00  0.00     0.078 C 
ATOM      3  C1  OXE d   1       4.405   0.766   0.824  0.00  0.00    -0.078 A 
ATOM      4  C2  OXE d   1       3.289   0.012   0.550  0.00  0.00    -0.078 A 
ATOM      5  C3  OXE d   1       3.251  -1.327   0.931  0.00  0.00     0.003 A 
ATOM      6  C4  OXE d   1       4.271  -1.867   1.725  0.00  0.00    -0.002 A 
ATOM      7  C5  OXE d   1       5.397  -1.104   2.049  0.00  0.00    -0.002 A 
ATOM      8  C6  OXE d   1       5.499   0.198   1.572  0.00  0.00     0.003 A 
ENDROOT
TORSDOF 0
ENDMDL
