MODEL 1
REMARK minimizedAffinity 9.85159874
REMARK minimizedRMSD -1
REMARK  0 active torsions:
REMARK  status: ('A' for Active; 'I' for Inactive)
ROOT
ATOM      1  C2' OXE d   1       4.960   1.872  -2.103  0.00  0.00     0.078 C 
ATOM      2  C1' OXE d   1       5.781   0.724   0.324  0.00  0.00     0.078 C 
ATOM      3  C1  OXE d   1       4.312   0.677  -0.015  0.00  0.00    -0.078 A 
ATOM      4  C2  OXE d   1       3.913   1.282  -1.183  0.00  0.00    -0.078 A 
ATOM      5  C3  OXE d   1       2.577   1.220  -1.570  0.00  0.00     0.003 A 
ATOM      6  C4  OXE d   1       1.614   0.682  -0.708  0.00  0.00    -0.002 A 
ATOM      7  C5  OXE d   1       1.993   0.096   0.504  0.00  0.00    -0.002 A 
ATOM      8  C6  OXE d   1       3.340   0.048   0.845  0.00  0.00     0.003 A 
ENDROOT
TORSDOF 0
ENDMDL
