MODEL 1
REMARK minimizedAffinity 10.8712311
REMARK minimizedRMSD -1
REMARK  0 active torsions:
REMARK  status: ('A' for Active; 'I' for Inactive)
ROOT
ATOM      1  C2' OXE d   1      -5.998   5.215   4.651  0.00  0.00     0.078 C 
ATOM      2  C1' OXE d   1      -3.296   5.825   4.199  0.00  0.00     0.078 C 
ATOM      3  C1  OXE d   1      -3.988   4.921   3.209  0.00  0.00    -0.078 A 
ATOM      4  C2  OXE d   1      -5.298   4.590   3.464  0.00  0.00    -0.078 A 
ATOM      5  C3  OXE d   1      -6.000   3.805   2.554  0.00  0.00     0.003 A 
ATOM      6  C4  OXE d   1      -5.341   3.223   1.464  0.00  0.00    -0.002 A 
ATOM      7  C5  OXE d   1      -3.997   3.515   1.208  0.00  0.00    -0.002 A 
ATOM      8  C6  OXE d   1      -3.320   4.394   2.046  0.00  0.00     0.003 A 
ENDROOT
TORSDOF 0
ENDMDL
