MODEL 1
REMARK minimizedAffinity 7.04238462
REMARK minimizedRMSD -1
REMARK  0 active torsions:
REMARK  status: ('A' for Active; 'I' for Inactive)
ROOT
ATOM      1  C2' OXE d   1       3.158  -0.709   1.113  0.00  0.00     0.078 C 
ATOM      2  C1' OXE d   1       1.823  -0.750  -1.356  0.00  0.00     0.078 C 
ATOM      3  C1  OXE d   1       2.792   0.377  -1.099  0.00  0.00    -0.078 A 
ATOM      4  C2  OXE d   1       3.406   0.415   0.130  0.00  0.00    -0.078 A 
ATOM      5  C3  OXE d   1       4.350   1.402   0.399  0.00  0.00     0.003 A 
ATOM      6  C4  OXE d   1       4.565   2.443  -0.511  0.00  0.00    -0.002 A 
ATOM      7  C5  OXE d   1       3.920   2.446  -1.753  0.00  0.00    -0.002 A 
ATOM      8  C6  OXE d   1       3.065   1.399  -2.079  0.00  0.00     0.003 A 
ENDROOT
TORSDOF 0
ENDMDL
