MODEL 1
REMARK minimizedAffinity 6.43936825
REMARK minimizedRMSD -1
REMARK  0 active torsions:
REMARK  status: ('A' for Active; 'I' for Inactive)
ROOT
ATOM      1  C2' OXE d   1       2.281  -1.774  -1.036  0.00  0.00     0.078 C 
ATOM      2  C1' OXE d   1       3.570  -1.446   1.435  0.00  0.00     0.078 C 
ATOM      3  C1  OXE d   1       3.706  -0.340   0.419  0.00  0.00    -0.078 A 
ATOM      4  C2  OXE d   1       3.111  -0.530  -0.805  0.00  0.00    -0.078 A 
ATOM      5  C3  OXE d   1       3.160   0.482  -1.760  0.00  0.00     0.003 A 
ATOM      6  C4  OXE d   1       3.938   1.626  -1.542  0.00  0.00    -0.002 A 
ATOM      7  C5  OXE d   1       4.586   1.821  -0.317  0.00  0.00    -0.002 A 
ATOM      8  C6  OXE d   1       4.445   0.869   0.687  0.00  0.00     0.003 A 
ENDROOT
TORSDOF 0
ENDMDL
