MODEL 1
REMARK minimizedAffinity 13.1975336
REMARK minimizedRMSD -1
REMARK  0 active torsions:
REMARK  status: ('A' for Active; 'I' for Inactive)
ROOT
ATOM      1  C2' OXE d   1      -4.115   1.864   1.084  0.00  0.00     0.078 C 
ATOM      2  C1' OXE d   1      -6.000   0.426  -0.420  0.00  0.00     0.078 C 
ATOM      3  C1  OXE d   1      -4.569   0.426  -0.898  0.00  0.00    -0.078 A 
ATOM      4  C2  OXE d   1      -3.663   1.170  -0.182  0.00  0.00    -0.078 A 
ATOM      5  C3  OXE d   1      -2.320   1.160  -0.548  0.00  0.00     0.003 A 
ATOM      6  C4  OXE d   1      -1.911   0.524  -1.727  0.00  0.00    -0.002 A 
ATOM      7  C5  OXE d   1      -2.826  -0.207  -2.492  0.00  0.00    -0.002 A 
ATOM      8  C6  OXE d   1      -4.147  -0.302  -2.070  0.00  0.00     0.003 A 
ENDROOT
TORSDOF 0
ENDMDL
