MODEL 1
REMARK minimizedAffinity 0.002627359
REMARK minimizedRMSD -1
REMARK  0 active torsions:
REMARK  status: ('A' for Active; 'I' for Inactive)
ROOT
ATOM      1  C2' OXE d   1       3.514   1.898  -1.412  0.00  0.00     0.078 C 
ATOM      2  C1' OXE d   1       3.495   1.690   1.388  0.00  0.00     0.078 C 
ATOM      3  C1  OXE d   1       3.056   0.488   0.590  0.00  0.00    -0.078 A 
ATOM      4  C2  OXE d   1       3.024   0.614  -0.778  0.00  0.00    -0.078 A 
ATOM      5  C3  OXE d   1       2.679  -0.482  -1.564  0.00  0.00     0.003 A 
ATOM      6  C4  OXE d   1       2.217  -1.663  -0.969  0.00  0.00    -0.002 A 
ATOM      7  C5  OXE d   1       2.204  -1.799   0.423  0.00  0.00    -0.002 A 
ATOM      8  C6  OXE d   1       2.660  -0.750   1.214  0.00  0.00     0.003 A 
ENDROOT
TORSDOF 0
ENDMDL
