MODEL 1
REMARK minimizedAffinity 12.6737089
REMARK minimizedRMSD -1
REMARK  0 active torsions:
REMARK  status: ('A' for Active; 'I' for Inactive)
ROOT
ATOM      1  C2' OXE d   1      -6.000   0.715  -2.945  0.00  0.00     0.078 C 
ATOM      2  C1' OXE d   1      -4.522   0.754  -0.559  0.00  0.00     0.078 C 
ATOM      3  C1  OXE d   1      -4.898   2.078  -1.174  0.00  0.00    -0.078 A 
ATOM      4  C2  OXE d   1      -5.581   2.050  -2.367  0.00  0.00    -0.078 A 
ATOM      5  C3  OXE d   1      -6.000   3.242  -2.950  0.00  0.00     0.003 A 
ATOM      6  C4  OXE d   1      -5.599   4.472  -2.414  0.00  0.00    -0.002 A 
ATOM      7  C5  OXE d   1      -4.870   4.523  -1.221  0.00  0.00    -0.002 A 
ATOM      8  C6  OXE d   1      -4.548   3.339  -0.568  0.00  0.00     0.003 A 
ENDROOT
TORSDOF 0
ENDMDL
