MODEL 1
REMARK minimizedAffinity -5.56963873
REMARK minimizedRMSD -1
REMARK  0 active torsions:
REMARK  status: ('A' for Active; 'I' for Inactive)
ROOT
ATOM      1  C   UNL d   1       2.029  -0.775  -2.833  0.00  0.00    -0.002 A 
ATOM      2  C1  UNL d   1       1.594  -2.011  -2.376  0.00  0.00     0.010 A 
ATOM      3  C2  UNL d   1       0.851  -2.111  -1.198  0.00  0.00     0.041 A 
ATOM      4  C3  UNL d   1       0.548  -0.936  -0.481  0.00  0.00    -0.075 A 
ATOM      5  S   UNL d   1      -0.350  -0.816   0.986  0.00  0.00     0.015 SA
ATOM      6  C4  UNL d   1      -0.177   0.878   1.040  0.00  0.00     0.022 A 
ATOM      7  C5  UNL d   1       0.545   1.358  -0.027  0.00  0.00     0.026 A 
ATOM      8  C6  UNL d   1       0.974   0.320  -0.922  0.00  0.00    -0.082 A 
ATOM      9  C7  UNL d   1       1.726   0.388  -2.119  0.00  0.00     0.045 A 
ENDROOT
TORSDOF 0
ENDMDL
