MODEL 1
REMARK minimizedAffinity -3.98381829
REMARK minimizedRMSD -1
REMARK  0 active torsions:
REMARK  status: ('A' for Active; 'I' for Inactive)
ROOT
ATOM      1  C   UNL d   1       2.173  -1.088  -3.055  0.00  0.00    -0.002 A 
ATOM      2  C1  UNL d   1       1.730  -2.164  -2.298  0.00  0.00     0.010 A 
ATOM      3  C2  UNL d   1       1.041  -1.955  -1.102  0.00  0.00     0.041 A 
ATOM      4  C3  UNL d   1       0.800  -0.634  -0.676  0.00  0.00    -0.075 A 
ATOM      5  S   UNL d   1      -0.024  -0.136   0.754  0.00  0.00     0.015 SA
ATOM      6  C4  UNL d   1       0.192   1.516   0.394  0.00  0.00     0.022 A 
ATOM      7  C5  UNL d   1       0.874   1.701  -0.785  0.00  0.00     0.026 A 
ATOM      8  C6  UNL d   1       1.236   0.466  -1.421  0.00  0.00    -0.082 A 
ATOM      9  C7  UNL d   1       1.933   0.221  -2.629  0.00  0.00     0.045 A 
ENDROOT
TORSDOF 0
ENDMDL
