MODEL 1
REMARK minimizedAffinity -1.6267792
REMARK minimizedRMSD -1
REMARK  0 active torsions:
REMARK  status: ('A' for Active; 'I' for Inactive)
ROOT
ATOM      1  C   UNL d   1       1.548   0.148  -2.805  0.00  0.00    -0.002 A 
ATOM      2  C1  UNL d   1       1.267  -1.209  -2.882  0.00  0.00     0.010 A 
ATOM      3  C2  UNL d   1       0.640  -1.866  -1.821  0.00  0.00     0.041 A 
ATOM      4  C3  UNL d   1       0.295  -1.129  -0.671  0.00  0.00    -0.075 A 
ATOM      5  S   UNL d   1      -0.481  -1.722   0.750  0.00  0.00     0.015 SA
ATOM      6  C4  UNL d   1      -0.459  -0.188   1.492  0.00  0.00     0.022 A 
ATOM      7  C5  UNL d   1       0.123   0.765   0.690  0.00  0.00     0.026 A 
ATOM      8  C6  UNL d   1       0.566   0.239  -0.571  0.00  0.00    -0.082 A 
ATOM      9  C7  UNL d   1       1.204   0.876  -1.662  0.00  0.00     0.045 A 
ENDROOT
TORSDOF 0
ENDMDL
