MODEL 1
REMARK minimizedAffinity -4.21776533
REMARK minimizedRMSD -1
REMARK  0 active torsions:
REMARK  status: ('A' for Active; 'I' for Inactive)
ROOT
ATOM      1  C   UNL d   1       2.224  -0.842  -2.707  0.00  0.00    -0.002 A 
ATOM      2  C1  UNL d   1       1.977  -2.146  -2.300  0.00  0.00     0.010 A 
ATOM      3  C2  UNL d   1       1.191  -2.402  -1.176  0.00  0.00     0.041 A 
ATOM      4  C3  UNL d   1       0.649  -1.316  -0.460  0.00  0.00    -0.075 A 
ATOM      5  S   UNL d   1      -0.344  -1.390   0.947  0.00  0.00     0.015 SA
ATOM      6  C4  UNL d   1      -0.465   0.307   1.042  0.00  0.00     0.022 A 
ATOM      7  C5  UNL d   1       0.229   0.931   0.032  0.00  0.00     0.026 A 
ATOM      8  C6  UNL d   1       0.883   0.005  -0.850  0.00  0.00    -0.082 A 
ATOM      9  C7  UNL d   1       1.685   0.233  -1.994  0.00  0.00     0.045 A 
ENDROOT
TORSDOF 0
ENDMDL
