MODEL 1
REMARK minimizedAffinity -5.17599058
REMARK minimizedRMSD -1
REMARK  0 active torsions:
REMARK  status: ('A' for Active; 'I' for Inactive)
ROOT
ATOM      1  C   UNL d   1       2.021  -0.798  -2.772  0.00  0.00    -0.002 A 
ATOM      2  C1  UNL d   1       1.682  -2.074  -2.345  0.00  0.00     0.010 A 
ATOM      3  C2  UNL d   1       0.842  -2.254  -1.244  0.00  0.00     0.041 A 
ATOM      4  C3  UNL d   1       0.343  -1.120  -0.574  0.00  0.00    -0.075 A 
ATOM      5  S   UNL d   1      -0.702  -1.098   0.797  0.00  0.00     0.015 SA
ATOM      6  C4  UNL d   1      -0.722   0.606   0.847  0.00  0.00     0.022 A 
ATOM      7  C5  UNL d   1       0.044   1.161  -0.150  0.00  0.00     0.026 A 
ATOM      8  C6  UNL d   1       0.670   0.175  -0.986  0.00  0.00    -0.082 A 
ATOM      9  C7  UNL d   1       1.524   0.325  -2.105  0.00  0.00     0.045 A 
ENDROOT
TORSDOF 0
ENDMDL
