MODEL 1
REMARK minimizedAffinity -0.205242097
REMARK minimizedRMSD -1
REMARK  0 active torsions:
REMARK  status: ('A' for Active; 'I' for Inactive)
ROOT
ATOM      1  C   UNL d   1       2.735   0.196  -2.071  0.00  0.00    -0.002 A 
ATOM      2  C1  UNL d   1       2.449  -1.160  -1.999  0.00  0.00     0.010 A 
ATOM      3  C2  UNL d   1       1.446  -1.630  -1.149  0.00  0.00     0.041 A 
ATOM      4  C3  UNL d   1       0.727  -0.705  -0.366  0.00  0.00    -0.075 A 
ATOM      5  S   UNL d   1      -0.545  -1.051   0.745  0.00  0.00     0.015 SA
ATOM      6  C4  UNL d   1      -0.740   0.593   1.150  0.00  0.00     0.022 A 
ATOM      7  C5  UNL d   1       0.136   1.400   0.463  0.00  0.00     0.026 A 
ATOM      8  C6  UNL d   1       0.996   0.665  -0.422  0.00  0.00    -0.082 A 
ATOM      9  C7  UNL d   1       2.019   1.111  -1.293  0.00  0.00     0.045 A 
ENDROOT
TORSDOF 0
ENDMDL
