MODEL 1
REMARK minimizedAffinity -1.01231432
REMARK minimizedRMSD -1
REMARK  0 active torsions:
REMARK  status: ('A' for Active; 'I' for Inactive)
ROOT
ATOM      1  C   UNL d   1       1.112   0.609   0.078  0.00  0.00    -0.002 A 
ATOM      2  C1  UNL d   1       0.357   1.169  -0.942  0.00  0.00     0.010 A 
ATOM      3  C2  UNL d   1      -0.992   1.470  -0.745  0.00  0.00     0.041 A 
ATOM      4  C3  UNL d   1      -1.575   1.198   0.508  0.00  0.00    -0.075 A 
ATOM      5  S   UNL d   1      -3.209   1.484   0.979  0.00  0.00     0.015 SA
ATOM      6  C4  UNL d   1      -2.943   0.869   2.546  0.00  0.00     0.022 A 
ATOM      7  C5  UNL d   1      -1.645   0.452   2.723  0.00  0.00     0.026 A 
ATOM      8  C6  UNL d   1      -0.835   0.635   1.552  0.00  0.00    -0.082 A 
ATOM      9  C7  UNL d   1       0.530   0.340   1.320  0.00  0.00     0.045 A 
ENDROOT
TORSDOF 0
ENDMDL
