MODEL 1
REMARK minimizedAffinity 2.42781806
REMARK minimizedRMSD -1
REMARK  0 active torsions:
REMARK  status: ('A' for Active; 'I' for Inactive)
ROOT
ATOM      1  C   UNL d   1       2.878   0.867  -1.703  0.00  0.00    -0.002 A 
ATOM      2  C1  UNL d   1       2.633  -0.169  -0.812  0.00  0.00     0.010 A 
ATOM      3  C2  UNL d   1       1.395  -0.282  -0.178  0.00  0.00     0.041 A 
ATOM      4  C3  UNL d   1       0.396   0.671  -0.457  0.00  0.00    -0.075 A 
ATOM      5  S   UNL d   1      -1.197   0.731   0.201  0.00  0.00     0.015 SA
ATOM      6  C4  UNL d   1      -1.590   2.133  -0.685  0.00  0.00     0.022 A 
ATOM      7  C5  UNL d   1      -0.544   2.558  -1.469  0.00  0.00     0.026 A 
ATOM      8  C6  UNL d   1       0.618   1.722  -1.351  0.00  0.00    -0.082 A 
ATOM      9  C7  UNL d   1       1.884   1.811  -1.978  0.00  0.00     0.045 A 
ENDROOT
TORSDOF 0
ENDMDL
