MODEL 1
REMARK minimizedAffinity -1.72304928
REMARK minimizedRMSD -1
REMARK  0 active torsions:
REMARK  status: ('A' for Active; 'I' for Inactive)
ROOT
ATOM      1  C   UNL d   1       2.220  -0.773  -2.743  0.00  0.00    -0.002 A 
ATOM      2  C1  UNL d   1       1.783  -2.043  -2.395  0.00  0.00     0.010 A 
ATOM      3  C2  UNL d   1       0.889  -2.222  -1.337  0.00  0.00     0.041 A 
ATOM      4  C3  UNL d   1       0.437  -1.091  -0.629  0.00  0.00    -0.075 A 
ATOM      5  S   UNL d   1      -0.659  -1.068   0.702  0.00  0.00     0.015 SA
ATOM      6  C4  UNL d   1      -0.574   0.628   0.839  0.00  0.00     0.022 A 
ATOM      7  C5  UNL d   1       0.266   1.180  -0.099  0.00  0.00     0.026 A 
ATOM      8  C6  UNL d   1       0.862   0.198  -0.961  0.00  0.00    -0.082 A 
ATOM      9  C7  UNL d   1       1.769   0.346  -2.038  0.00  0.00     0.045 A 
ENDROOT
TORSDOF 0
ENDMDL
