MODEL 1
REMARK minimizedAffinity -4.74141502
REMARK minimizedRMSD -1
REMARK  0 active torsions:
REMARK  status: ('A' for Active; 'I' for Inactive)
ROOT
ATOM      1  C   UNL d   1       1.895  -0.323  -2.804  0.00  0.00    -0.002 A 
ATOM      2  C1  UNL d   1       1.145  -1.491  -2.805  0.00  0.00     0.010 A 
ATOM      3  C2  UNL d   1       0.311  -1.800  -1.728  0.00  0.00     0.041 A 
ATOM      4  C3  UNL d   1       0.241  -0.906  -0.642  0.00  0.00    -0.075 A 
ATOM      5  S   UNL d   1      -0.712  -1.077   0.785  0.00  0.00     0.015 SA
ATOM      6  C4  UNL d   1      -0.148   0.397   1.428  0.00  0.00     0.022 A 
ATOM      7  C5  UNL d   1       0.747   1.017   0.588  0.00  0.00     0.026 A 
ATOM      8  C6  UNL d   1       0.985   0.277  -0.619  0.00  0.00    -0.082 A 
ATOM      9  C7  UNL d   1       1.822   0.561  -1.724  0.00  0.00     0.045 A 
ENDROOT
TORSDOF 0
ENDMDL
