MODEL 1
REMARK minimizedAffinity 0.15094766
REMARK minimizedRMSD -1
REMARK  1 active torsions:
REMARK  status: ('A' for Active; 'I' for Inactive)
REMARK    1  A    between atoms: N_2  and  C1_3 
ROOT
ATOM      1  C1  UNL d   1       4.648   2.571   5.636  0.00  0.00     0.143 A 
ATOM      2  C2  UNL d   1       3.793   1.522   5.991  0.00  0.00    -0.057 A 
ATOM      3  C3  UNL d   1       4.046   0.208   5.579  0.00  0.00     0.033 A 
ATOM      4  C4  UNL d   1       5.147  -0.076   4.777  0.00  0.00    -0.042 A 
ATOM      5  C5  UNL d   1       5.996   0.955   4.392  0.00  0.00     0.033 A 
ATOM      6  C6  UNL d   1       5.742   2.264   4.812  0.00  0.00    -0.057 A 
ENDROOT
BRANCH   1   7
ATOM      7  N   UNL d   1       4.397   3.913   5.933  0.00  0.00    -0.732 N 
ATOM      8  C   UNL d   1       5.474   4.879   5.942  0.00  0.00     0.284 C 
ATOM      9  H3  UNL d   1       3.538   4.251   5.504  0.00  0.00     0.395 HD
ENDBRANCH   1   7
TORSDOF 1
ENDMDL
