MODEL 1
REMARK minimizedAffinity 0.548606932
REMARK minimizedRMSD -1
REMARK  1 active torsions:
REMARK  status: ('A' for Active; 'I' for Inactive)
REMARK    1  A    between atoms: N_2  and  C1_3 
ROOT
ATOM      1  C1  UNL d   1      -1.075  -2.654   2.084  0.00  0.00     0.143 A 
ATOM      2  C2  UNL d   1      -0.821  -3.941   1.596  0.00  0.00    -0.057 A 
ATOM      3  C3  UNL d   1      -0.913  -4.230   0.230  0.00  0.00     0.033 A 
ATOM      4  C4  UNL d   1      -1.288  -3.241  -0.673  0.00  0.00    -0.042 A 
ATOM      5  C5  UNL d   1      -1.569  -1.962  -0.208  0.00  0.00     0.033 A 
ATOM      6  C6  UNL d   1      -1.470  -1.677   1.157  0.00  0.00    -0.057 A 
ENDROOT
BRANCH   1   7
ATOM      7  N   UNL d   1      -1.097  -2.327   3.442  0.00  0.00    -0.732 N 
ATOM      8  C   UNL d   1      -2.353  -2.213   4.152  0.00  0.00     0.284 C 
ATOM      9  H3  UNL d   1      -0.364  -2.799   3.967  0.00  0.00     0.395 HD
ENDBRANCH   1   7
TORSDOF 1
ENDMDL
