MODEL 1
REMARK minimizedAffinity 13.0245161
REMARK minimizedRMSD -1
REMARK  1 active torsions:
REMARK  status: ('A' for Active; 'I' for Inactive)
REMARK    1  A    between atoms: N_2  and  C1_3 
ROOT
ATOM      1  C1  UNL d   1      -3.333  -2.232   1.046  0.00  0.00     0.143 A 
ATOM      2  C2  UNL d   1      -3.003  -3.574   1.264  0.00  0.00    -0.057 A 
ATOM      3  C3  UNL d   1      -1.673  -4.009   1.233  0.00  0.00     0.033 A 
ATOM      4  C4  UNL d   1      -0.647  -3.111   0.955  0.00  0.00    -0.042 A 
ATOM      5  C5  UNL d   1      -0.954  -1.777   0.710  0.00  0.00     0.033 A 
ATOM      6  C6  UNL d   1      -2.284  -1.348   0.748  0.00  0.00    -0.057 A 
ENDROOT
BRANCH   1   7
ATOM      7  N   UNL d   1      -4.644  -1.756   0.965  0.00  0.00    -0.732 N 
ATOM      8  C   UNL d   1      -5.744  -2.533   1.496  0.00  0.00     0.284 C 
ATOM      9  H3  UNL d   1      -4.708  -0.759   1.158  0.00  0.00     0.395 HD
ENDBRANCH   1   7
TORSDOF 1
ENDMDL
