MODEL 1
REMARK minimizedAffinity 8.73743629
REMARK minimizedRMSD -1
REMARK  1 active torsions:
REMARK  status: ('A' for Active; 'I' for Inactive)
REMARK    1  A    between atoms: N_2  and  C1_3 
ROOT
ATOM      1  C1  UNL d   1      -4.372   5.434  -0.737  0.00  0.00     0.143 A 
ATOM      2  C2  UNL d   1      -5.430   6.000  -0.017  0.00  0.00    -0.057 A 
ATOM      3  C3  UNL d   1      -6.000   5.336   1.076  0.00  0.00     0.033 A 
ATOM      4  C4  UNL d   1      -5.540   4.078   1.451  0.00  0.00    -0.042 A 
ATOM      5  C5  UNL d   1      -4.507   3.486   0.734  0.00  0.00     0.033 A 
ATOM      6  C6  UNL d   1      -3.937   4.157  -0.352  0.00  0.00    -0.057 A 
ENDROOT
BRANCH   1   7
ATOM      7  N   UNL d   1      -3.829   6.000  -1.893  0.00  0.00    -0.732 N 
ATOM      8  C   UNL d   1      -4.574   6.000  -3.134  0.00  0.00     0.284 C 
ATOM      9  H3  UNL d   1      -3.334   6.869  -1.705  0.00  0.00     0.395 HD
ENDBRANCH   1   7
TORSDOF 1
ENDMDL
