MODEL 1
REMARK minimizedAffinity 17.0416679
REMARK minimizedRMSD -1
REMARK  1 active torsions:
REMARK  status: ('A' for Active; 'I' for Inactive)
REMARK    1  A    between atoms: N_2  and  C1_3 
ROOT
ATOM      1  C1  UNL d   1      -1.573  -3.619   4.150  0.00  0.00     0.143 A 
ATOM      2  C2  UNL d   1      -2.530  -4.580   3.806  0.00  0.00    -0.057 A 
ATOM      3  C3  UNL d   1      -2.687  -5.750   4.559  0.00  0.00     0.033 A 
ATOM      4  C4  UNL d   1      -1.866  -5.995   5.655  0.00  0.00    -0.042 A 
ATOM      5  C5  UNL d   1      -0.891  -5.065   6.000  0.00  0.00     0.033 A 
ATOM      6  C6  UNL d   1      -0.744  -3.895   5.248  0.00  0.00    -0.057 A 
ENDROOT
BRANCH   1   7
ATOM      7  N   UNL d   1      -1.303  -2.482   3.384  0.00  0.00    -0.732 N 
ATOM      8  C   UNL d   1      -2.204  -1.350   3.403  0.00  0.00     0.284 C 
ATOM      9  H3  UNL d   1      -0.317  -2.230   3.399  0.00  0.00     0.395 HD
ENDBRANCH   1   7
TORSDOF 1
ENDMDL
