MODEL 1
REMARK minimizedAffinity 18.8218975
REMARK minimizedRMSD -1
REMARK  1 active torsions:
REMARK  status: ('A' for Active; 'I' for Inactive)
REMARK    1  A    between atoms: N_2  and  C1_3 
ROOT
ATOM      1  C1  UNL d   1      -1.260  -2.456   2.384  0.00  0.00     0.143 A 
ATOM      2  C2  UNL d   1      -0.493  -3.451   1.770  0.00  0.00    -0.057 A 
ATOM      3  C3  UNL d   1      -0.449  -3.578   0.377  0.00  0.00     0.033 A 
ATOM      4  C4  UNL d   1      -1.198  -2.727  -0.429  0.00  0.00    -0.042 A 
ATOM      5  C5  UNL d   1      -1.988  -1.746   0.160  0.00  0.00     0.033 A 
ATOM      6  C6  UNL d   1      -2.022  -1.620   1.553  0.00  0.00    -0.057 A 
ENDROOT
BRANCH   1   7
ATOM      7  N   UNL d   1      -1.423  -2.341   3.767  0.00  0.00    -0.732 N 
ATOM      8  C   UNL d   1      -2.441  -1.474   4.321  0.00  0.00     0.284 C 
ATOM      9  H3  UNL d   1      -1.334  -3.235   4.244  0.00  0.00     0.395 HD
ENDBRANCH   1   7
TORSDOF 1
ENDMDL
