MODEL 1
REMARK minimizedAffinity 12.8146
REMARK minimizedRMSD -1
REMARK  1 active torsions:
REMARK  status: ('A' for Active; 'I' for Inactive)
REMARK    1  A    between atoms: N_2  and  C1_3 
ROOT
ATOM      1  C1  UNL d   1      -2.827  -1.799  -0.907  0.00  0.00     0.143 A 
ATOM      2  C2  UNL d   1      -1.891  -2.767  -1.288  0.00  0.00    -0.057 A 
ATOM      3  C3  UNL d   1      -1.439  -2.858  -2.610  0.00  0.00     0.033 A 
ATOM      4  C4  UNL d   1      -1.939  -1.998  -3.583  0.00  0.00    -0.042 A 
ATOM      5  C5  UNL d   1      -2.888  -1.045  -3.232  0.00  0.00     0.033 A 
ATOM      6  C6  UNL d   1      -3.330  -0.954  -1.909  0.00  0.00    -0.057 A 
ENDROOT
BRANCH   1   7
ATOM      7  N   UNL d   1      -3.388  -1.721   0.370  0.00  0.00    -0.732 N 
ATOM      8  C   UNL d   1      -4.824  -1.754   0.547  0.00  0.00     0.284 C 
ATOM      9  H3  UNL d   1      -2.872  -2.268   1.056  0.00  0.00     0.395 HD
ENDBRANCH   1   7
TORSDOF 1
ENDMDL
