MODEL 1
REMARK minimizedAffinity 5.22273064
REMARK minimizedRMSD -1
REMARK  1 active torsions:
REMARK  status: ('A' for Active; 'I' for Inactive)
REMARK    1  A    between atoms: N_2  and  C1_3 
ROOT
ATOM      1  C1  UNL d   1      -4.518   3.727   0.736  0.00  0.00     0.143 A 
ATOM      2  C2  UNL d   1      -5.595   4.519   1.148  0.00  0.00    -0.057 A 
ATOM      3  C3  UNL d   1      -6.000   5.637   0.408  0.00  0.00     0.033 A 
ATOM      4  C4  UNL d   1      -5.314   5.999  -0.746  0.00  0.00    -0.042 A 
ATOM      5  C5  UNL d   1      -4.225   5.241  -1.162  0.00  0.00     0.033 A 
ATOM      6  C6  UNL d   1      -3.830   4.122  -0.422  0.00  0.00    -0.057 A 
ENDROOT
BRANCH   1   7
ATOM      7  N   UNL d   1      -4.006   2.662   1.481  0.00  0.00    -0.732 N 
ATOM      8  C   UNL d   1      -2.581   2.415   1.531  0.00  0.00     0.284 C 
ATOM      9  H3  UNL d   1      -4.479   2.550   2.375  0.00  0.00     0.395 HD
ENDBRANCH   1   7
TORSDOF 1
ENDMDL
