MODEL 1
REMARK minimizedAffinity 6.91172743
REMARK minimizedRMSD -1
REMARK  1 active torsions:
REMARK  status: ('A' for Active; 'I' for Inactive)
REMARK    1  A    between atoms: N_2  and  C1_3 
ROOT
ATOM      1  C1  UNL d   1      -0.874  -0.901  -1.738  0.00  0.00     0.143 A 
ATOM      2  C2  UNL d   1      -1.030  -1.520  -0.493  0.00  0.00    -0.057 A 
ATOM      3  C3  UNL d   1      -2.279  -1.578   0.137  0.00  0.00     0.033 A 
ATOM      4  C4  UNL d   1      -3.392  -0.990  -0.455  0.00  0.00    -0.042 A 
ATOM      5  C5  UNL d   1      -3.255  -0.348  -1.680  0.00  0.00     0.033 A 
ATOM      6  C6  UNL d   1      -2.007  -0.299  -2.308  0.00  0.00    -0.057 A 
ENDROOT
BRANCH   1   7
ATOM      7  N   UNL d   1       0.360  -0.724  -2.369  0.00  0.00    -0.732 N 
ATOM      8  C   UNL d   1       1.396   0.076  -1.752  0.00  0.00     0.284 C 
ATOM      9  H3  UNL d   1       0.699  -1.578  -2.806  0.00  0.00     0.395 HD
ENDBRANCH   1   7
TORSDOF 1
ENDMDL
