MODEL 1
REMARK minimizedAffinity 16.7209816
REMARK minimizedRMSD -1
REMARK  1 active torsions:
REMARK  status: ('A' for Active; 'I' for Inactive)
REMARK    1  A    between atoms: N_2  and  C1_3 
ROOT
ATOM      1  C1  UNL d   1       3.642   0.163  -2.252  0.00  0.00     0.143 A 
ATOM      2  C2  UNL d   1       3.746  -1.137  -2.761  0.00  0.00    -0.057 A 
ATOM      3  C3  UNL d   1       4.918  -1.580  -3.385  0.00  0.00     0.033 A 
ATOM      4  C4  UNL d   1       6.000  -0.720  -3.538  0.00  0.00    -0.042 A 
ATOM      5  C5  UNL d   1       5.910   0.584  -3.063  0.00  0.00     0.033 A 
ATOM      6  C6  UNL d   1       4.739   1.019  -2.434  0.00  0.00    -0.057 A 
ENDROOT
BRANCH   1   7
ATOM      7  N   UNL d   1       2.469   0.694  -1.709  0.00  0.00    -0.732 N 
ATOM      8  C   UNL d   1       2.511   1.882  -0.885  0.00  0.00     0.284 C 
ATOM      9  H3  UNL d   1       1.692   0.670  -2.365  0.00  0.00     0.395 HD
ENDBRANCH   1   7
TORSDOF 1
ENDMDL
