MODEL 1
REMARK minimizedAffinity 10.8988647
REMARK minimizedRMSD -1
REMARK  1 active torsions:
REMARK  status: ('A' for Active; 'I' for Inactive)
REMARK    1  A    between atoms: N_2  and  C1_3 
ROOT
ATOM      1  C1  UNL d   1      -1.917  -1.888  -1.169  0.00  0.00     0.143 A 
ATOM      2  C2  UNL d   1      -1.195  -2.892  -0.514  0.00  0.00    -0.057 A 
ATOM      3  C3  UNL d   1      -1.332  -3.103   0.864  0.00  0.00     0.033 A 
ATOM      4  C4  UNL d   1      -2.174  -2.292   1.618  0.00  0.00    -0.042 A 
ATOM      5  C5  UNL d   1      -2.882  -1.272   0.992  0.00  0.00     0.033 A 
ATOM      6  C6  UNL d   1      -2.746  -1.070  -0.385  0.00  0.00    -0.057 A 
ENDROOT
BRANCH   1   7
ATOM      7  N   UNL d   1      -1.750  -1.565  -2.518  0.00  0.00    -0.732 N 
ATOM      8  C   UNL d   1      -1.834  -2.589  -3.537  0.00  0.00     0.284 C 
ATOM      9  H3  UNL d   1      -2.209  -0.691  -2.767  0.00  0.00     0.395 HD
ENDBRANCH   1   7
TORSDOF 1
ENDMDL
