MODEL 1
REMARK minimizedAffinity 11.1696825
REMARK minimizedRMSD -1
REMARK  1 active torsions:
REMARK  status: ('A' for Active; 'I' for Inactive)
REMARK    1  A    between atoms: N_2  and  C1_3 
ROOT
ATOM      1  C1  UNL d   1      -3.904   3.726  -4.625  0.00  0.00     0.143 A 
ATOM      2  C2  UNL d   1      -5.043   3.774  -5.437  0.00  0.00    -0.057 A 
ATOM      3  C3  UNL d   1      -5.870   4.904  -5.463  0.00  0.00     0.033 A 
ATOM      4  C4  UNL d   1      -5.586   5.999  -4.653  0.00  0.00    -0.042 A 
ATOM      5  C5  UNL d   1      -4.473   5.964  -3.821  0.00  0.00     0.033 A 
ATOM      6  C6  UNL d   1      -3.648   4.835  -3.804  0.00  0.00    -0.057 A 
ENDROOT
BRANCH   1   7
ATOM      7  N   UNL d   1      -3.099   2.594  -4.481  0.00  0.00    -0.732 N 
ATOM      8  C   UNL d   1      -1.659   2.719  -4.406  0.00  0.00     0.284 C 
ATOM      9  H3  UNL d   1      -3.492   1.918  -3.831  0.00  0.00     0.395 HD
ENDBRANCH   1   7
TORSDOF 1
ENDMDL
