MODEL 1
REMARK minimizedAffinity 7.99462652
REMARK minimizedRMSD -1
REMARK  1 active torsions:
REMARK  status: ('A' for Active; 'I' for Inactive)
REMARK    1  A    between atoms: N_2  and  C1_3 
ROOT
ATOM      1  C1  UNL d   1      -1.526  -2.461   3.133  0.00  0.00     0.143 A 
ATOM      2  C2  UNL d   1      -0.485  -3.030   2.391  0.00  0.00    -0.057 A 
ATOM      3  C3  UNL d   1      -0.550  -3.112   0.994  0.00  0.00     0.033 A 
ATOM      4  C4  UNL d   1      -1.673  -2.651   0.316  0.00  0.00    -0.042 A 
ATOM      5  C5  UNL d   1      -2.730  -2.104   1.035  0.00  0.00     0.033 A 
ATOM      6  C6  UNL d   1      -2.657  -2.019   2.428  0.00  0.00    -0.057 A 
ENDROOT
BRANCH   1   7
ATOM      7  N   UNL d   1      -1.564  -2.440   4.529  0.00  0.00    -0.732 N 
ATOM      8  C   UNL d   1      -2.291  -1.404   5.231  0.00  0.00     0.284 C 
ATOM      9  H3  UNL d   1      -1.675  -3.369   4.929  0.00  0.00     0.395 HD
ENDBRANCH   1   7
TORSDOF 1
ENDMDL
