MODEL 1
REMARK minimizedAffinity 6.32189941
REMARK minimizedRMSD -1
REMARK  1 active torsions:
REMARK  status: ('A' for Active; 'I' for Inactive)
REMARK    1  A    between atoms: N_2  and  C1_3 
ROOT
ATOM      1  C1  UNL d   1      -1.917  -2.422   4.278  0.00  0.00     0.143 A 
ATOM      2  C2  UNL d   1      -1.321  -1.163   4.410  0.00  0.00    -0.057 A 
ATOM      3  C3  UNL d   1      -1.851  -0.196   5.272  0.00  0.00     0.033 A 
ATOM      4  C4  UNL d   1      -3.008  -0.460   5.997  0.00  0.00    -0.042 A 
ATOM      5  C5  UNL d   1      -3.632  -1.696   5.863  0.00  0.00     0.033 A 
ATOM      6  C6  UNL d   1      -3.094  -2.660   5.006  0.00  0.00    -0.057 A 
ENDROOT
BRANCH   1   7
ATOM      7  N   UNL d   1      -1.495  -3.391   3.364  0.00  0.00    -0.732 N 
ATOM      8  C   UNL d   1      -1.128  -3.020   2.014  0.00  0.00     0.284 C 
ATOM      9  H3  UNL d   1      -0.881  -4.082   3.787  0.00  0.00     0.395 HD
ENDBRANCH   1   7
TORSDOF 1
ENDMDL
