MODEL 1
REMARK minimizedAffinity -2.6323874
REMARK minimizedRMSD -1
REMARK  0 active torsions:
REMARK  status: ('A' for Active; 'I' for Inactive)
ROOT
ATOM      1  C   UNL d   1      -2.384  -0.394   2.968  0.00  0.00     0.172 C 
ATOM      2  N   UNL d   1      -1.428  -0.374   1.886  0.00  0.00    -0.070 N 
ATOM      3  C1  UNL d   1      -1.578   0.295   0.701  0.00  0.00    -0.004 A 
ATOM      4  C2  UNL d   1      -0.451   0.064  -0.059  0.00  0.00    -0.047 A 
ATOM      5  C3  UNL d   1       0.405  -0.773   0.696  0.00  0.00    -0.047 A 
ATOM      6  C4  UNL d   1      -0.224  -1.028   1.896  0.00  0.00    -0.004 A 
ENDROOT
TORSDOF 0
ENDMDL
