MODEL 1
REMARK minimizedAffinity -1.81867826
REMARK minimizedRMSD -1
REMARK  0 active torsions:
REMARK  status: ('A' for Active; 'I' for Inactive)
ROOT
ATOM      1  C   UNL d   1      -0.900   0.331   1.072  0.00  0.00     0.172 C 
ATOM      2  N   UNL d   1       0.107   0.388   0.039  0.00  0.00    -0.070 N 
ATOM      3  C1  UNL d   1       0.358   1.463  -0.772  0.00  0.00    -0.004 A 
ATOM      4  C2  UNL d   1       1.389   1.119  -1.620  0.00  0.00    -0.047 A 
ATOM      5  C3  UNL d   1       1.770  -0.207  -1.308  0.00  0.00    -0.047 A 
ATOM      6  C4  UNL d   1       0.960  -0.636  -0.278  0.00  0.00    -0.004 A 
ENDROOT
TORSDOF 0
ENDMDL
