MODEL 1
REMARK minimizedAffinity -2.14376521
REMARK minimizedRMSD -1
REMARK  0 active torsions:
REMARK  status: ('A' for Active; 'I' for Inactive)
ROOT
ATOM      1  C   UNL d   1      -1.241   0.368   1.814  0.00  0.00     0.172 C 
ATOM      2  N   UNL d   1      -0.346   0.680   0.724  0.00  0.00    -0.070 N 
ATOM      3  C1  UNL d   1       0.680   1.585   0.768  0.00  0.00    -0.004 A 
ATOM      4  C2  UNL d   1       1.292   1.590  -0.467  0.00  0.00    -0.047 A 
ATOM      5  C3  UNL d   1       0.608   0.656  -1.282  0.00  0.00    -0.047 A 
ATOM      6  C4  UNL d   1      -0.401   0.107  -0.519  0.00  0.00    -0.004 A 
ENDROOT
TORSDOF 0
ENDMDL
