MODEL 1
REMARK minimizedAffinity -2.38985515
REMARK minimizedRMSD -1
REMARK  0 active torsions:
REMARK  status: ('A' for Active; 'I' for Inactive)
ROOT
ATOM      1  C   UNL d   1      -2.206   0.366   1.794  0.00  0.00     0.172 C 
ATOM      2  N   UNL d   1      -1.111   0.573   0.876  0.00  0.00    -0.070 N 
ATOM      3  C1  UNL d   1      -1.118   1.425  -0.196  0.00  0.00    -0.004 A 
ATOM      4  C2  UNL d   1       0.110   1.334  -0.816  0.00  0.00    -0.047 A 
ATOM      5  C3  UNL d   1       0.881   0.395  -0.092  0.00  0.00    -0.047 A 
ATOM      6  C4  UNL d   1       0.101  -0.061   0.950  0.00  0.00    -0.004 A 
ENDROOT
TORSDOF 0
ENDMDL
