MODEL 1
REMARK minimizedAffinity -3.69595385
REMARK minimizedRMSD -1
REMARK  0 active torsions:
REMARK  status: ('A' for Active; 'I' for Inactive)
ROOT
ATOM      1  C   UNL d   1       0.979  -2.614  -1.497  0.00  0.00     0.172 C 
ATOM      2  N   UNL d   1       1.121  -1.177  -1.461  0.00  0.00    -0.070 N 
ATOM      3  C1  UNL d   1       0.386  -0.321  -0.684  0.00  0.00    -0.004 A 
ATOM      4  C2  UNL d   1       0.824   0.960  -0.938  0.00  0.00    -0.047 A 
ATOM      5  C3  UNL d   1       1.857   0.872  -1.901  0.00  0.00    -0.047 A 
ATOM      6  C4  UNL d   1       2.020  -0.462  -2.207  0.00  0.00    -0.004 A 
ENDROOT
TORSDOF 0
ENDMDL
