MODEL 1
REMARK minimizedAffinity -2.18767667
REMARK minimizedRMSD -1
REMARK  0 active torsions:
REMARK  status: ('A' for Active; 'I' for Inactive)
ROOT
ATOM      1  C   UNL d   1      -0.765  -0.022   0.906  0.00  0.00     0.172 C 
ATOM      2  N   UNL d   1       0.325   0.294   0.013  0.00  0.00    -0.070 N 
ATOM      3  C1  UNL d   1       1.253  -0.596  -0.459  0.00  0.00    -0.004 A 
ATOM      4  C2  UNL d   1       2.120   0.094  -1.279  0.00  0.00    -0.047 A 
ATOM      5  C3  UNL d   1       1.698   1.445  -1.301  0.00  0.00    -0.047 A 
ATOM      6  C4  UNL d   1       0.585   1.540  -0.492  0.00  0.00    -0.004 A 
ENDROOT
TORSDOF 0
ENDMDL
