MODEL 1
REMARK minimizedAffinity -2.94768167
REMARK minimizedRMSD -1
REMARK  0 active torsions:
REMARK  status: ('A' for Active; 'I' for Inactive)
ROOT
ATOM      1  C   UNL d   1       2.452  -1.061  -1.980  0.00  0.00     0.172 C 
ATOM      2  N   UNL d   1       1.537  -0.111  -1.392  0.00  0.00    -0.070 N 
ATOM      3  C1  UNL d   1       1.464   1.221  -1.698  0.00  0.00    -0.004 A 
ATOM      4  C2  UNL d   1       0.469   1.778  -0.925  0.00  0.00    -0.047 A 
ATOM      5  C3  UNL d   1      -0.075   0.744  -0.125  0.00  0.00    -0.047 A 
ATOM      6  C4  UNL d   1       0.605  -0.415  -0.435  0.00  0.00    -0.004 A 
ENDROOT
TORSDOF 0
ENDMDL
