MODEL 1
REMARK minimizedAffinity -1.87867463
REMARK minimizedRMSD -1
REMARK  0 active torsions:
REMARK  status: ('A' for Active; 'I' for Inactive)
ROOT
ATOM      1  C   UNL d   1       0.035   0.317   0.005  0.00  0.00     0.172 C 
ATOM      2  N   UNL d   1       1.059  -0.303  -0.803  0.00  0.00    -0.070 N 
ATOM      3  C1  UNL d   1       1.923   0.353  -1.639  0.00  0.00    -0.004 A 
ATOM      4  C2  UNL d   1       2.740  -0.589  -2.225  0.00  0.00    -0.047 A 
ATOM      5  C3  UNL d   1       2.353  -1.855  -1.726  0.00  0.00    -0.047 A 
ATOM      6  C4  UNL d   1       1.310  -1.649  -0.848  0.00  0.00    -0.004 A 
ENDROOT
TORSDOF 0
ENDMDL
