MODEL 1
REMARK minimizedAffinity -2.50161123
REMARK minimizedRMSD -1
REMARK  0 active torsions:
REMARK  status: ('A' for Active; 'I' for Inactive)
ROOT
ATOM      1  C   UNL d   1      -0.833   0.640  -0.138  0.00  0.00     0.172 C 
ATOM      2  N   UNL d   1      -1.989   0.602   0.727  0.00  0.00    -0.070 N 
ATOM      3  C1  UNL d   1      -2.920   1.597   0.859  0.00  0.00    -0.004 A 
ATOM      4  C2  UNL d   1      -3.860   1.177   1.775  0.00  0.00    -0.047 A 
ATOM      5  C3  UNL d   1      -3.480  -0.115   2.210  0.00  0.00    -0.047 A 
ATOM      6  C4  UNL d   1      -2.318  -0.447   1.545  0.00  0.00    -0.004 A 
ENDROOT
TORSDOF 0
ENDMDL
