MODEL 1
REMARK minimizedAffinity -1.60406256
REMARK minimizedRMSD -1
REMARK  0 active torsions:
REMARK  status: ('A' for Active; 'I' for Inactive)
ROOT
ATOM      1  C   UNL d   1      -1.572   0.678  -0.673  0.00  0.00     0.172 C 
ATOM      2  N   UNL d   1      -2.289   0.771   0.577  0.00  0.00    -0.070 N 
ATOM      3  C1  UNL d   1      -3.633   1.000   0.712  0.00  0.00    -0.004 A 
ATOM      4  C2  UNL d   1      -3.925   1.017   2.059  0.00  0.00    -0.047 A 
ATOM      5  C3  UNL d   1      -2.715   0.792   2.758  0.00  0.00    -0.047 A 
ATOM      6  C4  UNL d   1      -1.718   0.644   1.816  0.00  0.00    -0.004 A 
ENDROOT
TORSDOF 0
ENDMDL
