MODEL 1
REMARK minimizedAffinity -1.98488474
REMARK minimizedRMSD -1
REMARK  0 active torsions:
REMARK  status: ('A' for Active; 'I' for Inactive)
ROOT
ATOM      1  C   UNL d   1      -2.891   0.591   1.633  0.00  0.00     0.172 C 
ATOM      2  N   UNL d   1      -1.628   0.451   0.948  0.00  0.00    -0.070 N 
ATOM      3  C1  UNL d   1      -0.753  -0.593   1.091  0.00  0.00    -0.004 A 
ATOM      4  C2  UNL d   1       0.328  -0.354   0.270  0.00  0.00    -0.047 A 
ATOM      5  C3  UNL d   1       0.094   0.876  -0.390  0.00  0.00    -0.047 A 
ATOM      6  C4  UNL d   1      -1.123   1.352   0.048  0.00  0.00    -0.004 A 
ENDROOT
TORSDOF 0
ENDMDL
