MODEL 1
REMARK minimizedAffinity -2.70049787
REMARK minimizedRMSD -1
REMARK  0 active torsions:
REMARK  status: ('A' for Active; 'I' for Inactive)
ROOT
ATOM      1  C   UNL d   1       1.510  -2.481  -1.067  0.00  0.00     0.172 C 
ATOM      2  N   UNL d   1       1.537  -1.038  -1.024  0.00  0.00    -0.070 N 
ATOM      3  C1  UNL d   1       0.721  -0.247  -0.260  0.00  0.00    -0.004 A 
ATOM      4  C2  UNL d   1       1.061   1.067  -0.501  0.00  0.00    -0.047 A 
ATOM      5  C3  UNL d   1       2.116   1.065  -1.443  0.00  0.00    -0.047 A 
ATOM      6  C4  UNL d   1       2.391  -0.251  -1.750  0.00  0.00    -0.004 A 
ENDROOT
TORSDOF 0
ENDMDL
