MODEL 1
REMARK minimizedAffinity -1.76798236
REMARK minimizedRMSD -1
REMARK  0 active torsions:
REMARK  status: ('A' for Active; 'I' for Inactive)
ROOT
ATOM      1  C   UNL d   1      -3.031   0.347   1.552  0.00  0.00     0.172 C 
ATOM      2  N   UNL d   1      -1.758   0.533   0.896  0.00  0.00    -0.070 N 
ATOM      3  C1  UNL d   1      -0.622  -0.191   1.141  0.00  0.00    -0.004 A 
ATOM      4  C2  UNL d   1       0.371   0.291   0.315  0.00  0.00    -0.047 A 
ATOM      5  C3  UNL d   1      -0.188   1.341  -0.452  0.00  0.00    -0.047 A 
ATOM      6  C4  UNL d   1      -1.507   1.470  -0.071  0.00  0.00    -0.004 A 
ENDROOT
TORSDOF 0
ENDMDL
