MODEL 1
REMARK minimizedAffinity -0.606939733
REMARK minimizedRMSD -1
REMARK  0 active torsions:
REMARK  status: ('A' for Active; 'I' for Inactive)
ROOT
ATOM      1  C   UNL d   1      -2.265   0.112   1.764  0.00  0.00     0.172 C 
ATOM      2  N   UNL d   1      -1.131   0.177   0.872  0.00  0.00    -0.070 N 
ATOM      3  C1  UNL d   1      -0.886   1.173  -0.035  0.00  0.00    -0.004 A 
ATOM      4  C2  UNL d   1       0.289   0.869  -0.688  0.00  0.00    -0.047 A 
ATOM      5  C3  UNL d   1       0.766  -0.352  -0.156  0.00  0.00    -0.047 A 
ATOM      6  C4  UNL d   1      -0.133  -0.758   0.808  0.00  0.00    -0.004 A 
ENDROOT
TORSDOF 0
ENDMDL
