MODEL 1
REMARK minimizedAffinity -2.03950834
REMARK minimizedRMSD -1
REMARK  0 active torsions:
REMARK  status: ('A' for Active; 'I' for Inactive)
ROOT
ATOM      1  C   UNL d   1      -1.726   0.143   0.893  0.00  0.00     0.172 C 
ATOM      2  N   UNL d   1      -0.532   0.404   0.124  0.00  0.00    -0.070 N 
ATOM      3  C1  UNL d   1      -0.325   1.489  -0.685  0.00  0.00    -0.004 A 
ATOM      4  C2  UNL d   1       0.931   1.371  -1.238  0.00  0.00    -0.047 A 
ATOM      5  C3  UNL d   1       1.500   0.172  -0.744  0.00  0.00    -0.047 A 
ATOM      6  C4  UNL d   1       0.572  -0.406   0.097  0.00  0.00    -0.004 A 
ENDROOT
TORSDOF 0
ENDMDL
