MODEL 1
REMARK minimizedAffinity -2.28210592
REMARK minimizedRMSD -1
REMARK  0 active torsions:
REMARK  status: ('A' for Active; 'I' for Inactive)
ROOT
ATOM      1  C   UNL d   1       1.840   0.742  -1.905  0.00  0.00     0.172 C 
ATOM      2  N   UNL d   1       0.775   0.431  -0.981  0.00  0.00    -0.070 N 
ATOM      3  C1  UNL d   1       0.910  -0.269   0.188  0.00  0.00    -0.004 A 
ATOM      4  C2  UNL d   1      -0.332  -0.349   0.778  0.00  0.00    -0.047 A 
ATOM      5  C3  UNL d   1      -1.247   0.325  -0.066  0.00  0.00    -0.047 A 
ATOM      6  C4  UNL d   1      -0.535   0.798  -1.148  0.00  0.00    -0.004 A 
ENDROOT
TORSDOF 0
ENDMDL
