MODEL 1
REMARK minimizedAffinity -3.06292176
REMARK minimizedRMSD -1
REMARK  0 active torsions:
REMARK  status: ('A' for Active; 'I' for Inactive)
ROOT
ATOM      1  C   UNL d   1      -0.303  -0.057   1.232  0.00  0.00     0.172 C 
ATOM      2  N   UNL d   1       0.539   0.241   0.097  0.00  0.00    -0.070 N 
ATOM      3  C1  UNL d   1       0.918   1.493  -0.309  0.00  0.00    -0.004 A 
ATOM      4  C2  UNL d   1       1.716   1.352  -1.423  0.00  0.00    -0.047 A 
ATOM      5  C3  UNL d   1       1.820  -0.033  -1.697  0.00  0.00    -0.047 A 
ATOM      6  C4  UNL d   1       1.082  -0.697  -0.741  0.00  0.00    -0.004 A 
ENDROOT
TORSDOF 0
ENDMDL
