MODEL 1
REMARK minimizedAffinity -1.50856495
REMARK minimizedRMSD -1
REMARK  0 active torsions:
REMARK  status: ('A' for Active; 'I' for Inactive)
ROOT
ATOM      1  C   UNL d   1      -0.070   0.376   0.132  0.00  0.00     0.172 C 
ATOM      2  N   UNL d   1      -1.209   0.454   1.017  0.00  0.00    -0.070 N 
ATOM      3  C1  UNL d   1      -2.185   1.414   0.980  0.00  0.00    -0.004 A 
ATOM      4  C2  UNL d   1      -3.088   1.136   1.984  0.00  0.00    -0.047 A 
ATOM      5  C3  UNL d   1      -2.638  -0.030   2.648  0.00  0.00    -0.047 A 
ATOM      6  C4  UNL d   1      -1.473  -0.431   2.029  0.00  0.00    -0.004 A 
ENDROOT
TORSDOF 0
ENDMDL
