MODEL 1
REMARK minimizedAffinity -2.80005908
REMARK minimizedRMSD -1
REMARK  0 active torsions:
REMARK  status: ('A' for Active; 'I' for Inactive)
ROOT
ATOM      1  C   UNL d   1      -2.466   0.281   1.103  0.00  0.00     0.172 C 
ATOM      2  N   UNL d   1      -1.231   0.695   0.481  0.00  0.00    -0.070 N 
ATOM      3  C1  UNL d   1      -1.103   1.680  -0.462  0.00  0.00    -0.004 A 
ATOM      4  C2  UNL d   1       0.230   1.771  -0.800  0.00  0.00    -0.047 A 
ATOM      5  C3  UNL d   1       0.928   0.807  -0.034  0.00  0.00    -0.047 A 
ATOM      6  C4  UNL d   1      -0.001   0.156   0.750  0.00  0.00    -0.004 A 
ENDROOT
TORSDOF 0
ENDMDL
