MODEL 1
REMARK minimizedAffinity 1.3647393
REMARK minimizedRMSD -1
REMARK  0 active torsions:
REMARK  status: ('A' for Active; 'I' for Inactive)
ROOT
ATOM      1  N1  IND d   1       4.868  -5.994   3.801  0.00  0.00    -0.196 N 
ATOM      2  C2  IND d   1       5.506  -5.876   5.004  0.00  0.00     0.054 A 
ATOM      3  C3  IND d   1       4.607  -5.713   6.000  0.00  0.00    -0.031 A 
ATOM      4  C4  IND d   1       2.035  -5.710   5.896  0.00  0.00     0.051 A 
ATOM      5  C5  IND d   1       0.992  -5.747   5.013  0.00  0.00    -0.031 A 
ATOM      6  C6  IND d   1       1.192  -5.875   3.654  0.00  0.00     0.015 A 
ATOM      7  C7  IND d   1       2.447  -5.981   3.126  0.00  0.00    -0.016 A 
ATOM      8  C8  IND d   1       3.509  -5.936   4.018  0.00  0.00    -0.047 A 
ATOM      9  C9  IND d   1       3.314  -5.764   5.395  0.00  0.00    -0.096 A 
ATOM     10  HN1 IND d   1       5.251  -6.089   3.037  0.00  0.00     0.298 HD
ENDROOT
TORSDOF 0
ENDMDL
