MODEL 1
REMARK minimizedAffinity 0.141398504
REMARK minimizedRMSD -1
REMARK  0 active torsions:
REMARK  status: ('A' for Active; 'I' for Inactive)
ROOT
ATOM      1  N1  IND d   1       4.676  -1.177  -2.030  0.00  0.00    -0.196 N 
ATOM      2  C2  IND d   1       5.149   0.025  -2.476  0.00  0.00     0.054 A 
ATOM      3  C3  IND d   1       4.346   1.030  -2.061  0.00  0.00    -0.031 A 
ATOM      4  C4  IND d   1       2.259   0.940  -0.557  0.00  0.00     0.051 A 
ATOM      5  C5  IND d   1       1.418   0.062   0.068  0.00  0.00    -0.031 A 
ATOM      6  C6  IND d   1       1.627  -1.302   0.027  0.00  0.00     0.015 A 
ATOM      7  C7  IND d   1       2.695  -1.839  -0.634  0.00  0.00    -0.016 A 
ATOM      8  C8  IND d   1       3.546  -0.951  -1.276  0.00  0.00    -0.047 A 
ATOM      9  C9  IND d   1       3.316   0.431  -1.273  0.00  0.00    -0.096 A 
ATOM     10  HN1 IND d   1       5.026  -1.945  -2.193  0.00  0.00     0.298 HD
ENDROOT
TORSDOF 0
ENDMDL
