MODEL 1
REMARK minimizedAffinity 0.992690265
REMARK minimizedRMSD -1
REMARK  0 active torsions:
REMARK  status: ('A' for Active; 'I' for Inactive)
ROOT
ATOM      1  N1  IND d   1       0.786  -1.298   0.802  0.00  0.00    -0.196 N 
ATOM      2  C2  IND d   1       0.346  -0.113   1.323  0.00  0.00     0.054 A 
ATOM      3  C3  IND d   1       1.074   0.915   0.833  0.00  0.00    -0.031 A 
ATOM      4  C4  IND d   1       2.967   0.894  -0.911  0.00  0.00     0.051 A 
ATOM      5  C5  IND d   1       3.744   0.044  -1.647  0.00  0.00    -0.031 A 
ATOM      6  C6  IND d   1       3.570  -1.324  -1.606  0.00  0.00     0.015 A 
ATOM      7  C7  IND d   1       2.600  -1.895  -0.831  0.00  0.00    -0.016 A 
ATOM      8  C8  IND d   1       1.813  -1.036  -0.077  0.00  0.00    -0.047 A 
ATOM      9  C9  IND d   1       2.014   0.351  -0.083  0.00  0.00    -0.096 A 
ATOM     10  HN1 IND d   1       0.474  -2.076   0.993  0.00  0.00     0.298 HD
ENDROOT
TORSDOF 0
ENDMDL
