MODEL 1
REMARK minimizedAffinity -0.205699399
REMARK minimizedRMSD -1
REMARK  0 active torsions:
REMARK  status: ('A' for Active; 'I' for Inactive)
ROOT
ATOM      1  N1  IND d   1       1.241  -1.881   0.908  0.00  0.00    -0.196 N 
ATOM      2  C2  IND d   1       0.439  -0.916   1.451  0.00  0.00     0.054 A 
ATOM      3  C3  IND d   1       0.687   0.281   0.873  0.00  0.00    -0.031 A 
ATOM      4  C4  IND d   1       2.293   0.868  -1.051  0.00  0.00     0.051 A 
ATOM      5  C5  IND d   1       3.263   0.326  -1.848  0.00  0.00    -0.031 A 
ATOM      6  C6  IND d   1       3.614  -1.006  -1.766  0.00  0.00     0.015 A 
ATOM      7  C7  IND d   1       2.997  -1.853  -0.890  0.00  0.00    -0.016 A 
ATOM      8  C8  IND d   1       2.017  -1.305  -0.075  0.00  0.00    -0.047 A 
ATOM      9  C9  IND d   1       1.686   0.055  -0.123  0.00  0.00    -0.096 A 
ATOM     10  HN1 IND d   1       1.259  -2.708   1.141  0.00  0.00     0.298 HD
ENDROOT
TORSDOF 0
ENDMDL
