MODEL 1
REMARK minimizedAffinity 2.5859952
REMARK minimizedRMSD -1
REMARK  0 active torsions:
REMARK  status: ('A' for Active; 'I' for Inactive)
ROOT
ATOM      1  N1  IND d   1       3.999  -0.230  -0.982  0.00  0.00    -0.196 N 
ATOM      2  C2  IND d   1       4.027  -1.532  -1.398  0.00  0.00     0.054 A 
ATOM      3  C3  IND d   1       2.902  -2.174  -1.010  0.00  0.00    -0.031 A 
ATOM      4  C4  IND d   1       0.839  -1.257   0.227  0.00  0.00     0.051 A 
ATOM      5  C5  IND d   1       0.365  -0.134   0.846  0.00  0.00    -0.031 A 
ATOM      6  C6  IND d   1       1.091   1.039   0.885  0.00  0.00     0.015 A 
ATOM      7  C7  IND d   1       2.320   1.136   0.295  0.00  0.00    -0.016 A 
ATOM      8  C8  IND d   1       2.807  -0.004  -0.328  0.00  0.00    -0.047 A 
ATOM      9  C9  IND d   1       2.093  -1.209  -0.335  0.00  0.00    -0.096 A 
ATOM     10  HN1 IND d   1       4.621   0.351  -1.108  0.00  0.00     0.298 HD
ENDROOT
TORSDOF 0
ENDMDL
