MODEL 1
REMARK minimizedAffinity 0.231191143
REMARK minimizedRMSD -1
REMARK  0 active torsions:
REMARK  status: ('A' for Active; 'I' for Inactive)
ROOT
ATOM      1  N1  IND d   1      -0.230   0.261   2.655  0.00  0.00    -0.196 N 
ATOM      2  C2  IND d   1      -1.108  -0.787   2.690  0.00  0.00     0.054 A 
ATOM      3  C3  IND d   1      -0.870  -1.635   1.664  0.00  0.00    -0.031 A 
ATOM      4  C4  IND d   1       0.975  -1.553  -0.130  0.00  0.00     0.051 A 
ATOM      5  C5  IND d   1       1.993  -0.768  -0.594  0.00  0.00    -0.031 A 
ATOM      6  C6  IND d   1       2.330   0.423   0.016  0.00  0.00     0.015 A 
ATOM      7  C7  IND d   1       1.667   0.869   1.124  0.00  0.00    -0.016 A 
ATOM      8  C8  IND d   1       0.628   0.078   1.593  0.00  0.00    -0.047 A 
ATOM      9  C9  IND d   1       0.253  -1.110   0.953  0.00  0.00    -0.096 A 
ATOM     10  HN1 IND d   1      -0.216   0.922   3.204  0.00  0.00     0.298 HD
ENDROOT
TORSDOF 0
ENDMDL
