MODEL 1
REMARK minimizedAffinity 0.4490906
REMARK minimizedRMSD -1
REMARK  0 active torsions:
REMARK  status: ('A' for Active; 'I' for Inactive)
ROOT
ATOM      1  N1  IND d   1       4.333  -0.878  -2.421  0.00  0.00    -0.196 N 
ATOM      2  C2  IND d   1       4.815   0.368  -2.711  0.00  0.00     0.054 A 
ATOM      3  C3  IND d   1       4.022   1.318  -2.165  0.00  0.00    -0.031 A 
ATOM      4  C4  IND d   1       1.942   1.052  -0.672  0.00  0.00     0.051 A 
ATOM      5  C5  IND d   1       1.096   0.108  -0.160  0.00  0.00    -0.031 A 
ATOM      6  C6  IND d   1       1.292  -1.241  -0.379  0.00  0.00     0.015 A 
ATOM      7  C7  IND d   1       2.352  -1.698  -1.110  0.00  0.00    -0.016 A 
ATOM      8  C8  IND d   1       3.208  -0.741  -1.637  0.00  0.00    -0.047 A 
ATOM      9  C9  IND d   1       2.991   0.630  -1.454  0.00  0.00    -0.096 A 
ATOM     10  HN1 IND d   1       4.674  -1.622  -2.684  0.00  0.00     0.298 HD
ENDROOT
TORSDOF 0
ENDMDL
