MODEL 1
REMARK minimizedAffinity 0.680644989
REMARK minimizedRMSD -1
REMARK  0 active torsions:
REMARK  status: ('A' for Active; 'I' for Inactive)
ROOT
ATOM      1  N1  IND d   1       1.139  -1.331   1.392  0.00  0.00    -0.196 N 
ATOM      2  C2  IND d   1       0.275  -0.277   1.501  0.00  0.00     0.054 A 
ATOM      3  C3  IND d   1       0.545   0.651   0.555  0.00  0.00    -0.031 A 
ATOM      4  C4  IND d   1       2.290   0.599  -1.337  0.00  0.00     0.051 A 
ATOM      5  C5  IND d   1       3.333  -0.140  -1.820  0.00  0.00    -0.031 A 
ATOM      6  C6  IND d   1       3.703  -1.339  -1.248  0.00  0.00     0.015 A 
ATOM      7  C7  IND d   1       3.034  -1.853  -0.173  0.00  0.00    -0.016 A 
ATOM      8  C8  IND d   1       1.979  -1.101   0.325  0.00  0.00    -0.047 A 
ATOM      9  C9  IND d   1       1.626   0.138  -0.225  0.00  0.00    -0.096 A 
ATOM     10  HN1 IND d   1       1.154  -2.022   1.904  0.00  0.00     0.298 HD
ENDROOT
TORSDOF 0
ENDMDL
