MODEL 1
REMARK minimizedAffinity 3.32608533
REMARK minimizedRMSD -1
REMARK  0 active torsions:
REMARK  status: ('A' for Active; 'I' for Inactive)
ROOT
ATOM      1  N1  IND d   1       3.482   1.609  -1.609  0.00  0.00    -0.196 N 
ATOM      2  C2  IND d   1       2.822   2.666  -1.048  0.00  0.00     0.054 A 
ATOM      3  C3  IND d   1       1.811   2.227  -0.264  0.00  0.00    -0.031 A 
ATOM      4  C4  IND d   1       1.125  -0.184   0.322  0.00  0.00     0.051 A 
ATOM      5  C5  IND d   1       1.407  -1.487   0.023  0.00  0.00    -0.031 A 
ATOM      6  C6  IND d   1       2.418  -1.832  -0.851  0.00  0.00     0.015 A 
ATOM      7  C7  IND d   1       3.195  -0.882  -1.452  0.00  0.00    -0.016 A 
ATOM      8  C8  IND d   1       2.907   0.442  -1.156  0.00  0.00    -0.047 A 
ATOM      9  C9  IND d   1       1.854   0.800  -0.303  0.00  0.00    -0.096 A 
ATOM     10  HN1 IND d   1       4.146   1.664  -2.153  0.00  0.00     0.298 HD
ENDROOT
TORSDOF 0
ENDMDL
