MODEL 1
REMARK minimizedAffinity 3.47624087
REMARK minimizedRMSD -1
REMARK  0 active torsions:
REMARK  status: ('A' for Active; 'I' for Inactive)
ROOT
ATOM      1  N1  IND d   1      -1.173   0.124   2.585  0.00  0.00    -0.196 N 
ATOM      2  C2  IND d   1      -2.004  -0.943   2.383  0.00  0.00     0.054 A 
ATOM      3  C3  IND d   1      -1.446  -1.815   1.513  0.00  0.00    -0.031 A 
ATOM      4  C4  IND d   1       0.863  -1.741   0.378  0.00  0.00     0.051 A 
ATOM      5  C5  IND d   1       1.963  -0.945   0.225  0.00  0.00    -0.031 A 
ATOM      6  C6  IND d   1       2.078   0.271   0.866  0.00  0.00     0.015 A 
ATOM      7  C7  IND d   1       1.097   0.734   1.697  0.00  0.00    -0.016 A 
ATOM      8  C8  IND d   1      -0.025  -0.069   1.849  0.00  0.00    -0.047 A 
ATOM      9  C9  IND d   1      -0.166  -1.284   1.167  0.00  0.00    -0.096 A 
ATOM     10  HN1 IND d   1      -1.340   0.802   3.087  0.00  0.00     0.298 HD
ENDROOT
TORSDOF 0
ENDMDL
