MODEL 1
REMARK minimizedAffinity 0.997271538
REMARK minimizedRMSD -1
REMARK  0 active torsions:
REMARK  status: ('A' for Active; 'I' for Inactive)
ROOT
ATOM      1  N1  IND d   1      -0.640   0.174   2.189  0.00  0.00    -0.196 N 
ATOM      2  C2  IND d   1      -1.517  -0.874   2.151  0.00  0.00     0.054 A 
ATOM      3  C3  IND d   1      -1.020  -1.875   1.390  0.00  0.00    -0.031 A 
ATOM      4  C4  IND d   1       1.255  -2.049   0.198  0.00  0.00     0.051 A 
ATOM      5  C5  IND d   1       2.381  -1.327  -0.086  0.00  0.00    -0.031 A 
ATOM      6  C6  IND d   1       2.561  -0.043   0.386  0.00  0.00     0.015 A 
ATOM      7  C7  IND d   1       1.624   0.566   1.172  0.00  0.00    -0.016 A 
ATOM      8  C8  IND d   1       0.477  -0.161   1.456  0.00  0.00    -0.047 A 
ATOM      9  C9  IND d   1       0.269  -1.449   0.945  0.00  0.00    -0.096 A 
ATOM     10  HN1 IND d   1      -0.765   0.919   2.601  0.00  0.00     0.298 HD
ENDROOT
TORSDOF 0
ENDMDL
