MODEL 1
REMARK minimizedAffinity -0.878985882
REMARK minimizedRMSD -1
REMARK  0 active torsions:
REMARK  status: ('A' for Active; 'I' for Inactive)
ROOT
ATOM      1  N1  IND d   1       3.437   1.281  -1.662  0.00  0.00    -0.196 N 
ATOM      2  C2  IND d   1       4.171   0.432  -2.443  0.00  0.00     0.054 A 
ATOM      3  C3  IND d   1       3.903  -0.854  -2.120  0.00  0.00    -0.031 A 
ATOM      4  C4  IND d   1       2.220  -1.795  -0.415  0.00  0.00     0.051 A 
ATOM      5  C5  IND d   1       1.345  -1.409   0.562  0.00  0.00    -0.031 A 
ATOM      6  C6  IND d   1       1.117  -0.079   0.851  0.00  0.00     0.015 A 
ATOM      7  C7  IND d   1       1.749   0.918   0.164  0.00  0.00    -0.016 A 
ATOM      8  C8  IND d   1       2.642   0.529  -0.824  0.00  0.00    -0.047 A 
ATOM      9  C9  IND d   1       2.910  -0.819  -1.093  0.00  0.00    -0.096 A 
ATOM     10  HN1 IND d   1       3.466   2.139  -1.690  0.00  0.00     0.298 HD
ENDROOT
TORSDOF 0
ENDMDL
