MODEL 1
REMARK minimizedAffinity 3.04152536
REMARK minimizedRMSD -1
REMARK  0 active torsions:
REMARK  status: ('A' for Active; 'I' for Inactive)
ROOT
ATOM      1  N1  IND d   1      -0.901   0.488   1.928  0.00  0.00    -0.196 N 
ATOM      2  C2  IND d   1      -1.441  -0.703   2.328  0.00  0.00     0.054 A 
ATOM      3  C3  IND d   1      -0.648  -1.730   1.948  0.00  0.00    -0.031 A 
ATOM      4  C4  IND d   1       1.631  -1.680   0.750  0.00  0.00     0.051 A 
ATOM      5  C5  IND d   1       2.515  -0.827   0.152  0.00  0.00    -0.031 A 
ATOM      6  C6  IND d   1       2.302   0.536   0.117  0.00  0.00     0.015 A 
ATOM      7  C7  IND d   1       1.199   1.100   0.691  0.00  0.00    -0.016 A 
ATOM      8  C8  IND d   1       0.295   0.236   1.294  0.00  0.00    -0.047 A 
ATOM      9  C9  IND d   1       0.484  -1.152   1.295  0.00  0.00    -0.096 A 
ATOM     10  HN1 IND d   1      -1.250   1.264   2.052  0.00  0.00     0.298 HD
ENDROOT
TORSDOF 0
ENDMDL
