MODEL 1
REMARK minimizedAffinity 2.17864776
REMARK minimizedRMSD -1
REMARK  0 active torsions:
REMARK  status: ('A' for Active; 'I' for Inactive)
ROOT
ATOM      1  N1  IND d   1       3.847  -1.118  -0.029  0.00  0.00    -0.196 N 
ATOM      2  C2  IND d   1       3.600  -1.831  -1.169  0.00  0.00     0.054 A 
ATOM      3  C3  IND d   1       2.278  -2.085  -1.288  0.00  0.00    -0.031 A 
ATOM      4  C4  IND d   1       0.327  -1.338   0.216  0.00  0.00     0.051 A 
ATOM      5  C5  IND d   1       0.058  -0.699   1.394  0.00  0.00    -0.031 A 
ATOM      6  C6  IND d   1       1.059  -0.154   2.173  0.00  0.00     0.015 A 
ATOM      7  C7  IND d   1       2.370  -0.218   1.794  0.00  0.00    -0.016 A 
ATOM      8  C8  IND d   1       2.647  -0.872   0.602  0.00  0.00    -0.047 A 
ATOM      9  C9  IND d   1       1.640  -1.464  -0.171  0.00  0.00    -0.096 A 
ATOM     10  HN1 IND d   1       4.621  -0.865   0.248  0.00  0.00     0.298 HD
ENDROOT
TORSDOF 0
ENDMDL
