MODEL 1
REMARK minimizedAffinity 0.0954675302
REMARK minimizedRMSD -1
REMARK  0 active torsions:
REMARK  status: ('A' for Active; 'I' for Inactive)
ROOT
ATOM      1  N1  IND d   1       3.302   0.231  -1.953  0.00  0.00    -0.196 N 
ATOM      2  C2  IND d   1       3.602  -1.092  -2.123  0.00  0.00     0.054 A 
ATOM      3  C3  IND d   1       2.953  -1.843  -1.205  0.00  0.00    -0.031 A 
ATOM      4  C4  IND d   1       1.271  -1.121   0.605  0.00  0.00     0.051 A 
ATOM      5  C5  IND d   1       0.706  -0.012   1.170  0.00  0.00    -0.031 A 
ATOM      6  C6  IND d   1       0.982   1.260   0.712  0.00  0.00     0.015 A 
ATOM      7  C7  IND d   1       1.827   1.471  -0.340  0.00  0.00    -0.016 A 
ATOM      8  C8  IND d   1       2.408   0.347  -0.912  0.00  0.00    -0.047 A 
ATOM      9  C9  IND d   1       2.165  -0.943  -0.425  0.00  0.00    -0.096 A 
ATOM     10  HN1 IND d   1       3.619   0.881  -2.418  0.00  0.00     0.298 HD
ENDROOT
TORSDOF 0
ENDMDL
