MODEL 1
REMARK minimizedAffinity 7.26071644
REMARK minimizedRMSD -1
REMARK  0 active torsions:
REMARK  status: ('A' for Active; 'I' for Inactive)
ROOT
ATOM      1  N1  IND d   1      -1.179   2.189  -3.801  0.00  0.00    -0.196 N 
ATOM      2  C2  IND d   1       0.142   1.952  -4.057  0.00  0.00     0.054 A 
ATOM      3  C3  IND d   1       0.901   2.970  -3.592  0.00  0.00    -0.031 A 
ATOM      4  C4  IND d   1       0.195   5.074  -2.289  0.00  0.00     0.051 A 
ATOM      5  C5  IND d   1      -0.909   5.748  -1.848  0.00  0.00    -0.031 A 
ATOM      6  C6  IND d   1      -2.186   5.259  -2.036  0.00  0.00     0.015 A 
ATOM      7  C7  IND d   1      -2.405   4.066  -2.666  0.00  0.00    -0.016 A 
ATOM      8  C8  IND d   1      -1.287   3.383  -3.122  0.00  0.00    -0.047 A 
ATOM      9  C9  IND d   1       0.008   3.895  -2.971  0.00  0.00    -0.096 A 
ATOM     10  HN1 IND d   1      -1.834   1.679  -4.026  0.00  0.00     0.298 HD
ENDROOT
TORSDOF 0
ENDMDL
