MODEL 1
REMARK minimizedAffinity -1.00648224
REMARK minimizedRMSD -1
REMARK  0 active torsions:
REMARK  status: ('A' for Active; 'I' for Inactive)
ROOT
ATOM      1  N1  IND d   1       0.591  -0.508   2.161  0.00  0.00    -0.196 N 
ATOM      2  C2  IND d   1       1.256  -1.669   1.881  0.00  0.00     0.054 A 
ATOM      3  C3  IND d   1       0.382  -2.639   1.528  0.00  0.00    -0.031 A 
ATOM      4  C4  IND d   1      -2.173  -2.512   1.244  0.00  0.00     0.051 A 
ATOM      5  C5  IND d   1      -3.236  -1.672   1.420  0.00  0.00    -0.031 A 
ATOM      6  C6  IND d   1      -3.075  -0.374   1.859  0.00  0.00     0.015 A 
ATOM      7  C7  IND d   1      -1.837   0.138   2.128  0.00  0.00    -0.016 A 
ATOM      8  C8  IND d   1      -0.755  -0.714   1.956  0.00  0.00    -0.047 A 
ATOM      9  C9  IND d   1      -0.917  -2.046   1.552  0.00  0.00    -0.096 A 
ATOM     10  HN1 IND d   1       0.953   0.227   2.421  0.00  0.00     0.298 HD
ENDROOT
TORSDOF 0
ENDMDL
