MODEL 1
REMARK minimizedAffinity -0.963441074
REMARK minimizedRMSD -1
REMARK  2 active torsions:
REMARK  status: ('A' for Active; 'I' for Inactive)
REMARK    1  A    between atoms: C1_2  and  C2_3 
REMARK    2  A    between atoms: C2_3  and  C3_4 
ROOT
ATOM      1  C3  UNL d   1      -1.362   0.135   2.506  0.00  0.00    -0.075 A 
ATOM      2  C4  UNL d   1      -2.421   0.365   3.396  0.00  0.00     0.002 A 
ATOM      3  C5  UNL d   1      -3.691   0.689   2.918  0.00  0.00     0.002 A 
ATOM      4  C6  UNL d   1      -3.916   0.799   1.548  0.00  0.00    -0.004 A 
ATOM      5  C7  UNL d   1      -2.868   0.589   0.655  0.00  0.00     0.002 A 
ATOM      6  C8  UNL d   1      -1.597   0.260   1.130  0.00  0.00     0.002 A 
ENDROOT
BRANCH   1   7
ATOM      7  C2  UNL d   1       0.007  -0.246   3.015  0.00  0.00     0.056 C 
BRANCH   7   8
ATOM      8  C1  UNL d   1       1.163   0.350   2.203  0.00  0.00     0.007 C 
ATOM      9  C   UNL d   1       2.512  -0.275   2.532  0.00  0.00     0.009 C 
ENDBRANCH   7   8
ENDBRANCH   1   7
TORSDOF 2
ENDMDL
