MODEL 1
REMARK minimizedAffinity 6.28918743
REMARK minimizedRMSD -1
REMARK  2 active torsions:
REMARK  status: ('A' for Active; 'I' for Inactive)
REMARK    1  A    between atoms: C1_2  and  C2_3 
REMARK    2  A    between atoms: C2_3  and  C3_4 
ROOT
ATOM      1  C3  UNL d   1       5.990  -1.030   3.118  0.00  0.00    -0.075 A 
ATOM      2  C4  UNL d   1       5.982  -2.373   2.715  0.00  0.00     0.002 A 
ATOM      3  C5  UNL d   1       5.961  -3.397   3.662  0.00  0.00     0.002 A 
ATOM      4  C6  UNL d   1       5.959  -3.093   5.021  0.00  0.00    -0.004 A 
ATOM      5  C7  UNL d   1       5.984  -1.762   5.434  0.00  0.00     0.002 A 
ATOM      6  C8  UNL d   1       6.000  -0.736   4.488  0.00  0.00     0.002 A 
ENDROOT
BRANCH   1   7
ATOM      7  C2  UNL d   1       5.983   0.083   2.098  0.00  0.00     0.056 C 
BRANCH   7   8
ATOM      8  C1  UNL d   1       4.751   0.086   1.186  0.00  0.00     0.007 C 
ATOM      9  C   UNL d   1       3.437  -0.000   1.952  0.00  0.00     0.009 C 
ENDBRANCH   7   8
ENDBRANCH   1   7
TORSDOF 2
ENDMDL
