MODEL 1
REMARK minimizedAffinity 1.3475728
REMARK minimizedRMSD -1
REMARK  2 active torsions:
REMARK  status: ('A' for Active; 'I' for Inactive)
REMARK    1  A    between atoms: C1_2  and  C2_3 
REMARK    2  A    between atoms: C2_3  and  C3_4 
ROOT
ATOM      1  C3  UNL d   1      -2.176  -0.320  -0.819  0.00  0.00    -0.075 A 
ATOM      2  C4  UNL d   1      -1.430   0.339   0.170  0.00  0.00     0.002 A 
ATOM      3  C5  UNL d   1      -2.071   1.008   1.212  0.00  0.00     0.002 A 
ATOM      4  C6  UNL d   1      -3.463   1.037   1.274  0.00  0.00    -0.004 A 
ATOM      5  C7  UNL d   1      -4.214   0.400   0.289  0.00  0.00     0.002 A 
ATOM      6  C8  UNL d   1      -3.575  -0.274  -0.753  0.00  0.00     0.002 A 
ENDROOT
BRANCH   1   7
ATOM      7  C2  UNL d   1      -1.488  -1.071  -1.933  0.00  0.00     0.056 C 
BRANCH   7   8
ATOM      8  C1  UNL d   1      -1.667  -2.592  -1.864  0.00  0.00     0.007 C 
ATOM      9  C   UNL d   1      -1.141  -3.199  -0.570  0.00  0.00     0.009 C 
ENDBRANCH   7   8
ENDBRANCH   1   7
TORSDOF 2
ENDMDL
