MODEL 1
REMARK minimizedAffinity 4.62168217
REMARK minimizedRMSD -1
REMARK  2 active torsions:
REMARK  status: ('A' for Active; 'I' for Inactive)
REMARK    1  A    between atoms: C1_2  and  C2_3 
REMARK    2  A    between atoms: C2_3  and  C3_4 
ROOT
ATOM      1  C3  UNL d   1      -2.012  -0.240   0.461  0.00  0.00    -0.075 A 
ATOM      2  C4  UNL d   1      -0.959  -0.214   1.386  0.00  0.00     0.002 A 
ATOM      3  C5  UNL d   1      -1.179   0.208   2.698  0.00  0.00     0.002 A 
ATOM      4  C6  UNL d   1      -2.449   0.618   3.097  0.00  0.00    -0.004 A 
ATOM      5  C7  UNL d   1      -3.499   0.612   2.181  0.00  0.00     0.002 A 
ATOM      6  C8  UNL d   1      -3.283   0.186   0.870  0.00  0.00     0.002 A 
ENDROOT
BRANCH   1   7
ATOM      7  C2  UNL d   1      -1.787  -0.724  -0.952  0.00  0.00     0.056 C 
BRANCH   7   8
ATOM      8  C1  UNL d   1      -0.639  -1.728  -1.092  0.00  0.00     0.007 C 
ATOM      9  C   UNL d   1      -1.065  -3.167  -0.833  0.00  0.00     0.009 C 
ENDBRANCH   7   8
ENDBRANCH   1   7
TORSDOF 2
ENDMDL
