MODEL 1
REMARK minimizedAffinity 5.43498755
REMARK minimizedRMSD -1
REMARK  2 active torsions:
REMARK  status: ('A' for Active; 'I' for Inactive)
REMARK    1  A    between atoms: C1_2  and  C2_3 
REMARK    2  A    between atoms: C2_3  and  C3_4 
ROOT
ATOM      1  C3  UNL d   1       0.534  -4.614   2.269  0.00  0.00    -0.075 A 
ATOM      2  C4  UNL d   1       0.536  -5.319   3.482  0.00  0.00     0.002 A 
ATOM      3  C5  UNL d   1       1.682  -5.990   3.909  0.00  0.00     0.002 A 
ATOM      4  C6  UNL d   1       2.835  -5.973   3.128  0.00  0.00    -0.004 A 
ATOM      5  C7  UNL d   1       2.840  -5.289   1.914  0.00  0.00     0.002 A 
ATOM      6  C8  UNL d   1       1.696  -4.613   1.486  0.00  0.00     0.002 A 
ENDROOT
BRANCH   1   7
ATOM      7  C2  UNL d   1      -0.694  -3.861   1.815  0.00  0.00     0.056 C 
BRANCH   7   8
ATOM      8  C1  UNL d   1      -1.487  -4.570   0.712  0.00  0.00     0.007 C 
ATOM      9  C   UNL d   1      -2.904  -4.937   1.134  0.00  0.00     0.009 C 
ENDBRANCH   7   8
ENDBRANCH   1   7
TORSDOF 2
ENDMDL
