MODEL 1
REMARK minimizedAffinity 15.8362436
REMARK minimizedRMSD -1
REMARK  2 active torsions:
REMARK  status: ('A' for Active; 'I' for Inactive)
REMARK    1  A    between atoms: C1_2  and  C2_3 
REMARK    2  A    between atoms: C2_3  and  C3_4 
ROOT
ATOM      1  C3  UNL d   1      -0.061   0.885   1.952  0.00  0.00    -0.075 A 
ATOM      2  C4  UNL d   1       0.918   1.859   1.707  0.00  0.00     0.002 A 
ATOM      3  C5  UNL d   1       1.205   2.262   0.402  0.00  0.00     0.002 A 
ATOM      4  C6  UNL d   1       0.525   1.691  -0.672  0.00  0.00    -0.004 A 
ATOM      5  C7  UNL d   1      -0.438   0.711  -0.441  0.00  0.00     0.002 A 
ATOM      6  C8  UNL d   1      -0.730   0.309   0.864  0.00  0.00     0.002 A 
ENDROOT
BRANCH   1   7
ATOM      7  C2  UNL d   1      -0.397   0.466   3.364  0.00  0.00     0.056 C 
BRANCH   7   8
ATOM      8  C1  UNL d   1      -1.772   0.942   3.845  0.00  0.00     0.007 C 
ATOM      9  C   UNL d   1      -2.007   2.429   3.614  0.00  0.00     0.009 C 
ENDBRANCH   7   8
ENDBRANCH   1   7
TORSDOF 2
ENDMDL
