MODEL 1
REMARK minimizedAffinity 3.98146009
REMARK minimizedRMSD -1
REMARK  2 active torsions:
REMARK  status: ('A' for Active; 'I' for Inactive)
REMARK    1  A    between atoms: C1_2  and  C2_3 
REMARK    2  A    between atoms: C2_3  and  C3_4 
ROOT
ATOM      1  C3  UNL d   1      -2.290  -0.854   0.052  0.00  0.00    -0.075 A 
ATOM      2  C4  UNL d   1      -1.623  -0.215  -1.004  0.00  0.00     0.002 A 
ATOM      3  C5  UNL d   1      -0.792  -0.939  -1.859  0.00  0.00     0.002 A 
ATOM      4  C6  UNL d   1      -0.608  -2.306  -1.664  0.00  0.00    -0.004 A 
ATOM      5  C7  UNL d   1      -1.252  -2.948  -0.608  0.00  0.00     0.002 A 
ATOM      6  C8  UNL d   1      -2.088  -2.227   0.246  0.00  0.00     0.002 A 
ENDROOT
BRANCH   1   7
ATOM      7  C2  UNL d   1      -3.214  -0.082   0.962  0.00  0.00     0.056 C 
BRANCH   7   8
ATOM      8  C1  UNL d   1      -4.668  -0.034   0.481  0.00  0.00     0.007 C 
ATOM      9  C   UNL d   1      -5.621  -0.820   1.371  0.00  0.00     0.009 C 
ENDBRANCH   7   8
ENDBRANCH   1   7
TORSDOF 2
ENDMDL
