MODEL 1
REMARK minimizedAffinity 8.23279667
REMARK minimizedRMSD -1
REMARK  2 active torsions:
REMARK  status: ('A' for Active; 'I' for Inactive)
REMARK    1  A    between atoms: C1_2  and  C2_3 
REMARK    2  A    between atoms: C2_3  and  C3_4 
ROOT
ATOM      1  C3  UNL d   1      -1.844  -2.884  -0.329  0.00  0.00    -0.075 A 
ATOM      2  C4  UNL d   1      -1.129  -3.174  -1.500  0.00  0.00     0.002 A 
ATOM      3  C5  UNL d   1      -0.824  -2.163  -2.412  0.00  0.00     0.002 A 
ATOM      4  C6  UNL d   1      -1.238  -0.855  -2.171  0.00  0.00    -0.004 A 
ATOM      5  C7  UNL d   1      -1.963  -0.559  -1.019  0.00  0.00     0.002 A 
ATOM      6  C8  UNL d   1      -2.266  -1.567  -0.102  0.00  0.00     0.002 A 
ENDROOT
BRANCH   1   7
ATOM      7  C2  UNL d   1      -2.151  -3.968   0.677  0.00  0.00     0.056 C 
BRANCH   7   8
ATOM      8  C1  UNL d   1      -3.649  -4.212   0.893  0.00  0.00     0.007 C 
ATOM      9  C   UNL d   1      -3.981  -5.663   1.214  0.00  0.00     0.009 C 
ENDBRANCH   7   8
ENDBRANCH   1   7
TORSDOF 2
ENDMDL
