MODEL 1
REMARK minimizedAffinity 8.62979412
REMARK minimizedRMSD -1
REMARK  2 active torsions:
REMARK  status: ('A' for Active; 'I' for Inactive)
REMARK    1  A    between atoms: C1_2  and  C2_3 
REMARK    2  A    between atoms: C2_3  and  C3_4 
ROOT
ATOM      1  C3  UNL d   1      -2.157  -1.827  -0.726  0.00  0.00    -0.075 A 
ATOM      2  C4  UNL d   1      -3.124  -2.657  -0.140  0.00  0.00     0.002 A 
ATOM      3  C5  UNL d   1      -4.325  -2.124   0.329  0.00  0.00     0.002 A 
ATOM      4  C6  UNL d   1      -4.570  -0.756   0.229  0.00  0.00    -0.004 A 
ATOM      5  C7  UNL d   1      -3.609   0.080  -0.335  0.00  0.00     0.002 A 
ATOM      6  C8  UNL d   1      -2.409  -0.451  -0.810  0.00  0.00     0.002 A 
ENDROOT
BRANCH   1   7
ATOM      7  C2  UNL d   1      -0.868  -2.402  -1.262  0.00  0.00     0.056 C 
BRANCH   7   8
ATOM      8  C1  UNL d   1      -0.715  -2.277  -2.782  0.00  0.00     0.007 C 
ATOM      9  C   UNL d   1      -2.046  -2.282  -3.522  0.00  0.00     0.009 C 
ENDBRANCH   7   8
ENDBRANCH   1   7
TORSDOF 2
ENDMDL
