MODEL 1
REMARK minimizedAffinity 8.85937977
REMARK minimizedRMSD -1
REMARK  0 active torsions:
REMARK  status: ('A' for Active; 'I' for Inactive)
ROOT
ATOM      1  C   UNL d   1      -0.822   2.194  -0.383  0.00  0.00     0.172 C 
ATOM      2  N   UNL d   1      -0.910   0.831  -0.853  0.00  0.00    -0.070 N 
ATOM      3  C1  UNL d   1      -2.020   0.033  -0.784  0.00  0.00    -0.004 A 
ATOM      4  C2  UNL d   1      -1.698  -1.188  -1.336  0.00  0.00    -0.047 A 
ATOM      5  C3  UNL d   1      -0.346  -1.121  -1.751  0.00  0.00    -0.047 A 
ATOM      6  C4  UNL d   1       0.117   0.140  -1.439  0.00  0.00    -0.004 A 
ENDROOT
TORSDOF 0
ENDMDL
