MODEL 1
REMARK minimizedAffinity 4.80532885
REMARK minimizedRMSD -1
REMARK  0 active torsions:
REMARK  status: ('A' for Active; 'I' for Inactive)
ROOT
ATOM      1  C   UNL d   1       2.252   2.582   3.261  0.00  0.00     0.172 C 
ATOM      2  N   UNL d   1       1.390   1.476   2.914  0.00  0.00    -0.070 N 
ATOM      3  C1  UNL d   1       0.031   1.541   2.761  0.00  0.00    -0.004 A 
ATOM      4  C2  UNL d   1      -0.417   0.280   2.430  0.00  0.00    -0.047 A 
ATOM      5  C3  UNL d   1       0.712  -0.572   2.384  0.00  0.00    -0.047 A 
ATOM      6  C4  UNL d   1       1.817   0.194   2.687  0.00  0.00    -0.004 A 
ENDROOT
TORSDOF 0
ENDMDL
