MODEL 1
REMARK minimizedAffinity 3.50526047
REMARK minimizedRMSD -1
REMARK  0 active torsions:
REMARK  status: ('A' for Active; 'I' for Inactive)
ROOT
ATOM      1  C   UNL d   1       3.382  -2.243   0.079  0.00  0.00     0.172 C 
ATOM      2  N   UNL d   1       4.222  -2.360  -1.090  0.00  0.00    -0.070 N 
ATOM      3  C1  UNL d   1       5.564  -2.632  -1.084  0.00  0.00    -0.004 A 
ATOM      4  C2  UNL d   1       5.995  -2.660  -2.393  0.00  0.00    -0.047 A 
ATOM      5  C3  UNL d   1       4.873  -2.394  -3.214  0.00  0.00    -0.047 A 
ATOM      6  C4  UNL d   1       3.789  -2.212  -2.381  0.00  0.00    -0.004 A 
ENDROOT
TORSDOF 0
ENDMDL
