MODEL 1
REMARK minimizedAffinity -0.471265227
REMARK minimizedRMSD -1
REMARK  0 active torsions:
REMARK  status: ('A' for Active; 'I' for Inactive)
ROOT
ATOM      1  C   UNL d   1       4.970  -6.000  -1.150  0.00  0.00     0.172 C 
ATOM      2  N   UNL d   1       4.639  -4.930  -2.061  0.00  0.00    -0.070 N 
ATOM      3  C1  UNL d   1       4.620  -5.022  -3.428  0.00  0.00    -0.004 A 
ATOM      4  C2  UNL d   1       4.257  -3.790  -3.928  0.00  0.00    -0.047 A 
ATOM      5  C3  UNL d   1       4.051  -2.928  -2.825  0.00  0.00    -0.047 A 
ATOM      6  C4  UNL d   1       4.295  -3.659  -1.682  0.00  0.00    -0.004 A 
ENDROOT
TORSDOF 0
ENDMDL
