MODEL 1
REMARK minimizedAffinity 3.40831566
REMARK minimizedRMSD -1
REMARK  0 active torsions:
REMARK  status: ('A' for Active; 'I' for Inactive)
ROOT
ATOM      1  C   UNL d   1       3.255  -1.674  -0.100  0.00  0.00     0.172 C 
ATOM      2  N   UNL d   1       4.041  -2.139  -1.218  0.00  0.00    -0.070 N 
ATOM      3  C1  UNL d   1       3.865  -1.771  -2.526  0.00  0.00    -0.004 A 
ATOM      4  C2  UNL d   1       4.811  -2.430  -3.281  0.00  0.00    -0.047 A 
ATOM      5  C3  UNL d   1       5.583  -3.221  -2.397  0.00  0.00    -0.047 A 
ATOM      6  C4  UNL d   1       5.085  -3.022  -1.126  0.00  0.00    -0.004 A 
ENDROOT
TORSDOF 0
ENDMDL
