MODEL 1
REMARK minimizedAffinity -0.490022808
REMARK minimizedRMSD -1
REMARK  0 active torsions:
REMARK  status: ('A' for Active; 'I' for Inactive)
ROOT
ATOM      1  C   UNL d   1       4.216  -1.434  -4.130  0.00  0.00     0.172 C 
ATOM      2  N   UNL d   1       4.393  -1.980  -2.805  0.00  0.00    -0.070 N 
ATOM      3  C1  UNL d   1       5.589  -2.120  -2.153  0.00  0.00    -0.004 A 
ATOM      4  C2  UNL d   1       5.333  -2.678  -0.919  0.00  0.00    -0.047 A 
ATOM      5  C3  UNL d   1       3.936  -2.881  -0.827  0.00  0.00    -0.047 A 
ATOM      6  C4  UNL d   1       3.378  -2.440  -2.008  0.00  0.00    -0.004 A 
ENDROOT
TORSDOF 0
ENDMDL
