MODEL 1
REMARK minimizedAffinity 1.63002777
REMARK minimizedRMSD -1
REMARK  0 active torsions:
REMARK  status: ('A' for Active; 'I' for Inactive)
ROOT
ATOM      1  C   UNL d   1       3.588  -1.913  -3.697  0.00  0.00     0.172 C 
ATOM      2  N   UNL d   1       4.104  -2.285  -2.400  0.00  0.00    -0.070 N 
ATOM      3  C1  UNL d   1       3.433  -2.172  -1.212  0.00  0.00    -0.004 A 
ATOM      4  C2  UNL d   1       4.264  -2.630  -0.213  0.00  0.00    -0.047 A 
ATOM      5  C3  UNL d   1       5.477  -3.031  -0.821  0.00  0.00    -0.047 A 
ATOM      6  C4  UNL d   1       5.350  -2.807  -2.176  0.00  0.00    -0.004 A 
ENDROOT
TORSDOF 0
ENDMDL
