MODEL 1
REMARK minimizedAffinity -2.78717899
REMARK minimizedRMSD -1
REMARK  0 active torsions:
REMARK  status: ('A' for Active; 'I' for Inactive)
ROOT
ATOM      1  C   UNL d   1       4.474  -2.135  -0.590  0.00  0.00     0.172 C 
ATOM      2  N   UNL d   1       4.555  -3.234  -1.524  0.00  0.00    -0.070 N 
ATOM      3  C1  UNL d   1       4.922  -4.517  -1.217  0.00  0.00    -0.004 A 
ATOM      4  C2  UNL d   1       4.873  -5.258  -2.378  0.00  0.00    -0.047 A 
ATOM      5  C3  UNL d   1       4.463  -4.391  -3.418  0.00  0.00    -0.047 A 
ATOM      6  C4  UNL d   1       4.274  -3.143  -2.862  0.00  0.00    -0.004 A 
ENDROOT
TORSDOF 0
ENDMDL
