MODEL 1
REMARK minimizedAffinity -3.17972827
REMARK minimizedRMSD -1
REMARK  0 active torsions:
REMARK  status: ('A' for Active; 'I' for Inactive)
ROOT
ATOM      1  C   UNL d   1       3.367  -4.449  -3.714  0.00  0.00     0.172 C 
ATOM      2  N   UNL d   1       4.106  -3.953  -2.577  0.00  0.00    -0.070 N 
ATOM      3  C1  UNL d   1       4.006  -2.695  -2.046  0.00  0.00    -0.004 A 
ATOM      4  C2  UNL d   1       4.870  -2.618  -0.975  0.00  0.00    -0.047 A 
ATOM      5  C3  UNL d   1       5.514  -3.873  -0.860  0.00  0.00    -0.047 A 
ATOM      6  C4  UNL d   1       5.022  -4.681  -1.863  0.00  0.00    -0.004 A 
ENDROOT
TORSDOF 0
ENDMDL
