MODEL 1
REMARK minimizedAffinity 4.05942822
REMARK minimizedRMSD -1
REMARK  0 active torsions:
REMARK  status: ('A' for Active; 'I' for Inactive)
ROOT
ATOM      1  C   UNL d   1       2.294  -4.980  -1.192  0.00  0.00     0.172 C 
ATOM      2  N   UNL d   1       3.424  -4.942  -2.091  0.00  0.00    -0.070 N 
ATOM      3  C1  UNL d   1       4.547  -5.719  -1.994  0.00  0.00    -0.004 A 
ATOM      4  C2  UNL d   1       5.384  -5.383  -3.036  0.00  0.00    -0.047 A 
ATOM      5  C3  UNL d   1       4.741  -4.369  -3.785  0.00  0.00    -0.047 A 
ATOM      6  C4  UNL d   1       3.529  -4.115  -3.178  0.00  0.00    -0.004 A 
ENDROOT
TORSDOF 0
ENDMDL
