MODEL 1
REMARK minimizedAffinity -3.026088
REMARK minimizedRMSD -1
REMARK  0 active torsions:
REMARK  status: ('A' for Active; 'I' for Inactive)
ROOT
ATOM      1  C4' PXY d   1       0.021  -1.930  -2.696  0.00  0.00     0.077 C 
ATOM      2  C1' PXY d   1      -2.046  -1.513   2.687  0.00  0.00     0.077 C 
ATOM      3  C1  PXY d   1      -1.504  -1.635   1.276  0.00  0.00    -0.082 A 
ATOM      4  C2  PXY d   1      -0.869  -0.612   0.728  0.00  0.00     0.003 A 
ATOM      5  C3  PXY d   1      -0.400  -0.694  -0.557  0.00  0.00     0.003 A 
ATOM      6  C4  PXY d   1      -0.535  -1.855  -1.271  0.00  0.00    -0.082 A 
ATOM      7  C5  PXY d   1      -1.172  -2.907  -0.715  0.00  0.00     0.003 A 
ATOM      8  C6  PXY d   1      -1.677  -2.789   0.577  0.00  0.00     0.003 A 
ENDROOT
TORSDOF 0
ENDMDL
