MODEL 1
REMARK minimizedAffinity -4.76789904
REMARK minimizedRMSD -1
REMARK  0 active torsions:
REMARK  status: ('A' for Active; 'I' for Inactive)
ROOT
ATOM      1  C4' PXY d   1       1.167   2.081   0.475  0.00  0.00     0.077 C 
ATOM      2  C1' PXY d   1      -0.300  -3.509   0.377  0.00  0.00     0.077 C 
ATOM      3  C1  PXY d   1       0.087  -2.043   0.390  0.00  0.00    -0.082 A 
ATOM      4  C2  PXY d   1       0.515  -1.490   1.513  0.00  0.00     0.003 A 
ATOM      5  C3  PXY d   1       0.839  -0.158   1.550  0.00  0.00     0.003 A 
ATOM      6  C4  PXY d   1       0.775   0.603   0.413  0.00  0.00    -0.082 A 
ATOM      7  C5  PXY d   1       0.349   0.043  -0.739  0.00  0.00     0.003 A 
ATOM      8  C6  PXY d   1      -0.014  -1.301  -0.746  0.00  0.00     0.003 A 
ENDROOT
TORSDOF 0
ENDMDL
