MODEL 1
REMARK minimizedAffinity -1.25264299
REMARK minimizedRMSD -1
REMARK  0 active torsions:
REMARK  status: ('A' for Active; 'I' for Inactive)
ROOT
ATOM      1  C4' PXY d   1      -1.945  -0.513   2.603  0.00  0.00     0.077 C 
ATOM      2  C1' PXY d   1       0.627  -0.780  -2.567  0.00  0.00     0.077 C 
ATOM      3  C1  PXY d   1      -0.054  -0.720  -1.215  0.00  0.00    -0.082 A 
ATOM      4  C2  PXY d   1      -0.091   0.424  -0.550  0.00  0.00     0.003 A 
ATOM      5  C3  PXY d   1      -0.675   0.488   0.689  0.00  0.00     0.003 A 
ATOM      6  C4  PXY d   1      -1.275  -0.617   1.230  0.00  0.00    -0.082 A 
ATOM      7  C5  PXY d   1      -1.252  -1.785   0.553  0.00  0.00     0.003 A 
ATOM      8  C6  PXY d   1      -0.618  -1.840  -0.685  0.00  0.00     0.003 A 
ENDROOT
TORSDOF 0
ENDMDL
