MODEL 1
REMARK minimizedAffinity -3.87970424
REMARK minimizedRMSD -1
REMARK  0 active torsions:
REMARK  status: ('A' for Active; 'I' for Inactive)
ROOT
ATOM      1  C4' PXY d   1       1.573   3.670   0.790  0.00  0.00     0.077 C 
ATOM      2  C1' PXY d   1      -0.129  -1.823   0.201  0.00  0.00     0.077 C 
ATOM      3  C1  PXY d   1       0.321  -0.383   0.343  0.00  0.00    -0.082 A 
ATOM      4  C2  PXY d   1       0.599   0.100   1.544  0.00  0.00     0.003 A 
ATOM      5  C3  PXY d   1       0.976   1.410   1.693  0.00  0.00     0.003 A 
ATOM      6  C4  PXY d   1       1.123   2.218   0.598  0.00  0.00    -0.082 A 
ATOM      7  C5  PXY d   1       0.853   1.730  -0.631  0.00  0.00     0.003 A 
ATOM      8  C6  PXY d   1       0.431   0.409  -0.757  0.00  0.00     0.003 A 
ENDROOT
TORSDOF 0
ENDMDL
