MODEL 1
REMARK minimizedAffinity -1.40958679
REMARK minimizedRMSD -1
REMARK  0 active torsions:
REMARK  status: ('A' for Active; 'I' for Inactive)
ROOT
ATOM      1  C4' PXY d   1       0.028  -3.702   0.068  0.00  0.00     0.077 C 
ATOM      2  C1' PXY d   1      -0.140   2.018  -0.753  0.00  0.00     0.077 C 
ATOM      3  C1  PXY d   1      -0.092   0.516  -0.550  0.00  0.00    -0.082 A 
ATOM      4  C2  PXY d   1      -0.841  -0.041   0.388  0.00  0.00     0.003 A 
ATOM      5  C3  PXY d   1      -0.786  -1.394   0.606  0.00  0.00     0.003 A 
ATOM      6  C4  PXY d   1       0.004  -2.191  -0.178  0.00  0.00    -0.082 A 
ATOM      7  C5  PXY d   1       0.763  -1.631  -1.144  0.00  0.00     0.003 A 
ATOM      8  C6  PXY d   1       0.724  -0.251  -1.323  0.00  0.00     0.003 A 
ENDROOT
TORSDOF 0
ENDMDL
