MODEL 1
REMARK minimizedAffinity -4.89275599
REMARK minimizedRMSD -1
REMARK  0 active torsions:
REMARK  status: ('A' for Active; 'I' for Inactive)
ROOT
ATOM      1  C4' PXY d   1       1.231   2.633  -0.082  0.00  0.00     0.077 C 
ATOM      2  C1' PXY d   1      -1.073  -2.629   0.561  0.00  0.00     0.077 C 
ATOM      3  C1  PXY d   1      -0.465  -1.253   0.380  0.00  0.00    -0.082 A 
ATOM      4  C2  PXY d   1      -0.135  -0.539   1.444  0.00  0.00     0.003 A 
ATOM      5  C3  PXY d   1       0.387   0.721   1.300  0.00  0.00     0.003 A 
ATOM      6  C4  PXY d   1       0.623   1.235   0.053  0.00  0.00    -0.082 A 
ATOM      7  C5  PXY d   1       0.298   0.508  -1.038  0.00  0.00     0.003 A 
ATOM      8  C6  PXY d   1      -0.268  -0.752  -0.869  0.00  0.00     0.003 A 
ENDROOT
TORSDOF 0
ENDMDL
