MODEL 1
REMARK minimizedAffinity -5.22000837
REMARK minimizedRMSD -1
REMARK  0 active torsions:
REMARK  status: ('A' for Active; 'I' for Inactive)
ROOT
ATOM      1  C4' PXY d   1      -1.886  -1.243   3.058  0.00  0.00     0.077 C 
ATOM      2  C1' PXY d   1       1.014  -1.810  -1.910  0.00  0.00     0.077 C 
ATOM      3  C1  PXY d   1       0.246  -1.671  -0.611  0.00  0.00    -0.082 A 
ATOM      4  C2  PXY d   1       0.194  -0.497  -0.004  0.00  0.00     0.003 A 
ATOM      5  C3  PXY d   1      -0.469  -0.361   1.189  0.00  0.00     0.003 A 
ATOM      6  C4  PXY d   1      -1.130  -1.427   1.739  0.00  0.00    -0.082 A 
ATOM      7  C5  PXY d   1      -1.090  -2.626   1.121  0.00  0.00     0.003 A 
ATOM      8  C6  PXY d   1      -0.377  -2.752  -0.068  0.00  0.00     0.003 A 
ENDROOT
TORSDOF 0
ENDMDL
