MODEL 1
REMARK minimizedAffinity -4.8807478
REMARK minimizedRMSD -1
REMARK  0 active torsions:
REMARK  status: ('A' for Active; 'I' for Inactive)
ROOT
ATOM      1  C4' PXY d   1       0.347   2.221  -0.098  0.00  0.00     0.077 C 
ATOM      2  C1' PXY d   1      -0.547  -3.486   0.113  0.00  0.00     0.077 C 
ATOM      3  C1  PXY d   1      -0.325  -1.987   0.062  0.00  0.00    -0.082 A 
ATOM      4  C2  PXY d   1       0.555  -1.485  -0.788  0.00  0.00     0.003 A 
ATOM      5  C3  PXY d   1       0.792  -0.135  -0.825  0.00  0.00     0.003 A 
ATOM      6  C4  PXY d   1       0.083   0.715  -0.019  0.00  0.00    -0.082 A 
ATOM      7  C5  PXY d   1      -0.825   0.212   0.844  0.00  0.00     0.003 A 
ATOM      8  C6  PXY d   1      -1.021  -1.165   0.894  0.00  0.00     0.003 A 
ENDROOT
TORSDOF 0
ENDMDL
