MODEL 1
REMARK minimizedAffinity -3.01631737
REMARK minimizedRMSD -1
REMARK  0 active torsions:
REMARK  status: ('A' for Active; 'I' for Inactive)
ROOT
ATOM      1  C4' PXY d   1       0.037   1.546   0.630  0.00  0.00     0.077 C 
ATOM      2  C1' PXY d   1      -0.212  -4.152  -0.310  0.00  0.00     0.077 C 
ATOM      3  C1  PXY d   1      -0.158  -2.659  -0.057  0.00  0.00    -0.082 A 
ATOM      4  C2  PXY d   1       0.560  -1.886  -0.855  0.00  0.00     0.003 A 
ATOM      5  C3  PXY d   1       0.646  -0.537  -0.622  0.00  0.00     0.003 A 
ATOM      6  C4  PXY d   1      -0.054   0.034   0.407  0.00  0.00    -0.082 A 
ATOM      7  C5  PXY d   1      -0.798  -0.747   1.219  0.00  0.00     0.003 A 
ATOM      8  C6  PXY d   1      -0.839  -2.119   0.990  0.00  0.00     0.003 A 
ENDROOT
TORSDOF 0
ENDMDL
