MODEL 1
REMARK minimizedAffinity -3.93825293
REMARK minimizedRMSD -1
REMARK  0 active torsions:
REMARK  status: ('A' for Active; 'I' for Inactive)
ROOT
ATOM      1  C4' PXY d   1       0.464   2.124   0.002  0.00  0.00     0.077 C 
ATOM      2  C1' PXY d   1      -0.046  -3.607   0.556  0.00  0.00     0.077 C 
ATOM      3  C1  PXY d   1       0.099  -2.106   0.404  0.00  0.00    -0.082 A 
ATOM      4  C2  PXY d   1      -0.499  -1.300   1.267  0.00  0.00     0.003 A 
ATOM      5  C3  PXY d   1      -0.405   0.060   1.126  0.00  0.00     0.003 A 
ATOM      6  C4  PXY d   1       0.353   0.602   0.122  0.00  0.00    -0.082 A 
ATOM      7  C5  PXY d   1       0.974  -0.213  -0.756  0.00  0.00     0.003 A 
ATOM      8  C6  PXY d   1       0.833  -1.591  -0.620  0.00  0.00     0.003 A 
ENDROOT
TORSDOF 0
ENDMDL
