MODEL 1
REMARK minimizedAffinity -1.97992444
REMARK minimizedRMSD -1
REMARK  0 active torsions:
REMARK  status: ('A' for Active; 'I' for Inactive)
ROOT
ATOM      1  C4' PXY d   1      -1.682   4.596   2.838  0.00  0.00     0.077 C 
ATOM      2  C1' PXY d   1       2.923   3.078  -0.309  0.00  0.00     0.077 C 
ATOM      3  C1  PXY d   1       1.708   3.472   0.507  0.00  0.00    -0.082 A 
ATOM      4  C2  PXY d   1       1.829   4.376   1.466  0.00  0.00     0.003 A 
ATOM      5  C3  PXY d   1       0.747   4.721   2.234  0.00  0.00     0.003 A 
ATOM      6  C4  PXY d   1      -0.483   4.174   1.983  0.00  0.00    -0.082 A 
ATOM      7  C5  PXY d   1      -0.617   3.260   1.000  0.00  0.00     0.003 A 
ATOM      8  C6  PXY d   1       0.502   2.893   0.258  0.00  0.00     0.003 A 
ENDROOT
TORSDOF 0
ENDMDL
