MODEL 1
REMARK minimizedAffinity -3.80036664
REMARK minimizedRMSD -1
REMARK  0 active torsions:
REMARK  status: ('A' for Active; 'I' for Inactive)
ROOT
ATOM      1  C4' PXY d   1       0.728   1.884   0.041  0.00  0.00     0.077 C 
ATOM      2  C1' PXY d   1      -0.381  -3.788   0.164  0.00  0.00     0.077 C 
ATOM      3  C1  PXY d   1      -0.103  -2.298   0.133  0.00  0.00    -0.082 A 
ATOM      4  C2  PXY d   1       1.009  -1.852  -0.429  0.00  0.00     0.003 A 
ATOM      5  C3  PXY d   1       1.291  -0.510  -0.438  0.00  0.00     0.003 A 
ATOM      6  C4  PXY d   1       0.401   0.389   0.087  0.00  0.00    -0.082 A 
ATOM      7  C5  PXY d   1      -0.740  -0.058   0.653  0.00  0.00     0.003 A 
ATOM      8  C6  PXY d   1      -0.989  -1.427   0.688  0.00  0.00     0.003 A 
ENDROOT
TORSDOF 0
ENDMDL
