MODEL 1
REMARK minimizedAffinity -1.70480692
REMARK minimizedRMSD -1
REMARK  0 active torsions:
REMARK  status: ('A' for Active; 'I' for Inactive)
ROOT
ATOM      1  C4' PXY d   1       1.722   1.651  -0.184  0.00  0.00     0.077 C 
ATOM      2  C1' PXY d   1      -1.523  -3.048   0.714  0.00  0.00     0.077 C 
ATOM      3  C1  PXY d   1      -0.662  -1.821   0.484  0.00  0.00    -0.082 A 
ATOM      4  C2  PXY d   1      -1.233  -0.634   0.363  0.00  0.00     0.003 A 
ATOM      5  C3  PXY d   1      -0.472   0.481   0.122  0.00  0.00     0.003 A 
ATOM      6  C4  PXY d   1       0.892   0.387   0.058  0.00  0.00    -0.082 A 
ATOM      7  C5  PXY d   1       1.484  -0.819   0.192  0.00  0.00     0.003 A 
ATOM      8  C6  PXY d   1       0.690  -1.945   0.394  0.00  0.00     0.003 A 
ENDROOT
TORSDOF 0
ENDMDL
