MODEL 1
REMARK minimizedAffinity -4.8405776
REMARK minimizedRMSD -1
REMARK  0 active torsions:
REMARK  status: ('A' for Active; 'I' for Inactive)
ROOT
ATOM      1  C4' PXY d   1       1.276  -1.807  -0.429  0.00  0.00     0.077 C 
ATOM      2  C1' PXY d   1      -3.495   0.075   2.239  0.00  0.00     0.077 C 
ATOM      3  C1  PXY d   1      -2.245  -0.430   1.544  0.00  0.00    -0.082 A 
ATOM      4  C2  PXY d   1      -1.303   0.427   1.188  0.00  0.00     0.003 A 
ATOM      5  C3  PXY d   1      -0.182  -0.009   0.530  0.00  0.00     0.003 A 
ATOM      6  C4  PXY d   1       0.002  -1.343   0.283  0.00  0.00    -0.082 A 
ATOM      7  C5  PXY d   1      -0.950  -2.225   0.653  0.00  0.00     0.003 A 
ATOM      8  C6  PXY d   1      -2.100  -1.758   1.283  0.00  0.00     0.003 A 
ENDROOT
TORSDOF 0
ENDMDL
