MODEL 1
REMARK minimizedAffinity -4.67665339
REMARK minimizedRMSD -1
REMARK  0 active torsions:
REMARK  status: ('A' for Active; 'I' for Inactive)
ROOT
ATOM      1  C4' PXY d   1       0.426  -1.903  -2.572  0.00  0.00     0.077 C 
ATOM      2  C1' PXY d   1      -2.286  -0.280   2.268  0.00  0.00     0.077 C 
ATOM      3  C1  PXY d   1      -1.572  -0.717   1.004  0.00  0.00    -0.082 A 
ATOM      4  C2  PXY d   1      -1.048   0.194   0.200  0.00  0.00     0.003 A 
ATOM      5  C3  PXY d   1      -0.427  -0.182  -0.963  0.00  0.00     0.003 A 
ATOM      6  C4  PXY d   1      -0.295  -1.508  -1.280  0.00  0.00    -0.082 A 
ATOM      7  C5  PXY d   1      -0.818  -2.444  -0.460  0.00  0.00     0.003 A 
ATOM      8  C6  PXY d   1      -1.480  -2.039   0.696  0.00  0.00     0.003 A 
ENDROOT
TORSDOF 0
ENDMDL
