MODEL 1
REMARK minimizedAffinity -2.50982666
REMARK minimizedRMSD -1
REMARK  0 active torsions:
REMARK  status: ('A' for Active; 'I' for Inactive)
ROOT
ATOM      1  C4' PXY d   1       1.294  -3.135   0.689  0.00  0.00     0.077 C 
ATOM      2  C1' PXY d   1      -3.290   0.386   0.739  0.00  0.00     0.077 C 
ATOM      3  C1  PXY d   1      -2.083  -0.531   0.716  0.00  0.00    -0.082 A 
ATOM      4  C2  PXY d   1      -2.181  -1.754   1.210  0.00  0.00     0.003 A 
ATOM      5  C3  PXY d   1      -1.091  -2.585   1.226  0.00  0.00     0.003 A 
ATOM      6  C4  PXY d   1       0.098  -2.179   0.683  0.00  0.00    -0.082 A 
ATOM      7  C5  PXY d   1       0.204  -0.936   0.167  0.00  0.00     0.003 A 
ATOM      8  C6  PXY d   1      -0.904  -0.093   0.197  0.00  0.00     0.003 A 
ENDROOT
TORSDOF 0
ENDMDL
