MODEL 1
REMARK minimizedAffinity -2.886554
REMARK minimizedRMSD -1
REMARK  0 active torsions:
REMARK  status: ('A' for Active; 'I' for Inactive)
ROOT
ATOM      1  C4' PXY d   1      -3.259  -2.969   0.967  0.00  0.00     0.077 C 
ATOM      2  C1' PXY d   1       1.788  -0.265   0.170  0.00  0.00     0.077 C 
ATOM      3  C1  PXY d   1       0.468  -0.984   0.371  0.00  0.00    -0.082 A 
ATOM      4  C2  PXY d   1      -0.603  -0.296   0.733  0.00  0.00     0.003 A 
ATOM      5  C3  PXY d   1      -1.797  -0.935   0.950  0.00  0.00     0.003 A 
ATOM      6  C4  PXY d   1      -1.908  -2.284   0.744  0.00  0.00    -0.082 A 
ATOM      7  C5  PXY d   1      -0.823  -2.991   0.364  0.00  0.00     0.003 A 
ATOM      8  C6  PXY d   1       0.390  -2.330   0.189  0.00  0.00     0.003 A 
ENDROOT
TORSDOF 0
ENDMDL
