MODEL 1
REMARK minimizedAffinity -3.48235512
REMARK minimizedRMSD -1
REMARK  0 active torsions:
REMARK  status: ('A' for Active; 'I' for Inactive)
ROOT
ATOM      1  C4' PXY d   1      -2.370  -1.671   2.645  0.00  0.00     0.077 C 
ATOM      2  C1' PXY d   1       1.629  -1.557  -1.528  0.00  0.00     0.077 C 
ATOM      3  C1  PXY d   1       0.581  -1.574  -0.433  0.00  0.00    -0.082 A 
ATOM      4  C2  PXY d   1       0.377  -2.683   0.260  0.00  0.00     0.003 A 
ATOM      5  C3  PXY d   1      -0.588  -2.725   1.233  0.00  0.00     0.003 A 
ATOM      6  C4  PXY d   1      -1.316  -1.606   1.536  0.00  0.00    -0.082 A 
ATOM      7  C5  PXY d   1      -1.106  -0.468   0.841  0.00  0.00     0.003 A 
ATOM      8  C6  PXY d   1      -0.150  -0.457  -0.171  0.00  0.00     0.003 A 
ENDROOT
TORSDOF 0
ENDMDL
