MODEL 1
REMARK minimizedAffinity -5.18599129
REMARK minimizedRMSD -1
REMARK  0 active torsions:
REMARK  status: ('A' for Active; 'I' for Inactive)
ROOT
ATOM      1  C4' PXY d   1       0.508   2.057  -0.157  0.00  0.00     0.077 C 
ATOM      2  C1' PXY d   1       0.028  -3.703  -0.097  0.00  0.00     0.077 C 
ATOM      3  C1  PXY d   1       0.144  -2.192  -0.105  0.00  0.00    -0.082 A 
ATOM      4  C2  PXY d   1       0.768  -1.589  -1.104  0.00  0.00     0.003 A 
ATOM      5  C3  PXY d   1       0.910  -0.225  -1.111  0.00  0.00     0.003 A 
ATOM      6  C4  PXY d   1       0.360   0.534  -0.112  0.00  0.00    -0.082 A 
ATOM      7  C5  PXY d   1      -0.288  -0.073   0.904  0.00  0.00     0.003 A 
ATOM      8  C6  PXY d   1      -0.385  -1.461   0.914  0.00  0.00     0.003 A 
ENDROOT
TORSDOF 0
ENDMDL
