MODEL 1
REMARK minimizedAffinity -3.57905388
REMARK minimizedRMSD -1
REMARK  0 active torsions:
REMARK  status: ('A' for Active; 'I' for Inactive)
ROOT
ATOM      1  C4' PXY d   1       1.550   2.420  -0.168  0.00  0.00     0.077 C 
ATOM      2  C1' PXY d   1      -1.786  -2.183   0.877  0.00  0.00     0.077 C 
ATOM      3  C1  PXY d   1      -0.909  -0.980   0.591  0.00  0.00    -0.082 A 
ATOM      4  C2  PXY d   1      -0.291  -0.369   1.588  0.00  0.00     0.003 A 
ATOM      5  C3  PXY d   1       0.480   0.739   1.351  0.00  0.00     0.003 A 
ATOM      6  C4  PXY d   1       0.663   1.196   0.073  0.00  0.00    -0.082 A 
ATOM      7  C5  PXY d   1       0.044   0.571  -0.951  0.00  0.00     0.003 A 
ATOM      8  C6  PXY d   1      -0.768  -0.528  -0.684  0.00  0.00     0.003 A 
ENDROOT
TORSDOF 0
ENDMDL
