MODEL 1
REMARK minimizedAffinity -2.74831414
REMARK minimizedRMSD -1
REMARK  0 active torsions:
REMARK  status: ('A' for Active; 'I' for Inactive)
ROOT
ATOM      1  C   UNL d   1      -5.380   2.683  -3.371  0.00  0.00     0.023 A 
ATOM      2  C1  UNL d   1      -4.487   3.751  -3.278  0.00  0.00     0.003 A 
ATOM      3  C2  UNL d   1      -3.111   3.516  -3.296  0.00  0.00     0.048 A 
ATOM      4  C3  UNL d   1      -2.634   2.210  -3.408  0.00  0.00     0.023 A 
ATOM      5  C4  UNL d   1      -3.524   1.139  -3.502  0.00  0.00     0.048 A 
ATOM      6  C5  UNL d   1      -4.899   1.379  -3.483  0.00  0.00     0.003 A 
ATOM      7  I   UNL d   1      -0.586   1.857  -3.435  0.00  0.00    -0.146 I 
ENDROOT
TORSDOF 0
ENDMDL
