MODEL 1
REMARK minimizedAffinity 11.4182816
REMARK minimizedRMSD -1
REMARK  0 active torsions:
REMARK  status: ('A' for Active; 'I' for Inactive)
ROOT
ATOM      1  C   UNL d   1       1.666  -1.818   4.062  0.00  0.00     0.023 A 
ATOM      2  C1  UNL d   1       1.979  -1.632   2.715  0.00  0.00     0.003 A 
ATOM      3  C2  UNL d   1       3.006  -2.373   2.127  0.00  0.00     0.048 A 
ATOM      4  C3  UNL d   1       3.716  -3.299   2.891  0.00  0.00     0.023 A 
ATOM      5  C4  UNL d   1       3.406  -3.489   4.238  0.00  0.00     0.048 A 
ATOM      6  C5  UNL d   1       2.379  -2.745   4.822  0.00  0.00     0.003 A 
ATOM      7  I   UNL d   1       5.245  -4.403   2.017  0.00  0.00    -0.146 I 
ENDROOT
TORSDOF 0
ENDMDL
