MODEL 1
REMARK minimizedAffinity 2.12135291
REMARK minimizedRMSD -1
REMARK  0 active torsions:
REMARK  status: ('A' for Active; 'I' for Inactive)
ROOT
ATOM      1  C   UNL d   1       4.451  -1.206  -4.904  0.00  0.00     0.023 A 
ATOM      2  C1  UNL d   1       3.823  -2.077  -4.013  0.00  0.00     0.003 A 
ATOM      3  C2  UNL d   1       4.037  -3.453  -4.114  0.00  0.00     0.048 A 
ATOM      4  C3  UNL d   1       4.880  -3.952  -5.107  0.00  0.00     0.023 A 
ATOM      5  C4  UNL d   1       5.510  -3.083  -5.999  0.00  0.00     0.048 A 
ATOM      6  C5  UNL d   1       5.293  -1.708  -5.896  0.00  0.00     0.003 A 
ATOM      7  I   UNL d   1       5.199  -6.000  -5.258  0.00  0.00    -0.146 I 
ENDROOT
TORSDOF 0
ENDMDL
