MODEL 1
REMARK minimizedAffinity 1.03760183
REMARK minimizedRMSD -1
REMARK  0 active torsions:
REMARK  status: ('A' for Active; 'I' for Inactive)
ROOT
ATOM      1  C   UNL d   1       1.106  -5.142  -1.254  0.00  0.00     0.023 A 
ATOM      2  C1  UNL d   1       1.411  -3.781  -1.251  0.00  0.00     0.003 A 
ATOM      3  C2  UNL d   1       2.342  -3.275  -0.342  0.00  0.00     0.048 A 
ATOM      4  C3  UNL d   1       2.965  -4.135   0.561  0.00  0.00     0.023 A 
ATOM      5  C4  UNL d   1       2.664  -5.498   0.561  0.00  0.00     0.048 A 
ATOM      6  C5  UNL d   1       1.732  -6.000  -0.349  0.00  0.00     0.003 A 
ATOM      7  I   UNL d   1       4.351  -3.384   1.916  0.00  0.00    -0.146 I 
ENDROOT
TORSDOF 0
ENDMDL
