MODEL 1
REMARK minimizedAffinity 6.57760143
REMARK minimizedRMSD -1
REMARK  0 active torsions:
REMARK  status: ('A' for Active; 'I' for Inactive)
ROOT
ATOM      1  C   UNL d   1       3.954  -1.173  -5.240  0.00  0.00     0.023 A 
ATOM      2  C1  UNL d   1       3.131  -1.908  -4.386  0.00  0.00     0.003 A 
ATOM      3  C2  UNL d   1       3.279  -3.293  -4.291  0.00  0.00     0.048 A 
ATOM      4  C3  UNL d   1       4.254  -3.937  -5.052  0.00  0.00     0.023 A 
ATOM      5  C4  UNL d   1       5.080  -3.207  -5.908  0.00  0.00     0.048 A 
ATOM      6  C5  UNL d   1       4.927  -1.822  -6.000  0.00  0.00     0.003 A 
ATOM      7  I   UNL d   1       4.477  -5.999  -4.913  0.00  0.00    -0.146 I 
ENDROOT
TORSDOF 0
ENDMDL
