MODEL 1
REMARK minimizedAffinity 3.40460014
REMARK minimizedRMSD -1
REMARK  0 active torsions:
REMARK  status: ('A' for Active; 'I' for Inactive)
ROOT
ATOM      1  C   UNL d   1      -2.226  -4.817   0.848  0.00  0.00     0.023 A 
ATOM      2  C1  UNL d   1      -2.170  -3.445   0.604  0.00  0.00     0.003 A 
ATOM      3  C2  UNL d   1      -1.231  -2.932  -0.293  0.00  0.00     0.048 A 
ATOM      4  C3  UNL d   1      -0.352  -3.797  -0.944  0.00  0.00     0.023 A 
ATOM      5  C4  UNL d   1      -0.405  -5.171  -0.703  0.00  0.00     0.048 A 
ATOM      6  C5  UNL d   1      -1.345  -5.679   0.196  0.00  0.00     0.003 A 
ATOM      7  I   UNL d   1       1.047  -3.036  -2.280  0.00  0.00    -0.146 I 
ENDROOT
TORSDOF 0
ENDMDL
