MODEL 1
REMARK minimizedAffinity -0.815536082
REMARK minimizedRMSD -1
REMARK  0 active torsions:
REMARK  status: ('A' for Active; 'I' for Inactive)
ROOT
ATOM      1  C   UNL d   1       4.140   5.779  -1.424  0.00  0.00     0.023 A 
ATOM      2  C1  UNL d   1       5.445   5.992  -1.866  0.00  0.00     0.003 A 
ATOM      3  C2  UNL d   1       5.981   5.190  -2.877  0.00  0.00     0.048 A 
ATOM      4  C3  UNL d   1       5.205   4.178  -3.441  0.00  0.00     0.023 A 
ATOM      5  C4  UNL d   1       3.898   3.962  -3.001  0.00  0.00     0.048 A 
ATOM      6  C5  UNL d   1       3.367   4.765  -1.990  0.00  0.00     0.003 A 
ATOM      7  I   UNL d   1       6.000   2.984  -4.945  0.00  0.00    -0.146 I 
ENDROOT
TORSDOF 0
ENDMDL
