MODEL 1
REMARK minimizedAffinity -1.66286731
REMARK minimizedRMSD -1
REMARK  0 active torsions:
REMARK  status: ('A' for Active; 'I' for Inactive)
ROOT
ATOM      1  C   UNL d   1       5.940  -0.399  -4.792  0.00  0.00     0.023 A 
ATOM      2  C1  UNL d   1       5.908  -1.100  -5.998  0.00  0.00     0.003 A 
ATOM      3  C2  UNL d   1       5.923  -2.496  -5.996  0.00  0.00     0.048 A 
ATOM      4  C3  UNL d   1       5.968  -3.185  -4.784  0.00  0.00     0.023 A 
ATOM      5  C4  UNL d   1       5.999  -2.488  -3.576  0.00  0.00     0.048 A 
ATOM      6  C5  UNL d   1       5.985  -1.092  -3.583  0.00  0.00     0.003 A 
ATOM      7  I   UNL d   1       5.989  -5.263  -4.779  0.00  0.00    -0.146 I 
ENDROOT
TORSDOF 0
ENDMDL
