MODEL 1
REMARK minimizedAffinity 3.76474738
REMARK minimizedRMSD -1
REMARK  2 active torsions:
REMARK  status: ('A' for Active; 'I' for Inactive)
REMARK    1  A    between atoms: C1_2  and  C2_3 
REMARK    2  A    between atoms: C2_3  and  C3_4 
ROOT
ATOM      1  C3  UNL d   1       5.997   0.360  -3.523  0.00  0.00    -0.075 A 
ATOM      2  C4  UNL d   1       5.999   1.081  -4.726  0.00  0.00     0.002 A 
ATOM      3  C5  UNL d   1       5.980   0.415  -5.952  0.00  0.00     0.002 A 
ATOM      4  C6  UNL d   1       5.969  -0.978  -5.991  0.00  0.00    -0.004 A 
ATOM      5  C7  UNL d   1       5.983  -1.704  -4.802  0.00  0.00     0.002 A 
ATOM      6  C8  UNL d   1       5.997  -1.040  -3.575  0.00  0.00     0.002 A 
ENDROOT
BRANCH   1   7
ATOM      7  C2  UNL d   1       5.987   1.075  -2.194  0.00  0.00     0.056 C 
BRANCH   7   8
ATOM      8  C1  UNL d   1       5.935   2.603  -2.307  0.00  0.00     0.007 C 
ATOM      9  C   UNL d   1       5.523   3.287  -1.011  0.00  0.00     0.009 C 
ENDBRANCH   7   8
ENDBRANCH   1   7
TORSDOF 2
ENDMDL
