MODEL 1
REMARK minimizedAffinity 4.90344191
REMARK minimizedRMSD -1
REMARK  2 active torsions:
REMARK  status: ('A' for Active; 'I' for Inactive)
REMARK    1  A    between atoms: C1_2  and  C2_3 
REMARK    2  A    between atoms: C2_3  and  C3_4 
ROOT
ATOM      1  C3  UNL d   1       5.407  -0.006  -4.673  0.00  0.00    -0.075 A 
ATOM      2  C4  UNL d   1       4.263   0.793  -4.812  0.00  0.00     0.002 A 
ATOM      3  C5  UNL d   1       3.738   1.476  -3.714  0.00  0.00     0.002 A 
ATOM      4  C6  UNL d   1       4.342   1.360  -2.464  0.00  0.00    -0.004 A 
ATOM      5  C7  UNL d   1       5.469   0.556  -2.311  0.00  0.00     0.002 A 
ATOM      6  C8  UNL d   1       5.999  -0.125  -3.408  0.00  0.00     0.002 A 
ENDROOT
BRANCH   1   7
ATOM      7  C2  UNL d   1       5.998  -0.723  -5.863  0.00  0.00     0.056 C 
BRANCH   7   8
ATOM      8  C1  UNL d   1       5.806  -2.243  -5.833  0.00  0.00     0.007 C 
ATOM      9  C   UNL d   1       4.353  -2.669  -5.996  0.00  0.00     0.009 C 
ENDBRANCH   7   8
ENDBRANCH   1   7
TORSDOF 2
ENDMDL
