MODEL 1
REMARK minimizedAffinity 9.46236706
REMARK minimizedRMSD -1
REMARK  2 active torsions:
REMARK  status: ('A' for Active; 'I' for Inactive)
REMARK    1  A    between atoms: C1_2  and  C2_3 
REMARK    2  A    between atoms: C2_3  and  C3_4 
ROOT
ATOM      1  C3  UNL d   1       1.089  -0.816  -2.029  0.00  0.00    -0.075 A 
ATOM      2  C4  UNL d   1       1.292  -0.225  -3.285  0.00  0.00     0.002 A 
ATOM      3  C5  UNL d   1       1.539  -1.015  -4.408  0.00  0.00     0.002 A 
ATOM      4  C6  UNL d   1       1.597  -2.402  -4.289  0.00  0.00    -0.004 A 
ATOM      5  C7  UNL d   1       1.413  -2.999  -3.044  0.00  0.00     0.002 A 
ATOM      6  C8  UNL d   1       1.161  -2.211  -1.919  0.00  0.00     0.002 A 
ENDROOT
BRANCH   1   7
ATOM      7  C2  UNL d   1       0.792   0.031  -0.815  0.00  0.00     0.056 C 
BRANCH   7   8
ATOM      8  C1  UNL d   1       0.455   1.490  -1.140  0.00  0.00     0.007 C 
ATOM      9  C   UNL d   1       1.267   2.489  -0.326  0.00  0.00     0.009 C 
ENDBRANCH   7   8
ENDBRANCH   1   7
TORSDOF 2
ENDMDL
