MODEL 1
REMARK minimizedAffinity 2.19929862
REMARK minimizedRMSD -1
REMARK  2 active torsions:
REMARK  status: ('A' for Active; 'I' for Inactive)
REMARK    1  A    between atoms: C1_2  and  C2_3 
REMARK    2  A    between atoms: C2_3  and  C3_4 
ROOT
ATOM      1  C3  UNL d   1       0.980   0.111  -1.837  0.00  0.00    -0.075 A 
ATOM      2  C4  UNL d   1       0.851  -1.285  -1.813  0.00  0.00     0.002 A 
ATOM      3  C5  UNL d   1       0.748  -2.007  -3.003  0.00  0.00     0.002 A 
ATOM      4  C6  UNL d   1       0.762  -1.343  -4.227  0.00  0.00    -0.004 A 
ATOM      5  C7  UNL d   1       0.873   0.045  -4.262  0.00  0.00     0.002 A 
ATOM      6  C8  UNL d   1       0.981   0.770  -3.073  0.00  0.00     0.002 A 
ENDROOT
BRANCH   1   7
ATOM      7  C2  UNL d   1       1.122   0.896  -0.554  0.00  0.00     0.056 C 
BRANCH   7   8
ATOM      8  C1  UNL d   1       2.190   0.346   0.398  0.00  0.00     0.007 C 
ATOM      9  C   UNL d   1       2.879   1.430   1.217  0.00  0.00     0.009 C 
ENDBRANCH   7   8
ENDBRANCH   1   7
TORSDOF 2
ENDMDL
