MODEL 1
REMARK minimizedAffinity 3.26563048
REMARK minimizedRMSD -1
REMARK  2 active torsions:
REMARK  status: ('A' for Active; 'I' for Inactive)
REMARK    1  A    between atoms: C1_2  and  C2_3 
REMARK    2  A    between atoms: C2_3  and  C3_4 
ROOT
ATOM      1  C3  UNL d   1       1.928  -0.633  -3.792  0.00  0.00    -0.075 A 
ATOM      2  C4  UNL d   1       1.399   0.161  -2.764  0.00  0.00     0.002 A 
ATOM      3  C5  UNL d   1       0.677  -0.420  -1.721  0.00  0.00     0.002 A 
ATOM      4  C6  UNL d   1       0.466  -1.796  -1.698  0.00  0.00    -0.004 A 
ATOM      5  C7  UNL d   1       0.972  -2.593  -2.723  0.00  0.00     0.002 A 
ATOM      6  C8  UNL d   1       1.699  -2.015  -3.765  0.00  0.00     0.002 A 
ENDROOT
BRANCH   1   7
ATOM      7  C2  UNL d   1       2.736  -0.014  -4.908  0.00  0.00     0.056 C 
BRANCH   7   8
ATOM      8  C1  UNL d   1       4.195   0.273  -4.537  0.00  0.00     0.007 C 
ATOM      9  C   UNL d   1       5.042   0.709  -5.725  0.00  0.00     0.009 C 
ENDBRANCH   7   8
ENDBRANCH   1   7
TORSDOF 2
ENDMDL
