MODEL 1
REMARK minimizedAffinity -1.00646567
REMARK minimizedRMSD -1
REMARK  2 active torsions:
REMARK  status: ('A' for Active; 'I' for Inactive)
REMARK    1  A    between atoms: C1_2  and  C2_3 
REMARK    2  A    between atoms: C2_3  and  C3_4 
ROOT
ATOM      1  C3  UNL d   1       3.354   0.336  -4.192  0.00  0.00    -0.075 A 
ATOM      2  C4  UNL d   1       3.677   0.551  -5.539  0.00  0.00     0.002 A 
ATOM      3  C5  UNL d   1       4.991   0.406  -5.985  0.00  0.00     0.002 A 
ATOM      4  C6  UNL d   1       5.999   0.056  -5.089  0.00  0.00    -0.004 A 
ATOM      5  C7  UNL d   1       5.693  -0.144  -3.745  0.00  0.00     0.002 A 
ATOM      6  C8  UNL d   1       4.378  -0.004  -3.297  0.00  0.00     0.002 A 
ENDROOT
BRANCH   1   7
ATOM      7  C2  UNL d   1       1.929   0.462  -3.709  0.00  0.00     0.056 C 
BRANCH   7   8
ATOM      8  C1  UNL d   1       1.726   0.046  -2.248  0.00  0.00     0.007 C 
ATOM      9  C   UNL d   1       0.754   0.946  -1.497  0.00  0.00     0.009 C 
ENDBRANCH   7   8
ENDBRANCH   1   7
TORSDOF 2
ENDMDL
