MODEL 1
REMARK minimizedAffinity -0.461531699
REMARK minimizedRMSD -1
REMARK  2 active torsions:
REMARK  status: ('A' for Active; 'I' for Inactive)
REMARK    1  A    between atoms: C1_2  and  C2_3 
REMARK    2  A    between atoms: C2_3  and  C3_4 
ROOT
ATOM      1  C3  UNL d   1      -3.767   3.338   5.413  0.00  0.00    -0.075 A 
ATOM      2  C4  UNL d   1      -4.547   4.357   5.979  0.00  0.00     0.002 A 
ATOM      3  C5  UNL d   1      -4.491   5.656   5.473  0.00  0.00     0.002 A 
ATOM      4  C6  UNL d   1      -3.649   5.954   4.403  0.00  0.00    -0.004 A 
ATOM      5  C7  UNL d   1      -2.858   4.953   3.844  0.00  0.00     0.002 A 
ATOM      6  C8  UNL d   1      -2.915   3.652   4.346  0.00  0.00     0.002 A 
ENDROOT
BRANCH   1   7
ATOM      7  C2  UNL d   1      -3.845   1.924   5.937  0.00  0.00     0.056 C 
BRANCH   7   8
ATOM      8  C1  UNL d   1      -3.153   0.889   5.045  0.00  0.00     0.007 C 
ATOM      9  C   UNL d   1      -3.892  -0.441   4.983  0.00  0.00     0.009 C 
ENDBRANCH   7   8
ENDBRANCH   1   7
TORSDOF 2
ENDMDL
