MODEL 1
REMARK minimizedAffinity 5.0611887
REMARK minimizedRMSD -1
REMARK  2 active torsions:
REMARK  status: ('A' for Active; 'I' for Inactive)
REMARK    1  A    between atoms: C1_2  and  C2_3 
REMARK    2  A    between atoms: C2_3  and  C3_4 
ROOT
ATOM      1  C3  UNL d   1       0.804  -0.962  -1.377  0.00  0.00    -0.075 A 
ATOM      2  C4  UNL d   1       0.827   0.227  -2.120  0.00  0.00     0.002 A 
ATOM      3  C5  UNL d   1       1.069   0.199  -3.494  0.00  0.00     0.002 A 
ATOM      4  C6  UNL d   1       1.300  -1.015  -4.139  0.00  0.00    -0.004 A 
ATOM      5  C7  UNL d   1       1.295  -2.200  -3.407  0.00  0.00     0.002 A 
ATOM      6  C8  UNL d   1       1.050  -2.175  -2.033  0.00  0.00     0.002 A 
ENDROOT
BRANCH   1   7
ATOM      7  C2  UNL d   1       0.514  -0.941   0.105  0.00  0.00     0.056 C 
BRANCH   7   8
ATOM      8  C1  UNL d   1      -0.869  -1.484   0.478  0.00  0.00     0.007 C 
ATOM      9  C   UNL d   1      -0.816  -2.848   1.154  0.00  0.00     0.009 C 
ENDBRANCH   7   8
ENDBRANCH   1   7
TORSDOF 2
ENDMDL
