MODEL 1
REMARK minimizedAffinity 3.94644833
REMARK minimizedRMSD -1
REMARK  2 active torsions:
REMARK  status: ('A' for Active; 'I' for Inactive)
REMARK    1  A    between atoms: C1_2  and  C2_3 
REMARK    2  A    between atoms: C2_3  and  C3_4 
ROOT
ATOM      1  C3  UNL d   1       2.253  -0.711  -4.133  0.00  0.00    -0.075 A 
ATOM      2  C4  UNL d   1       1.539  -1.881  -4.429  0.00  0.00     0.002 A 
ATOM      3  C5  UNL d   1       0.815  -2.540  -3.434  0.00  0.00     0.002 A 
ATOM      4  C6  UNL d   1       0.805  -2.044  -2.132  0.00  0.00    -0.004 A 
ATOM      5  C7  UNL d   1       1.524  -0.892  -1.823  0.00  0.00     0.002 A 
ATOM      6  C8  UNL d   1       2.246  -0.228  -2.817  0.00  0.00     0.002 A 
ENDROOT
BRANCH   1   7
ATOM      7  C2  UNL d   1       3.014   0.024  -5.211  0.00  0.00     0.056 C 
BRANCH   7   8
ATOM      8  C1  UNL d   1       4.444   0.408  -4.814  0.00  0.00     0.007 C 
ATOM      9  C   UNL d   1       5.398   0.474  -5.998  0.00  0.00     0.009 C 
ENDBRANCH   7   8
ENDBRANCH   1   7
TORSDOF 2
ENDMDL
