MODEL 1
REMARK minimizedAffinity 2.09614015
REMARK minimizedRMSD -1
REMARK  2 active torsions:
REMARK  status: ('A' for Active; 'I' for Inactive)
REMARK    1  A    between atoms: C1_2  and  C2_3 
REMARK    2  A    between atoms: C2_3  and  C3_4 
ROOT
ATOM      1  C3  UNL d   1      -3.750   1.691   5.418  0.00  0.00    -0.075 A 
ATOM      2  C4  UNL d   1      -2.971   1.411   4.285  0.00  0.00     0.002 A 
ATOM      3  C5  UNL d   1      -2.955   0.128   3.736  0.00  0.00     0.002 A 
ATOM      4  C6  UNL d   1      -3.708  -0.891   4.316  0.00  0.00    -0.004 A 
ATOM      5  C7  UNL d   1      -4.472  -0.628   5.451  0.00  0.00     0.002 A 
ATOM      6  C8  UNL d   1      -4.494   0.656   6.000  0.00  0.00     0.002 A 
ENDROOT
BRANCH   1   7
ATOM      7  C2  UNL d   1      -3.795   3.084   5.999  0.00  0.00     0.056 C 
BRANCH   7   8
ATOM      8  C1  UNL d   1      -3.455   4.190   4.995  0.00  0.00     0.007 C 
ATOM      9  C   UNL d   1      -3.729   5.590   5.529  0.00  0.00     0.009 C 
ENDBRANCH   7   8
ENDBRANCH   1   7
TORSDOF 2
ENDMDL
