MODEL 1
REMARK minimizedAffinity -2.44066286
REMARK minimizedRMSD -1
REMARK  2 active torsions:
REMARK  status: ('A' for Active; 'I' for Inactive)
REMARK    1  A    between atoms: C1_2  and  C2_3 
REMARK    2  A    between atoms: C2_3  and  C3_4 
ROOT
ATOM      1  C3  UNL d   1       2.248   0.668  -3.495  0.00  0.00    -0.075 A 
ATOM      2  C4  UNL d   1       1.286   1.637  -3.179  0.00  0.00     0.002 A 
ATOM      3  C5  UNL d   1       0.429   1.457  -2.093  0.00  0.00     0.002 A 
ATOM      4  C6  UNL d   1       0.515   0.303  -1.317  0.00  0.00    -0.004 A 
ATOM      5  C7  UNL d   1       1.457  -0.674  -1.632  0.00  0.00     0.002 A 
ATOM      6  C8  UNL d   1       2.319  -0.495  -2.715  0.00  0.00     0.002 A 
ENDROOT
BRANCH   1   7
ATOM      7  C2  UNL d   1       3.199   0.870  -4.651  0.00  0.00     0.056 C 
BRANCH   7   8
ATOM      8  C1  UNL d   1       4.677   0.879  -4.248  0.00  0.00     0.007 C 
ATOM      9  C   UNL d   1       5.613   1.191  -5.409  0.00  0.00     0.009 C 
ENDBRANCH   7   8
ENDBRANCH   1   7
TORSDOF 2
ENDMDL
