MODEL 1
REMARK minimizedAffinity -1.18010557
REMARK minimizedRMSD -1
REMARK  2 active torsions:
REMARK  status: ('A' for Active; 'I' for Inactive)
REMARK    1  A    between atoms: C1_2  and  C2_3 
REMARK    2  A    between atoms: C2_3  and  C3_4 
ROOT
ATOM      1  C3  UNL d   1       3.842   2.852  -5.614  0.00  0.00    -0.075 A 
ATOM      2  C4  UNL d   1       4.928   3.344  -4.877  0.00  0.00     0.002 A 
ATOM      3  C5  UNL d   1       6.000   2.511  -4.553  0.00  0.00     0.002 A 
ATOM      4  C6  UNL d   1       5.994   1.177  -4.951  0.00  0.00    -0.004 A 
ATOM      5  C7  UNL d   1       4.912   0.672  -5.669  0.00  0.00     0.002 A 
ATOM      6  C8  UNL d   1       3.840   1.504  -5.999  0.00  0.00     0.002 A 
ENDROOT
BRANCH   1   7
ATOM      7  C2  UNL d   1       2.693   3.755  -5.993  0.00  0.00     0.056 C 
BRANCH   7   8
ATOM      8  C1  UNL d   1       1.433   3.551  -5.145  0.00  0.00     0.007 C 
ATOM      9  C   UNL d   1       1.490   2.303  -4.274  0.00  0.00     0.009 C 
ENDBRANCH   7   8
ENDBRANCH   1   7
TORSDOF 2
ENDMDL
