MODEL 1
REMARK minimizedAffinity 0.580461502
REMARK minimizedRMSD -1
REMARK  2 active torsions:
REMARK  status: ('A' for Active; 'I' for Inactive)
REMARK    1  A    between atoms: C1_2  and  C2_3 
REMARK    2  A    between atoms: C2_3  and  C3_4 
ROOT
ATOM      1  C3  UNL d   1       1.030   1.417  -2.753  0.00  0.00    -0.075 A 
ATOM      2  C4  UNL d   1       1.359   0.271  -3.491  0.00  0.00     0.002 A 
ATOM      3  C5  UNL d   1       1.312  -0.991  -2.898  0.00  0.00     0.002 A 
ATOM      4  C6  UNL d   1       0.946  -1.122  -1.560  0.00  0.00    -0.004 A 
ATOM      5  C7  UNL d   1       0.633   0.011  -0.813  0.00  0.00     0.002 A 
ATOM      6  C8  UNL d   1       0.675   1.275  -1.405  0.00  0.00     0.002 A 
ENDROOT
BRANCH   1   7
ATOM      7  C2  UNL d   1       1.050   2.783  -3.397  0.00  0.00     0.056 C 
BRANCH   7   8
ATOM      8  C1  UNL d   1       1.973   2.883  -4.617  0.00  0.00     0.007 C 
ATOM      9  C   UNL d   1       1.769   4.161  -5.420  0.00  0.00     0.009 C 
ENDBRANCH   7   8
ENDBRANCH   1   7
TORSDOF 2
ENDMDL
