MODEL 1
REMARK minimizedAffinity 6.13102341
REMARK minimizedRMSD -1
REMARK  0 active torsions:
REMARK  status: ('A' for Active; 'I' for Inactive)
ROOT
ATOM      1  C   UNL d   1      -0.678   1.541   1.597  0.00  0.00     0.020 A 
ATOM      2  C1  UNL d   1      -0.915   2.828   2.076  0.00  0.00     0.020 A 
ATOM      3  C2  UNL d   1      -2.003   3.070   2.918  0.00  0.00     0.034 A 
ATOM      4  C3  UNL d   1      -2.857   2.024   3.283  0.00  0.00     0.017 A 
ATOM      5  C4  UNL d   1      -2.618   0.731   2.801  0.00  0.00     0.017 A 
ATOM      6  C5  UNL d   1      -1.527   0.495   1.959  0.00  0.00     0.034 A 
ATOM      7 Cl   UNL d   1      -3.628  -0.611   3.207  0.00  0.00    -0.070 Cl
ATOM      8 Cl1  UNL d   1      -4.183   2.395   4.327  0.00  0.00    -0.070 Cl
ENDROOT
TORSDOF 0
ENDMDL
