MODEL 1
REMARK minimizedAffinity -5.35736513
REMARK minimizedRMSD -1
REMARK  0 active torsions:
REMARK  status: ('A' for Active; 'I' for Inactive)
ROOT
ATOM      1  C   UNL d   1      -2.596   1.645   3.121  0.00  0.00     0.020 A 
ATOM      2  C1  UNL d   1      -3.265   0.428   3.001  0.00  0.00     0.020 A 
ATOM      3  C2  UNL d   1      -2.710  -0.601   2.235  0.00  0.00     0.034 A 
ATOM      4  C3  UNL d   1      -1.485  -0.413   1.587  0.00  0.00     0.017 A 
ATOM      5  C4  UNL d   1      -0.814   0.810   1.708  0.00  0.00     0.017 A 
ATOM      6  C5  UNL d   1      -1.374   1.836   2.475  0.00  0.00     0.034 A 
ATOM      7 Cl   UNL d   1       0.702   1.116   0.937  0.00  0.00    -0.070 Cl
ATOM      8 Cl1  UNL d   1      -0.858  -1.728   0.657  0.00  0.00    -0.070 Cl
ENDROOT
TORSDOF 0
ENDMDL
