MODEL 1
REMARK minimizedAffinity -0.885616958
REMARK minimizedRMSD -1
REMARK  0 active torsions:
REMARK  status: ('A' for Active; 'I' for Inactive)
ROOT
ATOM      1  C   UNL d   1      -3.301   0.631   2.939  0.00  0.00     0.020 A 
ATOM      2  C1  UNL d   1      -2.744   1.781   2.379  0.00  0.00     0.020 A 
ATOM      3  C2  UNL d   1      -1.432   1.759   1.901  0.00  0.00     0.034 A 
ATOM      4  C3  UNL d   1      -0.673   0.585   1.981  0.00  0.00     0.017 A 
ATOM      5  C4  UNL d   1      -1.233  -0.568   2.542  0.00  0.00     0.017 A 
ATOM      6  C5  UNL d   1      -2.547  -0.540   3.020  0.00  0.00     0.034 A 
ATOM      7 Cl   UNL d   1      -0.359  -2.053   2.675  0.00  0.00    -0.070 Cl
ATOM      8 Cl1  UNL d   1       0.942   0.630   1.369  0.00  0.00    -0.070 Cl
ENDROOT
TORSDOF 0
ENDMDL
