MODEL 1
REMARK minimizedAffinity -2.1986959
REMARK minimizedRMSD -1
REMARK  0 active torsions:
REMARK  status: ('A' for Active; 'I' for Inactive)
ROOT
ATOM      1  C   UNL d   1       0.441   0.068   0.834  0.00  0.00     0.020 A 
ATOM      2  C1  UNL d   1       0.490   1.461   0.864  0.00  0.00     0.020 A 
ATOM      3  C2  UNL d   1      -0.513   2.181   1.516  0.00  0.00     0.034 A 
ATOM      4  C3  UNL d   1      -1.569   1.509   2.142  0.00  0.00     0.017 A 
ATOM      5  C4  UNL d   1      -1.617   0.110   2.112  0.00  0.00     0.017 A 
ATOM      6  C5  UNL d   1      -0.610  -0.606   1.457  0.00  0.00     0.034 A 
ATOM      7 Cl   UNL d   1      -2.888  -0.789   2.862  0.00  0.00    -0.070 Cl
ATOM      8 Cl1  UNL d   1      -2.774   2.463   2.931  0.00  0.00    -0.070 Cl
ENDROOT
TORSDOF 0
ENDMDL
