MODEL 1
REMARK minimizedAffinity 0.0666277409
REMARK minimizedRMSD -1
REMARK  0 active torsions:
REMARK  status: ('A' for Active; 'I' for Inactive)
ROOT
ATOM      1  C   UNL d   1       0.709  -0.425   1.336  0.00  0.00     0.020 A 
ATOM      2  C1  UNL d   1       1.034   0.850   0.874  0.00  0.00     0.020 A 
ATOM      3  C2  UNL d   1       0.106   1.888   0.976  0.00  0.00     0.034 A 
ATOM      4  C3  UNL d   1      -1.153   1.653   1.541  0.00  0.00     0.017 A 
ATOM      5  C4  UNL d   1      -1.479   0.373   2.005  0.00  0.00     0.017 A 
ATOM      6  C5  UNL d   1      -0.545  -0.662   1.901  0.00  0.00     0.034 A 
ATOM      7 Cl   UNL d   1      -3.012   0.007   2.715  0.00  0.00    -0.070 Cl
ATOM      8 Cl1  UNL d   1      -2.252   2.983   1.636  0.00  0.00    -0.070 Cl
ENDROOT
TORSDOF 0
ENDMDL
