MODEL 1
REMARK minimizedAffinity 0.666824937
REMARK minimizedRMSD -1
REMARK  0 active torsions:
REMARK  status: ('A' for Active; 'I' for Inactive)
ROOT
ATOM      1  C   UNL d   1       0.431   1.890   0.826  0.00  0.00     0.020 A 
ATOM      2  C1  UNL d   1       0.665   0.525   0.669  0.00  0.00     0.020 A 
ATOM      3  C2  UNL d   1      -0.144  -0.403   1.330  0.00  0.00     0.034 A 
ATOM      4  C3  UNL d   1      -1.190   0.034   2.150  0.00  0.00     0.017 A 
ATOM      5  C4  UNL d   1      -1.425   1.405   2.306  0.00  0.00     0.017 A 
ATOM      6  C5  UNL d   1      -0.612   2.329   1.642  0.00  0.00     0.034 A 
ATOM      7 Cl   UNL d   1      -2.697   2.021   3.301  0.00  0.00    -0.070 Cl
ATOM      8 Cl1  UNL d   1      -2.151  -1.168   2.936  0.00  0.00    -0.070 Cl
ENDROOT
TORSDOF 0
ENDMDL
