MODEL 1
REMARK minimizedAffinity 0.371109843
REMARK minimizedRMSD -1
REMARK  0 active torsions:
REMARK  status: ('A' for Active; 'I' for Inactive)
ROOT
ATOM      1  C   UNL d   1       0.008   2.548   1.858  0.00  0.00     0.020 A 
ATOM      2  C1  UNL d   1       0.199   1.266   1.343  0.00  0.00     0.020 A 
ATOM      3  C2  UNL d   1      -0.777   0.285   1.532  0.00  0.00     0.034 A 
ATOM      4  C3  UNL d   1      -1.947   0.584   2.239  0.00  0.00     0.017 A 
ATOM      5  C4  UNL d   1      -2.138   1.870   2.756  0.00  0.00     0.017 A 
ATOM      6  C5  UNL d   1      -1.158   2.849   2.564  0.00  0.00     0.034 A 
ATOM      7 Cl   UNL d   1      -3.556   2.313   3.639  0.00  0.00    -0.070 Cl
ATOM      8 Cl1  UNL d   1      -3.111  -0.678   2.436  0.00  0.00    -0.070 Cl
ENDROOT
TORSDOF 0
ENDMDL
