MODEL 1
REMARK minimizedAffinity -4.25100279
REMARK minimizedRMSD -1
REMARK  0 active torsions:
REMARK  status: ('A' for Active; 'I' for Inactive)
ROOT
ATOM      1  C   UNL d   1       0.023   2.096   1.008  0.00  0.00     0.020 A 
ATOM      2  C1  UNL d   1      -0.679   3.200   1.490  0.00  0.00     0.020 A 
ATOM      3  C2  UNL d   1      -1.752   3.018   2.365  0.00  0.00     0.034 A 
ATOM      4  C3  UNL d   1      -2.127   1.729   2.760  0.00  0.00     0.017 A 
ATOM      5  C4  UNL d   1      -1.422   0.621   2.276  0.00  0.00     0.017 A 
ATOM      6  C5  UNL d   1      -0.348   0.809   1.400  0.00  0.00     0.034 A 
ATOM      7 Cl   UNL d   1      -1.825  -1.001   2.719  0.00  0.00    -0.070 Cl
ATOM      8 Cl1  UNL d   1      -3.463   1.578   3.845  0.00  0.00    -0.070 Cl
ENDROOT
TORSDOF 0
ENDMDL
