MODEL 1
REMARK minimizedAffinity -1.08274305
REMARK minimizedRMSD -1
REMARK  0 active torsions:
REMARK  status: ('A' for Active; 'I' for Inactive)
ROOT
ATOM      1  C   UNL d   1      -0.844   1.965   1.696  0.00  0.00     0.020 A 
ATOM      2  C1  UNL d   1      -0.031   2.303   0.615  0.00  0.00     0.020 A 
ATOM      3  C2  UNL d   1       1.109   1.547   0.336  0.00  0.00     0.034 A 
ATOM      4  C3  UNL d   1       1.440   0.449   1.139  0.00  0.00     0.017 A 
ATOM      5  C4  UNL d   1       0.624   0.111   2.224  0.00  0.00     0.017 A 
ATOM      6  C5  UNL d   1      -0.517   0.872   2.499  0.00  0.00     0.034 A 
ATOM      7 Cl   UNL d   1       0.967  -1.229   3.261  0.00  0.00    -0.070 Cl
ATOM      8 Cl1  UNL d   1       2.865  -0.441   0.735  0.00  0.00    -0.070 Cl
ENDROOT
TORSDOF 0
ENDMDL
