MODEL 1
REMARK minimizedAffinity 2.22816706
REMARK minimizedRMSD -1
REMARK  0 active torsions:
REMARK  status: ('A' for Active; 'I' for Inactive)
ROOT
ATOM      1  C   UNL d   1       1.032   1.399   0.831  0.00  0.00     0.020 A 
ATOM      2  C1  UNL d   1       0.968   0.010   0.721  0.00  0.00     0.020 A 
ATOM      3  C2  UNL d   1      -0.060  -0.693   1.354  0.00  0.00     0.034 A 
ATOM      4  C3  UNL d   1      -1.026  -0.008   2.099  0.00  0.00     0.017 A 
ATOM      5  C4  UNL d   1      -0.961   1.386   2.208  0.00  0.00     0.017 A 
ATOM      6  C5  UNL d   1       0.070   2.085   1.573  0.00  0.00     0.034 A 
ATOM      7 Cl   UNL d   1      -2.117   2.300   3.110  0.00  0.00    -0.070 Cl
ATOM      8 Cl1  UNL d   1      -2.269  -0.942   2.854  0.00  0.00    -0.070 Cl
ENDROOT
TORSDOF 0
ENDMDL
