MODEL 1
REMARK minimizedAffinity -0.410540223
REMARK minimizedRMSD -1
REMARK  0 active torsions:
REMARK  status: ('A' for Active; 'I' for Inactive)
ROOT
ATOM      1  C   UNL d   1       0.516   0.341   0.880  0.00  0.00     0.020 A 
ATOM      2  C1  UNL d   1       0.588   1.698   1.196  0.00  0.00     0.020 A 
ATOM      3  C2  UNL d   1      -0.447   2.304   1.911  0.00  0.00     0.034 A 
ATOM      4  C3  UNL d   1      -1.559   1.555   2.311  0.00  0.00     0.017 A 
ATOM      5  C4  UNL d   1      -1.631   0.194   1.994  0.00  0.00     0.017 A 
ATOM      6  C5  UNL d   1      -0.591  -0.409   1.279  0.00  0.00     0.034 A 
ATOM      7 Cl   UNL d   1      -2.971  -0.796   2.455  0.00  0.00    -0.070 Cl
ATOM      8 Cl1  UNL d   1      -2.802   2.370   3.192  0.00  0.00    -0.070 Cl
ENDROOT
TORSDOF 0
ENDMDL
