MODEL 1
REMARK minimizedAffinity 4.52757311
REMARK minimizedRMSD -1
REMARK  0 active torsions:
REMARK  status: ('A' for Active; 'I' for Inactive)
ROOT
ATOM      1  C   UNL d   1       0.885   1.505   0.874  0.00  0.00     0.020 A 
ATOM      2  C1  UNL d   1       0.548   2.812   1.226  0.00  0.00     0.020 A 
ATOM      3  C2  UNL d   1      -0.648   3.066   1.901  0.00  0.00     0.034 A 
ATOM      4  C3  UNL d   1      -1.510   2.013   2.227  0.00  0.00     0.017 A 
ATOM      5  C4  UNL d   1      -1.170   0.702   1.874  0.00  0.00     0.017 A 
ATOM      6  C5  UNL d   1       0.028   0.453   1.198  0.00  0.00     0.034 A 
ATOM      7 Cl   UNL d   1      -2.183  -0.650   2.242  0.00  0.00    -0.070 Cl
ATOM      8 Cl1  UNL d   1      -2.971   2.400   3.064  0.00  0.00    -0.070 Cl
ENDROOT
TORSDOF 0
ENDMDL
