MODEL 1
REMARK minimizedAffinity -0.116845906
REMARK minimizedRMSD -1
REMARK  0 active torsions:
REMARK  status: ('A' for Active; 'I' for Inactive)
ROOT
ATOM      1  C   UNL d   1      -2.452   1.904   3.070  0.00  0.00     0.020 A 
ATOM      2  C1  UNL d   1      -1.699   2.897   2.445  0.00  0.00     0.020 A 
ATOM      3  C2  UNL d   1      -0.642   2.546   1.603  0.00  0.00     0.034 A 
ATOM      4  C3  UNL d   1      -0.334   1.199   1.384  0.00  0.00     0.017 A 
ATOM      5  C4  UNL d   1      -1.091   0.202   2.011  0.00  0.00     0.017 A 
ATOM      6  C5  UNL d   1      -2.148   0.559   2.853  0.00  0.00     0.034 A 
ATOM      7 Cl   UNL d   1      -0.771  -1.482   1.789  0.00  0.00    -0.070 Cl
ATOM      8 Cl1  UNL d   1       0.986   0.837   0.330  0.00  0.00    -0.070 Cl
ENDROOT
TORSDOF 0
ENDMDL
