MODEL 1
REMARK minimizedAffinity -1.92587841
REMARK minimizedRMSD -1
REMARK  0 active torsions:
REMARK  status: ('A' for Active; 'I' for Inactive)
ROOT
ATOM      1  C   UNL d   1      -1.432   0.001   1.738  0.00  0.00     0.020 A 
ATOM      2  C1  UNL d   1      -1.451   1.191   2.464  0.00  0.00     0.020 A 
ATOM      3  C2  UNL d   1      -0.424   2.123   2.305  0.00  0.00     0.034 A 
ATOM      4  C3  UNL d   1       0.629   1.866   1.419  0.00  0.00     0.017 A 
ATOM      5  C4  UNL d   1       0.648   0.671   0.690  0.00  0.00     0.017 A 
ATOM      6  C5  UNL d   1      -0.384  -0.259   0.853  0.00  0.00     0.034 A 
ATOM      7 Cl   UNL d   1       1.912   0.283  -0.422  0.00  0.00    -0.070 Cl
ATOM      8 Cl1  UNL d   1       1.866   3.063   1.272  0.00  0.00    -0.070 Cl
ENDROOT
TORSDOF 0
ENDMDL
