MODEL 1
REMARK minimizedAffinity -5.27499056
REMARK minimizedRMSD -1
REMARK  0 active torsions:
REMARK  status: ('A' for Active; 'I' for Inactive)
ROOT
ATOM      1  C   UNL d   1      -2.478   1.085   2.159  0.00  0.00     0.020 A 
ATOM      2  C1  UNL d   1      -1.593   2.034   1.647  0.00  0.00     0.020 A 
ATOM      3  C2  UNL d   1      -0.378   1.627   1.092  0.00  0.00     0.034 A 
ATOM      4  C3  UNL d   1      -0.044   0.269   1.048  0.00  0.00     0.017 A 
ATOM      5  C4  UNL d   1      -0.932  -0.683   1.561  0.00  0.00     0.017 A 
ATOM      6  C5  UNL d   1      -2.148  -0.270   2.116  0.00  0.00     0.034 A 
ATOM      7 Cl   UNL d   1      -0.590  -2.377   1.541  0.00  0.00    -0.070 Cl
ATOM      8 Cl1  UNL d   1       1.476  -0.162   0.347  0.00  0.00    -0.070 Cl
ENDROOT
TORSDOF 0
ENDMDL
