MODEL 1
REMARK minimizedAffinity -3.27494764
REMARK minimizedRMSD -1
REMARK  0 active torsions:
REMARK  status: ('A' for Active; 'I' for Inactive)
ROOT
ATOM      1  C   UNL d   1      -3.042   1.504   2.714  0.00  0.00     0.020 A 
ATOM      2  C1  UNL d   1      -2.617   2.671   2.080  0.00  0.00     0.020 A 
ATOM      3  C2  UNL d   1      -1.435   2.671   1.337  0.00  0.00     0.034 A 
ATOM      4  C3  UNL d   1      -0.673   1.502   1.226  0.00  0.00     0.017 A 
ATOM      5  C4  UNL d   1      -1.100   0.331   1.862  0.00  0.00     0.017 A 
ATOM      6  C5  UNL d   1      -2.285   0.336   2.605  0.00  0.00     0.034 A 
ATOM      7 Cl   UNL d   1      -0.214  -1.150   1.770  0.00  0.00    -0.070 Cl
ATOM      8 Cl1  UNL d   1       0.778   1.575   0.291  0.00  0.00    -0.070 Cl
ENDROOT
TORSDOF 0
ENDMDL
