MODEL 1
REMARK minimizedAffinity -1.22370553
REMARK minimizedRMSD -1
REMARK  0 active torsions:
REMARK  status: ('A' for Active; 'I' for Inactive)
ROOT
ATOM      1  C   UNL d   1      -0.155  -0.155   0.906  0.00  0.00     0.020 A 
ATOM      2  C1  UNL d   1      -1.039  -0.914   1.673  0.00  0.00     0.020 A 
ATOM      3  C2  UNL d   1      -1.903  -0.284   2.570  0.00  0.00     0.034 A 
ATOM      4  C3  UNL d   1      -1.887   1.109   2.703  0.00  0.00     0.017 A 
ATOM      5  C4  UNL d   1      -0.999   1.870   1.933  0.00  0.00     0.017 A 
ATOM      6  C5  UNL d   1      -0.135   1.234   1.036  0.00  0.00     0.034 A 
ATOM      7 Cl   UNL d   1      -0.920   3.593   2.042  0.00  0.00    -0.070 Cl
ATOM      8 Cl1  UNL d   1      -2.984   1.822   3.832  0.00  0.00    -0.070 Cl
ENDROOT
TORSDOF 0
ENDMDL
