MODEL 1
REMARK minimizedAffinity -0.481962353
REMARK minimizedRMSD -1
REMARK  0 active torsions:
REMARK  status: ('A' for Active; 'I' for Inactive)
ROOT
ATOM      1  C   UNL d   1      -0.881   3.215   1.089  0.00  0.00     0.020 A 
ATOM      2  C1  UNL d   1      -0.183   2.094   0.642  0.00  0.00     0.020 A 
ATOM      3  C2  UNL d   1      -0.486   0.832   1.157  0.00  0.00     0.034 A 
ATOM      4  C3  UNL d   1      -1.489   0.688   2.123  0.00  0.00     0.017 A 
ATOM      5  C4  UNL d   1      -2.188   1.814   2.572  0.00  0.00     0.017 A 
ATOM      6  C5  UNL d   1      -1.881   3.076   2.052  0.00  0.00     0.034 A 
ATOM      7 Cl   UNL d   1      -3.439   1.716   3.761  0.00  0.00    -0.070 Cl
ATOM      8 Cl1  UNL d   1      -1.811  -0.902   2.717  0.00  0.00    -0.070 Cl
ENDROOT
TORSDOF 0
ENDMDL
