MODEL 1
REMARK minimizedAffinity 10.6980562
REMARK minimizedRMSD -1
REMARK  2 active torsions:
REMARK  status: ('A' for Active; 'I' for Inactive)
REMARK    1  A    between atoms: C2'_3  and  C1'_4 
REMARK    2  A    between atoms: C1'_4  and  C1_5 
ROOT
ATOM      1  C1  I4B d   1      -0.108   2.410   0.080  0.00  0.00    -0.075 A 
ATOM      2  C2  I4B d   1       0.913   1.549  -0.235  0.00  0.00     0.003 A 
ATOM      3  C3  I4B d   1       0.632   0.298  -0.836  0.00  0.00     0.002 A 
ATOM      4  C4  I4B d   1      -0.679  -0.070  -1.056  0.00  0.00    -0.004 A 
ATOM      5  C5  I4B d   1      -1.713   0.813  -0.757  0.00  0.00     0.002 A 
ATOM      6  C6  I4B d   1      -1.425   2.066  -0.197  0.00  0.00     0.003 A 
ENDROOT
BRANCH   1   7
ATOM      7  C1' I4B d   1       0.222   3.709   0.744  0.00  0.00     0.060 C 
BRANCH   7   8
ATOM      8  C2' I4B d   1      -0.289   4.828  -0.140  0.00  0.00    -0.013 C 
ATOM      9  C4' I4B d   1      -0.761   5.999   0.681  0.00  0.00     0.013 C 
ATOM     10  C3' I4B d   1       0.820   5.229  -1.067  0.00  0.00     0.013 C 
ENDBRANCH   7   8
ENDBRANCH   1   7
TORSDOF 2
ENDMDL
