MODEL 1
REMARK minimizedAffinity 10.6725931
REMARK minimizedRMSD -1
REMARK  2 active torsions:
REMARK  status: ('A' for Active; 'I' for Inactive)
REMARK    1  A    between atoms: C2'_3  and  C1'_4 
REMARK    2  A    between atoms: C1'_4  and  C1_5 
ROOT
ATOM      1  C1  I4B d   1      -0.010   3.759   0.615  0.00  0.00    -0.075 A 
ATOM      2  C2  I4B d   1       0.131   3.893  -0.744  0.00  0.00     0.003 A 
ATOM      3  C3  I4B d   1      -0.372   5.040  -1.403  0.00  0.00     0.002 A 
ATOM      4  C4  I4B d   1      -1.049   5.999  -0.677  0.00  0.00    -0.004 A 
ATOM      5  C5  I4B d   1      -1.172   5.872   0.704  0.00  0.00     0.002 A 
ATOM      6  C6  I4B d   1      -0.638   4.751   1.356  0.00  0.00     0.003 A 
ENDROOT
BRANCH   1   7
ATOM      7  C1' I4B d   1       0.504   2.518   1.274  0.00  0.00     0.060 C 
BRANCH   7   8
ATOM      8  C2' I4B d   1       0.296   2.663   2.768  0.00  0.00    -0.013 C 
ATOM      9  C4' I4B d   1      -0.273   1.402   3.364  0.00  0.00     0.013 C 
ATOM     10  C3' I4B d   1       1.617   3.007   3.389  0.00  0.00     0.013 C 
ENDBRANCH   7   8
ENDBRANCH   1   7
TORSDOF 2
ENDMDL
