MODEL 1
REMARK minimizedAffinity 10.6812658
REMARK minimizedRMSD -1
REMARK  2 active torsions:
REMARK  status: ('A' for Active; 'I' for Inactive)
REMARK    1  A    between atoms: C2'_3  and  C1'_4 
REMARK    2  A    between atoms: C1'_4  and  C1_5 
ROOT
ATOM      1  C1  I4B d   1       0.171   2.716   1.339  0.00  0.00    -0.075 A 
ATOM      2  C2  I4B d   1      -0.841   2.147   2.071  0.00  0.00     0.003 A 
ATOM      3  C3  I4B d   1      -0.568   1.568   3.334  0.00  0.00     0.002 A 
ATOM      4  C4  I4B d   1       0.730   1.535   3.801  0.00  0.00    -0.004 A 
ATOM      5  C5  I4B d   1       1.751   2.133   3.067  0.00  0.00     0.002 A 
ATOM      6  C6  I4B d   1       1.468   2.739   1.834  0.00  0.00     0.003 A 
ENDROOT
BRANCH   1   7
ATOM      7  C1' I4B d   1      -0.147   3.289  -0.006  0.00  0.00     0.060 C 
BRANCH   7   8
ATOM      8  C2' I4B d   1       0.236   4.755   0.009  0.00  0.00    -0.013 C 
ATOM      9  C4' I4B d   1       0.693   5.214  -1.351  0.00  0.00     0.013 C 
ATOM     10  C3' I4B d   1      -0.955   5.540   0.473  0.00  0.00     0.013 C 
ENDBRANCH   7   8
ENDBRANCH   1   7
TORSDOF 2
ENDMDL
