MODEL 1
REMARK minimizedAffinity 12.4923639
REMARK minimizedRMSD -1
REMARK  2 active torsions:
REMARK  status: ('A' for Active; 'I' for Inactive)
REMARK    1  A    between atoms: C2'_3  and  C1'_4 
REMARK    2  A    between atoms: C1'_4  and  C1_5 
ROOT
ATOM      1  C1  I4B d   1       0.717   3.786   0.708  0.00  0.00    -0.075 A 
ATOM      2  C2  I4B d   1       1.604   4.551  -0.007  0.00  0.00     0.003 A 
ATOM      3  C3  I4B d   1       1.153   5.692  -0.714  0.00  0.00     0.002 A 
ATOM      4  C4  I4B d   1      -0.192   6.000  -0.721  0.00  0.00    -0.004 A 
ATOM      5  C5  I4B d   1      -1.087   5.236   0.023  0.00  0.00     0.002 A 
ATOM      6  C6  I4B d   1      -0.628   4.129   0.752  0.00  0.00     0.003 A 
ENDROOT
BRANCH   1   7
ATOM      7  C1' I4B d   1       1.222   2.569   1.416  0.00  0.00     0.060 C 
BRANCH   7   8
ATOM      8  C2' I4B d   1       1.196   2.851   2.904  0.00  0.00    -0.013 C 
ATOM      9  C4' I4B d   1       0.683   1.663   3.675  0.00  0.00     0.013 C 
ATOM     10  C3' I4B d   1       2.587   3.213   3.332  0.00  0.00     0.013 C 
ENDBRANCH   7   8
ENDBRANCH   1   7
TORSDOF 2
ENDMDL
