MODEL 1
REMARK minimizedAffinity 6.12764502
REMARK minimizedRMSD -1
REMARK  0 active torsions:
REMARK  status: ('A' for Active; 'I' for Inactive)
ROOT
ATOM      1  C1  BNZ d   1      -5.066   5.952  -0.743  0.00  0.00     0.000 A 
ATOM      2  C2  BNZ d   1      -3.884   5.932  -0.052  0.00  0.00     0.000 A 
ATOM      3  C3  BNZ d   1      -2.687   5.971  -0.712  0.00  0.00     0.000 A 
ATOM      4  C4  BNZ d   1      -2.674   5.988  -2.061  0.00  0.00     0.000 A 
ATOM      5  C5  BNZ d   1      -3.858   5.998  -2.771  0.00  0.00     0.000 A 
ATOM      6  C6  BNZ d   1      -5.060   5.999  -2.103  0.00  0.00     0.000 A 
ENDROOT
TORSDOF 0
ENDMDL
