MODEL 1
REMARK minimizedAffinity 7.19555187
REMARK minimizedRMSD -1
REMARK  0 active torsions:
REMARK  status: ('A' for Active; 'I' for Inactive)
ROOT
ATOM      1  C1  BNZ d   1      -5.622   2.050   5.999  0.00  0.00     0.000 A 
ATOM      2  C2  BNZ d   1      -4.914   2.666   5.000  0.00  0.00     0.000 A 
ATOM      3  C3  BNZ d   1      -4.587   1.992   3.857  0.00  0.00     0.000 A 
ATOM      4  C4  BNZ d   1      -4.932   0.694   3.730  0.00  0.00     0.000 A 
ATOM      5  C5  BNZ d   1      -5.637   0.057   4.732  0.00  0.00     0.000 A 
ATOM      6  C6  BNZ d   1      -5.999   0.750   5.865  0.00  0.00     0.000 A 
ENDROOT
TORSDOF 0
ENDMDL
