MODEL 1
REMARK minimizedAffinity 5.02778769
REMARK minimizedRMSD -1
REMARK  0 active torsions:
REMARK  status: ('A' for Active; 'I' for Inactive)
ROOT
ATOM      1  C1  BNZ d   1       3.594   0.322   0.104  0.00  0.00     0.000 A 
ATOM      2  C2  BNZ d   1       2.987   1.145  -0.807  0.00  0.00     0.000 A 
ATOM      3  C3  BNZ d   1       2.036   2.044  -0.413  0.00  0.00     0.000 A 
ATOM      4  C4  BNZ d   1       1.663   2.091   0.882  0.00  0.00     0.000 A 
ATOM      5  C5  BNZ d   1       2.259   1.261   1.811  0.00  0.00     0.000 A 
ATOM      6  C6  BNZ d   1       3.245   0.385   1.418  0.00  0.00     0.000 A 
ENDROOT
TORSDOF 0
ENDMDL
