MODEL 1
REMARK minimizedAffinity -0.935130656
REMARK minimizedRMSD -1
REMARK  0 active torsions:
REMARK  status: ('A' for Active; 'I' for Inactive)
ROOT
ATOM      1  C1  BNZ d   1       3.673   4.136  -5.258  0.00  0.00     0.000 A 
ATOM      2  C2  BNZ d   1       3.691   2.988  -4.511  0.00  0.00     0.000 A 
ATOM      3  C3  BNZ d   1       4.851   2.538  -3.946  0.00  0.00     0.000 A 
ATOM      4  C4  BNZ d   1       5.999   3.213  -4.162  0.00  0.00     0.000 A 
ATOM      5  C5  BNZ d   1       5.999   4.367  -4.920  0.00  0.00     0.000 A 
ATOM      6  C6  BNZ d   1       4.822   4.839  -5.454  0.00  0.00     0.000 A 
ENDROOT
TORSDOF 0
ENDMDL
