MODEL 1
REMARK minimizedAffinity 10.2763786
REMARK minimizedRMSD -1
REMARK  0 active torsions:
REMARK  status: ('A' for Active; 'I' for Inactive)
ROOT
ATOM      1  C1  BNZ d   1       1.393   2.797   1.512  0.00  0.00     0.000 A 
ATOM      2  C2  BNZ d   1       2.472   2.343   0.802  0.00  0.00     0.000 A 
ATOM      3  C3  BNZ d   1       3.033   1.128   1.081  0.00  0.00     0.000 A 
ATOM      4  C4  BNZ d   1       2.540   0.387   2.094  0.00  0.00     0.000 A 
ATOM      5  C5  BNZ d   1       1.458   0.835   2.825  0.00  0.00     0.000 A 
ATOM      6  C6  BNZ d   1       0.872   2.040   2.516  0.00  0.00     0.000 A 
ENDROOT
TORSDOF 0
ENDMDL
