MODEL 1
REMARK minimizedAffinity 5.56037855
REMARK minimizedRMSD -1
REMARK  0 active torsions:
REMARK  status: ('A' for Active; 'I' for Inactive)
ROOT
ATOM      1  C1  BNZ d   1       2.261   3.432  -3.769  0.00  0.00     0.000 A 
ATOM      2  C2  BNZ d   1       2.030   4.781  -3.772  0.00  0.00     0.000 A 
ATOM      3  C3  BNZ d   1       2.270   5.531  -4.890  0.00  0.00     0.000 A 
ATOM      4  C4  BNZ d   1       2.778   4.937  -5.989  0.00  0.00     0.000 A 
ATOM      5  C5  BNZ d   1       3.026   3.579  -5.999  0.00  0.00     0.000 A 
ATOM      6  C6  BNZ d   1       2.747   2.821  -4.885  0.00  0.00     0.000 A 
ENDROOT
TORSDOF 0
ENDMDL
