MODEL 1
REMARK minimizedAffinity 3.68809319
REMARK minimizedRMSD -1
REMARK  0 active torsions:
REMARK  status: ('A' for Active; 'I' for Inactive)
ROOT
ATOM      1  C1  BNZ d   1      -3.929  -5.985   0.074  0.00  0.00     0.000 A 
ATOM      2  C2  BNZ d   1      -3.960  -5.996   1.443  0.00  0.00     0.000 A 
ATOM      3  C3  BNZ d   1      -2.802  -5.982   2.169  0.00  0.00     0.000 A 
ATOM      4  C4  BNZ d   1      -1.616  -5.999   1.527  0.00  0.00     0.000 A 
ATOM      5  C5  BNZ d   1      -1.568  -5.997   0.147  0.00  0.00     0.000 A 
ATOM      6  C6  BNZ d   1      -2.736  -5.971  -0.581  0.00  0.00     0.000 A 
ENDROOT
TORSDOF 0
ENDMDL
