MODEL 1
REMARK minimizedAffinity 6.32755375
REMARK minimizedRMSD -1
REMARK  0 active torsions:
REMARK  status: ('A' for Active; 'I' for Inactive)
ROOT
ATOM      1  C1  BNZ d   1      -3.065  -3.468  -3.090  0.00  0.00     0.000 A 
ATOM      2  C2  BNZ d   1      -4.196  -3.036  -3.731  0.00  0.00     0.000 A 
ATOM      3  C3  BNZ d   1      -5.340  -3.784  -3.711  0.00  0.00     0.000 A 
ATOM      4  C4  BNZ d   1      -5.340  -4.979  -3.086  0.00  0.00     0.000 A 
ATOM      5  C5  BNZ d   1      -4.205  -5.432  -2.444  0.00  0.00     0.000 A 
ATOM      6  C6  BNZ d   1      -3.067  -4.659  -2.433  0.00  0.00     0.000 A 
ENDROOT
TORSDOF 0
ENDMDL
