MODEL 1
REMARK minimizedAffinity 1.9865725
REMARK minimizedRMSD -1
REMARK  0 active torsions:
REMARK  status: ('A' for Active; 'I' for Inactive)
ROOT
ATOM      1  C1  BNZ d   1       1.370   0.739   5.232  0.00  0.00     0.000 A 
ATOM      2  C2  BNZ d   1       0.702   1.683   4.498  0.00  0.00     0.000 A 
ATOM      3  C3  BNZ d   1       1.025   1.909   3.189  0.00  0.00     0.000 A 
ATOM      4  C4  BNZ d   1       2.040   1.220   2.628  0.00  0.00     0.000 A 
ATOM      5  C5  BNZ d   1       2.728   0.272   3.357  0.00  0.00     0.000 A 
ATOM      6  C6  BNZ d   1       2.375   0.019   4.663  0.00  0.00     0.000 A 
ENDROOT
TORSDOF 0
ENDMDL
