MODEL 1
REMARK minimizedAffinity 13.1269855
REMARK minimizedRMSD -1
REMARK  0 active torsions:
REMARK  status: ('A' for Active; 'I' for Inactive)
ROOT
ATOM      1  C1  BNZ d   1      -5.115  -3.639  -3.403  0.00  0.00     0.000 A 
ATOM      2  C2  BNZ d   1      -5.745  -4.771  -2.960  0.00  0.00     0.000 A 
ATOM      3  C3  BNZ d   1      -5.070  -5.709  -2.231  0.00  0.00     0.000 A 
ATOM      4  C4  BNZ d   1      -3.756  -5.534  -1.980  0.00  0.00     0.000 A 
ATOM      5  C5  BNZ d   1      -3.104  -4.403  -2.427  0.00  0.00     0.000 A 
ATOM      6  C6  BNZ d   1      -3.797  -3.442  -3.127  0.00  0.00     0.000 A 
ENDROOT
TORSDOF 0
ENDMDL
