MODEL 1
REMARK minimizedAffinity 8.28314018
REMARK minimizedRMSD -1
REMARK  0 active torsions:
REMARK  status: ('A' for Active; 'I' for Inactive)
ROOT
ATOM      1  C1  BNZ d   1      -0.418  -2.528  -0.875  0.00  0.00     0.000 A 
ATOM      2  C2  BNZ d   1      -0.296  -3.080   0.372  0.00  0.00     0.000 A 
ATOM      3  C3  BNZ d   1      -1.371  -3.153   1.213  0.00  0.00     0.000 A 
ATOM      4  C4  BNZ d   1      -2.555  -2.639   0.822  0.00  0.00     0.000 A 
ATOM      5  C5  BNZ d   1      -2.692  -2.072  -0.429  0.00  0.00     0.000 A 
ATOM      6  C6  BNZ d   1      -1.617  -2.035  -1.288  0.00  0.00     0.000 A 
ENDROOT
TORSDOF 0
ENDMDL
