MODEL 1
REMARK minimizedAffinity 10.1948004
REMARK minimizedRMSD -1
REMARK  0 active torsions:
REMARK  status: ('A' for Active; 'I' for Inactive)
ROOT
ATOM      1  C1  BNZ d   1       2.205   3.237  -4.085  0.00  0.00     0.000 A 
ATOM      2  C2  BNZ d   1       2.699   2.676  -5.232  0.00  0.00     0.000 A 
ATOM      3  C3  BNZ d   1       3.659   1.704  -5.179  0.00  0.00     0.000 A 
ATOM      4  C4  BNZ d   1       4.152   1.324  -3.983  0.00  0.00     0.000 A 
ATOM      5  C5  BNZ d   1       3.671   1.886  -2.818  0.00  0.00     0.000 A 
ATOM      6  C6  BNZ d   1       2.677   2.836  -2.873  0.00  0.00     0.000 A 
ENDROOT
TORSDOF 0
ENDMDL
