MODEL 1
REMARK minimizedAffinity 10.4194365
REMARK minimizedRMSD -1
REMARK  0 active torsions:
REMARK  status: ('A' for Active; 'I' for Inactive)
ROOT
ATOM      1  C1  BNZ d   1      -4.570  -6.000  -0.822  0.00  0.00     0.000 A 
ATOM      2  C2  BNZ d   1      -5.808  -5.999  -0.235  0.00  0.00     0.000 A 
ATOM      3  C3  BNZ d   1      -5.938  -5.971   1.125  0.00  0.00     0.000 A 
ATOM      4  C4  BNZ d   1      -4.832  -5.984   1.897  0.00  0.00     0.000 A 
ATOM      5  C5  BNZ d   1      -3.577  -5.995   1.321  0.00  0.00     0.000 A 
ATOM      6  C6  BNZ d   1      -3.450  -5.984  -0.049  0.00  0.00     0.000 A 
ENDROOT
TORSDOF 0
ENDMDL
