MODEL 1
REMARK minimizedAffinity 1.55079496
REMARK minimizedRMSD -1
REMARK  0 active torsions:
REMARK  status: ('A' for Active; 'I' for Inactive)
ROOT
ATOM      1  C1  BNZ d   1       2.059   4.741  -5.999  0.00  0.00     0.000 A 
ATOM      2  C2  BNZ d   1       2.713   5.945  -5.998  0.00  0.00     0.000 A 
ATOM      3  C3  BNZ d   1       4.079   5.999  -5.999  0.00  0.00     0.000 A 
ATOM      4  C4  BNZ d   1       4.788   4.853  -5.961  0.00  0.00     0.000 A 
ATOM      5  C5  BNZ d   1       4.143   3.632  -5.953  0.00  0.00     0.000 A 
ATOM      6  C6  BNZ d   1       2.769   3.580  -5.991  0.00  0.00     0.000 A 
ENDROOT
TORSDOF 0
ENDMDL
