MODEL 1
REMARK minimizedAffinity 3.48988366
REMARK minimizedRMSD -1
REMARK  0 active torsions:
REMARK  status: ('A' for Active; 'I' for Inactive)
ROOT
ATOM      1  C1  BNZ d   1      -0.828  -3.492   1.187  0.00  0.00     0.000 A 
ATOM      2  C2  BNZ d   1      -1.913  -3.540   0.352  0.00  0.00     0.000 A 
ATOM      3  C3  BNZ d   1      -2.644  -2.415   0.089  0.00  0.00     0.000 A 
ATOM      4  C4  BNZ d   1      -2.315  -1.254   0.692  0.00  0.00     0.000 A 
ATOM      5  C5  BNZ d   1      -1.230  -1.192   1.544  0.00  0.00     0.000 A 
ATOM      6  C6  BNZ d   1      -0.473  -2.317   1.776  0.00  0.00     0.000 A 
ENDROOT
TORSDOF 0
ENDMDL
