MODEL 1
REMARK minimizedAffinity -1.05252695
REMARK minimizedRMSD -1
REMARK  0 active torsions:
REMARK  status: ('A' for Active; 'I' for Inactive)
ROOT
ATOM      1  C1  BNZ d   1       5.215  -0.356   0.727  0.00  0.00     0.000 A 
ATOM      2  C2  BNZ d   1       5.999   0.483  -0.019  0.00  0.00     0.000 A 
ATOM      3  C3  BNZ d   1       5.939   1.837   0.157  0.00  0.00     0.000 A 
ATOM      4  C4  BNZ d   1       5.069   2.352   1.049  0.00  0.00     0.000 A 
ATOM      5  C5  BNZ d   1       4.266   1.520   1.802  0.00  0.00     0.000 A 
ATOM      6  C6  BNZ d   1       4.356   0.155   1.650  0.00  0.00     0.000 A 
ENDROOT
TORSDOF 0
ENDMDL
