MODEL 1
REMARK minimizedAffinity 9.10398769
REMARK minimizedRMSD -1
REMARK  0 active torsions:
REMARK  status: ('A' for Active; 'I' for Inactive)
ROOT
ATOM      1  C1  BNZ d   1       0.760   2.483   2.267  0.00  0.00     0.000 A 
ATOM      2  C2  BNZ d   1       0.085   2.072   3.385  0.00  0.00     0.000 A 
ATOM      3  C3  BNZ d   1       0.575   1.065   4.168  0.00  0.00     0.000 A 
ATOM      4  C4  BNZ d   1       1.717   0.442   3.810  0.00  0.00     0.000 A 
ATOM      5  C5  BNZ d   1       2.404   0.838   2.680  0.00  0.00     0.000 A 
ATOM      6  C6  BNZ d   1       1.928   1.879   1.916  0.00  0.00     0.000 A 
ENDROOT
TORSDOF 0
ENDMDL
