MODEL 1
REMARK minimizedAffinity 3.34891534
REMARK minimizedRMSD -1
REMARK  0 active torsions:
REMARK  status: ('A' for Active; 'I' for Inactive)
ROOT
ATOM      1  C1  BNZ d   1       4.636   3.038  -5.950  0.00  0.00     0.000 A 
ATOM      2  C2  BNZ d   1       5.660   3.946  -5.988  0.00  0.00     0.000 A 
ATOM      3  C3  BNZ d   1       5.405   5.289  -5.993  0.00  0.00     0.000 A 
ATOM      4  C4  BNZ d   1       4.127   5.721  -6.000  0.00  0.00     0.000 A 
ATOM      5  C5  BNZ d   1       3.084   4.817  -5.970  0.00  0.00     0.000 A 
ATOM      6  C6  BNZ d   1       3.345   3.467  -5.926  0.00  0.00     0.000 A 
ENDROOT
TORSDOF 0
ENDMDL
