MODEL 1
REMARK minimizedAffinity -4.8178916
REMARK minimizedRMSD -1
REMARK  0 active torsions:
REMARK  status: ('A' for Active; 'I' for Inactive)
ROOT
ATOM      1  C   UNL d   1       1.391  -0.900   3.057  0.00  0.00     0.078 C 
ATOM      2  C1  UNL d   1       0.937  -0.724   1.639  0.00  0.00    -0.077 A 
ATOM      3  C2  UNL d   1       1.786  -1.027   0.567  0.00  0.00    -0.001 A 
ATOM      4  C3  UNL d   1       1.354  -0.849  -0.748  0.00  0.00     0.003 A 
ATOM      5  C4  UNL d   1       0.073  -0.365  -1.004  0.00  0.00    -0.005 A 
ATOM      6  C5  UNL d   1      -0.779  -0.059   0.056  0.00  0.00     0.003 A 
ATOM      7  C6  UNL d   1      -0.348  -0.237   1.372  0.00  0.00    -0.001 A 
ENDROOT
TORSDOF 0
ENDMDL
