MODEL 1
REMARK minimizedAffinity -4.6356225
REMARK minimizedRMSD -1
REMARK  0 active torsions:
REMARK  status: ('A' for Active; 'I' for Inactive)
ROOT
ATOM      1  C   UNL d   1      -0.042   3.580  -1.970  0.00  0.00     0.078 C 
ATOM      2  C1  UNL d   1      -0.322   2.328  -1.193  0.00  0.00    -0.077 A 
ATOM      3  C2  UNL d   1      -0.563   1.113  -1.846  0.00  0.00    -0.001 A 
ATOM      4  C3  UNL d   1      -0.833  -0.042  -1.110  0.00  0.00     0.003 A 
ATOM      5  C4  UNL d   1      -0.865   0.007   0.282  0.00  0.00    -0.005 A 
ATOM      6  C5  UNL d   1      -0.628   1.212   0.940  0.00  0.00     0.003 A 
ATOM      7  C6  UNL d   1      -0.359   2.368   0.206  0.00  0.00    -0.001 A 
ENDROOT
TORSDOF 0
ENDMDL
