MODEL 1
REMARK minimizedAffinity -2.40761614
REMARK minimizedRMSD -1
REMARK  0 active torsions:
REMARK  status: ('A' for Active; 'I' for Inactive)
ROOT
ATOM      1  C   UNL d   1      -0.594   3.199  -1.798  0.00  0.00     0.078 C 
ATOM      2  C1  UNL d   1       0.094   1.933  -1.382  0.00  0.00    -0.077 A 
ATOM      3  C2  UNL d   1       1.491   1.856  -1.326  0.00  0.00    -0.001 A 
ATOM      4  C3  UNL d   1       2.118   0.669  -0.947  0.00  0.00     0.003 A 
ATOM      5  C4  UNL d   1       1.356  -0.452  -0.622  0.00  0.00    -0.005 A 
ATOM      6  C5  UNL d   1      -0.035  -0.386  -0.676  0.00  0.00     0.003 A 
ATOM      7  C6  UNL d   1      -0.664   0.801  -1.056  0.00  0.00    -0.001 A 
ENDROOT
TORSDOF 0
ENDMDL
