MODEL 1
REMARK minimizedAffinity -0.488957763
REMARK minimizedRMSD -1
REMARK  0 active torsions:
REMARK  status: ('A' for Active; 'I' for Inactive)
ROOT
ATOM      1  C   UNL d   1      -1.233   3.379  -2.210  0.00  0.00     0.078 C 
ATOM      2  C1  UNL d   1      -0.562   2.221  -1.535  0.00  0.00    -0.077 A 
ATOM      3  C2  UNL d   1      -1.309   1.247  -0.860  0.00  0.00    -0.001 A 
ATOM      4  C3  UNL d   1      -0.670   0.180  -0.227  0.00  0.00     0.003 A 
ATOM      5  C4  UNL d   1       0.719   0.075  -0.263  0.00  0.00    -0.005 A 
ATOM      6  C5  UNL d   1       1.471   1.040  -0.930  0.00  0.00     0.003 A 
ATOM      7  C6  UNL d   1       0.834   2.109  -1.563  0.00  0.00    -0.001 A 
ENDROOT
TORSDOF 0
ENDMDL
