MODEL 1
REMARK minimizedAffinity -3.01524138
REMARK minimizedRMSD -1
REMARK  0 active torsions:
REMARK  status: ('A' for Active; 'I' for Inactive)
ROOT
ATOM      1  C   UNL d   1      -0.578   0.032  -1.533  0.00  0.00     0.078 C 
ATOM      2  C1  UNL d   1      -0.782   1.473  -1.895  0.00  0.00    -0.077 A 
ATOM      3  C2  UNL d   1      -2.061   1.973  -2.169  0.00  0.00    -0.001 A 
ATOM      4  C3  UNL d   1      -2.236   3.314  -2.514  0.00  0.00     0.003 A 
ATOM      5  C4  UNL d   1      -1.135   4.166  -2.589  0.00  0.00    -0.005 A 
ATOM      6  C5  UNL d   1       0.141   3.677  -2.320  0.00  0.00     0.003 A 
ATOM      7  C6  UNL d   1       0.318   2.336  -1.975  0.00  0.00    -0.001 A 
ENDROOT
TORSDOF 0
ENDMDL
