MODEL 1
REMARK minimizedAffinity -1.01501787
REMARK minimizedRMSD -1
REMARK  0 active torsions:
REMARK  status: ('A' for Active; 'I' for Inactive)
ROOT
ATOM      1  C   UNL d   1      -0.125  -0.721   2.700  0.00  0.00     0.078 C 
ATOM      2  C1  UNL d   1      -0.176   0.008   1.390  0.00  0.00    -0.077 A 
ATOM      3  C2  UNL d   1      -0.158   1.408   1.343  0.00  0.00    -0.001 A 
ATOM      4  C3  UNL d   1      -0.216   2.073   0.117  0.00  0.00     0.003 A 
ATOM      5  C4  UNL d   1      -0.293   1.348  -1.070  0.00  0.00    -0.005 A 
ATOM      6  C5  UNL d   1      -0.314  -0.045  -1.033  0.00  0.00     0.003 A 
ATOM      7  C6  UNL d   1      -0.256  -0.712   0.192  0.00  0.00    -0.001 A 
ENDROOT
TORSDOF 0
ENDMDL
