MODEL 1
REMARK minimizedAffinity -2.60444045
REMARK minimizedRMSD -1
REMARK  0 active torsions:
REMARK  status: ('A' for Active; 'I' for Inactive)
ROOT
ATOM      1  C   UNL d   1      -2.648   0.307   1.976  0.00  0.00     0.078 C 
ATOM      2  C1  UNL d   1      -1.245  -0.100   2.316  0.00  0.00    -0.077 A 
ATOM      3  C2  UNL d   1      -0.559   0.497   3.380  0.00  0.00    -0.001 A 
ATOM      4  C3  UNL d   1       0.750   0.115   3.679  0.00  0.00     0.003 A 
ATOM      5  C4  UNL d   1       1.384  -0.865   2.917  0.00  0.00    -0.005 A 
ATOM      6  C5  UNL d   1       0.710  -1.463   1.854  0.00  0.00     0.003 A 
ATOM      7  C6  UNL d   1      -0.599  -1.082   1.554  0.00  0.00    -0.001 A 
ENDROOT
TORSDOF 0
ENDMDL
