MODEL 1
REMARK minimizedAffinity 0.702532411
REMARK minimizedRMSD -1
REMARK  0 active torsions:
REMARK  status: ('A' for Active; 'I' for Inactive)
ROOT
ATOM      1  C   UNL d   1      -5.998  -2.346  -1.454  0.00  0.00     0.077 C 
ATOM      2  C1  UNL d   1      -5.977  -3.584  -2.299  0.00  0.00    -0.074 A 
ATOM      3  C2  UNL d   1      -5.999  -4.854  -1.714  0.00  0.00    -0.005 A 
ATOM      4  C3  UNL d   1      -5.989  -5.997  -2.514  0.00  0.00     0.006 A 
ATOM      5  C4  UNL d   1      -5.958  -5.882  -3.904  0.00  0.00    -0.005 A 
ATOM      6  C5  UNL d   1      -5.937  -4.620  -4.507  0.00  0.00    -0.074 A 
ATOM      7  C6  UNL d   1      -5.913  -4.479  -6.000  0.00  0.00     0.077 C 
ATOM      8  C7  UNL d   1      -5.954  -3.477  -3.697  0.00  0.00    -0.001 A 
ENDROOT
TORSDOF 0
ENDMDL
