MODEL 1
REMARK minimizedAffinity 4.61240673
REMARK minimizedRMSD -1
REMARK  0 active torsions:
REMARK  status: ('A' for Active; 'I' for Inactive)
ROOT
ATOM      1  C   UNL d   1      -5.982  -4.113  -1.684  0.00  0.00     0.077 C 
ATOM      2  C1  UNL d   1      -5.618  -4.438  -3.102  0.00  0.00    -0.074 A 
ATOM      3  C2  UNL d   1      -5.998  -5.652  -3.681  0.00  0.00    -0.005 A 
ATOM      4  C3  UNL d   1      -5.660  -5.937  -5.004  0.00  0.00     0.006 A 
ATOM      5  C4  UNL d   1      -4.940  -5.011  -5.760  0.00  0.00    -0.005 A 
ATOM      6  C5  UNL d   1      -4.551  -3.791  -5.198  0.00  0.00    -0.074 A 
ATOM      7  C6  UNL d   1      -3.785  -2.781  -5.999  0.00  0.00     0.077 C 
ATOM      8  C7  UNL d   1      -4.901  -3.509  -3.870  0.00  0.00    -0.001 A 
ENDROOT
TORSDOF 0
ENDMDL
