MODEL 1
REMARK minimizedAffinity 0.998456419
REMARK minimizedRMSD -1
REMARK  0 active torsions:
REMARK  status: ('A' for Active; 'I' for Inactive)
ROOT
ATOM      1  C   UNL d   1       0.612  -4.567   0.296  0.00  0.00     0.077 C 
ATOM      2  C1  UNL d   1       0.766  -3.571   1.407  0.00  0.00    -0.074 A 
ATOM      3  C2  UNL d   1       0.264  -3.838   2.685  0.00  0.00    -0.005 A 
ATOM      4  C3  UNL d   1       0.423  -2.906   3.711  0.00  0.00     0.006 A 
ATOM      5  C4  UNL d   1       1.084  -1.701   3.471  0.00  0.00    -0.005 A 
ATOM      6  C5  UNL d   1       1.594  -1.418   2.199  0.00  0.00    -0.074 A 
ATOM      7  C6  UNL d   1       2.316  -0.132   1.926  0.00  0.00     0.077 C 
ATOM      8  C7  UNL d   1       1.436  -2.362   1.175  0.00  0.00    -0.001 A 
ENDROOT
TORSDOF 0
ENDMDL
