MODEL 1
REMARK minimizedAffinity 6.25192165
REMARK minimizedRMSD -1
REMARK  0 active torsions:
REMARK  status: ('A' for Active; 'I' for Inactive)
ROOT
ATOM      1  C   UNL d   1       1.373  -0.359   1.713  0.00  0.00     0.077 C 
ATOM      2  C1  UNL d   1       1.686  -1.640   2.426  0.00  0.00    -0.074 A 
ATOM      3  C2  UNL d   1       0.730  -2.656   2.534  0.00  0.00    -0.005 A 
ATOM      4  C3  UNL d   1       1.039  -3.846   3.192  0.00  0.00     0.006 A 
ATOM      5  C4  UNL d   1       2.304  -4.033   3.749  0.00  0.00    -0.005 A 
ATOM      6  C5  UNL d   1       3.274  -3.030   3.651  0.00  0.00    -0.074 A 
ATOM      7  C6  UNL d   1       4.642  -3.218   4.235  0.00  0.00     0.077 C 
ATOM      8  C7  UNL d   1       2.958  -1.839   2.981  0.00  0.00    -0.001 A 
ENDROOT
TORSDOF 0
ENDMDL
