MODEL 1
REMARK minimizedAffinity 4.5945816
REMARK minimizedRMSD -1
REMARK  0 active torsions:
REMARK  status: ('A' for Active; 'I' for Inactive)
ROOT
ATOM      1  C   UNL d   1       4.810  -3.245   4.513  0.00  0.00     0.077 C 
ATOM      2  C1  UNL d   1       3.361  -3.278   4.127  0.00  0.00    -0.074 A 
ATOM      3  C2  UNL d   1       2.510  -4.275   4.616  0.00  0.00    -0.005 A 
ATOM      4  C3  UNL d   1       1.163  -4.287   4.256  0.00  0.00     0.006 A 
ATOM      5  C4  UNL d   1       0.653  -3.305   3.405  0.00  0.00    -0.005 A 
ATOM      6  C5  UNL d   1       1.489  -2.300   2.908  0.00  0.00    -0.074 A 
ATOM      7  C6  UNL d   1       0.955  -1.232   2.001  0.00  0.00     0.077 C 
ATOM      8  C7  UNL d   1       2.840  -2.290   3.279  0.00  0.00    -0.001 A 
ENDROOT
TORSDOF 0
ENDMDL
