MODEL 1
REMARK minimizedAffinity 5.23966074
REMARK minimizedRMSD -1
REMARK  0 active torsions:
REMARK  status: ('A' for Active; 'I' for Inactive)
ROOT
ATOM      1  C   UNL d   1      -5.987  -3.348  -1.616  0.00  0.00     0.077 C 
ATOM      2  C1  UNL d   1      -5.533  -3.509  -3.036  0.00  0.00    -0.074 A 
ATOM      3  C2  UNL d   1      -4.678  -2.573  -3.628  0.00  0.00    -0.005 A 
ATOM      4  C3  UNL d   1      -4.257  -2.741  -4.946  0.00  0.00     0.006 A 
ATOM      5  C4  UNL d   1      -4.684  -3.844  -5.686  0.00  0.00    -0.005 A 
ATOM      6  C5  UNL d   1      -5.538  -4.791  -5.111  0.00  0.00    -0.074 A 
ATOM      7  C6  UNL d   1      -6.000  -5.988  -5.889  0.00  0.00     0.077 C 
ATOM      8  C7  UNL d   1      -5.952  -4.619  -3.783  0.00  0.00    -0.001 A 
ENDROOT
TORSDOF 0
ENDMDL
