MODEL 1
REMARK minimizedAffinity 1.56514382
REMARK minimizedRMSD -1
REMARK  0 active torsions:
REMARK  status: ('A' for Active; 'I' for Inactive)
ROOT
ATOM      1  C   UNL d   1       2.198   5.850  -1.515  0.00  0.00     0.077 C 
ATOM      2  C1  UNL d   1       3.528   5.909  -2.206  0.00  0.00    -0.074 A 
ATOM      3  C2  UNL d   1       4.718   5.950  -1.473  0.00  0.00    -0.005 A 
ATOM      4  C3  UNL d   1       5.948   5.995  -2.131  0.00  0.00     0.006 A 
ATOM      5  C4  UNL d   1       5.999   6.000  -3.525  0.00  0.00    -0.005 A 
ATOM      6  C5  UNL d   1       4.819   5.959  -4.275  0.00  0.00    -0.074 A 
ATOM      7  C6  UNL d   1       4.857   5.954  -5.774  0.00  0.00     0.077 C 
ATOM      8  C7  UNL d   1       3.588   5.906  -3.607  0.00  0.00    -0.001 A 
ENDROOT
TORSDOF 0
ENDMDL
