MODEL 1
REMARK minimizedAffinity -0.423244715
REMARK minimizedRMSD -1
REMARK  0 active torsions:
REMARK  status: ('A' for Active; 'I' for Inactive)
ROOT
ATOM      1  C   UNL d   1      -5.259  -4.893  -1.690  0.00  0.00     0.077 C 
ATOM      2  C1  UNL d   1      -5.224  -4.869  -3.189  0.00  0.00    -0.074 A 
ATOM      3  C2  UNL d   1      -4.830  -5.996  -3.917  0.00  0.00    -0.005 A 
ATOM      4  C3  UNL d   1      -4.811  -5.962  -5.312  0.00  0.00     0.006 A 
ATOM      5  C4  UNL d   1      -5.186  -4.802  -5.991  0.00  0.00    -0.005 A 
ATOM      6  C5  UNL d   1      -5.584  -3.666  -5.280  0.00  0.00    -0.074 A 
ATOM      7  C6  UNL d   1      -6.000  -2.414  -5.995  0.00  0.00     0.077 C 
ATOM      8  C7  UNL d   1      -5.607  -3.710  -3.879  0.00  0.00    -0.001 A 
ENDROOT
TORSDOF 0
ENDMDL
