MODEL 1
REMARK minimizedAffinity -1.71779358
REMARK minimizedRMSD -1
REMARK  0 active torsions:
REMARK  status: ('A' for Active; 'I' for Inactive)
ROOT
ATOM      1  C   UNL d   1      -5.996  -4.854  -1.501  0.00  0.00     0.077 C 
ATOM      2  C1  UNL d   1      -5.620  -4.866  -2.953  0.00  0.00    -0.074 A 
ATOM      3  C2  UNL d   1      -5.040  -5.998  -3.536  0.00  0.00    -0.005 A 
ATOM      4  C3  UNL d   1      -4.704  -5.997  -4.890  0.00  0.00     0.006 A 
ATOM      5  C4  UNL d   1      -4.944  -4.867  -5.673  0.00  0.00    -0.005 A 
ATOM      6  C5  UNL d   1      -5.524  -3.727  -5.108  0.00  0.00    -0.074 A 
ATOM      7  C6  UNL d   1      -5.797  -2.508  -5.937  0.00  0.00     0.077 C 
ATOM      8  C7  UNL d   1      -5.865  -3.738  -3.748  0.00  0.00    -0.001 A 
ENDROOT
TORSDOF 0
ENDMDL
