MODEL 1
REMARK minimizedAffinity -1.98109627
REMARK minimizedRMSD -1
REMARK  0 active torsions:
REMARK  status: ('A' for Active; 'I' for Inactive)
ROOT
ATOM      1  C   UNL d   1      -5.982  -2.846  -5.999  0.00  0.00     0.077 C 
ATOM      2  C1  UNL d   1      -5.482  -3.953  -5.120  0.00  0.00    -0.074 A 
ATOM      3  C2  UNL d   1      -4.589  -4.912  -5.609  0.00  0.00    -0.005 A 
ATOM      4  C3  UNL d   1      -4.125  -5.930  -4.776  0.00  0.00     0.006 A 
ATOM      5  C4  UNL d   1      -4.549  -6.000  -3.448  0.00  0.00    -0.005 A 
ATOM      6  C5  UNL d   1      -5.441  -5.049  -2.942  0.00  0.00    -0.074 A 
ATOM      7  C6  UNL d   1      -5.899  -5.104  -1.514  0.00  0.00     0.077 C 
ATOM      8  C7  UNL d   1      -5.897  -4.025  -3.783  0.00  0.00    -0.001 A 
ENDROOT
TORSDOF 0
ENDMDL
