MODEL 1
REMARK minimizedAffinity 1.03472292
REMARK minimizedRMSD -1
REMARK  2 active torsions:
REMARK  status: ('A' for Active; 'I' for Inactive)
REMARK    1  A    between atoms: C2'_3  and  C1'_4 
REMARK    2  A    between atoms: C1'_4  and  C1_5 
ROOT
ATOM      1  C1  I4B d   1      -1.007  -0.026   1.025  0.00  0.00    -0.075 A 
ATOM      2  C2  I4B d   1       0.010  -0.937   0.886  0.00  0.00     0.003 A 
ATOM      3  C3  I4B d   1       1.344  -0.569   1.185  0.00  0.00     0.002 A 
ATOM      4  C4  I4B d   1       1.620   0.728   1.569  0.00  0.00    -0.004 A 
ATOM      5  C5  I4B d   1       0.585   1.644   1.731  0.00  0.00     0.002 A 
ATOM      6  C6  I4B d   1      -0.738   1.262   1.469  0.00  0.00     0.003 A 
ENDROOT
BRANCH   1   7
ATOM      7  C1' I4B d   1      -2.400  -0.439   0.668  0.00  0.00     0.060 C 
BRANCH   7   8
ATOM      8  C2' I4B d   1      -2.606  -0.160  -0.807  0.00  0.00    -0.013 C 
ATOM      9  C4' I4B d   1      -2.101  -1.298  -1.654  0.00  0.00     0.013 C 
ATOM     10  C3' I4B d   1      -4.070   0.074  -1.033  0.00  0.00     0.013 C 
ENDBRANCH   7   8
ENDBRANCH   1   7
TORSDOF 2
ENDMDL
