MODEL 1
REMARK minimizedAffinity 11.3607674
REMARK minimizedRMSD -1
REMARK  2 active torsions:
REMARK  status: ('A' for Active; 'I' for Inactive)
REMARK    1  A    between atoms: C2'_3  and  C1'_4 
REMARK    2  A    between atoms: C1'_4  and  C1_5 
ROOT
ATOM      1  C1  I4B d   1      -1.326   0.035   2.557  0.00  0.00    -0.075 A 
ATOM      2  C2  I4B d   1      -2.185  -0.388   1.575  0.00  0.00     0.003 A 
ATOM      3  C3  I4B d   1      -3.363  -1.096   1.915  0.00  0.00     0.002 A 
ATOM      4  C4  I4B d   1      -3.615  -1.402   3.237  0.00  0.00    -0.004 A 
ATOM      5  C5  I4B d   1      -2.754  -0.952   4.234  0.00  0.00     0.002 A 
ATOM      6  C6  I4B d   1      -1.608  -0.218   3.893  0.00  0.00     0.003 A 
ENDROOT
BRANCH   1   7
ATOM      7  C1' I4B d   1      -0.074   0.752   2.161  0.00  0.00     0.060 C 
BRANCH   7   8
ATOM      8  C2' I4B d   1       1.053  -0.260   2.126  0.00  0.00    -0.013 C 
ATOM      9  C4' I4B d   1       1.848  -0.148   0.852  0.00  0.00     0.013 C 
ATOM     10  C3' I4B d   1       1.920  -0.029   3.328  0.00  0.00     0.013 C 
ENDBRANCH   7   8
ENDBRANCH   1   7
TORSDOF 2
ENDMDL
