MODEL 1
REMARK minimizedAffinity 10.3410654
REMARK minimizedRMSD -1
REMARK  2 active torsions:
REMARK  status: ('A' for Active; 'I' for Inactive)
REMARK    1  A    between atoms: C2'_3  and  C1'_4 
REMARK    2  A    between atoms: C1'_4  and  C1_5 
ROOT
ATOM      1  C1  I4B d   1       1.810   0.492  -2.569  0.00  0.00    -0.075 A 
ATOM      2  C2  I4B d   1       0.726   0.185  -3.353  0.00  0.00     0.003 A 
ATOM      3  C3  I4B d   1       0.858   0.129  -4.762  0.00  0.00     0.002 A 
ATOM      4  C4  I4B d   1       2.072   0.434  -5.343  0.00  0.00    -0.004 A 
ATOM      5  C5  I4B d   1       3.175   0.722  -4.546  0.00  0.00     0.002 A 
ATOM      6  C6  I4B d   1       3.048   0.740  -3.150  0.00  0.00     0.003 A 
ENDROOT
BRANCH   1   7
ATOM      7  C1' I4B d   1       1.628   0.575  -1.087  0.00  0.00     0.060 C 
BRANCH   7   8
ATOM      8  C2' I4B d   1       1.707  -0.830  -0.527  0.00  0.00    -0.013 C 
ATOM      9  C4' I4B d   1       2.202  -0.824   0.895  0.00  0.00     0.013 C 
ATOM     10  C3' I4B d   1       0.342  -1.444  -0.623  0.00  0.00     0.013 C 
ENDBRANCH   7   8
ENDBRANCH   1   7
TORSDOF 2
ENDMDL
