MODEL 1
REMARK minimizedAffinity 11.5038548
REMARK minimizedRMSD -1
REMARK  2 active torsions:
REMARK  status: ('A' for Active; 'I' for Inactive)
REMARK    1  A    between atoms: C2'_3  and  C1'_4 
REMARK    2  A    between atoms: C1'_4  and  C1_5 
ROOT
ATOM      1  C1  I4B d   1       2.873   0.660  -2.377  0.00  0.00    -0.075 A 
ATOM      2  C2  I4B d   1       2.780  -0.381  -1.487  0.00  0.00     0.003 A 
ATOM      3  C3  I4B d   1       2.616  -0.123  -0.104  0.00  0.00     0.002 A 
ATOM      4  C4  I4B d   1       2.601   1.181   0.347  0.00  0.00    -0.004 A 
ATOM      5  C5  I4B d   1       2.673   2.234  -0.560  0.00  0.00     0.002 A 
ATOM      6  C6  I4B d   1       2.797   1.973  -1.932  0.00  0.00     0.003 A 
ENDROOT
BRANCH   1   7
ATOM      7  C1' I4B d   1       3.079   0.352  -3.827  0.00  0.00     0.060 C 
BRANCH   7   8
ATOM      8  C2' I4B d   1       1.967   1.020  -4.609  0.00  0.00    -0.013 C 
ATOM      9  C4' I4B d   1       2.418   1.379  -6.000  0.00  0.00     0.013 C 
ATOM     10  C3' I4B d   1       0.797   0.083  -4.644  0.00  0.00     0.013 C 
ENDBRANCH   7   8
ENDBRANCH   1   7
TORSDOF 2
ENDMDL
