MODEL 1
REMARK minimizedAffinity 10.9152794
REMARK minimizedRMSD -1
REMARK  2 active torsions:
REMARK  status: ('A' for Active; 'I' for Inactive)
REMARK    1  A    between atoms: C2'_3  and  C1'_4 
REMARK    2  A    between atoms: C1'_4  and  C1_5 
ROOT
ATOM      1  C1  I4B d   1       1.478  -0.318  -2.239  0.00  0.00    -0.075 A 
ATOM      2  C2  I4B d   1       2.742   0.210  -2.332  0.00  0.00     0.003 A 
ATOM      3  C3  I4B d   1       3.173   0.820  -3.535  0.00  0.00     0.002 A 
ATOM      4  C4  I4B d   1       2.332   0.835  -4.629  0.00  0.00    -0.004 A 
ATOM      5  C5  I4B d   1       1.043   0.320  -4.526  0.00  0.00     0.002 A 
ATOM      6  C6  I4B d   1       0.609  -0.250  -3.320  0.00  0.00     0.003 A 
ENDROOT
BRANCH   1   7
ATOM      7  C1' I4B d   1       1.067  -0.984  -0.965  0.00  0.00     0.060 C 
BRANCH   7   8
ATOM      8  C2' I4B d   1       1.978  -0.484   0.138  0.00  0.00    -0.013 C 
ATOM      9  C4' I4B d   1       1.189  -0.077   1.354  0.00  0.00     0.013 C 
ATOM     10  C3' I4B d   1       2.952  -1.577   0.466  0.00  0.00     0.013 C 
ENDBRANCH   7   8
ENDBRANCH   1   7
TORSDOF 2
ENDMDL
