MODEL 1
REMARK minimizedAffinity 8.37430954
REMARK minimizedRMSD -1
REMARK  2 active torsions:
REMARK  status: ('A' for Active; 'I' for Inactive)
REMARK    1  A    between atoms: C2'_3  and  C1'_4 
REMARK    2  A    between atoms: C1'_4  and  C1_5 
ROOT
ATOM      1  C1  I4B d   1       0.449  -0.008  -4.472  0.00  0.00    -0.075 A 
ATOM      2  C2  I4B d   1       0.149  -0.847  -3.428  0.00  0.00     0.003 A 
ATOM      3  C3  I4B d   1      -0.557  -2.052  -3.662  0.00  0.00     0.002 A 
ATOM      4  C4  I4B d   1      -0.985  -2.352  -4.939  0.00  0.00    -0.004 A 
ATOM      5  C5  I4B d   1      -0.660  -1.512  -6.000  0.00  0.00     0.002 A 
ATOM      6  C6  I4B d   1       0.072  -0.339  -5.767  0.00  0.00     0.003 A 
ENDROOT
BRANCH   1   7
ATOM      7  C1' I4B d   1       1.167   1.272  -4.185  0.00  0.00     0.060 C 
BRANCH   7   8
ATOM      8  C2' I4B d   1       2.081   1.039  -2.999  0.00  0.00    -0.013 C 
ATOM      9  C4' I4B d   1       3.504   0.824  -3.441  0.00  0.00     0.013 C 
ATOM     10  C3' I4B d   1       1.970   2.225  -2.089  0.00  0.00     0.013 C 
ENDBRANCH   7   8
ENDBRANCH   1   7
TORSDOF 2
ENDMDL
