MODEL 1
REMARK minimizedAffinity 4.98208809
REMARK minimizedRMSD -1
REMARK  1 active torsions:
REMARK  status: ('A' for Active; 'I' for Inactive)
REMARK    1  A    between atoms: C1_2  and  C2_3 
ROOT
ATOM      1  C2  UNL d   1      -1.808   0.022   1.490  0.00  0.00    -0.081 A 
ATOM      2  C3  UNL d   1      -0.514   0.120   0.966  0.00  0.00     0.006 A 
ATOM      3  C4  UNL d   1       0.588  -0.296   1.718  0.00  0.00     0.002 A 
ATOM      4  C5  UNL d   1       0.413  -0.823   3.002  0.00  0.00    -0.080 A 
ATOM      5  C6  UNL d   1       1.585  -1.301   3.807  0.00  0.00     0.076 C 
ATOM      6  C7  UNL d   1      -0.879  -0.905   3.532  0.00  0.00     0.002 A 
ATOM      7  C8  UNL d   1      -1.981  -0.489   2.782  0.00  0.00     0.006 A 
ENDROOT
BRANCH   1   8
ATOM      8  C1  UNL d   1      -3.004   0.409   0.658  0.00  0.00     0.054 C 
ATOM      9  C   UNL d   1      -3.244  -0.592  -0.464  0.00  0.00     0.018 C 
ENDBRANCH   1   8
TORSDOF 1
ENDMDL
