MODEL 1
REMARK minimizedAffinity -1.41409802
REMARK minimizedRMSD -1
REMARK  1 active torsions:
REMARK  status: ('A' for Active; 'I' for Inactive)
REMARK    1  A    between atoms: C1_2  and  C2_3 
ROOT
ATOM      1  C2  UNL d   1      -0.054  -1.255  -1.258  0.00  0.00    -0.081 A 
ATOM      2  C3  UNL d   1      -1.431  -1.003  -1.247  0.00  0.00     0.006 A 
ATOM      3  C4  UNL d   1      -2.031  -0.395  -0.142  0.00  0.00     0.002 A 
ATOM      4  C5  UNL d   1      -1.264  -0.021   0.966  0.00  0.00    -0.080 A 
ATOM      5  C6  UNL d   1      -1.890   0.661   2.146  0.00  0.00     0.076 C 
ATOM      6  C7  UNL d   1       0.110  -0.288   0.963  0.00  0.00     0.002 A 
ATOM      7  C8  UNL d   1       0.710  -0.897  -0.141  0.00  0.00     0.006 A 
ENDROOT
BRANCH   1   8
ATOM      8  C1  UNL d   1       0.606  -1.853  -2.474  0.00  0.00     0.054 C 
ATOM      9  C   UNL d   1       0.907  -3.331  -2.270  0.00  0.00     0.018 C 
ENDBRANCH   1   8
TORSDOF 1
ENDMDL
