MODEL 1
REMARK minimizedAffinity 3.36069059
REMARK minimizedRMSD -1
REMARK  1 active torsions:
REMARK  status: ('A' for Active; 'I' for Inactive)
REMARK    1  A    between atoms: C1_2  and  C2_3 
ROOT
ATOM      1  C2  UNL d   1      -2.049  -0.188   1.246  0.00  0.00    -0.081 A 
ATOM      2  C3  UNL d   1      -2.881  -0.623   0.207  0.00  0.00     0.006 A 
ATOM      3  C4  UNL d   1      -2.353  -0.882  -1.061  0.00  0.00     0.002 A 
ATOM      4  C5  UNL d   1      -0.986  -0.718  -1.308  0.00  0.00    -0.080 A 
ATOM      5  C6  UNL d   1      -0.402  -1.021  -2.656  0.00  0.00     0.076 C 
ATOM      6  C7  UNL d   1      -0.158  -0.267  -0.274  0.00  0.00     0.002 A 
ATOM      7  C8  UNL d   1      -0.685  -0.007   0.993  0.00  0.00     0.006 A 
ENDROOT
BRANCH   1   8
ATOM      8  C1  UNL d   1      -2.604   0.029   2.631  0.00  0.00     0.054 C 
ATOM      9  C   UNL d   1      -3.555  -1.090   3.028  0.00  0.00     0.018 C 
ENDBRANCH   1   8
TORSDOF 1
ENDMDL
