MODEL 1
REMARK minimizedAffinity -1.55917561
REMARK minimizedRMSD -1
REMARK  1 active torsions:
REMARK  status: ('A' for Active; 'I' for Inactive)
REMARK    1  A    between atoms: C1_2  and  C2_3 
ROOT
ATOM      1  C2  UNL d   1      -0.107  -0.433   3.399  0.00  0.00    -0.081 A 
ATOM      2  C3  UNL d   1      -1.369   0.161   3.280  0.00  0.00     0.006 A 
ATOM      3  C4  UNL d   1      -1.914   0.418   2.020  0.00  0.00     0.002 A 
ATOM      4  C5  UNL d   1      -1.211   0.078   0.859  0.00  0.00    -0.080 A 
ATOM      5  C6  UNL d   1      -1.799   0.320  -0.499  0.00  0.00     0.076 C 
ATOM      6  C7  UNL d   1       0.057  -0.501   0.978  0.00  0.00     0.002 A 
ATOM      7  C8  UNL d   1       0.603  -0.757   2.238  0.00  0.00     0.006 A 
ENDROOT
BRANCH   1   8
ATOM      8  C1  UNL d   1       0.456  -0.771   4.756  0.00  0.00     0.054 C 
ATOM      9  C   UNL d   1       0.045  -2.170   5.193  0.00  0.00     0.018 C 
ENDBRANCH   1   8
TORSDOF 1
ENDMDL
