MODEL 1
REMARK minimizedAffinity -0.354775608
REMARK minimizedRMSD -1
REMARK  1 active torsions:
REMARK  status: ('A' for Active; 'I' for Inactive)
REMARK    1  A    between atoms: C1_2  and  C2_3 
ROOT
ATOM      1  C2  UNL d   1      -0.349  -1.549   4.267  0.00  0.00    -0.081 A 
ATOM      2  C3  UNL d   1      -1.227  -2.263   5.092  0.00  0.00     0.006 A 
ATOM      3  C4  UNL d   1      -2.587  -2.336   4.784  0.00  0.00     0.002 A 
ATOM      4  C5  UNL d   1      -3.092  -1.703   3.643  0.00  0.00    -0.080 A 
ATOM      5  C6  UNL d   1      -4.545  -1.799   3.284  0.00  0.00     0.076 C 
ATOM      6  C7  UNL d   1      -2.218  -0.975   2.828  0.00  0.00     0.002 A 
ATOM      7  C8  UNL d   1      -0.858  -0.901   3.136  0.00  0.00     0.006 A 
ENDROOT
BRANCH   1   8
ATOM      8  C1  UNL d   1       1.129  -1.522   4.562  0.00  0.00     0.054 C 
ATOM      9  C   UNL d   1       1.414  -1.931   6.000  0.00  0.00     0.018 C 
ENDBRANCH   1   8
TORSDOF 1
ENDMDL
