MODEL 1
REMARK minimizedAffinity 11.538682
REMARK minimizedRMSD -1
REMARK  1 active torsions:
REMARK  status: ('A' for Active; 'I' for Inactive)
REMARK    1  A    between atoms: C1_2  and  C2_3 
ROOT
ATOM      1  C2  UNL d   1       1.773   0.843  -3.806  0.00  0.00    -0.081 A 
ATOM      2  C3  UNL d   1       0.571   0.599  -3.130  0.00  0.00     0.006 A 
ATOM      3  C4  UNL d   1      -0.445  -0.142  -3.737  0.00  0.00     0.002 A 
ATOM      4  C5  UNL d   1      -0.275  -0.657  -5.027  0.00  0.00    -0.080 A 
ATOM      5  C6  UNL d   1      -1.346  -1.479  -5.679  0.00  0.00     0.076 C 
ATOM      6  C7  UNL d   1       0.918  -0.398  -5.710  0.00  0.00     0.002 A 
ATOM      7  C8  UNL d   1       1.935   0.343  -5.103  0.00  0.00     0.006 A 
ENDROOT
BRANCH   1   8
ATOM      8  C1  UNL d   1       2.896   1.586  -3.129  0.00  0.00     0.054 C 
ATOM      9  C   UNL d   1       3.112   1.087  -1.708  0.00  0.00     0.018 C 
ENDBRANCH   1   8
TORSDOF 1
ENDMDL
