MODEL 1
REMARK minimizedAffinity 5.02425194
REMARK minimizedRMSD -1
REMARK  1 active torsions:
REMARK  status: ('A' for Active; 'I' for Inactive)
REMARK    1  A    between atoms: C1_2  and  C2_3 
ROOT
ATOM      1  C2  UNL d   1      -1.578   0.819   0.994  0.00  0.00    -0.081 A 
ATOM      2  C3  UNL d   1      -1.544   2.093   1.576  0.00  0.00     0.006 A 
ATOM      3  C4  UNL d   1      -0.324   2.725   1.825  0.00  0.00     0.002 A 
ATOM      4  C5  UNL d   1       0.881   2.100   1.490  0.00  0.00    -0.080 A 
ATOM      5  C6  UNL d   1       2.197   2.781   1.724  0.00  0.00     0.076 C 
ATOM      6  C7  UNL d   1       0.848   0.821   0.924  0.00  0.00     0.002 A 
ATOM      7  C8  UNL d   1      -0.371   0.187   0.675  0.00  0.00     0.006 A 
ENDROOT
BRANCH   1   8
ATOM      8  C1  UNL d   1      -2.894   0.162   0.664  0.00  0.00     0.054 C 
ATOM      9  C   UNL d   1      -2.896  -0.392  -0.753  0.00  0.00     0.018 C 
ENDBRANCH   1   8
TORSDOF 1
ENDMDL
