MODEL 1
REMARK minimizedAffinity 17.2428112
REMARK minimizedRMSD -1
REMARK  0 active torsions:
REMARK  status: ('A' for Active; 'I' for Inactive)
ROOT
ATOM      1  C   UNL d   1      -1.389   0.053   1.551  0.00  0.00     0.124 A 
ATOM      2  C1  UNL d   1      -0.998  -0.717   2.637  0.00  0.00     0.062 A 
ATOM      3  C2  UNL d   1       0.029  -1.647   2.502  0.00  0.00     0.162 A 
ATOM      4  C3  UNL d   1       0.673  -1.812   1.275  0.00  0.00    -0.034 A 
ATOM      5  C4  UNL d   1       0.273  -1.034   0.187  0.00  0.00     0.162 A 
ATOM      6  C5  UNL d   1      -0.754  -0.106   0.327  0.00  0.00     0.062 A 
ATOM      7  F   UNL d   1      -1.131   0.637  -0.723  0.00  0.00    -0.097 F 
ATOM      8  F1  UNL d   1       0.870  -1.167  -1.007  0.00  0.00    -0.096 F 
ATOM      9  I   UNL d   1       2.208  -3.202   1.069  0.00  0.00    -0.060 I 
ATOM     10  F2  UNL d   1       0.386  -2.378   3.568  0.00  0.00    -0.096 F 
ATOM     11  F3  UNL d   1      -1.610  -0.566   3.820  0.00  0.00    -0.097 F 
ATOM     12  F4  UNL d   1      -2.378   0.947   1.683  0.00  0.00    -0.092 F 
ENDROOT
TORSDOF 0
ENDMDL
