MODEL 1
REMARK minimizedAffinity 7.1983676
REMARK minimizedRMSD -1
REMARK  0 active torsions:
REMARK  status: ('A' for Active; 'I' for Inactive)
ROOT
ATOM      1  C   UNL d   1       0.348  -2.296   2.108  0.00  0.00     0.124 A 
ATOM      2  C1  UNL d   1      -0.752  -1.481   2.334  0.00  0.00     0.062 A 
ATOM      3  C2  UNL d   1      -1.198  -0.614   1.340  0.00  0.00     0.162 A 
ATOM      4  C3  UNL d   1      -0.543  -0.558   0.110  0.00  0.00    -0.034 A 
ATOM      5  C4  UNL d   1       0.564  -1.380  -0.110  0.00  0.00     0.162 A 
ATOM      6  C5  UNL d   1       1.005  -2.245   0.887  0.00  0.00     0.062 A 
ATOM      7  F   UNL d   1       2.069  -3.031   0.667  0.00  0.00    -0.097 F 
ATOM      8  F1  UNL d   1       1.217  -1.352  -1.281  0.00  0.00    -0.096 F 
ATOM      9  I   UNL d   1      -1.205   0.736  -1.379  0.00  0.00    -0.060 I 
ATOM     10  F2  UNL d   1      -2.264   0.162   1.586  0.00  0.00    -0.096 F 
ATOM     11  F3  UNL d   1      -1.388  -1.528   3.514  0.00  0.00    -0.097 F 
ATOM     12  F4  UNL d   1       0.775  -3.128   3.066  0.00  0.00    -0.092 F 
ENDROOT
TORSDOF 0
ENDMDL
