MODEL 1
REMARK minimizedAffinity 12.7921677
REMARK minimizedRMSD -1
REMARK  0 active torsions:
REMARK  status: ('A' for Active; 'I' for Inactive)
ROOT
ATOM      1  C   UNL d   1      -1.082  -2.713   3.205  0.00  0.00     0.124 A 
ATOM      2  C1  UNL d   1       0.037  -3.340   2.675  0.00  0.00     0.062 A 
ATOM      3  C2  UNL d   1       0.813  -2.694   1.717  0.00  0.00     0.162 A 
ATOM      4  C3  UNL d   1       0.472  -1.413   1.281  0.00  0.00    -0.034 A 
ATOM      5  C4  UNL d   1      -0.657  -0.790   1.818  0.00  0.00     0.162 A 
ATOM      6  C5  UNL d   1      -1.428  -1.440   2.776  0.00  0.00     0.062 A 
ATOM      7  F   UNL d   1      -2.510  -0.833   3.286  0.00  0.00    -0.097 F 
ATOM      8  F1  UNL d   1      -1.013   0.441   1.422  0.00  0.00    -0.096 F 
ATOM      9  I   UNL d   1       1.629  -0.444  -0.152  0.00  0.00    -0.060 I 
ATOM     10  F2  UNL d   1       1.890  -3.323   1.222  0.00  0.00    -0.096 F 
ATOM     11  F3  UNL d   1       0.373  -4.571   3.087  0.00  0.00    -0.097 F 
ATOM     12  F4  UNL d   1      -1.827  -3.337   4.126  0.00  0.00    -0.092 F 
ENDROOT
TORSDOF 0
ENDMDL
