MODEL 1
REMARK minimizedAffinity 20.1195202
REMARK minimizedRMSD -1
REMARK  0 active torsions:
REMARK  status: ('A' for Active; 'I' for Inactive)
ROOT
ATOM      1  C   UNL d   1       1.242  -1.365   0.220  0.00  0.00     0.124 A 
ATOM      2  C1  UNL d   1       2.142  -2.234  -0.380  0.00  0.00     0.062 A 
ATOM      3  C2  UNL d   1       2.958  -3.046   0.402  0.00  0.00     0.162 A 
ATOM      4  C3  UNL d   1       2.878  -2.994   1.793  0.00  0.00    -0.034 A 
ATOM      5  C4  UNL d   1       1.971  -2.116   2.390  0.00  0.00     0.162 A 
ATOM      6  C5  UNL d   1       1.157  -1.307   1.604  0.00  0.00     0.062 A 
ATOM      7  F   UNL d   1       0.288  -0.467   2.186  0.00  0.00    -0.097 F 
ATOM      8  F1  UNL d   1       1.867  -2.040   3.725  0.00  0.00    -0.096 F 
ATOM      9  I   UNL d   1       4.097  -4.206   2.966  0.00  0.00    -0.060 I 
ATOM     10  F2  UNL d   1       3.819  -3.877  -0.205  0.00  0.00    -0.096 F 
ATOM     11  F3  UNL d   1       2.227  -2.292  -1.717  0.00  0.00    -0.097 F 
ATOM     12  F4  UNL d   1       0.458  -0.584  -0.535  0.00  0.00    -0.092 F 
ENDROOT
TORSDOF 0
ENDMDL
