MODEL 1
REMARK minimizedAffinity 2.86292219
REMARK minimizedRMSD -1
REMARK  0 active torsions:
REMARK  status: ('A' for Active; 'I' for Inactive)
ROOT
ATOM      1  C   UNL d   1      -1.324  -0.251   1.377  0.00  0.00     0.124 A 
ATOM      2  C1  UNL d   1      -0.541  -0.606   2.467  0.00  0.00     0.062 A 
ATOM      3  C2  UNL d   1       0.705  -1.194   2.272  0.00  0.00     0.162 A 
ATOM      4  C3  UNL d   1       1.178  -1.431   0.981  0.00  0.00    -0.034 A 
ATOM      5  C4  UNL d   1       0.385  -1.072  -0.110  0.00  0.00     0.162 A 
ATOM      6  C5  UNL d   1      -0.860  -0.485   0.090  0.00  0.00     0.062 A 
ATOM      7  F   UNL d   1      -1.615  -0.143  -0.965  0.00  0.00    -0.097 F 
ATOM      8  F1  UNL d   1       0.808  -1.286  -1.365  0.00  0.00    -0.096 F 
ATOM      9  I   UNL d   1       3.041  -2.310   0.686  0.00  0.00    -0.060 I 
ATOM     10  F2  UNL d   1       1.440  -1.527   3.344  0.00  0.00    -0.096 F 
ATOM     11  F3  UNL d   1      -0.987  -0.382   3.711  0.00  0.00    -0.097 F 
ATOM     12  F4  UNL d   1      -2.523   0.314   1.567  0.00  0.00    -0.092 F 
ENDROOT
TORSDOF 0
ENDMDL
