MODEL 1
REMARK minimizedAffinity 3.67519426
REMARK minimizedRMSD -1
REMARK  0 active torsions:
REMARK  status: ('A' for Active; 'I' for Inactive)
ROOT
ATOM      1  C   UNL d   1      -0.086  -0.006   0.658  0.00  0.00     0.124 A 
ATOM      2  C1  UNL d   1      -0.431  -0.866   1.691  0.00  0.00     0.062 A 
ATOM      3  C2  UNL d   1       0.309  -2.023   1.916  0.00  0.00     0.162 A 
ATOM      4  C3  UNL d   1       1.403  -2.327   1.106  0.00  0.00    -0.034 A 
ATOM      5  C4  UNL d   1       1.743  -1.458   0.068  0.00  0.00     0.162 A 
ATOM      6  C5  UNL d   1       1.000  -0.303  -0.153  0.00  0.00     0.062 A 
ATOM      7  F   UNL d   1       1.335   0.526  -1.152  0.00  0.00    -0.097 F 
ATOM      8  F1  UNL d   1       2.789  -1.720  -0.730  0.00  0.00    -0.096 F 
ATOM      9  I   UNL d   1       2.512  -4.057   1.439  0.00  0.00    -0.060 I 
ATOM     10  F2  UNL d   1      -0.048  -2.836   2.922  0.00  0.00    -0.096 F 
ATOM     11  F3  UNL d   1      -1.482  -0.582   2.475  0.00  0.00    -0.097 F 
ATOM     12  F4  UNL d   1      -0.801   1.106   0.443  0.00  0.00    -0.092 F 
ENDROOT
TORSDOF 0
ENDMDL
