MODEL 1
REMARK minimizedAffinity 8.73360443
REMARK minimizedRMSD -1
REMARK  0 active torsions:
REMARK  status: ('A' for Active; 'I' for Inactive)
ROOT
ATOM      1  C   UNL d   1      -0.257  -3.139   3.095  0.00  0.00     0.124 A 
ATOM      2  C1  UNL d   1       0.711  -3.681   2.261  0.00  0.00     0.062 A 
ATOM      3  C2  UNL d   1       1.275  -2.911   1.248  0.00  0.00     0.162 A 
ATOM      4  C3  UNL d   1       0.871  -1.588   1.063  0.00  0.00    -0.034 A 
ATOM      5  C4  UNL d   1      -0.104  -1.050   1.904  0.00  0.00     0.162 A 
ATOM      6  C5  UNL d   1      -0.664  -1.824   2.915  0.00  0.00     0.062 A 
ATOM      7  F   UNL d   1      -1.599  -1.298   3.719  0.00  0.00    -0.097 F 
ATOM      8  F1  UNL d   1      -0.515   0.218   1.754  0.00  0.00    -0.096 F 
ATOM      9  I   UNL d   1       1.711  -0.433  -0.451  0.00  0.00    -0.060 I 
ATOM     10  F2  UNL d   1       2.208  -3.461   0.458  0.00  0.00    -0.096 F 
ATOM     11  F3  UNL d   1       1.106  -4.951   2.432  0.00  0.00    -0.097 F 
ATOM     12  F4  UNL d   1      -0.798  -3.883   4.068  0.00  0.00    -0.092 F 
ENDROOT
TORSDOF 0
ENDMDL
