MODEL 1
REMARK minimizedAffinity 15.7491188
REMARK minimizedRMSD -1
REMARK  0 active torsions:
REMARK  status: ('A' for Active; 'I' for Inactive)
ROOT
ATOM      1  C   UNL d   1       1.068  -0.601   0.036  0.00  0.00     0.124 A 
ATOM      2  C1  UNL d   1       1.669  -1.732   0.572  0.00  0.00     0.062 A 
ATOM      3  C2  UNL d   1       1.022  -2.466   1.562  0.00  0.00     0.162 A 
ATOM      4  C3  UNL d   1      -0.235  -2.073   2.021  0.00  0.00    -0.034 A 
ATOM      5  C4  UNL d   1      -0.833  -0.934   1.478  0.00  0.00     0.162 A 
ATOM      6  C5  UNL d   1      -0.182  -0.204   0.489  0.00  0.00     0.062 A 
ATOM      7  F   UNL d   1      -0.765   0.888  -0.027  0.00  0.00    -0.097 F 
ATOM      8  F1  UNL d   1      -2.041  -0.528   1.897  0.00  0.00    -0.096 F 
ATOM      9  I   UNL d   1      -1.206  -3.168   3.501  0.00  0.00    -0.060 I 
ATOM     10  F2  UNL d   1       1.626  -3.554   2.062  0.00  0.00    -0.096 F 
ATOM     11  F3  UNL d   1       2.877  -2.117   0.137  0.00  0.00    -0.097 F 
ATOM     12  F4  UNL d   1       1.693   0.104  -0.915  0.00  0.00    -0.092 F 
ENDROOT
TORSDOF 0
ENDMDL
