MODEL 1
REMARK minimizedAffinity 4.28996277
REMARK minimizedRMSD -1
REMARK  0 active torsions:
REMARK  status: ('A' for Active; 'I' for Inactive)
ROOT
ATOM      1  C   UNL d   1      -0.858  -0.362   1.428  0.00  0.00     0.124 A 
ATOM      2  C1  UNL d   1      -0.285  -0.657   0.199  0.00  0.00     0.062 A 
ATOM      3  C2  UNL d   1       0.699  -1.636   0.101  0.00  0.00     0.162 A 
ATOM      4  C3  UNL d   1       1.116  -2.330   1.237  0.00  0.00    -0.034 A 
ATOM      5  C4  UNL d   1       0.536  -2.028   2.471  0.00  0.00     0.162 A 
ATOM      6  C5  UNL d   1      -0.447  -1.048   2.563  0.00  0.00     0.062 A 
ATOM      7  F   UNL d   1      -0.999  -0.765   3.752  0.00  0.00    -0.097 F 
ATOM      8  F1  UNL d   1       0.914  -2.676   3.583  0.00  0.00    -0.096 F 
ATOM      9  I   UNL d   1       2.587  -3.795   1.096  0.00  0.00    -0.060 I 
ATOM     10  F2  UNL d   1       1.235  -1.900  -1.100  0.00  0.00    -0.096 F 
ATOM     11  F3  UNL d   1      -0.680   0.005  -0.899  0.00  0.00    -0.097 F 
ATOM     12  F4  UNL d   1      -1.804   0.581   1.519  0.00  0.00    -0.092 F 
ENDROOT
TORSDOF 0
ENDMDL
