MODEL 1
REMARK minimizedAffinity 7.00719929
REMARK minimizedRMSD -1
REMARK  0 active torsions:
REMARK  status: ('A' for Active; 'I' for Inactive)
ROOT
ATOM      1  C   UNL d   1      -0.524  -1.550   1.812  0.00  0.00     0.124 A 
ATOM      2  C1  UNL d   1      -1.078  -0.336   1.428  0.00  0.00     0.062 A 
ATOM      3  C2  UNL d   1      -0.454   0.442   0.458  0.00  0.00     0.162 A 
ATOM      4  C3  UNL d   1       0.732   0.010  -0.136  0.00  0.00    -0.034 A 
ATOM      5  C4  UNL d   1       1.283  -1.212   0.255  0.00  0.00     0.162 A 
ATOM      6  C5  UNL d   1       0.655  -1.986   1.225  0.00  0.00     0.062 A 
ATOM      7  F   UNL d   1       1.192  -3.159   1.595  0.00  0.00    -0.097 F 
ATOM      8  F1  UNL d   1       2.421  -1.658  -0.296  0.00  0.00    -0.096 F 
ATOM      9  I   UNL d   1       1.668   1.171  -1.587  0.00  0.00    -0.060 I 
ATOM     10  F2  UNL d   1      -1.011   1.611   0.107  0.00  0.00    -0.096 F 
ATOM     11  F3  UNL d   1      -2.217   0.088   1.994  0.00  0.00    -0.097 F 
ATOM     12  F4  UNL d   1      -1.127  -2.297   2.746  0.00  0.00    -0.092 F 
ENDROOT
TORSDOF 0
ENDMDL
