MODEL 1
REMARK minimizedAffinity -1.9497658
REMARK minimizedRMSD -1
REMARK  0 active torsions:
REMARK  status: ('A' for Active; 'I' for Inactive)
ROOT
ATOM      1  C   UNL d   1      -0.374  -3.030   3.090  0.00  0.00     0.124 A 
ATOM      2  C1  UNL d   1       0.703  -3.514   2.359  0.00  0.00     0.062 A 
ATOM      3  C2  UNL d   1       1.249  -2.751   1.331  0.00  0.00     0.162 A 
ATOM      4  C3  UNL d   1       0.721  -1.497   1.028  0.00  0.00    -0.034 A 
ATOM      5  C4  UNL d   1      -0.362  -1.018   1.766  0.00  0.00     0.162 A 
ATOM      6  C5  UNL d   1      -0.905  -1.783   2.793  0.00  0.00     0.062 A 
ATOM      7  F   UNL d   1      -1.946  -1.314   3.498  0.00  0.00    -0.097 F 
ATOM      8  F1  UNL d   1      -0.895   0.185   1.501  0.00  0.00    -0.096 F 
ATOM      9  I   UNL d   1       1.536  -0.354  -0.509  0.00  0.00    -0.060 I 
ATOM     10  F2  UNL d   1       2.289  -3.243   0.642  0.00  0.00    -0.096 F 
ATOM     11  F3  UNL d   1       1.217  -4.719   2.644  0.00  0.00    -0.097 F 
ATOM     12  F4  UNL d   1      -0.899  -3.766   4.078  0.00  0.00    -0.092 F 
ENDROOT
TORSDOF 0
ENDMDL
