MODEL 1
REMARK minimizedAffinity -2.86491966
REMARK minimizedRMSD -1
REMARK  0 active torsions:
REMARK  status: ('A' for Active; 'I' for Inactive)
ROOT
ATOM      1  C   UNL d   1       0.467   0.074   4.216  0.00  0.00     0.023 A 
ATOM      2  C1  UNL d   1       0.218   1.274   3.549  0.00  0.00     0.003 A 
ATOM      3  C2  UNL d   1      -0.474   1.269   2.335  0.00  0.00     0.048 A 
ATOM      4  C3  UNL d   1      -0.913   0.061   1.795  0.00  0.00     0.023 A 
ATOM      5  C4  UNL d   1      -0.667  -1.142   2.460  0.00  0.00     0.048 A 
ATOM      6  C5  UNL d   1       0.026  -1.132   3.672  0.00  0.00     0.003 A 
ATOM      7  I   UNL d   1      -1.943   0.051  -0.010  0.00  0.00    -0.146 I 
ENDROOT
TORSDOF 0
ENDMDL
