MODEL 1
REMARK minimizedAffinity 9.41401386
REMARK minimizedRMSD -1
REMARK  0 active torsions:
REMARK  status: ('A' for Active; 'I' for Inactive)
ROOT
ATOM      1  C   UNL d   1      -3.493   0.148  -0.607  0.00  0.00     0.023 A 
ATOM      2  C1  UNL d   1      -3.240  -0.290   0.693  0.00  0.00     0.003 A 
ATOM      3  C2  UNL d   1      -1.951  -0.197   1.223  0.00  0.00     0.048 A 
ATOM      4  C3  UNL d   1      -0.921   0.336   0.448  0.00  0.00     0.023 A 
ATOM      5  C4  UNL d   1      -1.171   0.776  -0.853  0.00  0.00     0.048 A 
ATOM      6  C5  UNL d   1      -2.460   0.680  -1.379  0.00  0.00     0.003 A 
ATOM      7  I   UNL d   1       0.997   0.475   1.236  0.00  0.00    -0.146 I 
ENDROOT
TORSDOF 0
ENDMDL
