MODEL 1
REMARK minimizedAffinity 8.49524021
REMARK minimizedRMSD -1
REMARK  0 active torsions:
REMARK  status: ('A' for Active; 'I' for Inactive)
ROOT
ATOM      1  C   UNL d   1      -0.210   0.671   2.545  0.00  0.00     0.023 A 
ATOM      2  C1  UNL d   1      -0.518   0.055   1.332  0.00  0.00     0.003 A 
ATOM      3  C2  UNL d   1       0.477  -0.135   0.372  0.00  0.00     0.048 A 
ATOM      4  C3  UNL d   1       1.779   0.292   0.631  0.00  0.00     0.023 A 
ATOM      5  C4  UNL d   1       2.093   0.908   1.844  0.00  0.00     0.048 A 
ATOM      6  C5  UNL d   1       1.094   1.097   2.801  0.00  0.00     0.003 A 
ATOM      7  I   UNL d   1       3.262   0.010  -0.798  0.00  0.00    -0.146 I 
ENDROOT
TORSDOF 0
ENDMDL
