MODEL 1
REMARK minimizedAffinity 8.99697685
REMARK minimizedRMSD -1
REMARK  0 active torsions:
REMARK  status: ('A' for Active; 'I' for Inactive)
ROOT
ATOM      1  C   UNL d   1       1.515   5.827   2.496  0.00  0.00     0.023 A 
ATOM      2  C1  UNL d   1       2.900   5.946   2.375  0.00  0.00     0.003 A 
ATOM      3  C2  UNL d   1       3.490   5.992   1.111  0.00  0.00     0.048 A 
ATOM      4  C3  UNL d   1       2.690   5.920  -0.029  0.00  0.00     0.023 A 
ATOM      5  C4  UNL d   1       1.304   5.802   0.087  0.00  0.00     0.048 A 
ATOM      6  C5  UNL d   1       0.718   5.756   1.354  0.00  0.00     0.003 A 
ATOM      7  I   UNL d   1       3.566   5.989  -1.912  0.00  0.00    -0.146 I 
ENDROOT
TORSDOF 0
ENDMDL
