MODEL 1
REMARK minimizedAffinity 7.46703196
REMARK minimizedRMSD -1
REMARK  0 active torsions:
REMARK  status: ('A' for Active; 'I' for Inactive)
ROOT
ATOM      1  C   UNL d   1       1.507   0.967  -4.431  0.00  0.00     0.023 A 
ATOM      2  C1  UNL d   1       0.284   0.868  -3.769  0.00  0.00     0.003 A 
ATOM      3  C2  UNL d   1      -0.684  -0.034  -4.218  0.00  0.00     0.048 A 
ATOM      4  C3  UNL d   1      -0.421  -0.834  -5.329  0.00  0.00     0.023 A 
ATOM      5  C4  UNL d   1       0.803  -0.739  -5.994  0.00  0.00     0.048 A 
ATOM      6  C5  UNL d   1       1.767   0.164  -5.543  0.00  0.00     0.003 A 
ATOM      7  I   UNL d   1      -1.859  -2.176  -5.999  0.00  0.00    -0.146 I 
ENDROOT
TORSDOF 0
ENDMDL
