MODEL 1
REMARK minimizedAffinity 5.48358107
REMARK minimizedRMSD -1
REMARK  0 active torsions:
REMARK  status: ('A' for Active; 'I' for Inactive)
ROOT
ATOM      1  C   UNL d   1      -1.675  -0.411   1.659  0.00  0.00     0.023 A 
ATOM      2  C1  UNL d   1      -1.310  -0.772   0.362  0.00  0.00     0.003 A 
ATOM      3  C2  UNL d   1      -0.091  -0.344  -0.168  0.00  0.00     0.048 A 
ATOM      4  C3  UNL d   1       0.759   0.446   0.606  0.00  0.00     0.023 A 
ATOM      5  C4  UNL d   1       0.399   0.810   1.904  0.00  0.00     0.048 A 
ATOM      6  C5  UNL d   1      -0.821   0.379   2.429  0.00  0.00     0.003 A 
ATOM      7  I   UNL d   1       2.574   1.085  -0.180  0.00  0.00    -0.146 I 
ENDROOT
TORSDOF 0
ENDMDL
