MODEL 1
REMARK minimizedAffinity 7.1859808
REMARK minimizedRMSD -1
REMARK  0 active torsions:
REMARK  status: ('A' for Active; 'I' for Inactive)
ROOT
ATOM      1  C   UNL d   1       1.990  -0.271   0.994  0.00  0.00     0.023 A 
ATOM      2  C1  UNL d   1       1.114   0.444   1.811  0.00  0.00     0.003 A 
ATOM      3  C2  UNL d   1      -0.254   0.456   1.529  0.00  0.00     0.048 A 
ATOM      4  C3  UNL d   1      -0.739  -0.249   0.428  0.00  0.00     0.023 A 
ATOM      5  C4  UNL d   1       0.134  -0.967  -0.392  0.00  0.00     0.048 A 
ATOM      6  C5  UNL d   1       1.500  -0.975  -0.106  0.00  0.00     0.003 A 
ATOM      7  I   UNL d   1      -2.774  -0.233   0.006  0.00  0.00    -0.146 I 
ENDROOT
TORSDOF 0
ENDMDL
