MODEL 1
REMARK minimizedAffinity -2.3815558
REMARK minimizedRMSD -1
REMARK  0 active torsions:
REMARK  status: ('A' for Active; 'I' for Inactive)
ROOT
ATOM      1  C   UNL d   1       0.237  -1.347   2.624  0.00  0.00    -0.002 A 
ATOM      2  C1  UNL d   1      -1.128  -1.309   2.379  0.00  0.00     0.010 A 
ATOM      3  C2  UNL d   1      -1.626  -0.710   1.220  0.00  0.00     0.041 A 
ATOM      4  C3  UNL d   1      -0.719  -0.147   0.301  0.00  0.00    -0.075 A 
ATOM      5  S   UNL d   1      -1.099   0.638  -1.186  0.00  0.00     0.015 SA
ATOM      6  C4  UNL d   1       0.542   0.941  -1.532  0.00  0.00     0.022 A 
ATOM      7  C5  UNL d   1       1.373   0.462  -0.547  0.00  0.00     0.026 A 
ATOM      8  C6  UNL d   1       0.660  -0.173   0.525  0.00  0.00    -0.082 A 
ATOM      9  C7  UNL d   1       1.133  -0.787   1.710  0.00  0.00     0.045 A 
ENDROOT
TORSDOF 0
ENDMDL
