MODEL 1
REMARK minimizedAffinity -2.13772106
REMARK minimizedRMSD -1
REMARK  0 active torsions:
REMARK  status: ('A' for Active; 'I' for Inactive)
ROOT
ATOM      1  C   UNL d   1       0.319  -0.516   3.118  0.00  0.00    -0.002 A 
ATOM      2  C1  UNL d   1      -0.935   0.027   2.875  0.00  0.00     0.010 A 
ATOM      3  C2  UNL d   1      -1.338   0.328   1.573  0.00  0.00     0.041 A 
ATOM      4  C3  UNL d   1      -0.453   0.069   0.508  0.00  0.00    -0.075 A 
ATOM      5  S   UNL d   1      -0.732   0.355  -1.169  0.00  0.00     0.015 SA
ATOM      6  C4  UNL d   1       0.806  -0.238  -1.603  0.00  0.00     0.022 A 
ATOM      7  C5  UNL d   1       1.528  -0.648  -0.507  0.00  0.00     0.026 A 
ATOM      8  C6  UNL d   1       0.814  -0.479   0.727  0.00  0.00    -0.082 A 
ATOM      9  C7  UNL d   1       1.194  -0.771   2.059  0.00  0.00     0.045 A 
ENDROOT
TORSDOF 0
ENDMDL
