MODEL 1
REMARK minimizedAffinity 9.63507652
REMARK minimizedRMSD -1
REMARK  1 active torsions:
REMARK  status: ('A' for Active; 'I' for Inactive)
REMARK    1  A    between atoms: C3_4  and  O_7 
ROOT
ATOM      1  C   UNL d   1       1.219  -0.887   1.467  0.00  0.00    -0.033 A 
ATOM      2  C1  UNL d   1       0.038  -1.557   1.143  0.00  0.00     0.039 A 
ATOM      3  C2  UNL d   1      -1.128  -0.835   0.884  0.00  0.00    -0.080 A 
ATOM      4  C3  UNL d   1      -1.100   0.555   0.950  0.00  0.00     0.150 A 
ATOM      5  C4  UNL d   1       0.074   1.230   1.268  0.00  0.00    -0.007 A 
ATOM      6  C5  UNL d   1       1.237   0.507   1.528  0.00  0.00     0.039 A 
ENDROOT
BRANCH   4   7
ATOM      7  O   UNL d   1      -2.214   1.303   0.709  0.00  0.00    -0.526 OA
ATOM      8  H5  UNL d   1      -2.956   0.701   0.531  0.00  0.00     0.418 HD
ENDBRANCH   4   7
TORSDOF 1
ENDMDL
