MODEL 1
REMARK minimizedAffinity 3.77613258
REMARK minimizedRMSD -1
REMARK  1 active torsions:
REMARK  status: ('A' for Active; 'I' for Inactive)
REMARK    1  A    between atoms: C3_4  and  O_7 
ROOT
ATOM      1  C   UNL d   1       6.000  -1.226  -4.964  0.00  0.00    -0.033 A 
ATOM      2  C1  UNL d   1       5.113  -1.111  -3.892  0.00  0.00     0.039 A 
ATOM      3  C2  UNL d   1       4.195  -0.059  -3.853  0.00  0.00    -0.080 A 
ATOM      4  C3  UNL d   1       4.175   0.869  -4.890  0.00  0.00     0.150 A 
ATOM      5  C4  UNL d   1       5.053   0.758  -5.963  0.00  0.00    -0.007 A 
ATOM      6  C5  UNL d   1       5.969  -0.292  -6.000  0.00  0.00     0.039 A 
ENDROOT
BRANCH   4   7
ATOM      7  O   UNL d   1       3.301   1.915  -4.893  0.00  0.00    -0.526 OA
ATOM      8  H5  UNL d   1       2.776   1.879  -4.076  0.00  0.00     0.418 HD
ENDBRANCH   4   7
TORSDOF 1
ENDMDL
