MODEL 1
REMARK minimizedAffinity 7.80815649
REMARK minimizedRMSD -1
REMARK  1 active torsions:
REMARK  status: ('A' for Active; 'I' for Inactive)
REMARK    1  A    between atoms: C3_4  and  O_7 
ROOT
ATOM      1  C   UNL d   1       0.878  -1.612   2.831  0.00  0.00    -0.033 A 
ATOM      2  C1  UNL d   1       1.599  -2.075   3.933  0.00  0.00     0.039 A 
ATOM      3  C2  UNL d   1       2.186  -3.341   3.904  0.00  0.00    -0.080 A 
ATOM      4  C3  UNL d   1       2.045  -4.134   2.769  0.00  0.00     0.150 A 
ATOM      5  C4  UNL d   1       1.331  -3.678   1.665  0.00  0.00    -0.007 A 
ATOM      6  C5  UNL d   1       0.745  -2.413   1.696  0.00  0.00     0.039 A 
ENDROOT
BRANCH   4   7
ATOM      7  O   UNL d   1       2.596  -5.379   2.696  0.00  0.00    -0.526 OA
ATOM      8  H5  UNL d   1       3.034  -5.572   3.541  0.00  0.00     0.418 HD
ENDBRANCH   4   7
TORSDOF 1
ENDMDL
