MODEL 1
REMARK minimizedAffinity -0.513776124
REMARK minimizedRMSD -1
REMARK  1 active torsions:
REMARK  status: ('A' for Active; 'I' for Inactive)
REMARK    1  A    between atoms: C3_4  and  O_7 
ROOT
ATOM      1  C   UNL d   1       0.944  -1.645   2.569  0.00  0.00    -0.033 A 
ATOM      2  C1  UNL d   1       1.111  -2.301   3.790  0.00  0.00     0.039 A 
ATOM      3  C2  UNL d   1       2.392  -2.624   4.243  0.00  0.00    -0.080 A 
ATOM      4  C3  UNL d   1       3.496  -2.284   3.466  0.00  0.00     0.150 A 
ATOM      5  C4  UNL d   1       3.338  -1.626   2.251  0.00  0.00    -0.007 A 
ATOM      6  C5  UNL d   1       2.058  -1.306   1.800  0.00  0.00     0.039 A 
ENDROOT
BRANCH   4   7
ATOM      7  O   UNL d   1       4.765  -2.582   3.864  0.00  0.00    -0.526 OA
ATOM      8  H5  UNL d   1       4.719  -3.061   4.708  0.00  0.00     0.418 HD
ENDBRANCH   4   7
TORSDOF 1
ENDMDL
