MODEL 1
REMARK minimizedAffinity -2.12485933
REMARK minimizedRMSD -1
REMARK  1 active torsions:
REMARK  status: ('A' for Active; 'I' for Inactive)
REMARK    1  A    between atoms: C3_4  and  O_7 
ROOT
ATOM      1  C   UNL d   1       5.653   0.725  -5.994  0.00  0.00    -0.033 A 
ATOM      2  C1  UNL d   1       4.534   1.308  -5.397  0.00  0.00     0.039 A 
ATOM      3  C2  UNL d   1       3.756   0.572  -4.501  0.00  0.00    -0.080 A 
ATOM      4  C3  UNL d   1       4.107  -0.743  -4.210  0.00  0.00     0.150 A 
ATOM      5  C4  UNL d   1       5.224  -1.329  -4.799  0.00  0.00    -0.007 A 
ATOM      6  C5  UNL d   1       5.999  -0.593  -5.693  0.00  0.00     0.039 A 
ENDROOT
BRANCH   4   7
ATOM      7  O   UNL d   1       3.376  -1.502  -3.346  0.00  0.00    -0.526 OA
ATOM      8  H5  UNL d   1       2.618  -0.976  -3.040  0.00  0.00     0.418 HD
ENDBRANCH   4   7
TORSDOF 1
ENDMDL
