MODEL 1
REMARK minimizedAffinity -1.47529674
REMARK minimizedRMSD -1
REMARK  1 active torsions:
REMARK  status: ('A' for Active; 'I' for Inactive)
REMARK    1  A    between atoms: C3_4  and  O_7 
ROOT
ATOM      1  C   UNL d   1       4.504   0.621  -5.998  0.00  0.00    -0.033 A 
ATOM      2  C1  UNL d   1       3.379   0.816  -5.194  0.00  0.00     0.039 A 
ATOM      3  C2  UNL d   1       3.011  -0.153  -4.260  0.00  0.00    -0.080 A 
ATOM      4  C3  UNL d   1       3.776  -1.311  -4.138  0.00  0.00     0.150 A 
ATOM      5  C4  UNL d   1       4.900  -1.509  -4.933  0.00  0.00    -0.007 A 
ATOM      6  C5  UNL d   1       5.265  -0.540  -5.867  0.00  0.00     0.039 A 
ENDROOT
BRANCH   4   7
ATOM      7  O   UNL d   1       3.453  -2.287  -3.243  0.00  0.00    -0.526 OA
ATOM      8  H5  UNL d   1       2.637  -2.026  -2.784  0.00  0.00     0.418 HD
ENDBRANCH   4   7
TORSDOF 1
ENDMDL
