MODEL 1
REMARK minimizedAffinity 0.388710707
REMARK minimizedRMSD -1
REMARK  1 active torsions:
REMARK  status: ('A' for Active; 'I' for Inactive)
REMARK    1  A    between atoms: C3_4  and  O_7 
ROOT
ATOM      1  C   UNL d   1      -6.000  -3.860  -5.995  0.00  0.00    -0.033 A 
ATOM      2  C1  UNL d   1      -5.997  -5.254  -5.911  0.00  0.00     0.039 A 
ATOM      3  C2  UNL d   1      -4.997  -5.910  -5.192  0.00  0.00    -0.080 A 
ATOM      4  C3  UNL d   1      -4.007  -5.162  -4.560  0.00  0.00     0.150 A 
ATOM      5  C4  UNL d   1      -4.006  -3.773  -4.636  0.00  0.00    -0.007 A 
ATOM      6  C5  UNL d   1      -5.005  -3.120  -5.356  0.00  0.00     0.039 A 
ENDROOT
BRANCH   4   7
ATOM      7  O   UNL d   1      -3.007  -5.758  -3.850  0.00  0.00    -0.526 OA
ATOM      8  H5  UNL d   1      -3.121  -6.722  -3.909  0.00  0.00     0.418 HD
ENDBRANCH   4   7
TORSDOF 1
ENDMDL
