MODEL 1
REMARK minimizedAffinity 5.41056347
REMARK minimizedRMSD -1
REMARK  1 active torsions:
REMARK  status: ('A' for Active; 'I' for Inactive)
REMARK    1  A    between atoms: C3_4  and  O_7 
ROOT
ATOM      1  C   UNL d   1       1.801  -2.362  -2.333  0.00  0.00    -0.033 A 
ATOM      2  C1  UNL d   1       2.395  -3.580  -2.668  0.00  0.00     0.039 A 
ATOM      3  C2  UNL d   1       3.731  -3.620  -3.073  0.00  0.00    -0.080 A 
ATOM      4  C3  UNL d   1       4.460  -2.436  -3.137  0.00  0.00     0.150 A 
ATOM      5  C4  UNL d   1       3.877  -1.219  -2.801  0.00  0.00    -0.007 A 
ATOM      6  C5  UNL d   1       2.542  -1.182  -2.397  0.00  0.00     0.039 A 
ENDROOT
BRANCH   4   7
ATOM      7  O   UNL d   1       5.765  -2.424  -3.532  0.00  0.00    -0.526 OA
ATOM      8  H5  UNL d   1       6.026  -3.332  -3.761  0.00  0.00     0.418 HD
ENDBRANCH   4   7
TORSDOF 1
ENDMDL
