MODEL 1
REMARK minimizedAffinity -1.4707191
REMARK minimizedRMSD -1
REMARK  1 active torsions:
REMARK  status: ('A' for Active; 'I' for Inactive)
REMARK    1  A    between atoms: C3_4  and  O_7 
ROOT
ATOM      1  C   UNL d   1       1.836  -1.359   1.795  0.00  0.00    -0.033 A 
ATOM      2  C1  UNL d   1       3.161  -1.341   1.355  0.00  0.00     0.039 A 
ATOM      3  C2  UNL d   1       4.139  -2.056   2.048  0.00  0.00    -0.080 A 
ATOM      4  C3  UNL d   1       3.780  -2.787   3.177  0.00  0.00     0.150 A 
ATOM      5  C4  UNL d   1       2.461  -2.813   3.619  0.00  0.00    -0.007 A 
ATOM      6  C5  UNL d   1       1.486  -2.097   2.926  0.00  0.00     0.039 A 
ENDROOT
BRANCH   4   7
ATOM      7  O   UNL d   1       4.700  -3.497   3.889  0.00  0.00    -0.526 OA
ATOM      8  H5  UNL d   1       5.573  -3.363   3.484  0.00  0.00     0.418 HD
ENDBRANCH   4   7
TORSDOF 1
ENDMDL
