MODEL 1
REMARK minimizedAffinity -4.60324812
REMARK minimizedRMSD -1
REMARK  0 active torsions:
REMARK  status: ('A' for Active; 'I' for Inactive)
ROOT
ATOM      1  C   UNL d   1      -0.008   1.586   3.078  0.00  0.00     0.078 C 
ATOM      2  C1  UNL d   1       0.342   0.784   1.860  0.00  0.00    -0.077 A 
ATOM      3  C2  UNL d   1      -0.506   0.757   0.746  0.00  0.00    -0.001 A 
ATOM      4  C3  UNL d   1      -0.172  -0.002  -0.376  0.00  0.00     0.003 A 
ATOM      5  C4  UNL d   1       1.009  -0.741  -0.395  0.00  0.00    -0.005 A 
ATOM      6  C5  UNL d   1       1.858  -0.722   0.709  0.00  0.00     0.003 A 
ATOM      7  C6  UNL d   1       1.526   0.036   1.833  0.00  0.00    -0.001 A 
ENDROOT
TORSDOF 0
ENDMDL
