MODEL 1
REMARK minimizedAffinity -4.83877039
REMARK minimizedRMSD -1
REMARK  0 active torsions:
REMARK  status: ('A' for Active; 'I' for Inactive)
ROOT
ATOM      1  C   UNL d   1      -1.180   1.242   3.097  0.00  0.00     0.078 C 
ATOM      2  C1  UNL d   1      -0.623   0.830   1.767  0.00  0.00    -0.077 A 
ATOM      3  C2  UNL d   1       0.580   0.119   1.678  0.00  0.00    -0.001 A 
ATOM      4  C3  UNL d   1       1.091  -0.250   0.433  0.00  0.00     0.003 A 
ATOM      5  C4  UNL d   1       0.407   0.089  -0.733  0.00  0.00    -0.005 A 
ATOM      6  C5  UNL d   1      -0.789   0.799  -0.654  0.00  0.00     0.003 A 
ATOM      7  C6  UNL d   1      -1.302   1.168   0.590  0.00  0.00    -0.001 A 
ENDROOT
TORSDOF 0
ENDMDL
