MODEL 1
REMARK minimizedAffinity -5.91211271
REMARK minimizedRMSD -1
REMARK  0 active torsions:
REMARK  status: ('A' for Active; 'I' for Inactive)
ROOT
ATOM      1  C   UNL d   1       0.332  -0.381  -0.572  0.00  0.00     0.078 C 
ATOM      2  C1  UNL d   1       0.042  -0.012   0.852  0.00  0.00    -0.077 A 
ATOM      3  C2  UNL d   1       1.060   0.009   1.813  0.00  0.00    -0.001 A 
ATOM      4  C3  UNL d   1       0.774   0.345   3.137  0.00  0.00     0.003 A 
ATOM      5  C4  UNL d   1      -0.530   0.662   3.513  0.00  0.00    -0.005 A 
ATOM      6  C5  UNL d   1      -1.550   0.642   2.564  0.00  0.00     0.003 A 
ATOM      7  C6  UNL d   1      -1.266   0.306   1.239  0.00  0.00    -0.001 A 
ENDROOT
TORSDOF 0
ENDMDL
