MODEL 1
REMARK minimizedAffinity -3.53206229
REMARK minimizedRMSD -1
REMARK  0 active torsions:
REMARK  status: ('A' for Active; 'I' for Inactive)
ROOT
ATOM      1  C   UNL d   1      -1.811   0.642   1.885  0.00  0.00     0.078 C 
ATOM      2  C1  UNL d   1      -0.917   0.327   0.722  0.00  0.00    -0.077 A 
ATOM      3  C2  UNL d   1      -0.670  -0.997   0.341  0.00  0.00    -0.001 A 
ATOM      4  C3  UNL d   1       0.172  -1.276  -0.736  0.00  0.00     0.003 A 
ATOM      5  C4  UNL d   1       0.774  -0.236  -1.441  0.00  0.00    -0.005 A 
ATOM      6  C5  UNL d   1       0.536   1.085  -1.068  0.00  0.00     0.003 A 
ATOM      7  C6  UNL d   1      -0.306   1.366   0.009  0.00  0.00    -0.001 A 
ENDROOT
TORSDOF 0
ENDMDL
