MODEL 1
REMARK minimizedAffinity -4.24454451
REMARK minimizedRMSD -1
REMARK  0 active torsions:
REMARK  status: ('A' for Active; 'I' for Inactive)
ROOT
ATOM      1  C   UNL d   1      -1.758   0.771   1.970  0.00  0.00     0.078 C 
ATOM      2  C1  UNL d   1      -0.736   0.019   1.171  0.00  0.00    -0.077 A 
ATOM      3  C2  UNL d   1      -1.049  -0.508  -0.088  0.00  0.00    -0.001 A 
ATOM      4  C3  UNL d   1      -0.091  -1.214  -0.816  0.00  0.00     0.003 A 
ATOM      5  C4  UNL d   1       1.187  -1.402  -0.293  0.00  0.00    -0.005 A 
ATOM      6  C5  UNL d   1       1.507  -0.883   0.960  0.00  0.00     0.003 A 
ATOM      7  C6  UNL d   1       0.550  -0.177   1.690  0.00  0.00    -0.001 A 
ENDROOT
TORSDOF 0
ENDMDL
