MODEL 1
REMARK minimizedAffinity -3.99134254
REMARK minimizedRMSD -1
REMARK  0 active torsions:
REMARK  status: ('A' for Active; 'I' for Inactive)
ROOT
ATOM      1  C   UNL d   1      -2.967  -0.823   3.227  0.00  0.00     0.078 C 
ATOM      2  C1  UNL d   1      -2.085   0.034   2.369  0.00  0.00    -0.077 A 
ATOM      3  C2  UNL d   1      -1.987  -0.186   0.990  0.00  0.00    -0.001 A 
ATOM      4  C3  UNL d   1      -1.155   0.614   0.205  0.00  0.00     0.003 A 
ATOM      5  C4  UNL d   1      -0.415   1.639   0.790  0.00  0.00    -0.005 A 
ATOM      6  C5  UNL d   1      -0.504   1.864   2.163  0.00  0.00     0.003 A 
ATOM      7  C6  UNL d   1      -1.335   1.065   2.949  0.00  0.00    -0.001 A 
ENDROOT
TORSDOF 0
ENDMDL
