MODEL 1
REMARK minimizedAffinity -4.22262955
REMARK minimizedRMSD -1
REMARK  0 active torsions:
REMARK  status: ('A' for Active; 'I' for Inactive)
ROOT
ATOM      1  C   UNL d   1      -1.130   1.183   2.626  0.00  0.00     0.078 C 
ATOM      2  C1  UNL d   1      -0.774   0.190   1.561  0.00  0.00    -0.077 A 
ATOM      3  C2  UNL d   1      -1.723  -0.234   0.623  0.00  0.00    -0.001 A 
ATOM      4  C3  UNL d   1      -1.380  -1.167  -0.357  0.00  0.00     0.003 A 
ATOM      5  C4  UNL d   1      -0.087  -1.683  -0.409  0.00  0.00    -0.005 A 
ATOM      6  C5  UNL d   1       0.865  -1.268   0.521  0.00  0.00     0.003 A 
ATOM      7  C6  UNL d   1       0.523  -0.336   1.502  0.00  0.00    -0.001 A 
ENDROOT
TORSDOF 0
ENDMDL
