MODEL 1
REMARK minimizedAffinity -5.38225031
REMARK minimizedRMSD -1
REMARK  0 active torsions:
REMARK  status: ('A' for Active; 'I' for Inactive)
ROOT
ATOM      1  C   UNL d   1      -1.280   1.092   3.045  0.00  0.00     0.078 C 
ATOM      2  C1  UNL d   1      -0.297   0.337   2.202  0.00  0.00    -0.077 A 
ATOM      3  C2  UNL d   1       0.902  -0.141   2.745  0.00  0.00    -0.001 A 
ATOM      4  C3  UNL d   1       1.812  -0.834   1.946  0.00  0.00     0.003 A 
ATOM      5  C4  UNL d   1       1.534  -1.056   0.598  0.00  0.00    -0.005 A 
ATOM      6  C5  UNL d   1       0.344  -0.583   0.048  0.00  0.00     0.003 A 
ATOM      7  C6  UNL d   1      -0.567   0.111   0.846  0.00  0.00    -0.001 A 
ENDROOT
TORSDOF 0
ENDMDL
