MODEL 1
REMARK minimizedAffinity -5.10504198
REMARK minimizedRMSD -1
REMARK  0 active torsions:
REMARK  status: ('A' for Active; 'I' for Inactive)
ROOT
ATOM      1  C   UNL d   1       0.163  -0.613  -0.292  0.00  0.00     0.078 C 
ATOM      2  C1  UNL d   1      -0.257  -0.063   1.038  0.00  0.00    -0.077 A 
ATOM      3  C2  UNL d   1      -1.184   0.983   1.126  0.00  0.00    -0.001 A 
ATOM      4  C3  UNL d   1      -1.558   1.492   2.371  0.00  0.00     0.003 A 
ATOM      5  C4  UNL d   1      -1.009   0.962   3.537  0.00  0.00    -0.005 A 
ATOM      6  C5  UNL d   1      -0.083  -0.077   3.459  0.00  0.00     0.003 A 
ATOM      7  C6  UNL d   1       0.292  -0.587   2.215  0.00  0.00    -0.001 A 
ENDROOT
TORSDOF 0
ENDMDL
