MODEL 1
REMARK minimizedAffinity -5.76006746
REMARK minimizedRMSD -1
REMARK  1 active torsions:
REMARK  status: ('A' for Active; 'I' for Inactive)
REMARK    1  A    between atoms: C1_2  and  C2_3 
ROOT
ATOM      1  C2  UNL d   1       0.502   0.567  -0.017  0.00  0.00    -0.081 A 
ATOM      2  C3  UNL d   1      -0.223   0.026   1.052  0.00  0.00     0.006 A 
ATOM      3  C4  UNL d   1      -0.388  -1.357   1.168  0.00  0.00     0.002 A 
ATOM      4  C5  UNL d   1       0.175  -2.220   0.222  0.00  0.00    -0.080 A 
ATOM      5  C6  UNL d   1       0.032  -3.708   0.352  0.00  0.00     0.076 C 
ATOM      6  C7  UNL d   1       0.885  -1.679  -0.855  0.00  0.00     0.002 A 
ATOM      7  C8  UNL d   1       1.049  -0.297  -0.972  0.00  0.00     0.006 A 
ENDROOT
BRANCH   1   8
ATOM      8  C1  UNL d   1       0.736   2.053  -0.109  0.00  0.00     0.054 C 
ATOM      9  C   UNL d   1       2.222   2.376  -0.171  0.00  0.00     0.018 C 
ENDBRANCH   1   8
TORSDOF 1
ENDMDL
