MODEL 1
REMARK minimizedAffinity -3.20113683
REMARK minimizedRMSD -1
REMARK  1 active torsions:
REMARK  status: ('A' for Active; 'I' for Inactive)
REMARK    1  A    between atoms: C1_2  and  C2_3 
ROOT
ATOM      1  C2  UNL d   1      -0.091   0.653  -0.189  0.00  0.00    -0.081 A 
ATOM      2  C3  UNL d   1      -0.965   0.024   0.706  0.00  0.00     0.006 A 
ATOM      3  C4  UNL d   1      -0.842  -1.341   0.975  0.00  0.00     0.002 A 
ATOM      4  C5  UNL d   1       0.162  -2.098   0.360  0.00  0.00    -0.080 A 
ATOM      5  C6  UNL d   1       0.324  -3.558   0.663  0.00  0.00     0.076 C 
ATOM      6  C7  UNL d   1       1.024  -1.473  -0.547  0.00  0.00     0.002 A 
ATOM      7  C8  UNL d   1       0.900  -0.109  -0.817  0.00  0.00     0.006 A 
ENDROOT
BRANCH   1   8
ATOM      8  C1  UNL d   1      -0.181   2.138  -0.431  0.00  0.00     0.054 C 
ATOM      9  C   UNL d   1       0.747   2.908   0.498  0.00  0.00     0.018 C 
ENDBRANCH   1   8
TORSDOF 1
ENDMDL
