MODEL 1
REMARK minimizedAffinity -3.83139801
REMARK minimizedRMSD -1
REMARK  1 active torsions:
REMARK  status: ('A' for Active; 'I' for Inactive)
REMARK    1  A    between atoms: C1_2  and  C2_3 
ROOT
ATOM      1  C2  UNL d   1       0.106   1.237   0.346  0.00  0.00    -0.081 A 
ATOM      2  C3  UNL d   1      -0.699   0.514   1.235  0.00  0.00     0.006 A 
ATOM      3  C4  UNL d   1      -0.765  -0.879   1.159  0.00  0.00     0.002 A 
ATOM      4  C5  UNL d   1      -0.021  -1.573   0.199  0.00  0.00    -0.080 A 
ATOM      5  C6  UNL d   1      -0.059  -3.071   0.126  0.00  0.00     0.076 C 
ATOM      6  C7  UNL d   1       0.770  -0.850  -0.700  0.00  0.00     0.002 A 
ATOM      7  C8  UNL d   1       0.836   0.543  -0.625  0.00  0.00     0.006 A 
ENDROOT
BRANCH   1   8
ATOM      8  C1  UNL d   1       0.229   2.734   0.468  0.00  0.00     0.054 C 
ATOM      9  C   UNL d   1       1.568   3.132   1.073  0.00  0.00     0.018 C 
ENDBRANCH   1   8
TORSDOF 1
ENDMDL
