MODEL 1
REMARK minimizedAffinity -3.74201584
REMARK minimizedRMSD -1
REMARK  1 active torsions:
REMARK  status: ('A' for Active; 'I' for Inactive)
REMARK    1  A    between atoms: C1_2  and  C2_3 
ROOT
ATOM      1  C2  UNL d   1       0.296   0.922  -0.108  0.00  0.00    -0.081 A 
ATOM      2  C3  UNL d   1      -0.468   0.408   0.947  0.00  0.00     0.006 A 
ATOM      3  C4  UNL d   1      -0.604  -0.972   1.116  0.00  0.00     0.002 A 
ATOM      4  C5  UNL d   1       0.027  -1.860   0.239  0.00  0.00    -0.080 A 
ATOM      5  C6  UNL d   1      -0.086  -3.343   0.427  0.00  0.00     0.076 C 
ATOM      6  C7  UNL d   1       0.776  -1.346  -0.825  0.00  0.00     0.002 A 
ATOM      7  C8  UNL d   1       0.912   0.033  -0.995  0.00  0.00     0.006 A 
ENDROOT
BRANCH   1   8
ATOM      8  C1  UNL d   1       0.498   2.409  -0.255  0.00  0.00     0.054 C 
ATOM      9  C   UNL d   1       1.970   2.780  -0.152  0.00  0.00     0.018 C 
ENDBRANCH   1   8
TORSDOF 1
ENDMDL
