MODEL 1
REMARK minimizedAffinity -5.68924809
REMARK minimizedRMSD -1
REMARK  1 active torsions:
REMARK  status: ('A' for Active; 'I' for Inactive)
REMARK    1  A    between atoms: C1_2  and  C2_3 
ROOT
ATOM      1  C2  UNL d   1       0.180   0.734   0.346  0.00  0.00    -0.081 A 
ATOM      2  C3  UNL d   1       0.001   0.034   1.546  0.00  0.00     0.006 A 
ATOM      3  C4  UNL d   1       0.026  -1.363   1.561  0.00  0.00     0.002 A 
ATOM      4  C5  UNL d   1       0.237  -2.082   0.380  0.00  0.00    -0.080 A 
ATOM      5  C6  UNL d   1       0.296  -3.581   0.388  0.00  0.00     0.076 C 
ATOM      6  C7  UNL d   1       0.399  -1.383  -0.821  0.00  0.00     0.002 A 
ATOM      7  C8  UNL d   1       0.374   0.013  -0.837  0.00  0.00     0.006 A 
ENDROOT
BRANCH   1   8
ATOM      8  C1  UNL d   1       0.219   2.241   0.336  0.00  0.00     0.054 C 
ATOM      9  C   UNL d   1       1.650   2.757   0.332  0.00  0.00     0.018 C 
ENDBRANCH   1   8
TORSDOF 1
ENDMDL
