MODEL 1
REMARK minimizedAffinity -3.37313461
REMARK minimizedRMSD -1
REMARK  1 active torsions:
REMARK  status: ('A' for Active; 'I' for Inactive)
REMARK    1  A    between atoms: C1_2  and  C2_3 
ROOT
ATOM      1  C2  UNL d   1      -1.371  -2.128   0.528  0.00  0.00    -0.081 A 
ATOM      2  C3  UNL d   1       0.012  -2.223   0.329  0.00  0.00     0.006 A 
ATOM      3  C4  UNL d   1       0.822  -1.090   0.432  0.00  0.00     0.002 A 
ATOM      4  C5  UNL d   1       0.265   0.155   0.743  0.00  0.00    -0.080 A 
ATOM      5  C6  UNL d   1       1.128   1.373   0.886  0.00  0.00     0.076 C 
ATOM      6  C7  UNL d   1      -1.119   0.254   0.924  0.00  0.00     0.002 A 
ATOM      7  C8  UNL d   1      -1.929  -0.878   0.820  0.00  0.00     0.006 A 
ENDROOT
BRANCH   1   8
ATOM      8  C1  UNL d   1      -2.239  -3.359   0.481  0.00  0.00     0.054 C 
ATOM      9  C   UNL d   1      -3.452  -3.147  -0.414  0.00  0.00     0.018 C 
ENDBRANCH   1   8
TORSDOF 1
ENDMDL
