MODEL 1
REMARK minimizedAffinity -4.60362482
REMARK minimizedRMSD -1
REMARK  1 active torsions:
REMARK  status: ('A' for Active; 'I' for Inactive)
REMARK    1  A    between atoms: C1_2  and  C2_3 
ROOT
ATOM      1  C2  UNL d   1       0.688   1.366   0.360  0.00  0.00    -0.081 A 
ATOM      2  C3  UNL d   1       0.709   1.623   1.737  0.00  0.00     0.006 A 
ATOM      3  C4  UNL d   1       1.341   2.765   2.235  0.00  0.00     0.002 A 
ATOM      4  C5  UNL d   1       1.955   3.673   1.365  0.00  0.00    -0.080 A 
ATOM      5  C6  UNL d   1       2.610   4.918   1.884  0.00  0.00     0.076 C 
ATOM      6  C7  UNL d   1       1.948   3.408  -0.009  0.00  0.00     0.002 A 
ATOM      7  C8  UNL d   1       1.317   2.266  -0.507  0.00  0.00     0.006 A 
ENDROOT
BRANCH   1   8
ATOM      8  C1  UNL d   1      -0.049   0.169  -0.185  0.00  0.00     0.054 C 
ATOM      9  C   UNL d   1      -0.074  -0.971   0.823  0.00  0.00     0.018 C 
ENDBRANCH   1   8
TORSDOF 1
ENDMDL
