MODEL 1
REMARK minimizedAffinity -3.46025634
REMARK minimizedRMSD -1
REMARK  1 active torsions:
REMARK  status: ('A' for Active; 'I' for Inactive)
REMARK    1  A    between atoms: C1_2  and  C2_3 
ROOT
ATOM      1  C2  UNL d   1      -0.374  -2.132  -1.122  0.00  0.00    -0.081 A 
ATOM      2  C3  UNL d   1      -0.993  -2.930  -0.151  0.00  0.00     0.006 A 
ATOM      3  C4  UNL d   1      -1.260  -2.417   1.121  0.00  0.00     0.002 A 
ATOM      4  C5  UNL d   1      -0.922  -1.098   1.440  0.00  0.00    -0.080 A 
ATOM      5  C6  UNL d   1      -1.231  -0.526   2.792  0.00  0.00     0.076 C 
ATOM      6  C7  UNL d   1      -0.288  -0.307   0.476  0.00  0.00     0.002 A 
ATOM      7  C8  UNL d   1      -0.020  -0.819  -0.796  0.00  0.00     0.006 A 
ENDROOT
BRANCH   1   8
ATOM      8  C1  UNL d   1      -0.143  -2.661  -2.514  0.00  0.00     0.054 C 
ATOM      9  C   UNL d   1       1.004  -1.932  -3.200  0.00  0.00     0.018 C 
ENDBRANCH   1   8
TORSDOF 1
ENDMDL
