MODEL 1
REMARK minimizedAffinity -6.25572538
REMARK minimizedRMSD -1
REMARK  1 active torsions:
REMARK  status: ('A' for Active; 'I' for Inactive)
REMARK    1  A    between atoms: C1_2  and  C2_3 
ROOT
ATOM      1  C2  UNL d   1      -0.731  -1.064   1.020  0.00  0.00    -0.081 A 
ATOM      2  C3  UNL d   1       0.124  -0.291   0.224  0.00  0.00     0.006 A 
ATOM      3  C4  UNL d   1       0.794  -0.864  -0.859  0.00  0.00     0.002 A 
ATOM      4  C5  UNL d   1       0.614  -2.216  -1.170  0.00  0.00    -0.080 A 
ATOM      5  C6  UNL d   1       1.304  -2.836  -2.349  0.00  0.00     0.076 C 
ATOM      6  C7  UNL d   1      -0.226  -2.992  -0.365  0.00  0.00     0.002 A 
ATOM      7  C8  UNL d   1      -0.896  -2.420   0.719  0.00  0.00     0.006 A 
ENDROOT
BRANCH   1   8
ATOM      8  C1  UNL d   1      -1.505  -0.434   2.149  0.00  0.00     0.054 C 
ATOM      9  C   UNL d   1      -2.527   0.567   1.630  0.00  0.00     0.018 C 
ENDBRANCH   1   8
TORSDOF 1
ENDMDL
