MODEL 1
REMARK minimizedAffinity -4.50104046
REMARK minimizedRMSD -1
REMARK  1 active torsions:
REMARK  status: ('A' for Active; 'I' for Inactive)
REMARK    1  A    between atoms: C1_2  and  C2_3 
ROOT
ATOM      1  C2  UNL d   1       0.281   0.517   0.251  0.00  0.00    -0.081 A 
ATOM      2  C3  UNL d   1      -0.693  -0.105   1.041  0.00  0.00     0.006 A 
ATOM      3  C4  UNL d   1      -0.788  -1.498   1.081  0.00  0.00     0.002 A 
ATOM      4  C5  UNL d   1       0.094  -2.292   0.339  0.00  0.00    -0.080 A 
ATOM      5  C6  UNL d   1       0.023  -3.789   0.397  0.00  0.00     0.076 C 
ATOM      6  C7  UNL d   1       1.056  -1.669  -0.464  0.00  0.00     0.002 A 
ATOM      7  C8  UNL d   1       1.150  -0.276  -0.505  0.00  0.00     0.006 A 
ENDROOT
BRANCH   1   8
ATOM      8  C1  UNL d   1       0.427   2.018   0.255  0.00  0.00     0.054 C 
ATOM      9  C   UNL d   1       1.867   2.432   0.522  0.00  0.00     0.018 C 
ENDBRANCH   1   8
TORSDOF 1
ENDMDL
