MODEL 1
REMARK minimizedAffinity -2.98650622
REMARK minimizedRMSD -1
REMARK  1 active torsions:
REMARK  status: ('A' for Active; 'I' for Inactive)
REMARK    1  A    between atoms: C1_2  and  C2_3 
ROOT
ATOM      1  C2  UNL d   1      -1.125  -1.021   0.964  0.00  0.00    -0.081 A 
ATOM      2  C3  UNL d   1      -1.186  -0.075   1.994  0.00  0.00     0.006 A 
ATOM      3  C4  UNL d   1      -0.676   1.212   1.805  0.00  0.00     0.002 A 
ATOM      4  C5  UNL d   1      -0.105   1.576   0.581  0.00  0.00    -0.080 A 
ATOM      5  C6  UNL d   1       0.419   2.963   0.354  0.00  0.00     0.076 C 
ATOM      6  C7  UNL d   1      -0.028   0.625  -0.443  0.00  0.00     0.002 A 
ATOM      7  C8  UNL d   1      -0.537  -0.662  -0.254  0.00  0.00     0.006 A 
ENDROOT
BRANCH   1   8
ATOM      8  C1  UNL d   1      -1.732  -2.389   1.143  0.00  0.00     0.054 C 
ATOM      9  C   UNL d   1      -3.252  -2.318   1.190  0.00  0.00     0.018 C 
ENDBRANCH   1   8
TORSDOF 1
ENDMDL
