MODEL 1
REMARK minimizedAffinity -2.84329391
REMARK minimizedRMSD -1
REMARK  0 active torsions:
REMARK  status: ('A' for Active; 'I' for Inactive)
ROOT
ATOM      1  C   UNL d   1       1.970  -0.326   0.756  0.00  0.00     0.078 C 
ATOM      2  C1  UNL d   1       1.118   0.566   1.608  0.00  0.00    -0.077 A 
ATOM      3  C2  UNL d   1      -0.086   0.104   2.156  0.00  0.00    -0.001 A 
ATOM      4  C3  UNL d   1      -0.874   0.949   2.939  0.00  0.00     0.003 A 
ATOM      5  C4  UNL d   1      -0.469   2.259   3.182  0.00  0.00    -0.005 A 
ATOM      6  C5  UNL d   1       0.726   2.728   2.639  0.00  0.00     0.003 A 
ATOM      7  C6  UNL d   1       1.516   1.885   1.856  0.00  0.00    -0.001 A 
ENDROOT
TORSDOF 0
ENDMDL
