MODEL 1
REMARK minimizedAffinity 2.70509243
REMARK minimizedRMSD -1
REMARK  0 active torsions:
REMARK  status: ('A' for Active; 'I' for Inactive)
ROOT
ATOM      1  C   UNL d   1       1.660  -0.013  -0.360  0.00  0.00     0.078 C 
ATOM      2  C1  UNL d   1       0.164   0.061  -0.302  0.00  0.00    -0.077 A 
ATOM      3  C2  UNL d   1      -0.498   1.295  -0.333  0.00  0.00    -0.001 A 
ATOM      4  C3  UNL d   1      -1.892   1.350  -0.268  0.00  0.00     0.003 A 
ATOM      5  C4  UNL d   1      -2.634   0.175  -0.172  0.00  0.00    -0.005 A 
ATOM      6  C5  UNL d   1      -1.984  -1.057  -0.138  0.00  0.00     0.003 A 
ATOM      7  C6  UNL d   1      -0.591  -1.114  -0.203  0.00  0.00    -0.001 A 
ENDROOT
TORSDOF 0
ENDMDL
