MODEL 1
REMARK minimizedAffinity -4.77372122
REMARK minimizedRMSD -1
REMARK  0 active torsions:
REMARK  status: ('A' for Active; 'I' for Inactive)
ROOT
ATOM      1  C   UNL d   1       2.107  -0.881   1.861  0.00  0.00     0.078 C 
ATOM      2  C1  UNL d   1       1.020   0.150   1.913  0.00  0.00    -0.077 A 
ATOM      3  C2  UNL d   1       0.798   1.020   0.839  0.00  0.00    -0.001 A 
ATOM      4  C3  UNL d   1      -0.212   1.981   0.906  0.00  0.00     0.003 A 
ATOM      5  C4  UNL d   1      -1.007   2.082   2.046  0.00  0.00    -0.005 A 
ATOM      6  C5  UNL d   1      -0.793   1.222   3.121  0.00  0.00     0.003 A 
ATOM      7  C6  UNL d   1       0.217   0.260   3.056  0.00  0.00    -0.001 A 
ENDROOT
TORSDOF 0
ENDMDL
