MODEL 1
REMARK minimizedAffinity 2.72409081
REMARK minimizedRMSD -1
REMARK  0 active torsions:
REMARK  status: ('A' for Active; 'I' for Inactive)
ROOT
ATOM      1  C   UNL d   1       2.119  -0.566   1.502  0.00  0.00     0.078 C 
ATOM      2  C1  UNL d   1       0.723  -0.389   0.987  0.00  0.00    -0.077 A 
ATOM      3  C2  UNL d   1       0.423  -0.586  -0.367  0.00  0.00    -0.001 A 
ATOM      4  C3  UNL d   1      -0.880  -0.408  -0.835  0.00  0.00     0.003 A 
ATOM      5  C4  UNL d   1      -1.893  -0.031   0.044  0.00  0.00    -0.005 A 
ATOM      6  C5  UNL d   1      -1.605   0.170   1.392  0.00  0.00     0.003 A 
ATOM      7  C6  UNL d   1      -0.302  -0.008   1.862  0.00  0.00    -0.001 A 
ENDROOT
TORSDOF 0
ENDMDL
