MODEL 1
REMARK minimizedAffinity -1.02431071
REMARK minimizedRMSD -1
REMARK  0 active torsions:
REMARK  status: ('A' for Active; 'I' for Inactive)
ROOT
ATOM      1  C   UNL d   1       0.327  -0.217  -1.736  0.00  0.00     0.078 C 
ATOM      2  C1  UNL d   1      -0.413  -0.012  -0.448  0.00  0.00    -0.077 A 
ATOM      3  C2  UNL d   1       0.273   0.098   0.768  0.00  0.00    -0.001 A 
ATOM      4  C3  UNL d   1      -0.429   0.279   1.961  0.00  0.00     0.003 A 
ATOM      5  C4  UNL d   1      -1.820   0.350   1.949  0.00  0.00    -0.005 A 
ATOM      6  C5  UNL d   1      -2.512   0.240   0.745  0.00  0.00     0.003 A 
ATOM      7  C6  UNL d   1      -1.811   0.059  -0.449  0.00  0.00    -0.001 A 
ENDROOT
TORSDOF 0
ENDMDL
