MODEL 1
REMARK minimizedAffinity 3.2931149
REMARK minimizedRMSD -1
REMARK  0 active torsions:
REMARK  status: ('A' for Active; 'I' for Inactive)
ROOT
ATOM      1  C   UNL d   1      -0.466   0.488  -0.380  0.00  0.00     0.078 C 
ATOM      2  C1  UNL d   1       0.473   1.049  -1.405  0.00  0.00    -0.077 A 
ATOM      3  C2  UNL d   1       1.704   1.601  -1.030  0.00  0.00    -0.001 A 
ATOM      4  C3  UNL d   1       2.564   2.128  -1.995  0.00  0.00     0.003 A 
ATOM      5  C4  UNL d   1       2.202   2.110  -3.340  0.00  0.00    -0.005 A 
ATOM      6  C5  UNL d   1       0.978   1.564  -3.723  0.00  0.00     0.003 A 
ATOM      7  C6  UNL d   1       0.117   1.037  -2.760  0.00  0.00    -0.001 A 
ENDROOT
TORSDOF 0
ENDMDL
