MODEL 1
REMARK minimizedAffinity -5.52028322
REMARK minimizedRMSD -1
REMARK  0 active torsions:
REMARK  status: ('A' for Active; 'I' for Inactive)
ROOT
ATOM      1  C   UNL d   1      -0.012  -0.028  -0.223  0.00  0.00     0.078 C 
ATOM      2  C1  UNL d   1       0.161   0.249   1.241  0.00  0.00    -0.077 A 
ATOM      3  C2  UNL d   1       1.191  -0.356   1.972  0.00  0.00    -0.001 A 
ATOM      4  C3  UNL d   1       1.335  -0.097   3.336  0.00  0.00     0.003 A 
ATOM      5  C4  UNL d   1       0.451   0.766   3.981  0.00  0.00    -0.005 A 
ATOM      6  C5  UNL d   1      -0.578   1.371   3.262  0.00  0.00     0.003 A 
ATOM      7  C6  UNL d   1      -0.723   1.113   1.898  0.00  0.00    -0.001 A 
ENDROOT
TORSDOF 0
ENDMDL
