MODEL 1
REMARK minimizedAffinity 4.12940264
REMARK minimizedRMSD -1
REMARK  0 active torsions:
REMARK  status: ('A' for Active; 'I' for Inactive)
ROOT
ATOM      1  O1  BZF d   1      -1.245   5.918  -2.701  0.00  0.00    -0.204 OA
ATOM      2  C2  BZF d   1       0.000   5.506  -3.135  0.00  0.00     0.174 A 
ATOM      3  C3  BZF d   1      -0.069   5.018  -4.391  0.00  0.00    -0.012 A 
ATOM      4  C3A BZF d   1      -1.426   5.217  -4.798  0.00  0.00    -0.107 A 
ATOM      5  C4  BZF d   1      -2.109   4.952  -5.951  0.00  0.00     0.055 A 
ATOM      6  C5  BZF d   1      -3.444   5.201  -6.000  0.00  0.00    -0.016 A 
ATOM      7  C6  BZF d   1      -4.127   5.710  -4.915  0.00  0.00     0.022 A 
ATOM      8  C7  BZF d   1      -3.492   5.994  -3.752  0.00  0.00     0.029 A 
ATOM      9  C7A BZF d   1      -2.137   5.774  -3.710  0.00  0.00     0.058 A 
ENDROOT
TORSDOF 0
ENDMDL
