MODEL 1
REMARK minimizedAffinity 4.68611145
REMARK minimizedRMSD -1
REMARK  0 active torsions:
REMARK  status: ('A' for Active; 'I' for Inactive)
ROOT
ATOM      1  O1  BZF d   1      -1.786   0.463   3.734  0.00  0.00    -0.204 OA
ATOM      2  C2  BZF d   1      -1.945   0.959   5.014  0.00  0.00     0.174 A 
ATOM      3  C3  BZF d   1      -3.241   0.920   5.385  0.00  0.00    -0.012 A 
ATOM      4  C3A BZF d   1      -3.923   0.278   4.303  0.00  0.00    -0.107 A 
ATOM      5  C4  BZF d   1      -5.227  -0.065   4.087  0.00  0.00     0.055 A 
ATOM      6  C5  BZF d   1      -5.576  -0.614   2.894  0.00  0.00    -0.016 A 
ATOM      7  C6  BZF d   1      -4.650  -0.829   1.894  0.00  0.00     0.022 A 
ATOM      8  C7  BZF d   1      -3.344  -0.510   2.064  0.00  0.00     0.029 A 
ATOM      9  C7A BZF d   1      -2.981   0.015   3.281  0.00  0.00     0.058 A 
ENDROOT
TORSDOF 0
ENDMDL
