MODEL 1
REMARK minimizedAffinity 6.01861143
REMARK minimizedRMSD -1
REMARK  0 active torsions:
REMARK  status: ('A' for Active; 'I' for Inactive)
ROOT
ATOM      1  O1  BZF d   1      -5.991   2.190  -2.660  0.00  0.00    -0.204 OA
ATOM      2  C2  BZF d   1      -5.624   1.529  -1.504  0.00  0.00     0.174 A 
ATOM      3  C3  BZF d   1      -5.142   2.396  -0.590  0.00  0.00    -0.012 A 
ATOM      4  C3A BZF d   1      -5.299   3.690  -1.179  0.00  0.00    -0.107 A 
ATOM      5  C4  BZF d   1      -5.019   4.957  -0.752  0.00  0.00     0.055 A 
ATOM      6  C5  BZF d   1      -5.225   6.000  -1.599  0.00  0.00    -0.016 A 
ATOM      7  C6  BZF d   1      -5.703   5.812  -2.879  0.00  0.00     0.022 A 
ATOM      8  C7  BZF d   1      -6.000   4.575  -3.346  0.00  0.00     0.029 A 
ATOM      9  C7A BZF d   1      -5.825   3.522  -2.481  0.00  0.00     0.058 A 
ENDROOT
TORSDOF 0
ENDMDL
