MODEL 1
REMARK minimizedAffinity 5.29857445
REMARK minimizedRMSD -1
REMARK  0 active torsions:
REMARK  status: ('A' for Active; 'I' for Inactive)
ROOT
ATOM      1  O1  BZF d   1       4.185   5.392  -1.195  0.00  0.00    -0.204 OA
ATOM      2  C2  BZF d   1       5.503   5.403  -1.606  0.00  0.00     0.174 A 
ATOM      3  C3  BZF d   1       5.710   4.484  -2.572  0.00  0.00    -0.012 A 
ATOM      4  C3A BZF d   1       4.421   3.924  -2.841  0.00  0.00    -0.107 A 
ATOM      5  C4  BZF d   1       3.975   2.973  -3.713  0.00  0.00     0.055 A 
ATOM      6  C5  BZF d   1       2.668   2.603  -3.674  0.00  0.00    -0.016 A 
ATOM      7  C6  BZF d   1       1.782   3.159  -2.774  0.00  0.00     0.022 A 
ATOM      8  C7  BZF d   1       2.178   4.110  -1.893  0.00  0.00     0.029 A 
ATOM      9  C7A BZF d   1       3.490   4.510  -1.952  0.00  0.00     0.058 A 
ENDROOT
TORSDOF 0
ENDMDL
