MODEL 1
REMARK minimizedAffinity 24.3126373
REMARK minimizedRMSD -1
REMARK  0 active torsions:
REMARK  status: ('A' for Active; 'I' for Inactive)
ROOT
ATOM      1  O1  BZF d   1      -2.701  -4.511  -2.655  0.00  0.00    -0.204 OA
ATOM      2  C2  BZF d   1      -1.655  -3.931  -1.963  0.00  0.00     0.174 A 
ATOM      3  C3  BZF d   1      -0.500  -4.056  -2.649  0.00  0.00    -0.012 A 
ATOM      4  C3A BZF d   1      -0.863  -4.677  -3.886  0.00  0.00    -0.107 A 
ATOM      5  C4  BZF d   1      -0.155  -5.049  -4.993  0.00  0.00     0.055 A 
ATOM      6  C5  BZF d   1      -0.796  -5.698  -6.000  0.00  0.00    -0.016 A 
ATOM      7  C6  BZF d   1      -2.141  -5.995  -5.932  0.00  0.00     0.022 A 
ATOM      8  C7  BZF d   1      -2.887  -5.642  -4.856  0.00  0.00     0.029 A 
ATOM      9  C7A BZF d   1      -2.249  -4.956  -3.851  0.00  0.00     0.058 A 
ENDROOT
TORSDOF 0
ENDMDL
