MODEL 1
REMARK minimizedAffinity 18.035305
REMARK minimizedRMSD -1
REMARK  0 active torsions:
REMARK  status: ('A' for Active; 'I' for Inactive)
ROOT
ATOM      1  O1  BZF d   1      -0.127  -1.744   2.015  0.00  0.00    -0.204 OA
ATOM      2  C2  BZF d   1       0.045  -0.394   2.255  0.00  0.00     0.174 A 
ATOM      3  C3  BZF d   1      -1.025   0.308   1.829  0.00  0.00    -0.012 A 
ATOM      4  C3A BZF d   1      -1.962  -0.674   1.374  0.00  0.00    -0.107 A 
ATOM      5  C4  BZF d   1      -3.221  -0.599   0.851  0.00  0.00     0.055 A 
ATOM      6  C5  BZF d   1      -3.834  -1.739   0.440  0.00  0.00    -0.016 A 
ATOM      7  C6  BZF d   1      -3.217  -2.970   0.532  0.00  0.00     0.022 A 
ATOM      8  C7  BZF d   1      -1.971  -3.095   1.049  0.00  0.00     0.029 A 
ATOM      9  C7A BZF d   1      -1.361  -1.948   1.496  0.00  0.00     0.058 A 
ENDROOT
TORSDOF 0
ENDMDL
