MODEL 1
REMARK minimizedAffinity 16.4900703
REMARK minimizedRMSD -1
REMARK  0 active torsions:
REMARK  status: ('A' for Active; 'I' for Inactive)
ROOT
ATOM      1  O1  BZF d   1       2.647   2.725  -4.115  0.00  0.00    -0.204 OA
ATOM      2  C2  BZF d   1       1.846   2.976  -3.018  0.00  0.00     0.174 A 
ATOM      3  C3  BZF d   1       2.502   3.723  -2.107  0.00  0.00    -0.012 A 
ATOM      4  C3A BZF d   1       3.762   4.032  -2.711  0.00  0.00    -0.107 A 
ATOM      5  C4  BZF d   1       4.845   4.758  -2.305  0.00  0.00     0.055 A 
ATOM      6  C5  BZF d   1       5.946   4.804  -3.100  0.00  0.00    -0.016 A 
ATOM      7  C6  BZF d   1       6.000   4.132  -4.304  0.00  0.00     0.022 A 
ATOM      8  C7  BZF d   1       4.949   3.403  -4.751  0.00  0.00     0.029 A 
ATOM      9  C7A BZF d   1       3.823   3.382  -3.965  0.00  0.00     0.058 A 
ENDROOT
TORSDOF 0
ENDMDL
