MODEL 1
REMARK minimizedAffinity 17.2355423
REMARK minimizedRMSD -1
REMARK  0 active torsions:
REMARK  status: ('A' for Active; 'I' for Inactive)
ROOT
ATOM      1  O1  BZF d   1       3.619   0.445   1.757  0.00  0.00    -0.204 OA
ATOM      2  C2  BZF d   1       3.150   1.231   0.723  0.00  0.00     0.174 A 
ATOM      3  C3  BZF d   1       1.896   0.872   0.380  0.00  0.00    -0.012 A 
ATOM      4  C3A BZF d   1       1.527  -0.145   1.315  0.00  0.00    -0.107 A 
ATOM      5  C4  BZF d   1       0.393  -0.884   1.500  0.00  0.00     0.055 A 
ATOM      6  C5  BZF d   1       0.381  -1.847   2.458  0.00  0.00    -0.016 A 
ATOM      7  C6  BZF d   1       1.485  -2.101   3.246  0.00  0.00     0.022 A 
ATOM      8  C7  BZF d   1       2.630  -1.391   3.103  0.00  0.00     0.029 A 
ATOM      9  C7A BZF d   1       2.635  -0.395   2.158  0.00  0.00     0.058 A 
ENDROOT
TORSDOF 0
ENDMDL
