MODEL 1
REMARK minimizedAffinity 17.0408859
REMARK minimizedRMSD -1
REMARK  0 active torsions:
REMARK  status: ('A' for Active; 'I' for Inactive)
ROOT
ATOM      1  O1  BZF d   1       1.319  -1.633   4.437  0.00  0.00    -0.204 OA
ATOM      2  C2  BZF d   1       1.900  -2.761   3.890  0.00  0.00     0.174 A 
ATOM      3  C3  BZF d   1       1.320  -3.077   2.715  0.00  0.00    -0.012 A 
ATOM      4  C3A BZF d   1       0.374  -2.032   2.469  0.00  0.00    -0.107 A 
ATOM      5  C4  BZF d   1      -0.500  -1.776   1.452  0.00  0.00     0.055 A 
ATOM      6  C5  BZF d   1      -1.336  -0.710   1.551  0.00  0.00    -0.016 A 
ATOM      7  C6  BZF d   1      -1.329   0.118   2.654  0.00  0.00     0.022 A 
ATOM      8  C7  BZF d   1      -0.476  -0.091   3.687  0.00  0.00     0.029 A 
ATOM      9  C7A BZF d   1       0.393  -1.149   3.574  0.00  0.00     0.058 A 
ENDROOT
TORSDOF 0
ENDMDL
