MODEL 1
REMARK minimizedAffinity 12.9573402
REMARK minimizedRMSD -1
REMARK  0 active torsions:
REMARK  status: ('A' for Active; 'I' for Inactive)
ROOT
ATOM      1  O1  BZF d   1       4.670   2.082   0.096  0.00  0.00    -0.204 OA
ATOM      2  C2  BZF d   1       3.746   1.253   0.702  0.00  0.00     0.174 A 
ATOM      3  C3  BZF d   1       2.703   1.017  -0.119  0.00  0.00    -0.012 A 
ATOM      4  C3A BZF d   1       3.037   1.670  -1.348  0.00  0.00    -0.107 A 
ATOM      5  C4  BZF d   1       2.404   1.784  -2.553  0.00  0.00     0.055 A 
ATOM      6  C5  BZF d   1       2.964   2.552  -3.523  0.00  0.00    -0.016 A 
ATOM      7  C6  BZF d   1       4.152   3.225  -3.322  0.00  0.00     0.022 A 
ATOM      8  C7  BZF d   1       4.819   3.139  -2.145  0.00  0.00     0.029 A 
ATOM      9  C7A BZF d   1       4.272   2.336  -1.174  0.00  0.00     0.058 A 
ENDROOT
TORSDOF 0
ENDMDL
