MODEL 1
REMARK minimizedAffinity 12.349782
REMARK minimizedRMSD -1
REMARK  0 active torsions:
REMARK  status: ('A' for Active; 'I' for Inactive)
ROOT
ATOM      1  O1  BZF d   1      -0.787  -1.960   2.651  0.00  0.00    -0.204 OA
ATOM      2  C2  BZF d   1      -1.307  -2.063   1.375  0.00  0.00     0.174 A 
ATOM      3  C3  BZF d   1      -2.121  -1.023   1.105  0.00  0.00    -0.012 A 
ATOM      4  C3A BZF d   1      -2.038  -0.172   2.252  0.00  0.00    -0.107 A 
ATOM      5  C4  BZF d   1      -2.608   1.026   2.576  0.00  0.00     0.055 A 
ATOM      6  C5  BZF d   1      -2.378   1.556   3.806  0.00  0.00    -0.016 A 
ATOM      7  C6  BZF d   1      -1.587   0.914   4.737  0.00  0.00     0.022 A 
ATOM      8  C7  BZF d   1      -0.996  -0.273   4.459  0.00  0.00     0.029 A 
ATOM      9  C7A BZF d   1      -1.200  -0.796   3.206  0.00  0.00     0.058 A 
ENDROOT
TORSDOF 0
ENDMDL
