MODEL 1
REMARK minimizedAffinity 16.8974075
REMARK minimizedRMSD -1
REMARK  0 active torsions:
REMARK  status: ('A' for Active; 'I' for Inactive)
ROOT
ATOM      1  O1  BZF d   1       5.178   3.331   2.458  0.00  0.00    -0.204 OA
ATOM      2  C2  BZF d   1       6.000   4.117   1.672  0.00  0.00     0.174 A 
ATOM      3  C3  BZF d   1       5.999   3.682   0.396  0.00  0.00    -0.012 A 
ATOM      4  C3A BZF d   1       5.051   2.611   0.363  0.00  0.00    -0.107 A 
ATOM      5  C4  BZF d   1       4.597   1.788  -0.628  0.00  0.00     0.055 A 
ATOM      6  C5  BZF d   1       3.724   0.796  -0.315  0.00  0.00    -0.016 A 
ATOM      7  C6  BZF d   1       3.288   0.594   0.979  0.00  0.00     0.022 A 
ATOM      8  C7  BZF d   1       3.707   1.387   1.995  0.00  0.00     0.029 A 
ATOM      9  C7A BZF d   1       4.564   2.411   1.676  0.00  0.00     0.058 A 
ENDROOT
TORSDOF 0
ENDMDL
