MODEL 1
REMARK minimizedAffinity 21.427948
REMARK minimizedRMSD -1
REMARK  0 active torsions:
REMARK  status: ('A' for Active; 'I' for Inactive)
ROOT
ATOM      1  O1  BZF d   1       4.874   4.453  -2.625  0.00  0.00    -0.204 OA
ATOM      2  C2  BZF d   1       6.000   4.453  -1.825  0.00  0.00     0.174 A 
ATOM      3  C3  BZF d   1       5.956   3.439  -0.937  0.00  0.00    -0.012 A 
ATOM      4  C3A BZF d   1       4.770   2.707  -1.260  0.00  0.00    -0.107 A 
ATOM      5  C4  BZF d   1       4.190   1.583  -0.744  0.00  0.00     0.055 A 
ATOM      6  C5  BZF d   1       2.994   1.171  -1.239  0.00  0.00    -0.016 A 
ATOM      7  C6  BZF d   1       2.348   1.859  -2.245  0.00  0.00     0.022 A 
ATOM      8  C7  BZF d   1       2.886   2.976  -2.792  0.00  0.00     0.029 A 
ATOM      9  C7A BZF d   1       4.111   3.377  -2.317  0.00  0.00     0.058 A 
ENDROOT
TORSDOF 0
ENDMDL
