MODEL 1
REMARK minimizedAffinity 15.6733618
REMARK minimizedRMSD -1
REMARK  0 active torsions:
REMARK  status: ('A' for Active; 'I' for Inactive)
ROOT
ATOM      1  O1  BZF d   1      -0.969  -0.033   4.867  0.00  0.00    -0.204 OA
ATOM      2  C2  BZF d   1      -2.093   0.753   4.708  0.00  0.00     0.174 A 
ATOM      3  C3  BZF d   1      -2.545   0.691   3.439  0.00  0.00    -0.012 A 
ATOM      4  C3A BZF d   1      -1.700  -0.261   2.785  0.00  0.00    -0.107 A 
ATOM      5  C4  BZF d   1      -1.659  -0.764   1.516  0.00  0.00     0.055 A 
ATOM      6  C5  BZF d   1      -0.663  -1.625   1.179  0.00  0.00    -0.016 A 
ATOM      7  C6  BZF d   1       0.309  -2.000   2.083  0.00  0.00     0.022 A 
ATOM      8  C7  BZF d   1       0.307  -1.532   3.355  0.00  0.00     0.029 A 
ATOM      9  C7A BZF d   1      -0.717  -0.687   3.708  0.00  0.00     0.058 A 
ENDROOT
TORSDOF 0
ENDMDL
