MODEL 1
REMARK minimizedAffinity 10.0463696
REMARK minimizedRMSD -1
REMARK  0 active torsions:
REMARK  status: ('A' for Active; 'I' for Inactive)
ROOT
ATOM      1  O1  BZF d   1      -2.061   1.063   2.687  0.00  0.00    -0.204 OA
ATOM      2  C2  BZF d   1      -3.388   1.191   2.326  0.00  0.00     0.174 A 
ATOM      3  C3  BZF d   1      -3.764   0.180   1.517  0.00  0.00    -0.012 A 
ATOM      4  C3A BZF d   1      -2.625  -0.682   1.437  0.00  0.00    -0.107 A 
ATOM      5  C4  BZF d   1      -2.384  -1.862   0.795  0.00  0.00     0.055 A 
ATOM      6  C5  BZF d   1      -1.141  -2.409   0.861  0.00  0.00    -0.016 A 
ATOM      7  C6  BZF d   1      -0.116  -1.800   1.555  0.00  0.00     0.022 A 
ATOM      8  C7  BZF d   1      -0.309  -0.630   2.212  0.00  0.00     0.029 A 
ATOM      9  C7A BZF d   1      -1.572  -0.092   2.174  0.00  0.00     0.058 A 
ENDROOT
TORSDOF 0
ENDMDL
