MODEL 1
REMARK minimizedAffinity 13.0368099
REMARK minimizedRMSD -1
REMARK  0 active torsions:
REMARK  status: ('A' for Active; 'I' for Inactive)
ROOT
ATOM      1  O1  BZF d   1       2.507   4.482  -2.263  0.00  0.00    -0.204 OA
ATOM      2  C2  BZF d   1       1.528   3.719  -2.871  0.00  0.00     0.174 A 
ATOM      3  C3  BZF d   1       2.018   3.095  -3.962  0.00  0.00    -0.012 A 
ATOM      4  C3A BZF d   1       3.411   3.419  -3.988  0.00  0.00    -0.107 A 
ATOM      5  C4  BZF d   1       4.438   3.082  -4.823  0.00  0.00     0.055 A 
ATOM      6  C5  BZF d   1       5.666   3.625  -4.612  0.00  0.00    -0.016 A 
ATOM      7  C6  BZF d   1       5.901   4.511  -3.581  0.00  0.00     0.022 A 
ATOM      8  C7  BZF d   1       4.915   4.871  -2.723  0.00  0.00     0.029 A 
ATOM      9  C7A BZF d   1       3.681   4.298  -2.914  0.00  0.00     0.058 A 
ENDROOT
TORSDOF 0
ENDMDL
