MODEL 1
REMARK minimizedAffinity 11.9352016
REMARK minimizedRMSD -1
REMARK  0 active torsions:
REMARK  status: ('A' for Active; 'I' for Inactive)
ROOT
ATOM      1  O1  BZF d   1       5.023   5.579  -2.360  0.00  0.00    -0.204 OA
ATOM      2  C2  BZF d   1       5.999   6.000  -3.242  0.00  0.00     0.174 A 
ATOM      3  C3  BZF d   1       5.984   5.253  -4.365  0.00  0.00    -0.012 A 
ATOM      4  C3A BZF d   1       4.872   4.365  -4.211  0.00  0.00    -0.107 A 
ATOM      5  C4  BZF d   1       4.332   3.391  -5.001  0.00  0.00     0.055 A 
ATOM      6  C5  BZF d   1       3.290   2.658  -4.526  0.00  0.00    -0.016 A 
ATOM      7  C6  BZF d   1       2.769   2.868  -3.267  0.00  0.00     0.022 A 
ATOM      8  C7  BZF d   1       3.268   3.826  -2.449  0.00  0.00     0.029 A 
ATOM      9  C7A BZF d   1       4.299   4.591  -2.938  0.00  0.00     0.058 A 
ENDROOT
TORSDOF 0
ENDMDL
