MODEL 1
REMARK minimizedAffinity 18.2277699
REMARK minimizedRMSD -1
REMARK  2 active torsions:
REMARK  status: ('A' for Active; 'I' for Inactive)
REMARK    1  A    between atoms: C2'_3  and  C1'_4 
REMARK    2  A    between atoms: C1'_4  and  C1_5 
ROOT
ATOM      1  C1  I4B d   1      -1.191   1.874   0.619  0.00  0.00    -0.075 A 
ATOM      2  C2  I4B d   1      -1.431   2.560  -0.545  0.00  0.00     0.003 A 
ATOM      3  C3  I4B d   1      -0.353   3.076  -1.304  0.00  0.00     0.002 A 
ATOM      4  C4  I4B d   1       0.938   2.927  -0.838  0.00  0.00    -0.004 A 
ATOM      5  C5  I4B d   1       1.181   2.211   0.330  0.00  0.00     0.002 A 
ATOM      6  C6  I4B d   1       0.111   1.670   1.058  0.00  0.00     0.003 A 
ENDROOT
BRANCH   1   7
ATOM      7  C1' I4B d   1      -2.356   1.371   1.413  0.00  0.00     0.060 C 
BRANCH   7   8
ATOM      8  C2' I4B d   1      -3.038   0.286   0.605  0.00  0.00    -0.013 C 
ATOM      9  C4' I4B d   1      -3.322  -0.926   1.451  0.00  0.00     0.013 C 
ATOM     10  C3' I4B d   1      -4.302   0.858   0.036  0.00  0.00     0.013 C 
ENDBRANCH   7   8
ENDBRANCH   1   7
TORSDOF 2
ENDMDL
