MODEL 1
REMARK minimizedAffinity 0.048245877
REMARK minimizedRMSD -1
REMARK  2 active torsions:
REMARK  status: ('A' for Active; 'I' for Inactive)
REMARK    1  A    between atoms: C2'_3  and  C1'_4 
REMARK    2  A    between atoms: C1'_4  and  C1_5 
ROOT
ATOM      1  C1  I4B d   1      -2.347  -3.593  -5.960  0.00  0.00    -0.075 A 
ATOM      2  C2  I4B d   1      -1.436  -4.620  -5.990  0.00  0.00     0.003 A 
ATOM      3  C3  I4B d   1      -0.048  -4.342  -5.985  0.00  0.00     0.002 A 
ATOM      4  C4  I4B d   1       0.383  -3.031  -6.000  0.00  0.00    -0.004 A 
ATOM      5  C5  I4B d   1      -0.541  -1.992  -5.945  0.00  0.00     0.002 A 
ATOM      6  C6  I4B d   1      -1.915  -2.274  -5.913  0.00  0.00     0.003 A 
ENDROOT
BRANCH   1   7
ATOM      7  C1' I4B d   1      -3.805  -3.922  -6.000  0.00  0.00     0.060 C 
BRANCH   7   8
ATOM      8  C2' I4B d   1      -3.951  -5.420  -5.821  0.00  0.00    -0.013 C 
ATOM      9  C4' I4B d   1      -3.442  -5.860  -4.474  0.00  0.00     0.013 C 
ATOM     10  C3' I4B d   1      -5.400  -5.767  -5.993  0.00  0.00     0.013 C 
ENDBRANCH   7   8
ENDBRANCH   1   7
TORSDOF 2
ENDMDL
