MODEL 1
REMARK minimizedAffinity 3.42773962
REMARK minimizedRMSD -1
REMARK  2 active torsions:
REMARK  status: ('A' for Active; 'I' for Inactive)
REMARK    1  A    between atoms: C2'_3  and  C1'_4 
REMARK    2  A    between atoms: C1'_4  and  C1_5 
ROOT
ATOM      1  C1  I4B d   1      -0.512  -4.840  -4.388  0.00  0.00    -0.075 A 
ATOM      2  C2  I4B d   1      -0.862  -3.907  -5.332  0.00  0.00     0.003 A 
ATOM      3  C3  I4B d   1      -2.108  -4.000  -5.999  0.00  0.00     0.002 A 
ATOM      4  C4  I4B d   1      -2.945  -5.064  -5.729  0.00  0.00    -0.004 A 
ATOM      5  C5  I4B d   1      -2.599  -5.996  -4.755  0.00  0.00     0.002 A 
ATOM      6  C6  I4B d   1      -1.380  -5.877  -4.071  0.00  0.00     0.003 A 
ENDROOT
BRANCH   1   7
ATOM      7  C1' I4B d   1       0.826  -4.730  -3.728  0.00  0.00     0.060 C 
BRANCH   7   8
ATOM      8  C2' I4B d   1       0.684  -5.222  -2.302  0.00  0.00    -0.013 C 
ATOM      9  C4' I4B d   1       1.899  -5.999  -1.869  0.00  0.00     0.013 C 
ATOM     10  C3' I4B d   1       0.462  -4.029  -1.420  0.00  0.00     0.013 C 
ENDBRANCH   7   8
ENDBRANCH   1   7
TORSDOF 2
ENDMDL
