MODEL 1
REMARK minimizedAffinity 9.58539581
REMARK minimizedRMSD -1
REMARK  2 active torsions:
REMARK  status: ('A' for Active; 'I' for Inactive)
REMARK    1  A    between atoms: C2'_3  and  C1'_4 
REMARK    2  A    between atoms: C1'_4  and  C1_5 
ROOT
ATOM      1  C1  I4B d   1      -0.843  -3.720  -3.386  0.00  0.00    -0.075 A 
ATOM      2  C2  I4B d   1      -1.892  -4.411  -3.941  0.00  0.00     0.003 A 
ATOM      3  C3  I4B d   1      -2.291  -4.151  -5.274  0.00  0.00     0.002 A 
ATOM      4  C4  I4B d   1      -1.651  -3.162  -5.994  0.00  0.00    -0.004 A 
ATOM      5  C5  I4B d   1      -0.574  -2.479  -5.438  0.00  0.00     0.002 A 
ATOM      6  C6  I4B d   1      -0.159  -2.767  -4.130  0.00  0.00     0.003 A 
ENDROOT
BRANCH   1   7
ATOM      7  C1' I4B d   1      -0.470  -3.997  -1.964  0.00  0.00     0.060 C 
BRANCH   7   8
ATOM      8  C2' I4B d   1       1.039  -3.904  -1.851  0.00  0.00    -0.013 C 
ATOM      9  C4' I4B d   1       1.456  -2.638  -1.149  0.00  0.00     0.013 C 
ATOM     10  C3' I4B d   1       1.524  -5.117  -1.115  0.00  0.00     0.013 C 
ENDBRANCH   7   8
ENDBRANCH   1   7
TORSDOF 2
ENDMDL
