MODEL 1
REMARK minimizedAffinity 8.44143581
REMARK minimizedRMSD -1
REMARK  2 active torsions:
REMARK  status: ('A' for Active; 'I' for Inactive)
REMARK    1  A    between atoms: C2'_3  and  C1'_4 
REMARK    2  A    between atoms: C1'_4  and  C1_5 
ROOT
ATOM      1  C1  I4B d   1      -1.283  -3.049  -3.143  0.00  0.00    -0.075 A 
ATOM      2  C2  I4B d   1      -0.863  -2.225  -2.129  0.00  0.00     0.003 A 
ATOM      3  C3  I4B d   1      -0.021  -2.725  -1.106  0.00  0.00     0.002 A 
ATOM      4  C4  I4B d   1       0.332  -4.059  -1.108  0.00  0.00    -0.004 A 
ATOM      5  C5  I4B d   1      -0.076  -4.888  -2.150  0.00  0.00     0.002 A 
ATOM      6  C6  I4B d   1      -0.879  -4.377  -3.180  0.00  0.00     0.003 A 
ENDROOT
BRANCH   1   7
ATOM      7  C1' I4B d   1      -2.197  -2.495  -4.189  0.00  0.00     0.060 C 
BRANCH   7   8
ATOM      8  C2' I4B d   1      -1.397  -1.539  -5.050  0.00  0.00    -0.013 C 
ATOM      9  C4' I4B d   1      -0.305  -2.260  -5.796  0.00  0.00     0.013 C 
ATOM     10  C3' I4B d   1      -2.345  -0.864  -5.997  0.00  0.00     0.013 C 
ENDBRANCH   7   8
ENDBRANCH   1   7
TORSDOF 2
ENDMDL
