MODEL 1
REMARK minimizedAffinity 6.55138922
REMARK minimizedRMSD -1
REMARK  1 active torsions:
REMARK  status: ('A' for Active; 'I' for Inactive)
REMARK    1  A    between atoms: C1_2  and  C2_3 
ROOT
ATOM      1  C2  UNL d   1      -1.479   1.098  -2.228  0.00  0.00    -0.076 A 
ATOM      2  C3  UNL d   1      -2.545   0.319  -2.711  0.00  0.00     0.004 A 
ATOM      3  C4  UNL d   1      -2.835   0.265  -4.073  0.00  0.00    -0.003 A 
ATOM      4  C5  UNL d   1      -2.063   0.988  -4.975  0.00  0.00     0.000 A 
ATOM      5  C6  UNL d   1      -0.990   1.752  -4.516  0.00  0.00     0.000 A 
ATOM      6  C7  UNL d   1      -0.675   1.805  -3.148  0.00  0.00    -0.073 A 
ATOM      7  C8  UNL d   1       0.489   2.650  -2.708  0.00  0.00     0.078 C 
ENDROOT
BRANCH   1   8
ATOM      8  C1  UNL d   1      -1.229   1.140  -0.738  0.00  0.00     0.053 C 
ATOM      9  C   UNL d   1      -2.336   0.467   0.058  0.00  0.00     0.018 C 
ENDBRANCH   1   8
TORSDOF 1
ENDMDL
