MODEL 1
REMARK minimizedAffinity 11.909791
REMARK minimizedRMSD -1
REMARK  1 active torsions:
REMARK  status: ('A' for Active; 'I' for Inactive)
REMARK    1  A    between atoms: C1_2  and  C2_3 
ROOT
ATOM      1  C2  UNL d   1      -5.137   1.442   3.712  0.00  0.00    -0.076 A 
ATOM      2  C3  UNL d   1      -5.189   0.037   3.711  0.00  0.00     0.004 A 
ATOM      3  C4  UNL d   1      -5.616  -0.666   4.836  0.00  0.00    -0.003 A 
ATOM      4  C5  UNL d   1      -5.998   0.025   5.981  0.00  0.00     0.000 A 
ATOM      5  C6  UNL d   1      -5.969   1.419   5.994  0.00  0.00     0.000 A 
ATOM      6  C7  UNL d   1      -5.557   2.143   4.862  0.00  0.00    -0.073 A 
ATOM      7  C8  UNL d   1      -5.540   3.646   4.934  0.00  0.00     0.078 C 
ENDROOT
BRANCH   1   8
ATOM      8  C1  UNL d   1      -4.640   2.149   2.472  0.00  0.00     0.053 C 
ATOM      9  C   UNL d   1      -4.321   1.185   1.339  0.00  0.00     0.018 C 
ENDBRANCH   1   8
TORSDOF 1
ENDMDL
