MODEL 1
REMARK minimizedAffinity 8.48338509
REMARK minimizedRMSD -1
REMARK  1 active torsions:
REMARK  status: ('A' for Active; 'I' for Inactive)
REMARK    1  A    between atoms: C1_2  and  C2_3 
ROOT
ATOM      1  C2  UNL d   1      -5.880   0.207   4.296  0.00  0.00    -0.076 A 
ATOM      2  C3  UNL d   1      -5.983  -0.562   3.124  0.00  0.00     0.004 A 
ATOM      3  C4  UNL d   1      -5.985   0.043   1.868  0.00  0.00    -0.003 A 
ATOM      4  C5  UNL d   1      -5.884   1.425   1.763  0.00  0.00     0.000 A 
ATOM      5  C6  UNL d   1      -5.763   2.202   2.915  0.00  0.00     0.000 A 
ATOM      6  C7  UNL d   1      -5.743   1.608   4.189  0.00  0.00    -0.073 A 
ATOM      7  C8  UNL d   1      -5.617   2.494   5.397  0.00  0.00     0.078 C 
ENDROOT
BRANCH   1   8
ATOM      8  C1  UNL d   1      -5.910  -0.501   5.632  0.00  0.00     0.053 C 
ATOM      9  C   UNL d   1      -4.565  -1.108   6.000  0.00  0.00     0.018 C 
ENDBRANCH   1   8
TORSDOF 1
ENDMDL
