MODEL 1
REMARK minimizedAffinity 7.67866993
REMARK minimizedRMSD -1
REMARK  1 active torsions:
REMARK  status: ('A' for Active; 'I' for Inactive)
REMARK    1  A    between atoms: C1_2  and  C2_3 
ROOT
ATOM      1  C2  UNL d   1      -1.929   0.689  -1.342  0.00  0.00    -0.076 A 
ATOM      2  C3  UNL d   1      -1.612   1.824  -2.107  0.00  0.00     0.004 A 
ATOM      3  C4  UNL d   1      -2.061   1.952  -3.421  0.00  0.00    -0.003 A 
ATOM      4  C5  UNL d   1      -2.834   0.947  -3.990  0.00  0.00     0.000 A 
ATOM      5  C6  UNL d   1      -3.173  -0.179  -3.240  0.00  0.00     0.000 A 
ATOM      6  C7  UNL d   1      -2.742  -0.316  -1.909  0.00  0.00    -0.073 A 
ATOM      7  C8  UNL d   1      -3.132  -1.554  -1.148  0.00  0.00     0.078 C 
ENDROOT
BRANCH   1   8
ATOM      8  C1  UNL d   1      -1.392   0.592   0.068  0.00  0.00     0.053 C 
ATOM      9  C   UNL d   1      -2.294   1.276   1.084  0.00  0.00     0.018 C 
ENDBRANCH   1   8
TORSDOF 1
ENDMDL
