MODEL 1
REMARK minimizedAffinity 6.28695059
REMARK minimizedRMSD -1
REMARK  1 active torsions:
REMARK  status: ('A' for Active; 'I' for Inactive)
REMARK    1  A    between atoms: C1_2  and  C2_3 
ROOT
ATOM      1  C2  UNL d   1       2.326   2.129  -2.531  0.00  0.00    -0.076 A 
ATOM      2  C3  UNL d   1       1.624   3.341  -2.407  0.00  0.00     0.004 A 
ATOM      3  C4  UNL d   1       1.603   4.268  -3.448  0.00  0.00    -0.003 A 
ATOM      4  C5  UNL d   1       2.281   3.997  -4.631  0.00  0.00     0.000 A 
ATOM      5  C6  UNL d   1       2.967   2.792  -4.778  0.00  0.00     0.000 A 
ATOM      6  C7  UNL d   1       2.986   1.840  -3.745  0.00  0.00    -0.073 A 
ATOM      7  C8  UNL d   1       3.747   0.560  -3.956  0.00  0.00     0.078 C 
ENDROOT
BRANCH   1   8
ATOM      8  C1  UNL d   1       2.336   1.175  -1.359  0.00  0.00     0.053 C 
ATOM      9  C   UNL d   1       2.840   1.827  -0.081  0.00  0.00     0.018 C 
ENDBRANCH   1   8
TORSDOF 1
ENDMDL
