MODEL 1
REMARK minimizedAffinity 16.4545708
REMARK minimizedRMSD -1
REMARK  1 active torsions:
REMARK  status: ('A' for Active; 'I' for Inactive)
REMARK    1  A    between atoms: C1_2  and  C2_3 
ROOT
ATOM      1  C2  UNL d   1      -2.000   1.012  -2.030  0.00  0.00    -0.076 A 
ATOM      2  C3  UNL d   1      -1.822   2.168  -2.811  0.00  0.00     0.004 A 
ATOM      3  C4  UNL d   1      -2.354   2.253  -4.097  0.00  0.00    -0.003 A 
ATOM      4  C5  UNL d   1      -3.072   1.185  -4.623  0.00  0.00     0.000 A 
ATOM      5  C6  UNL d   1      -3.272   0.038  -3.856  0.00  0.00     0.000 A 
ATOM      6  C7  UNL d   1      -2.758  -0.058  -2.551  0.00  0.00    -0.073 A 
ATOM      7  C8  UNL d   1      -2.999  -1.321  -1.771  0.00  0.00     0.078 C 
ENDROOT
BRANCH   1   8
ATOM      8  C1  UNL d   1      -1.378   0.966  -0.653  0.00  0.00     0.053 C 
ATOM      9  C   UNL d   1      -2.394   1.199   0.454  0.00  0.00     0.018 C 
ENDBRANCH   1   8
TORSDOF 1
ENDMDL
