MODEL 1
REMARK minimizedAffinity 0.322283596
REMARK minimizedRMSD -1
REMARK  1 active torsions:
REMARK  status: ('A' for Active; 'I' for Inactive)
REMARK    1  A    between atoms: C1_2  and  C2_3 
ROOT
ATOM      1  C2  UNL d   1       2.047   0.642  -2.847  0.00  0.00    -0.076 A 
ATOM      2  C3  UNL d   1       1.899  -0.441  -1.963  0.00  0.00     0.004 A 
ATOM      3  C4  UNL d   1       2.668  -1.595  -2.106  0.00  0.00    -0.003 A 
ATOM      4  C5  UNL d   1       3.598  -1.684  -3.136  0.00  0.00     0.000 A 
ATOM      5  C6  UNL d   1       3.770  -0.612  -4.012  0.00  0.00     0.000 A 
ATOM      6  C7  UNL d   1       3.014   0.564  -3.871  0.00  0.00    -0.073 A 
ATOM      7  C8  UNL d   1       3.237   1.687  -4.848  0.00  0.00     0.078 C 
ENDROOT
BRANCH   1   8
ATOM      8  C1  UNL d   1       1.165   1.856  -2.659  0.00  0.00     0.053 C 
ATOM      9  C   UNL d   1      -0.315   1.507  -2.657  0.00  0.00     0.018 C 
ENDBRANCH   1   8
TORSDOF 1
ENDMDL
