MODEL 1
REMARK minimizedAffinity 7.92645788
REMARK minimizedRMSD -1
REMARK  1 active torsions:
REMARK  status: ('A' for Active; 'I' for Inactive)
REMARK    1  A    between atoms: C1_2  and  C2_3 
ROOT
ATOM      1  C2  UNL d   1       2.719   2.041  -2.649  0.00  0.00    -0.076 A 
ATOM      2  C3  UNL d   1       1.635   2.913  -2.449  0.00  0.00     0.004 A 
ATOM      3  C4  UNL d   1       1.353   3.929  -3.360  0.00  0.00    -0.003 A 
ATOM      4  C5  UNL d   1       2.151   4.089  -4.488  0.00  0.00     0.000 A 
ATOM      5  C6  UNL d   1       3.220   3.222  -4.712  0.00  0.00     0.000 A 
ATOM      6  C7  UNL d   1       3.508   2.182  -3.811  0.00  0.00    -0.073 A 
ATOM      7  C8  UNL d   1       4.677   1.280  -4.099  0.00  0.00     0.078 C 
ENDROOT
BRANCH   1   8
ATOM      8  C1  UNL d   1       2.992   0.975  -1.613  0.00  0.00     0.053 C 
ATOM      9  C   UNL d   1       3.327   1.560  -0.249  0.00  0.00     0.018 C 
ENDBRANCH   1   8
TORSDOF 1
ENDMDL
