MODEL 1
REMARK minimizedAffinity -0.31901896
REMARK minimizedRMSD -1
REMARK  1 active torsions:
REMARK  status: ('A' for Active; 'I' for Inactive)
REMARK    1  A    between atoms: C1_2  and  C2_3 
ROOT
ATOM      1  C2  UNL d   1       0.603   0.650  -3.377  0.00  0.00    -0.076 A 
ATOM      2  C3  UNL d   1      -0.244  -0.385  -3.809  0.00  0.00     0.004 A 
ATOM      3  C4  UNL d   1      -1.616  -0.182  -3.942  0.00  0.00    -0.003 A 
ATOM      4  C5  UNL d   1      -2.165   1.061  -3.645  0.00  0.00     0.000 A 
ATOM      5  C6  UNL d   1      -1.337   2.105  -3.232  0.00  0.00     0.000 A 
ATOM      6  C7  UNL d   1       0.050   1.921  -3.108  0.00  0.00    -0.073 A 
ATOM      7  C8  UNL d   1       0.894   3.079  -2.652  0.00  0.00     0.078 C 
ENDROOT
BRANCH   1   8
ATOM      8  C1  UNL d   1       2.079   0.363  -3.225  0.00  0.00     0.053 C 
ATOM      9  C   UNL d   1       2.500  -0.914  -3.936  0.00  0.00     0.018 C 
ENDBRANCH   1   8
TORSDOF 1
ENDMDL
