MODEL 1
REMARK minimizedAffinity -2.10192966
REMARK minimizedRMSD -1
REMARK  1 active torsions:
REMARK  status: ('A' for Active; 'I' for Inactive)
REMARK    1  A    between atoms: C1_2  and  C2_3 
ROOT
ATOM      1  C2  UNL d   1      -0.137  -0.003  -3.778  0.00  0.00    -0.076 A 
ATOM      2  C3  UNL d   1       0.838  -1.009  -3.659  0.00  0.00     0.004 A 
ATOM      3  C4  UNL d   1       2.070  -0.746  -3.062  0.00  0.00    -0.003 A 
ATOM      4  C5  UNL d   1       2.347   0.526  -2.574  0.00  0.00     0.000 A 
ATOM      5  C6  UNL d   1       1.384   1.531  -2.668  0.00  0.00     0.000 A 
ATOM      6  C7  UNL d   1       0.131   1.278  -3.252  0.00  0.00    -0.073 A 
ATOM      7  C8  UNL d   1      -0.867   2.401  -3.332  0.00  0.00     0.078 C 
ENDROOT
BRANCH   1   8
ATOM      8  C1  UNL d   1      -1.444  -0.339  -4.459  0.00  0.00     0.053 C 
ATOM      9  C   UNL d   1      -1.957   0.798  -5.329  0.00  0.00     0.018 C 
ENDBRANCH   1   8
TORSDOF 1
ENDMDL
