MODEL 1
REMARK minimizedAffinity 3.45009923
REMARK minimizedRMSD -1
REMARK  1 active torsions:
REMARK  status: ('A' for Active; 'I' for Inactive)
REMARK    1  A    between atoms: C1_2  and  C2_3 
ROOT
ATOM      1  C2  UNL d   1      -4.689   0.567   4.194  0.00  0.00    -0.076 A 
ATOM      2  C3  UNL d   1      -4.751   1.018   2.864  0.00  0.00     0.004 A 
ATOM      3  C4  UNL d   1      -3.740   0.712   1.955  0.00  0.00    -0.003 A 
ATOM      4  C5  UNL d   1      -2.651  -0.051   2.360  0.00  0.00     0.000 A 
ATOM      5  C6  UNL d   1      -2.581  -0.522   3.671  0.00  0.00     0.000 A 
ATOM      6  C7  UNL d   1      -3.600  -0.236   4.596  0.00  0.00    -0.073 A 
ATOM      7  C8  UNL d   1      -3.470  -0.764   5.998  0.00  0.00     0.078 C 
ENDROOT
BRANCH   1   8
ATOM      8  C1  UNL d   1      -5.801   0.954   5.143  0.00  0.00     0.053 C 
ATOM      9  C   UNL d   1      -5.463   2.188   5.965  0.00  0.00     0.018 C 
ENDBRANCH   1   8
TORSDOF 1
ENDMDL
