MODEL 1
REMARK minimizedAffinity 14.6543226
REMARK minimizedRMSD -1
REMARK  1 active torsions:
REMARK  status: ('A' for Active; 'I' for Inactive)
REMARK    1  A    between atoms: C1_2  and  C2_3 
ROOT
ATOM      1  C2  UNL d   1       2.630   0.500  -2.356  0.00  0.00    -0.076 A 
ATOM      2  C3  UNL d   1       2.080  -0.790  -2.251  0.00  0.00     0.004 A 
ATOM      3  C4  UNL d   1       2.276  -1.737  -3.254  0.00  0.00    -0.003 A 
ATOM      4  C5  UNL d   1       3.027  -1.412  -4.378  0.00  0.00     0.000 A 
ATOM      5  C6  UNL d   1       3.595  -0.143  -4.491  0.00  0.00     0.000 A 
ATOM      6  C7  UNL d   1       3.421   0.819  -3.481  0.00  0.00    -0.073 A 
ATOM      7  C8  UNL d   1       4.051   2.173  -3.657  0.00  0.00     0.078 C 
ENDROOT
BRANCH   1   8
ATOM      8  C1  UNL d   1       2.361   1.495  -1.250  0.00  0.00     0.053 C 
ATOM      9  C   UNL d   1       3.152   1.190   0.013  0.00  0.00     0.018 C 
ENDBRANCH   1   8
TORSDOF 1
ENDMDL
