MODEL 1
REMARK minimizedAffinity -2.49126792
REMARK minimizedRMSD -1
REMARK  1 active torsions:
REMARK  status: ('A' for Active; 'I' for Inactive)
REMARK    1  A    between atoms: C1_2  and  C2_3 
ROOT
ATOM      1  C2  UNL d   1       0.698   0.200  -3.459  0.00  0.00    -0.076 A 
ATOM      2  C3  UNL d   1       1.362  -0.993  -3.793  0.00  0.00     0.004 A 
ATOM      3  C4  UNL d   1       2.737  -1.010  -4.021  0.00  0.00    -0.003 A 
ATOM      4  C5  UNL d   1       3.471   0.166  -3.917  0.00  0.00     0.000 A 
ATOM      5  C6  UNL d   1       2.832   1.356  -3.569  0.00  0.00     0.000 A 
ATOM      6  C7  UNL d   1       1.449   1.387  -3.321  0.00  0.00    -0.073 A 
ATOM      7  C8  UNL d   1       0.811   2.699  -2.955  0.00  0.00     0.078 C 
ENDROOT
BRANCH   1   8
ATOM      8  C1  UNL d   1      -0.799   0.163  -3.251  0.00  0.00     0.053 C 
ATOM      9  C   UNL d   1      -1.554  -0.220  -4.515  0.00  0.00     0.018 C 
ENDBRANCH   1   8
TORSDOF 1
ENDMDL
