MODEL 1
REMARK minimizedAffinity -0.348691553
REMARK minimizedRMSD -1
REMARK  1 active torsions:
REMARK  status: ('A' for Active; 'I' for Inactive)
REMARK    1  A    between atoms: C1_2  and  C2_3 
ROOT
ATOM      1  C2  UNL d   1       1.103   1.015  -2.633  0.00  0.00    -0.076 A 
ATOM      2  C3  UNL d   1       0.199   2.092  -2.671  0.00  0.00     0.004 A 
ATOM      3  C4  UNL d   1      -1.035   1.971  -3.307  0.00  0.00    -0.003 A 
ATOM      4  C5  UNL d   1      -1.386   0.771  -3.916  0.00  0.00     0.000 A 
ATOM      5  C6  UNL d   1      -0.510  -0.313  -3.873  0.00  0.00     0.000 A 
ATOM      6  C7  UNL d   1       0.732  -0.213  -3.221  0.00  0.00    -0.073 A 
ATOM      7  C8  UNL d   1       1.640  -1.411  -3.211  0.00  0.00     0.078 C 
ENDROOT
BRANCH   1   8
ATOM      8  C1  UNL d   1       2.438   1.214  -1.953  0.00  0.00     0.053 C 
ATOM      9  C   UNL d   1       2.294   1.575  -0.482  0.00  0.00     0.018 C 
ENDBRANCH   1   8
TORSDOF 1
ENDMDL
