MODEL 1
REMARK minimizedAffinity 5.99817705
REMARK minimizedRMSD -1
REMARK  1 active torsions:
REMARK  status: ('A' for Active; 'I' for Inactive)
REMARK    1  A    between atoms: C1_2  and  C2_3 
ROOT
ATOM      1  C2  UNL d   1      -0.044   0.403  -3.267  0.00  0.00    -0.076 A 
ATOM      2  C3  UNL d   1      -0.824  -0.493  -4.019  0.00  0.00     0.004 A 
ATOM      3  C4  UNL d   1      -2.126  -0.167  -4.397  0.00  0.00    -0.003 A 
ATOM      4  C5  UNL d   1      -2.667   1.060  -4.031  0.00  0.00     0.000 A 
ATOM      5  C6  UNL d   1      -1.901   1.968  -3.301  0.00  0.00     0.000 A 
ATOM      6  C7  UNL d   1      -0.582   1.662  -2.925  0.00  0.00    -0.073 A 
ATOM      7  C8  UNL d   1       0.197   2.676  -2.133  0.00  0.00     0.078 C 
ENDROOT
BRANCH   1   8
ATOM      8  C1  UNL d   1       1.352  -0.016  -2.863  0.00  0.00     0.053 C 
ATOM      9  C   UNL d   1       1.974  -0.996  -3.845  0.00  0.00     0.018 C 
ENDBRANCH   1   8
TORSDOF 1
ENDMDL
