MODEL 1
REMARK minimizedAffinity 2.55170941
REMARK minimizedRMSD -1
REMARK  1 active torsions:
REMARK  status: ('A' for Active; 'I' for Inactive)
REMARK    1  A    between atoms: C1_2  and  C2_3 
ROOT
ATOM      1  C2  UNL d   1      -1.652   0.858  -1.267  0.00  0.00    -0.076 A 
ATOM      2  C3  UNL d   1      -1.173   1.953  -2.007  0.00  0.00     0.004 A 
ATOM      3  C4  UNL d   1      -1.350   2.019  -3.388  0.00  0.00    -0.003 A 
ATOM      4  C5  UNL d   1      -2.009   0.991  -4.052  0.00  0.00     0.000 A 
ATOM      5  C6  UNL d   1      -2.507  -0.095  -3.332  0.00  0.00     0.000 A 
ATOM      6  C7  UNL d   1      -2.351  -0.169  -1.937  0.00  0.00    -0.073 A 
ATOM      7  C8  UNL d   1      -2.902  -1.366  -1.211  0.00  0.00     0.078 C 
ENDROOT
BRANCH   1   8
ATOM      8  C1  UNL d   1      -1.407   0.829   0.224  0.00  0.00     0.053 C 
ATOM      9  C   UNL d   1      -2.498   1.541   1.008  0.00  0.00     0.018 C 
ENDBRANCH   1   8
TORSDOF 1
ENDMDL
