MODEL 1
REMARK minimizedAffinity 12.5896158
REMARK minimizedRMSD -1
REMARK  1 active torsions:
REMARK  status: ('A' for Active; 'I' for Inactive)
REMARK    1  A    between atoms: C1_2  and  C2_3 
ROOT
ATOM      1  C2  UNL d   1       0.130   1.450  -2.918  0.00  0.00    -0.076 A 
ATOM      2  C3  UNL d   1      -0.474   0.213  -3.203  0.00  0.00     0.004 A 
ATOM      3  C4  UNL d   1      -1.677   0.146  -3.903  0.00  0.00    -0.003 A 
ATOM      4  C5  UNL d   1      -2.297   1.316  -4.330  0.00  0.00     0.000 A 
ATOM      5  C6  UNL d   1      -1.703   2.551  -4.071  0.00  0.00     0.000 A 
ATOM      6  C7  UNL d   1      -0.481   2.635  -3.381  0.00  0.00    -0.073 A 
ATOM      7  C8  UNL d   1       0.111   3.993  -3.124  0.00  0.00     0.078 C 
ENDROOT
BRANCH   1   8
ATOM      8  C1  UNL d   1       1.422   1.461  -2.132  0.00  0.00     0.053 C 
ATOM      9  C   UNL d   1       2.482   0.555  -2.740  0.00  0.00     0.018 C 
ENDBRANCH   1   8
TORSDOF 1
ENDMDL
