MODEL 1
REMARK minimizedAffinity 8.89705753
REMARK minimizedRMSD -1
REMARK  1 active torsions:
REMARK  status: ('A' for Active; 'I' for Inactive)
REMARK    1  A    between atoms: C1_2  and  C2_3 
ROOT
ATOM      1  C2  UNL d   1      -0.463   1.322   0.175  0.00  0.00    -0.076 A 
ATOM      2  C3  UNL d   1      -1.512   2.127  -0.303  0.00  0.00     0.004 A 
ATOM      3  C4  UNL d   1      -2.456   2.668   0.569  0.00  0.00    -0.003 A 
ATOM      4  C5  UNL d   1      -2.365   2.413   1.933  0.00  0.00     0.000 A 
ATOM      5  C6  UNL d   1      -1.321   1.631   2.426  0.00  0.00     0.000 A 
ATOM      6  C7  UNL d   1      -0.352   1.091   1.563  0.00  0.00    -0.073 A 
ATOM      7  C8  UNL d   1       0.749   0.250   2.148  0.00  0.00     0.078 C 
ENDROOT
BRANCH   1   8
ATOM      8  C1  UNL d   1       0.514   0.740  -0.821  0.00  0.00     0.053 C 
ATOM      9  C   UNL d   1      -0.050  -0.466  -1.556  0.00  0.00     0.018 C 
ENDBRANCH   1   8
TORSDOF 1
ENDMDL
