MODEL 1
REMARK minimizedAffinity 11.9557619
REMARK minimizedRMSD -1
REMARK  1 active torsions:
REMARK  status: ('A' for Active; 'I' for Inactive)
REMARK    1  A    between atoms: C1_2  and  C2_3 
ROOT
ATOM      1  C2  UNL d   1      -0.681   1.690   0.618  0.00  0.00    -0.076 A 
ATOM      2  C3  UNL d   1      -1.116   2.464  -0.471  0.00  0.00     0.004 A 
ATOM      3  C4  UNL d   1      -0.489   2.372  -1.713  0.00  0.00    -0.003 A 
ATOM      4  C5  UNL d   1       0.582   1.502  -1.886  0.00  0.00     0.000 A 
ATOM      5  C6  UNL d   1       1.015   0.712  -0.821  0.00  0.00     0.000 A 
ATOM      6  C7  UNL d   1       0.384   0.782   0.433  0.00  0.00    -0.073 A 
ATOM      7  C8  UNL d   1       0.896  -0.088   1.548  0.00  0.00     0.078 C 
ENDROOT
BRANCH   1   8
ATOM      8  C1  UNL d   1      -1.381   1.853   1.948  0.00  0.00     0.053 C 
ATOM      9  C   UNL d   1      -2.464   0.808   2.168  0.00  0.00     0.018 C 
ENDBRANCH   1   8
TORSDOF 1
ENDMDL
