MODEL 1
REMARK minimizedAffinity 5.56407785
REMARK minimizedRMSD -1
REMARK  1 active torsions:
REMARK  status: ('A' for Active; 'I' for Inactive)
REMARK    1  A    between atoms: C1_2  and  C2_3 
ROOT
ATOM      1  C2  UNL d   1      -0.433   1.928   0.166  0.00  0.00    -0.076 A 
ATOM      2  C3  UNL d   1      -1.600   2.604  -0.231  0.00  0.00     0.004 A 
ATOM      3  C4  UNL d   1      -2.647   2.813   0.665  0.00  0.00    -0.003 A 
ATOM      4  C5  UNL d   1      -2.544   2.350   1.972  0.00  0.00     0.000 A 
ATOM      5  C6  UNL d   1      -1.386   1.693   2.388  0.00  0.00     0.000 A 
ATOM      6  C7  UNL d   1      -0.315   1.489   1.502  0.00  0.00    -0.073 A 
ATOM      7  C8  UNL d   1       0.908   0.769   2.002  0.00  0.00     0.078 C 
ENDROOT
BRANCH   1   8
ATOM      8  C1  UNL d   1       0.659   1.707  -0.857  0.00  0.00     0.053 C 
ATOM      9  C   UNL d   1       0.914   0.232  -1.127  0.00  0.00     0.018 C 
ENDBRANCH   1   8
TORSDOF 1
ENDMDL
