MODEL 1
REMARK minimizedAffinity 8.1435442
REMARK minimizedRMSD -1
REMARK  1 active torsions:
REMARK  status: ('A' for Active; 'I' for Inactive)
REMARK    1  A    between atoms: C1_2  and  C2_3 
ROOT
ATOM      1  C2  UNL d   1      -0.575   1.379   0.054  0.00  0.00    -0.076 A 
ATOM      2  C3  UNL d   1      -1.623   2.161  -0.460  0.00  0.00     0.004 A 
ATOM      3  C4  UNL d   1      -2.519   2.808   0.390  0.00  0.00    -0.003 A 
ATOM      4  C5  UNL d   1      -2.380   2.683   1.768  0.00  0.00     0.000 A 
ATOM      5  C6  UNL d   1      -1.335   1.926   2.295  0.00  0.00     0.000 A 
ATOM      6  C7  UNL d   1      -0.414   1.280   1.452  0.00  0.00    -0.073 A 
ATOM      7  C8  UNL d   1       0.690   0.471   2.075  0.00  0.00     0.078 C 
ENDROOT
BRANCH   1   8
ATOM      8  C1  UNL d   1       0.349   0.678  -0.917  0.00  0.00     0.053 C 
ATOM      9  C   UNL d   1      -0.383  -0.319  -1.802  0.00  0.00     0.018 C 
ENDBRANCH   1   8
TORSDOF 1
ENDMDL
