MODEL 1
REMARK minimizedAffinity 12.0948858
REMARK minimizedRMSD -1
REMARK  1 active torsions:
REMARK  status: ('A' for Active; 'I' for Inactive)
REMARK    1  A    between atoms: C1_2  and  C2_3 
ROOT
ATOM      1  C2  UNL d   1      -0.865   2.043  -0.232  0.00  0.00    -0.076 A 
ATOM      2  C3  UNL d   1      -0.436   2.528   1.015  0.00  0.00     0.004 A 
ATOM      3  C4  UNL d   1      -1.320   2.634   2.087  0.00  0.00    -0.003 A 
ATOM      4  C5  UNL d   1      -2.649   2.256   1.929  0.00  0.00     0.000 A 
ATOM      5  C6  UNL d   1      -3.088   1.756   0.703  0.00  0.00     0.000 A 
ATOM      6  C7  UNL d   1      -2.206   1.627  -0.382  0.00  0.00    -0.073 A 
ATOM      7  C8  UNL d   1      -2.735   1.088  -1.683  0.00  0.00     0.078 C 
ENDROOT
BRANCH   1   8
ATOM      8  C1  UNL d   1       0.133   1.975  -1.366  0.00  0.00     0.053 C 
ATOM      9  C   UNL d   1       0.889   0.656  -1.399  0.00  0.00     0.018 C 
ENDBRANCH   1   8
TORSDOF 1
ENDMDL
