MODEL 1
REMARK minimizedAffinity 9.96176434
REMARK minimizedRMSD -1
REMARK  1 active torsions:
REMARK  status: ('A' for Active; 'I' for Inactive)
REMARK    1  A    between atoms: C1_2  and  C2_3 
ROOT
ATOM      1  C2  UNL d   1       3.949  -3.797  -4.048  0.00  0.00    -0.076 A 
ATOM      2  C3  UNL d   1       3.177  -4.897  -3.636  0.00  0.00     0.004 A 
ATOM      3  C4  UNL d   1       3.579  -5.695  -2.565  0.00  0.00    -0.003 A 
ATOM      4  C5  UNL d   1       4.759  -5.405  -1.890  0.00  0.00     0.000 A 
ATOM      5  C6  UNL d   1       5.528  -4.307  -2.274  0.00  0.00     0.000 A 
ATOM      6  C7  UNL d   1       5.129  -3.483  -3.341  0.00  0.00    -0.073 A 
ATOM      7  C8  UNL d   1       6.000  -2.316  -3.717  0.00  0.00     0.078 C 
ENDROOT
BRANCH   1   8
ATOM      8  C1  UNL d   1       3.477  -2.985  -5.233  0.00  0.00     0.053 C 
ATOM      9  C   UNL d   1       2.289  -2.098  -4.895  0.00  0.00     0.018 C 
ENDBRANCH   1   8
TORSDOF 1
ENDMDL
