MODEL 1
REMARK minimizedAffinity 3.89954615
REMARK minimizedRMSD -1
REMARK  1 active torsions:
REMARK  status: ('A' for Active; 'I' for Inactive)
REMARK    1  A    between atoms: C1_2  and  C2_3 
ROOT
ATOM      1  C2  UNL d   1       4.205  -3.237  -2.061  0.00  0.00    -0.076 A 
ATOM      2  C3  UNL d   1       5.571  -3.001  -1.830  0.00  0.00     0.004 A 
ATOM      3  C4  UNL d   1       5.999  -2.317  -0.694  0.00  0.00    -0.003 A 
ATOM      4  C5  UNL d   1       5.067  -1.858   0.230  0.00  0.00     0.000 A 
ATOM      5  C6  UNL d   1       3.709  -2.099   0.027  0.00  0.00     0.000 A 
ATOM      6  C7  UNL d   1       3.262  -2.801  -1.105  0.00  0.00    -0.073 A 
ATOM      7  C8  UNL d   1       1.785  -3.028  -1.278  0.00  0.00     0.078 C 
ENDROOT
BRANCH   1   8
ATOM      8  C1  UNL d   1       3.798  -3.961  -3.325  0.00  0.00     0.053 C 
ATOM      9  C   UNL d   1       3.428  -5.415  -3.070  0.00  0.00     0.018 C 
ENDBRANCH   1   8
TORSDOF 1
ENDMDL
