MODEL 1
REMARK minimizedAffinity 9.18571091
REMARK minimizedRMSD -1
REMARK  1 active torsions:
REMARK  status: ('A' for Active; 'I' for Inactive)
REMARK    1  A    between atoms: C1_2  and  C2_3 
ROOT
ATOM      1  C2  UNL d   1      -0.860   0.186   2.735  0.00  0.00    -0.076 A 
ATOM      2  C3  UNL d   1      -2.127  -0.248   3.162  0.00  0.00     0.004 A 
ATOM      3  C4  UNL d   1      -2.322  -1.550   3.619  0.00  0.00    -0.003 A 
ATOM      4  C5  UNL d   1      -1.254  -2.439   3.658  0.00  0.00     0.000 A 
ATOM      5  C6  UNL d   1       0.014  -2.020   3.255  0.00  0.00     0.000 A 
ATOM      6  C7  UNL d   1       0.232  -0.706   2.806  0.00  0.00    -0.073 A 
ATOM      7  C8  UNL d   1       1.618  -0.310   2.378  0.00  0.00     0.078 C 
ENDROOT
BRANCH   1   8
ATOM      8  C1  UNL d   1      -0.713   1.601   2.223  0.00  0.00     0.053 C 
ATOM      9  C   UNL d   1      -1.785   1.967   1.208  0.00  0.00     0.018 C 
ENDBRANCH   1   8
TORSDOF 1
ENDMDL
