MODEL 1
REMARK minimizedAffinity 8.1840229
REMARK minimizedRMSD -1
REMARK  1 active torsions:
REMARK  status: ('A' for Active; 'I' for Inactive)
REMARK    1  A    between atoms: C1_2  and  C2_3 
ROOT
ATOM      1  C2  UNL d   1      -0.914   0.259   2.955  0.00  0.00    -0.076 A 
ATOM      2  C3  UNL d   1       0.234   0.155   3.760  0.00  0.00     0.004 A 
ATOM      3  C4  UNL d   1       0.988   1.282   4.082  0.00  0.00    -0.003 A 
ATOM      4  C5  UNL d   1       0.607   2.531   3.604  0.00  0.00     0.000 A 
ATOM      5  C6  UNL d   1      -0.538   2.655   2.818  0.00  0.00     0.000 A 
ATOM      6  C7  UNL d   1      -1.319   1.531   2.498  0.00  0.00    -0.073 A 
ATOM      7  C8  UNL d   1      -2.541   1.722   1.642  0.00  0.00     0.078 C 
ENDROOT
BRANCH   1   8
ATOM      8  C1  UNL d   1      -1.677  -1.002   2.616  0.00  0.00     0.053 C 
ATOM      9  C   UNL d   1      -1.567  -2.059   3.703  0.00  0.00     0.018 C 
ENDBRANCH   1   8
TORSDOF 1
ENDMDL
