MODEL 1
REMARK minimizedAffinity 5.13008213
REMARK minimizedRMSD -1
REMARK  1 active torsions:
REMARK  status: ('A' for Active; 'I' for Inactive)
REMARK    1  A    between atoms: C1_2  and  C2_3 
ROOT
ATOM      1  C2  UNL d   1       4.183  -3.022  -1.854  0.00  0.00    -0.076 A 
ATOM      2  C3  UNL d   1       5.540  -2.659  -1.802  0.00  0.00     0.004 A 
ATOM      3  C4  UNL d   1       5.999  -1.731  -0.869  0.00  0.00    -0.003 A 
ATOM      4  C5  UNL d   1       5.109  -1.152   0.029  0.00  0.00     0.000 A 
ATOM      5  C6  UNL d   1       3.763  -1.514   0.004  0.00  0.00     0.000 A 
ATOM      6  C7  UNL d   1       3.286  -2.460  -0.921  0.00  0.00    -0.073 A 
ATOM      7  C8  UNL d   1       1.823  -2.808  -0.907  0.00  0.00     0.078 C 
ENDROOT
BRANCH   1   8
ATOM      8  C1  UNL d   1       3.738  -4.013  -2.906  0.00  0.00     0.053 C 
ATOM      9  C   UNL d   1       3.692  -5.439  -2.380  0.00  0.00     0.018 C 
ENDBRANCH   1   8
TORSDOF 1
ENDMDL
