MODEL 1
REMARK minimizedAffinity 7.79983377
REMARK minimizedRMSD -1
REMARK  1 active torsions:
REMARK  status: ('A' for Active; 'I' for Inactive)
REMARK    1  A    between atoms: C1_2  and  C2_3 
ROOT
ATOM      1  C2  UNL d   1      -0.785   0.307  -2.403  0.00  0.00    -0.076 A 
ATOM      2  C3  UNL d   1      -1.031   1.023  -1.218  0.00  0.00     0.004 A 
ATOM      3  C4  UNL d   1      -0.136   1.991  -0.765  0.00  0.00    -0.003 A 
ATOM      4  C5  UNL d   1       1.019   2.259  -1.491  0.00  0.00     0.000 A 
ATOM      5  C6  UNL d   1       1.270   1.572  -2.677  0.00  0.00     0.000 A 
ATOM      6  C7  UNL d   1       0.370   0.604  -3.156  0.00  0.00    -0.073 A 
ATOM      7  C8  UNL d   1       0.695  -0.111  -4.439  0.00  0.00     0.078 C 
ENDROOT
BRANCH   1   8
ATOM      8  C1  UNL d   1      -1.778  -0.750  -2.830  0.00  0.00     0.053 C 
ATOM      9  C   UNL d   1      -3.215  -0.252  -2.787  0.00  0.00     0.018 C 
ENDBRANCH   1   8
TORSDOF 1
ENDMDL
