MODEL 1
REMARK minimizedAffinity -2.94769406
REMARK minimizedRMSD -1
REMARK  1 active torsions:
REMARK  status: ('A' for Active; 'I' for Inactive)
REMARK    1  A    between atoms: C1_2  and  C2_3 
ROOT
ATOM      1  C2  UNL d   1      -0.152   0.639  -0.684  0.00  0.00    -0.076 A 
ATOM      2  C3  UNL d   1      -0.974   1.769  -0.530  0.00  0.00     0.004 A 
ATOM      3  C4  UNL d   1      -1.307   2.247   0.736  0.00  0.00    -0.003 A 
ATOM      4  C5  UNL d   1      -0.824   1.602   1.869  0.00  0.00     0.000 A 
ATOM      5  C6  UNL d   1       0.007   0.490   1.735  0.00  0.00     0.000 A 
ATOM      6  C7  UNL d   1       0.366   0.006   0.466  0.00  0.00    -0.073 A 
ATOM      7  C8  UNL d   1       1.260  -1.201   0.380  0.00  0.00     0.078 C 
ENDROOT
BRANCH   1   8
ATOM      8  C1  UNL d   1       0.154   0.151  -2.082  0.00  0.00     0.053 C 
ATOM      9  C   UNL d   1      -1.011  -0.603  -2.704  0.00  0.00     0.018 C 
ENDBRANCH   1   8
TORSDOF 1
ENDMDL
