MODEL 1
REMARK minimizedAffinity 14.4666481
REMARK minimizedRMSD -1
REMARK  1 active torsions:
REMARK  status: ('A' for Active; 'I' for Inactive)
REMARK    1  A    between atoms: C1_2  and  C2_3 
ROOT
ATOM      1  C2  UNL d   1      -0.091   0.311  -2.767  0.00  0.00    -0.076 A 
ATOM      2  C3  UNL d   1       0.511   0.237  -4.035  0.00  0.00     0.004 A 
ATOM      3  C4  UNL d   1       1.517   1.128  -4.405  0.00  0.00    -0.003 A 
ATOM      4  C5  UNL d   1       1.938   2.108  -3.512  0.00  0.00     0.000 A 
ATOM      5  C6  UNL d   1       1.364   2.185  -2.243  0.00  0.00     0.000 A 
ATOM      6  C7  UNL d   1       0.360   1.284  -1.849  0.00  0.00    -0.073 A 
ATOM      7  C8  UNL d   1      -0.228   1.416  -0.471  0.00  0.00     0.078 C 
ENDROOT
BRANCH   1   8
ATOM      8  C1  UNL d   1      -1.195  -0.665  -2.431  0.00  0.00     0.053 C 
ATOM      9  C   UNL d   1      -2.571  -0.142  -2.814  0.00  0.00     0.018 C 
ENDBRANCH   1   8
TORSDOF 1
ENDMDL
