MODEL 1
REMARK minimizedAffinity -0.596532762
REMARK minimizedRMSD -1
REMARK  0 active torsions:
REMARK  status: ('A' for Active; 'I' for Inactive)
ROOT
ATOM      1  C   UNL d   1       0.816   2.280  -0.876  0.00  0.00     0.020 A 
ATOM      2  C1  UNL d   1       0.742   1.885  -2.210  0.00  0.00     0.020 A 
ATOM      3  C2  UNL d   1       0.554   0.538  -2.530  0.00  0.00     0.034 A 
ATOM      4  C3  UNL d   1       0.439  -0.417  -1.514  0.00  0.00     0.017 A 
ATOM      5  C4  UNL d   1       0.514  -0.019  -0.175  0.00  0.00     0.017 A 
ATOM      6  C5  UNL d   1       0.702   1.330   0.140  0.00  0.00     0.034 A 
ATOM      7 Cl   UNL d   1       0.381  -1.140   1.134  0.00  0.00    -0.070 Cl
ATOM      8 Cl1  UNL d   1       0.208  -2.064  -1.983  0.00  0.00    -0.070 Cl
ENDROOT
TORSDOF 0
ENDMDL
