MODEL 1
REMARK minimizedAffinity 1.2251848
REMARK minimizedRMSD -1
REMARK  0 active torsions:
REMARK  status: ('A' for Active; 'I' for Inactive)
ROOT
ATOM      1  C   UNL d   1       0.874  -2.174   1.114  0.00  0.00     0.020 A 
ATOM      2  C1  UNL d   1      -0.228  -2.296   1.959  0.00  0.00     0.020 A 
ATOM      3  C2  UNL d   1      -1.143  -1.248   2.070  0.00  0.00     0.034 A 
ATOM      4  C3  UNL d   1      -0.959  -0.072   1.333  0.00  0.00     0.017 A 
ATOM      5  C4  UNL d   1       0.147   0.050   0.484  0.00  0.00     0.017 A 
ATOM      6  C5  UNL d   1       1.061  -1.003   0.378  0.00  0.00     0.034 A 
ATOM      7 Cl   UNL d   1       0.442   1.470  -0.456  0.00  0.00    -0.070 Cl
ATOM      8 Cl1  UNL d   1      -2.131   1.184   1.518  0.00  0.00    -0.070 Cl
ENDROOT
TORSDOF 0
ENDMDL
