MODEL 1
REMARK minimizedAffinity -1.37791991
REMARK minimizedRMSD -1
REMARK  0 active torsions:
REMARK  status: ('A' for Active; 'I' for Inactive)
ROOT
ATOM      1  C   UNL d   1       2.041   0.100  -0.139  0.00  0.00     0.020 A 
ATOM      2  C1  UNL d   1       1.069   0.913  -0.721  0.00  0.00     0.020 A 
ATOM      3  C2  UNL d   1      -0.276   0.738  -0.390  0.00  0.00     0.034 A 
ATOM      4  C3  UNL d   1      -0.653  -0.252   0.525  0.00  0.00     0.017 A 
ATOM      5  C4  UNL d   1       0.323  -1.067   1.109  0.00  0.00     0.017 A 
ATOM      6  C5  UNL d   1       1.669  -0.888   0.774  0.00  0.00     0.034 A 
ATOM      7 Cl   UNL d   1      -0.065  -2.309   2.246  0.00  0.00    -0.070 Cl
ATOM      8 Cl1  UNL d   1      -2.335  -0.412   0.888  0.00  0.00    -0.070 Cl
ENDROOT
TORSDOF 0
ENDMDL
