MODEL 1
REMARK minimizedAffinity -4.24965334
REMARK minimizedRMSD -1
REMARK  0 active torsions:
REMARK  status: ('A' for Active; 'I' for Inactive)
ROOT
ATOM      1  C   UNL d   1       1.528   2.998  -4.464  0.00  0.00     0.020 A 
ATOM      2  C1  UNL d   1       0.338   2.716  -3.795  0.00  0.00     0.020 A 
ATOM      3  C2  UNL d   1       0.370   2.113  -2.536  0.00  0.00     0.034 A 
ATOM      4  C3  UNL d   1       1.595   1.788  -1.943  0.00  0.00     0.017 A 
ATOM      5  C4  UNL d   1       2.790   2.071  -2.615  0.00  0.00     0.017 A 
ATOM      6  C5  UNL d   1       2.752   2.676  -3.875  0.00  0.00     0.034 A 
ATOM      7 Cl   UNL d   1       4.340   1.700  -1.947  0.00  0.00    -0.070 Cl
ATOM      8 Cl1  UNL d   1       1.561   1.044  -0.384  0.00  0.00    -0.070 Cl
ENDROOT
TORSDOF 0
ENDMDL
