MODEL 1
REMARK minimizedAffinity -4.53404951
REMARK minimizedRMSD -1
REMARK  0 active torsions:
REMARK  status: ('A' for Active; 'I' for Inactive)
ROOT
ATOM      1  C   UNL d   1      -1.122  -2.393  -0.543  0.00  0.00     0.020 A 
ATOM      2  C1  UNL d   1      -1.881  -2.019   0.565  0.00  0.00     0.020 A 
ATOM      3  C2  UNL d   1      -1.789  -0.720   1.068  0.00  0.00     0.034 A 
ATOM      4  C3  UNL d   1      -0.936   0.210   0.464  0.00  0.00     0.017 A 
ATOM      5  C4  UNL d   1      -0.174  -0.166  -0.649  0.00  0.00     0.017 A 
ATOM      6  C5  UNL d   1      -0.270  -1.468  -1.149  0.00  0.00     0.034 A 
ATOM      7 Cl   UNL d   1       0.901   0.927  -1.448  0.00  0.00    -0.070 Cl
ATOM      8 Cl1  UNL d   1      -0.872   1.799   1.139  0.00  0.00    -0.070 Cl
ENDROOT
TORSDOF 0
ENDMDL
