MODEL 1
REMARK minimizedAffinity -4.18818617
REMARK minimizedRMSD -1
REMARK  0 active torsions:
REMARK  status: ('A' for Active; 'I' for Inactive)
ROOT
ATOM      1  C   UNL d   1      -1.866  -1.563   2.153  0.00  0.00     0.020 A 
ATOM      2  C1  UNL d   1      -0.765  -2.050   1.450  0.00  0.00     0.020 A 
ATOM      3  C2  UNL d   1       0.001  -1.185   0.667  0.00  0.00     0.034 A 
ATOM      4  C3  UNL d   1      -0.331   0.172   0.586  0.00  0.00     0.017 A 
ATOM      5  C4  UNL d   1      -1.437   0.660   1.292  0.00  0.00     0.017 A 
ATOM      6  C5  UNL d   1      -2.201  -0.211   2.074  0.00  0.00     0.034 A 
ATOM      7 Cl   UNL d   1      -1.910   2.322   1.241  0.00  0.00    -0.070 Cl
ATOM      8 Cl1  UNL d   1       0.661   1.185  -0.401  0.00  0.00    -0.070 Cl
ENDROOT
TORSDOF 0
ENDMDL
