MODEL 1
REMARK minimizedAffinity -3.91262794
REMARK minimizedRMSD -1
REMARK  0 active torsions:
REMARK  status: ('A' for Active; 'I' for Inactive)
ROOT
ATOM      1  C   UNL d   1       0.006  -2.884   1.548  0.00  0.00     0.020 A 
ATOM      2  C1  UNL d   1       1.083  -2.715   0.679  0.00  0.00     0.020 A 
ATOM      3  C2  UNL d   1       1.201  -1.541  -0.068  0.00  0.00     0.034 A 
ATOM      4  C3  UNL d   1       0.239  -0.531   0.052  0.00  0.00     0.017 A 
ATOM      5  C4  UNL d   1      -0.842  -0.701   0.925  0.00  0.00     0.017 A 
ATOM      6  C5  UNL d   1      -0.954  -1.879   1.670  0.00  0.00     0.034 A 
ATOM      7 Cl   UNL d   1      -2.068   0.500   1.127  0.00  0.00    -0.070 Cl
ATOM      8 Cl1  UNL d   1       0.448   0.894  -0.902  0.00  0.00    -0.070 Cl
ENDROOT
TORSDOF 0
ENDMDL
