MODEL 1
REMARK minimizedAffinity -1.17559373
REMARK minimizedRMSD -1
REMARK  0 active torsions:
REMARK  status: ('A' for Active; 'I' for Inactive)
ROOT
ATOM      1  C   UNL d   1       1.033  -2.532   0.207  0.00  0.00     0.020 A 
ATOM      2  C1  UNL d   1       0.279  -2.502   1.379  0.00  0.00     0.020 A 
ATOM      3  C2  UNL d   1      -0.530  -1.400   1.661  0.00  0.00     0.034 A 
ATOM      4  C3  UNL d   1      -0.588  -0.322   0.769  0.00  0.00     0.017 A 
ATOM      5  C4  UNL d   1       0.169  -0.353  -0.408  0.00  0.00     0.017 A 
ATOM      6  C5  UNL d   1       0.978  -1.460  -0.685  0.00  0.00     0.034 A 
ATOM      7 Cl   UNL d   1       0.149   0.938  -1.557  0.00  0.00    -0.070 Cl
ATOM      8 Cl1  UNL d   1      -1.611   1.008   1.181  0.00  0.00    -0.070 Cl
ENDROOT
TORSDOF 0
ENDMDL
