MODEL 1
REMARK minimizedAffinity -3.82374597
REMARK minimizedRMSD -1
REMARK  0 active torsions:
REMARK  status: ('A' for Active; 'I' for Inactive)
ROOT
ATOM      1  C   UNL d   1       0.486   1.343  -4.151  0.00  0.00     0.020 A 
ATOM      2  C1  UNL d   1       0.765   2.589  -3.591  0.00  0.00     0.020 A 
ATOM      3  C2  UNL d   1       0.837   2.730  -2.203  0.00  0.00     0.034 A 
ATOM      4  C3  UNL d   1       0.628   1.624  -1.371  0.00  0.00     0.017 A 
ATOM      5  C4  UNL d   1       0.348   0.374  -1.935  0.00  0.00     0.017 A 
ATOM      6  C5  UNL d   1       0.278   0.238  -3.325  0.00  0.00     0.034 A 
ATOM      7 Cl   UNL d   1       0.080  -1.037  -0.973  0.00  0.00    -0.070 Cl
ATOM      8 Cl1  UNL d   1       0.732   1.871   0.336  0.00  0.00    -0.070 Cl
ENDROOT
TORSDOF 0
ENDMDL
