MODEL 1
REMARK minimizedAffinity -0.303217918
REMARK minimizedRMSD -1
REMARK  0 active torsions:
REMARK  status: ('A' for Active; 'I' for Inactive)
ROOT
ATOM      1  C   UNL d   1      -0.120   2.305  -2.962  0.00  0.00     0.020 A 
ATOM      2  C1  UNL d   1       0.932   2.853  -3.693  0.00  0.00     0.020 A 
ATOM      3  C2  UNL d   1       2.252   2.561  -3.343  0.00  0.00     0.034 A 
ATOM      4  C3  UNL d   1       2.523   1.719  -2.259  0.00  0.00     0.017 A 
ATOM      5  C4  UNL d   1       1.466   1.168  -1.526  0.00  0.00     0.017 A 
ATOM      6  C5  UNL d   1       0.146   1.464  -1.881  0.00  0.00     0.034 A 
ATOM      7 Cl   UNL d   1       1.721   0.120  -0.176  0.00  0.00    -0.070 Cl
ATOM      8 Cl1  UNL d   1       4.179   1.400  -1.883  0.00  0.00    -0.070 Cl
ENDROOT
TORSDOF 0
ENDMDL
