MODEL 1
REMARK minimizedAffinity -1.79523337
REMARK minimizedRMSD -1
REMARK  0 active torsions:
REMARK  status: ('A' for Active; 'I' for Inactive)
ROOT
ATOM      1  C   UNL d   1       1.555   1.206  -2.912  0.00  0.00     0.020 A 
ATOM      2  C1  UNL d   1       1.367  -0.174  -2.973  0.00  0.00     0.020 A 
ATOM      3  C2  UNL d   1       0.918  -0.868  -1.847  0.00  0.00     0.034 A 
ATOM      4  C3  UNL d   1       0.657  -0.181  -0.655  0.00  0.00     0.017 A 
ATOM      5  C4  UNL d   1       0.846   1.204  -0.596  0.00  0.00     0.017 A 
ATOM      6  C5  UNL d   1       1.295   1.894  -1.726  0.00  0.00     0.034 A 
ATOM      7 Cl   UNL d   1       0.544   2.120   0.839  0.00  0.00    -0.070 Cl
ATOM      8 Cl1  UNL d   1       0.104  -1.103   0.698  0.00  0.00    -0.070 Cl
ENDROOT
TORSDOF 0
ENDMDL
