MODEL 1
REMARK minimizedAffinity -0.876334488
REMARK minimizedRMSD -1
REMARK  0 active torsions:
REMARK  status: ('A' for Active; 'I' for Inactive)
ROOT
ATOM      1  C   UNL d   1       0.557  -2.103   0.887  0.00  0.00     0.020 A 
ATOM      2  C1  UNL d   1       0.957  -2.466  -0.399  0.00  0.00     0.020 A 
ATOM      3  C2  UNL d   1       1.138  -1.486  -1.376  0.00  0.00     0.034 A 
ATOM      4  C3  UNL d   1       0.920  -0.138  -1.070  0.00  0.00     0.017 A 
ATOM      5  C4  UNL d   1       0.519   0.226   0.220  0.00  0.00     0.017 A 
ATOM      6  C5  UNL d   1       0.338  -0.760   1.195  0.00  0.00     0.034 A 
ATOM      7 Cl   UNL d   1       0.230   1.869   0.673  0.00  0.00    -0.070 Cl
ATOM      8 Cl1  UNL d   1       1.164   1.022  -2.328  0.00  0.00    -0.070 Cl
ENDROOT
TORSDOF 0
ENDMDL
