MODEL 1
REMARK minimizedAffinity -4.10913515
REMARK minimizedRMSD -1
REMARK  0 active torsions:
REMARK  status: ('A' for Active; 'I' for Inactive)
ROOT
ATOM      1  C   UNL d   1       1.665  -0.540  -0.692  0.00  0.00     0.020 A 
ATOM      2  C1  UNL d   1       1.077   0.713  -0.857  0.00  0.00     0.020 A 
ATOM      3  C2  UNL d   1      -0.160   0.987  -0.269  0.00  0.00     0.034 A 
ATOM      4  C3  UNL d   1      -0.813   0.006   0.486  0.00  0.00     0.017 A 
ATOM      5  C4  UNL d   1      -0.222  -1.251   0.651  0.00  0.00     0.017 A 
ATOM      6  C5  UNL d   1       1.016  -1.520   0.060  0.00  0.00     0.034 A 
ATOM      7 Cl   UNL d   1      -0.967  -2.512   1.569  0.00  0.00    -0.070 Cl
ATOM      8 Cl1  UNL d   1      -2.340   0.415   1.185  0.00  0.00    -0.070 Cl
ENDROOT
TORSDOF 0
ENDMDL
