MODEL 1
REMARK minimizedAffinity 4.98239994
REMARK minimizedRMSD -1
REMARK  0 active torsions:
REMARK  status: ('A' for Active; 'I' for Inactive)
ROOT
ATOM      1  C4' PXY d   1      -5.155  -0.694  -3.710  0.00  0.00     0.077 C 
ATOM      2  C1' PXY d   1      -5.025  -6.000  -6.000  0.00  0.00     0.077 C 
ATOM      3  C1  PXY d   1      -5.053  -4.613  -5.389  0.00  0.00    -0.082 A 
ATOM      4  C2  PXY d   1      -5.969  -3.743  -5.783  0.00  0.00     0.003 A 
ATOM      5  C3  PXY d   1      -5.988  -2.474  -5.264  0.00  0.00     0.003 A 
ATOM      6  C4  PXY d   1      -5.095  -2.108  -4.293  0.00  0.00    -0.082 A 
ATOM      7  C5  PXY d   1      -4.164  -2.994  -3.878  0.00  0.00     0.003 A 
ATOM      8  C6  PXY d   1      -4.135  -4.264  -4.447  0.00  0.00     0.003 A 
ENDROOT
TORSDOF 0
ENDMDL
