MODEL 1
REMARK minimizedAffinity 11.2263918
REMARK minimizedRMSD -1
REMARK  0 active torsions:
REMARK  status: ('A' for Active; 'I' for Inactive)
ROOT
ATOM      1  C4' PXY d   1      -5.998   4.865  -1.119  0.00  0.00     0.077 C 
ATOM      2  C1' PXY d   1      -2.602   0.651  -3.150  0.00  0.00     0.077 C 
ATOM      3  C1  PXY d   1      -3.495   1.760  -2.630  0.00  0.00    -0.082 A 
ATOM      4  C2  PXY d   1      -3.319   2.220  -1.402  0.00  0.00     0.003 A 
ATOM      5  C3  PXY d   1      -4.138   3.201  -0.904  0.00  0.00     0.003 A 
ATOM      6  C4  PXY d   1      -5.114   3.753  -1.690  0.00  0.00    -0.082 A 
ATOM      7  C5  PXY d   1      -5.293   3.296  -2.947  0.00  0.00     0.003 A 
ATOM      8  C6  PXY d   1      -4.478   2.272  -3.420  0.00  0.00     0.003 A 
ENDROOT
TORSDOF 0
ENDMDL
