MODEL 1
REMARK minimizedAffinity 7.97330904
REMARK minimizedRMSD -1
REMARK  0 active torsions:
REMARK  status: ('A' for Active; 'I' for Inactive)
ROOT
ATOM      1  C4' PXY d   1      -4.380  -1.248  -2.712  0.00  0.00     0.077 C 
ATOM      2  C1' PXY d   1      -4.539  -6.000  -6.000  0.00  0.00     0.077 C 
ATOM      3  C1  PXY d   1      -4.501  -4.746  -5.148  0.00  0.00    -0.082 A 
ATOM      4  C2  PXY d   1      -3.768  -4.726  -4.047  0.00  0.00     0.003 A 
ATOM      5  C3  PXY d   1      -3.747  -3.612  -3.248  0.00  0.00     0.003 A 
ATOM      6  C4  PXY d   1      -4.441  -2.488  -3.608  0.00  0.00    -0.082 A 
ATOM      7  C5  PXY d   1      -5.183  -2.497  -4.736  0.00  0.00     0.003 A 
ATOM      8  C6  PXY d   1      -5.224  -3.652  -5.511  0.00  0.00     0.003 A 
ENDROOT
TORSDOF 0
ENDMDL
