MODEL 1
REMARK minimizedAffinity 15.4818087
REMARK minimizedRMSD -1
REMARK  0 active torsions:
REMARK  status: ('A' for Active; 'I' for Inactive)
ROOT
ATOM      1  C4' PXY d   1       3.178   2.556   0.852  0.00  0.00     0.077 C 
ATOM      2  C1' PXY d   1       0.858  -2.515   2.376  0.00  0.00     0.077 C 
ATOM      3  C1  PXY d   1       1.478  -1.191   1.975  0.00  0.00    -0.082 A 
ATOM      4  C2  PXY d   1       0.927  -0.060   2.383  0.00  0.00     0.003 A 
ATOM      5  C3  PXY d   1       1.456   1.147   2.003  0.00  0.00     0.003 A 
ATOM      6  C4  PXY d   1       2.592   1.196   1.241  0.00  0.00    -0.082 A 
ATOM      7  C5  PXY d   1       3.167   0.046   0.829  0.00  0.00     0.003 A 
ATOM      8  C6  PXY d   1       2.590  -1.168   1.191  0.00  0.00     0.003 A 
ENDROOT
TORSDOF 0
ENDMDL
