MODEL 1
REMARK minimizedAffinity 10.1425781
REMARK minimizedRMSD -1
REMARK  0 active torsions:
REMARK  status: ('A' for Active; 'I' for Inactive)
ROOT
ATOM      1  C4' PXY d   1       5.898   5.997  -5.997  0.00  0.00     0.077 C 
ATOM      2  C1' PXY d   1       3.309   5.299  -0.876  0.00  0.00     0.077 C 
ATOM      3  C1  PXY d   1       3.997   5.490  -2.213  0.00  0.00    -0.082 A 
ATOM      4  C2  PXY d   1       3.308   5.329  -3.332  0.00  0.00     0.003 A 
ATOM      5  C3  PXY d   1       3.922   5.467  -4.550  0.00  0.00     0.003 A 
ATOM      6  C4  PXY d   1       5.242   5.823  -4.624  0.00  0.00    -0.082 A 
ATOM      7  C5  PXY d   1       5.949   5.999  -3.488  0.00  0.00     0.003 A 
ATOM      8  C6  PXY d   1       5.317   5.815  -2.261  0.00  0.00     0.003 A 
ENDROOT
TORSDOF 0
ENDMDL
