MODEL 1
REMARK minimizedAffinity 15.6604328
REMARK minimizedRMSD -1
REMARK  0 active torsions:
REMARK  status: ('A' for Active; 'I' for Inactive)
ROOT
ATOM      1  C4' PXY d   1      -4.187  -1.654  -3.486  0.00  0.00     0.077 C 
ATOM      2  C1' PXY d   1      -2.593   3.175  -0.736  0.00  0.00     0.077 C 
ATOM      3  C1  PXY d   1      -3.020   1.915  -1.464  0.00  0.00    -0.082 A 
ATOM      4  C2  PXY d   1      -2.763   0.732  -0.929  0.00  0.00     0.003 A 
ATOM      5  C3  PXY d   1      -3.114  -0.418  -1.589  0.00  0.00     0.003 A 
ATOM      6  C4  PXY d   1      -3.782  -0.356  -2.782  0.00  0.00    -0.082 A 
ATOM      7  C5  PXY d   1      -4.058   0.848  -3.329  0.00  0.00     0.003 A 
ATOM      8  C6  PXY d   1      -3.656   2.002  -2.663  0.00  0.00     0.003 A 
ENDROOT
TORSDOF 0
ENDMDL
