MODEL 1
REMARK minimizedAffinity 10.1865396
REMARK minimizedRMSD -1
REMARK  0 active torsions:
REMARK  status: ('A' for Active; 'I' for Inactive)
ROOT
ATOM      1  C4' PXY d   1      -4.015   2.616  -3.694  0.00  0.00     0.077 C 
ATOM      2  C1' PXY d   1      -1.470   1.152   1.285  0.00  0.00     0.077 C 
ATOM      3  C1  PXY d   1      -2.130   1.527  -0.027  0.00  0.00    -0.082 A 
ATOM      4  C2  PXY d   1      -2.706   2.711  -0.154  0.00  0.00     0.003 A 
ATOM      5  C3  PXY d   1      -3.336   3.055  -1.323  0.00  0.00     0.003 A 
ATOM      6  C4  PXY d   1      -3.329   2.198  -2.391  0.00  0.00    -0.082 A 
ATOM      7  C5  PXY d   1      -2.733   0.993  -2.273  0.00  0.00     0.003 A 
ATOM      8  C6  PXY d   1      -2.135   0.647  -1.065  0.00  0.00     0.003 A 
ENDROOT
TORSDOF 0
ENDMDL
