MODEL 1
REMARK minimizedAffinity 17.8980713
REMARK minimizedRMSD -1
REMARK  0 active torsions:
REMARK  status: ('A' for Active; 'I' for Inactive)
ROOT
ATOM      1  C4' PXY d   1      -1.552   0.587   0.009  0.00  0.00     0.077 C 
ATOM      2  C1' PXY d   1      -4.918   2.452  -4.304  0.00  0.00     0.077 C 
ATOM      3  C1  PXY d   1      -4.040   1.951  -3.175  0.00  0.00    -0.082 A 
ATOM      4  C2  PXY d   1      -3.693   2.776  -2.200  0.00  0.00     0.003 A 
ATOM      5  C3  PXY d   1      -2.872   2.348  -1.189  0.00  0.00     0.003 A 
ATOM      6  C4  PXY d   1      -2.446   1.047  -1.146  0.00  0.00    -0.082 A 
ATOM      7  C5  PXY d   1      -2.804   0.197  -2.131  0.00  0.00     0.003 A 
ATOM      8  C6  PXY d   1      -3.604   0.662  -3.171  0.00  0.00     0.003 A 
ENDROOT
TORSDOF 0
ENDMDL
