MODEL 1
REMARK minimizedAffinity 4.68656969
REMARK minimizedRMSD -1
REMARK  0 active torsions:
REMARK  status: ('A' for Active; 'I' for Inactive)
ROOT
ATOM      1  C   UNL d   1       0.369   0.718   1.860  0.00  0.00     0.023 A 
ATOM      2  C1  UNL d   1      -0.593  -0.222   2.231  0.00  0.00     0.003 A 
ATOM      3  C2  UNL d   1      -0.691  -1.433   1.542  0.00  0.00     0.048 A 
ATOM      4  C3  UNL d   1       0.178  -1.698   0.484  0.00  0.00     0.023 A 
ATOM      5  C4  UNL d   1       1.142  -0.761   0.109  0.00  0.00     0.048 A 
ATOM      6  C5  UNL d   1       1.236   0.448   0.800  0.00  0.00     0.003 A 
ATOM      7  I   UNL d   1       0.034  -3.499  -0.543  0.00  0.00    -0.146 I 
ENDROOT
TORSDOF 0
ENDMDL
