MODEL 1
REMARK minimizedAffinity -3.26848125
REMARK minimizedRMSD -1
REMARK  0 active torsions:
REMARK  status: ('A' for Active; 'I' for Inactive)
ROOT
ATOM      1  C   UNL d   1       0.499   0.677   1.090  0.00  0.00     0.023 A 
ATOM      2  C1  UNL d   1      -0.610   0.005   1.605  0.00  0.00     0.003 A 
ATOM      3  C2  UNL d   1      -1.061  -1.168   0.997  0.00  0.00     0.048 A 
ATOM      4  C3  UNL d   1      -0.398  -1.664  -0.126  0.00  0.00     0.023 A 
ATOM      5  C4  UNL d   1       0.712  -0.995  -0.644  0.00  0.00     0.048 A 
ATOM      6  C5  UNL d   1       1.159   0.178  -0.033  0.00  0.00     0.003 A 
ATOM      7  I   UNL d   1      -1.068  -3.410  -1.033  0.00  0.00    -0.146 I 
ENDROOT
TORSDOF 0
ENDMDL
