MODEL 1
REMARK minimizedAffinity -3.23039579
REMARK minimizedRMSD -1
REMARK  0 active torsions:
REMARK  status: ('A' for Active; 'I' for Inactive)
ROOT
ATOM      1  C   UNL d   1       0.017   0.999   0.595  0.00  0.00     0.023 A 
ATOM      2  C1  UNL d   1      -0.605   0.065   1.424  0.00  0.00     0.003 A 
ATOM      3  C2  UNL d   1      -0.859  -1.226   0.956  0.00  0.00     0.048 A 
ATOM      4  C3  UNL d   1      -0.489  -1.576  -0.342  0.00  0.00     0.023 A 
ATOM      5  C4  UNL d   1       0.134  -0.645  -1.175  0.00  0.00     0.048 A 
ATOM      6  C5  UNL d   1       0.386   0.645  -0.703  0.00  0.00     0.003 A 
ATOM      7  I   UNL d   1      -0.867  -3.496  -1.042  0.00  0.00    -0.146 I 
ENDROOT
TORSDOF 0
ENDMDL
