MODEL 1
REMARK minimizedAffinity -0.940480769
REMARK minimizedRMSD -1
REMARK  0 active torsions:
REMARK  status: ('A' for Active; 'I' for Inactive)
ROOT
ATOM      1  C   UNL d   1      -0.247  -4.742  -1.753  0.00  0.00     0.023 A 
ATOM      2  C1  UNL d   1       0.723  -4.358  -0.827  0.00  0.00     0.003 A 
ATOM      3  C2  UNL d   1       0.956  -3.003  -0.580  0.00  0.00     0.048 A 
ATOM      4  C3  UNL d   1       0.214  -2.038  -1.261  0.00  0.00     0.023 A 
ATOM      5  C4  UNL d   1      -0.758  -2.418  -2.188  0.00  0.00     0.048 A 
ATOM      6  C5  UNL d   1      -0.987  -3.774  -2.432  0.00  0.00     0.003 A 
ATOM      7  I   UNL d   1       0.559  -0.022  -0.894  0.00  0.00    -0.146 I 
ENDROOT
TORSDOF 0
ENDMDL
