MODEL 1
REMARK minimizedAffinity -0.911168277
REMARK minimizedRMSD -1
REMARK  0 active torsions:
REMARK  status: ('A' for Active; 'I' for Inactive)
ROOT
ATOM      1  C   UNL d   1      -0.981   3.610   0.235  0.00  0.00     0.023 A 
ATOM      2  C1  UNL d   1      -1.046   3.171  -1.088  0.00  0.00     0.003 A 
ATOM      3  C2  UNL d   1      -0.629   1.880  -1.417  0.00  0.00     0.048 A 
ATOM      4  C3  UNL d   1      -0.151   1.032  -0.419  0.00  0.00     0.023 A 
ATOM      5  C4  UNL d   1      -0.085   1.467   0.906  0.00  0.00     0.048 A 
ATOM      6  C5  UNL d   1      -0.501   2.759   1.230  0.00  0.00     0.003 A 
ATOM      7  I   UNL d   1       0.470  -0.891  -0.907  0.00  0.00    -0.146 I 
ENDROOT
TORSDOF 0
ENDMDL
