MODEL 1
REMARK minimizedAffinity -2.54676247
REMARK minimizedRMSD -1
REMARK  0 active torsions:
REMARK  status: ('A' for Active; 'I' for Inactive)
ROOT
ATOM      1  C   UNL d   1       0.042   0.692   0.610  0.00  0.00     0.023 A 
ATOM      2  C1  UNL d   1       0.281   0.392  -0.731  0.00  0.00     0.003 A 
ATOM      3  C2  UNL d   1      -0.023  -0.877  -1.229  0.00  0.00     0.048 A 
ATOM      4  C3  UNL d   1      -0.567  -1.841  -0.381  0.00  0.00     0.023 A 
ATOM      5  C4  UNL d   1      -0.808  -1.545   0.962  0.00  0.00     0.048 A 
ATOM      6  C5  UNL d   1      -0.502  -0.276   1.455  0.00  0.00     0.003 A 
ATOM      7  I   UNL d   1      -1.020  -3.730  -1.120  0.00  0.00    -0.146 I 
ENDROOT
TORSDOF 0
ENDMDL
