MODEL 1
REMARK minimizedAffinity -3.98927426
REMARK minimizedRMSD -1
REMARK  0 active torsions:
REMARK  status: ('A' for Active; 'I' for Inactive)
ROOT
ATOM      1  C   UNL d   1      -0.534   2.441   1.327  0.00  0.00     0.023 A 
ATOM      2  C1  UNL d   1      -0.081   1.285   1.963  0.00  0.00     0.003 A 
ATOM      3  C2  UNL d   1       0.160   0.127   1.220  0.00  0.00     0.048 A 
ATOM      4  C3  UNL d   1      -0.055   0.133  -0.158  0.00  0.00     0.023 A 
ATOM      5  C4  UNL d   1      -0.507   1.287  -0.798  0.00  0.00     0.048 A 
ATOM      6  C5  UNL d   1      -0.747   2.442  -0.051  0.00  0.00     0.003 A 
ATOM      7  I   UNL d   1       0.302  -1.590  -1.266  0.00  0.00    -0.146 I 
ENDROOT
TORSDOF 0
ENDMDL
