MODEL 1
REMARK minimizedAffinity -4.56157732
REMARK minimizedRMSD -1
REMARK  0 active torsions:
REMARK  status: ('A' for Active; 'I' for Inactive)
ROOT
ATOM      1  C   UNL d   1      -1.557   3.190   0.882  0.00  0.00     0.023 A 
ATOM      2  C1  UNL d   1      -1.394   2.109   1.748  0.00  0.00     0.003 A 
ATOM      3  C2  UNL d   1      -0.780   0.939   1.298  0.00  0.00     0.048 A 
ATOM      4  C3  UNL d   1      -0.330   0.856  -0.019  0.00  0.00     0.023 A 
ATOM      5  C4  UNL d   1      -0.490   1.936  -0.889  0.00  0.00     0.048 A 
ATOM      6  C5  UNL d   1      -1.105   3.104  -0.435  0.00  0.00     0.003 A 
ATOM      7  I   UNL d   1       0.584  -0.885  -0.692  0.00  0.00    -0.146 I 
ENDROOT
TORSDOF 0
ENDMDL
