MODEL 1
REMARK minimizedAffinity -5.76204824
REMARK minimizedRMSD -1
REMARK  0 active torsions:
REMARK  status: ('A' for Active; 'I' for Inactive)
ROOT
ATOM      1  N1  IND d   1       0.317  -1.238   0.662  0.00  0.00    -0.196 N 
ATOM      2  C2  IND d   1      -0.024   0.058   0.931  0.00  0.00     0.054 A 
ATOM      3  C3  IND d   1       0.379   0.868  -0.073  0.00  0.00    -0.031 A 
ATOM      4  C4  IND d   1       1.523   0.269  -2.300  0.00  0.00     0.051 A 
ATOM      5  C5  IND d   1       2.068  -0.783  -2.982  0.00  0.00    -0.031 A 
ATOM      6  C6  IND d   1       2.054  -2.066  -2.476  0.00  0.00     0.015 A 
ATOM      7  C7  IND d   1       1.482  -2.349  -1.268  0.00  0.00    -0.016 A 
ATOM      8  C8  IND d   1       0.934  -1.283  -0.569  0.00  0.00    -0.047 A 
ATOM      9  C9  IND d   1       0.983   0.029  -1.058  0.00  0.00    -0.096 A 
ATOM     10  HN1 IND d   1       0.170  -1.913   1.175  0.00  0.00     0.298 HD
ENDROOT
TORSDOF 0
ENDMDL
