MODEL 1
REMARK minimizedAffinity -1.77948189
REMARK minimizedRMSD -1
REMARK  0 active torsions:
REMARK  status: ('A' for Active; 'I' for Inactive)
ROOT
ATOM      1  N1  IND d   1       2.838  -1.599  -1.653  0.00  0.00    -0.196 N 
ATOM      2  C2  IND d   1       3.395  -0.515  -2.272  0.00  0.00     0.054 A 
ATOM      3  C3  IND d   1       2.739   0.615  -1.923  0.00  0.00    -0.031 A 
ATOM      4  C4  IND d   1       0.789   0.929  -0.272  0.00  0.00     0.051 A 
ATOM      5  C5  IND d   1      -0.083   0.226   0.511  0.00  0.00    -0.031 A 
ATOM      6  C6  IND d   1      -0.023  -1.149   0.617  0.00  0.00     0.015 A 
ATOM      7  C7  IND d   1       0.923  -1.874  -0.050  0.00  0.00    -0.016 A 
ATOM      8  C8  IND d   1       1.806  -1.164  -0.852  0.00  0.00    -0.047 A 
ATOM      9  C9  IND d   1       1.723   0.227  -0.997  0.00  0.00    -0.096 A 
ATOM     10  HN1 IND d   1       3.091  -2.415  -1.749  0.00  0.00     0.298 HD
ENDROOT
TORSDOF 0
ENDMDL
