MODEL 1
REMARK minimizedAffinity -1.98757863
REMARK minimizedRMSD -1
REMARK  0 active torsions:
REMARK  status: ('A' for Active; 'I' for Inactive)
ROOT
ATOM      1  N1  IND d   1      -0.743  -0.181   0.497  0.00  0.00    -0.196 N 
ATOM      2  C2  IND d   1      -0.353   0.793   1.373  0.00  0.00     0.054 A 
ATOM      3  C3  IND d   1       0.804   1.360   0.962  0.00  0.00    -0.031 A 
ATOM      4  C4  IND d   1       2.177   0.913  -1.169  0.00  0.00     0.051 A 
ATOM      5  C5  IND d   1       2.240   0.088  -2.257  0.00  0.00    -0.031 A 
ATOM      6  C6  IND d   1       1.291  -0.887  -2.488  0.00  0.00     0.015 A 
ATOM      7  C7  IND d   1       0.233  -1.066  -1.643  0.00  0.00    -0.016 A 
ATOM      8  C8  IND d   1       0.170  -0.235  -0.534  0.00  0.00    -0.047 A 
ATOM      9  C9  IND d   1       1.153   0.728  -0.271  0.00  0.00    -0.096 A 
ATOM     10  HN1 IND d   1      -1.440  -0.677   0.576  0.00  0.00     0.298 HD
ENDROOT
TORSDOF 0
ENDMDL
