MODEL 1
REMARK minimizedAffinity -4.7483201
REMARK minimizedRMSD -1
REMARK  0 active torsions:
REMARK  status: ('A' for Active; 'I' for Inactive)
ROOT
ATOM      1  N1  IND d   1      -0.037  -0.970   0.408  0.00  0.00    -0.196 N 
ATOM      2  C2  IND d   1      -0.079   0.388   0.555  0.00  0.00     0.054 A 
ATOM      3  C3  IND d   1       0.627   0.990  -0.429  0.00  0.00    -0.031 A 
ATOM      4  C4  IND d   1       1.844  -0.056  -2.442  0.00  0.00     0.051 A 
ATOM      5  C5  IND d   1       2.191  -1.262  -2.983  0.00  0.00    -0.031 A 
ATOM      6  C6  IND d   1       1.802  -2.457  -2.412  0.00  0.00     0.015 A 
ATOM      7  C7  IND d   1       1.040  -2.489  -1.279  0.00  0.00    -0.016 A 
ATOM      8  C8  IND d   1       0.692  -1.267  -0.722  0.00  0.00    -0.047 A 
ATOM      9  C9  IND d   1       1.119  -0.052  -1.274  0.00  0.00    -0.096 A 
ATOM     10  HN1 IND d   1      -0.405  -1.543   0.934  0.00  0.00     0.298 HD
ENDROOT
TORSDOF 0
ENDMDL
