MODEL 1
REMARK minimizedAffinity -5.50963974
REMARK minimizedRMSD -1
REMARK  0 active torsions:
REMARK  status: ('A' for Active; 'I' for Inactive)
ROOT
ATOM      1  N1  IND d   1      -0.021  -0.982   0.188  0.00  0.00    -0.196 N 
ATOM      2  C2  IND d   1      -0.045   0.328   0.579  0.00  0.00     0.054 A 
ATOM      3  C3  IND d   1       0.728   1.077  -0.240  0.00  0.00    -0.031 A 
ATOM      4  C4  IND d   1       2.038   0.379  -2.343  0.00  0.00     0.051 A 
ATOM      5  C5  IND d   1       2.393  -0.718  -3.077  0.00  0.00    -0.031 A 
ATOM      6  C6  IND d   1       1.949  -1.984  -2.755  0.00  0.00     0.015 A 
ATOM      7  C7  IND d   1       1.122  -2.200  -1.689  0.00  0.00    -0.016 A 
ATOM      8  C8  IND d   1       0.766  -1.089  -0.937  0.00  0.00    -0.047 A 
ATOM      9  C9  IND d   1       1.247   0.192  -1.234  0.00  0.00    -0.096 A 
ATOM     10  HN1 IND d   1      -0.429  -1.630   0.579  0.00  0.00     0.298 HD
ENDROOT
TORSDOF 0
ENDMDL
