MODEL 1
REMARK minimizedAffinity -3.12655735
REMARK minimizedRMSD -1
REMARK  0 active torsions:
REMARK  status: ('A' for Active; 'I' for Inactive)
ROOT
ATOM      1  N1  IND d   1       1.360   0.784   1.106  0.00  0.00    -0.196 N 
ATOM      2  C2  IND d   1       0.467   0.018   1.801  0.00  0.00     0.054 A 
ATOM      3  C3  IND d   1      -0.174  -0.831   0.966  0.00  0.00    -0.031 A 
ATOM      4  C4  IND d   1       0.159  -1.204  -1.560  0.00  0.00     0.051 A 
ATOM      5  C5  IND d   1       0.837  -0.714  -2.641  0.00  0.00    -0.031 A 
ATOM      6  C6  IND d   1       1.745   0.319  -2.525  0.00  0.00     0.015 A 
ATOM      7  C7  IND d   1       2.017   0.896  -1.317  0.00  0.00    -0.016 A 
ATOM      8  C8  IND d   1       1.325   0.406  -0.219  0.00  0.00    -0.047 A 
ATOM      9  C9  IND d   1       0.372  -0.614  -0.336  0.00  0.00    -0.096 A 
ATOM     10  HN1 IND d   1       1.860   1.399   1.440  0.00  0.00     0.298 HD
ENDROOT
TORSDOF 0
ENDMDL
