MODEL 1
REMARK minimizedAffinity -3.17779756
REMARK minimizedRMSD -1
REMARK  0 active torsions:
REMARK  status: ('A' for Active; 'I' for Inactive)
ROOT
ATOM      1  N1  IND d   1       0.828  -0.532  -2.460  0.00  0.00    -0.196 N 
ATOM      2  C2  IND d   1       1.867   0.323  -2.702  0.00  0.00     0.054 A 
ATOM      3  C3  IND d   1       2.128   1.069  -1.606  0.00  0.00    -0.031 A 
ATOM      4  C4  IND d   1       1.043   0.984   0.727  0.00  0.00     0.051 A 
ATOM      5  C5  IND d   1       0.027   0.390   1.421  0.00  0.00    -0.031 A 
ATOM      6  C6  IND d   1      -0.789  -0.563   0.846  0.00  0.00     0.015 A 
ATOM      7  C7  IND d   1      -0.611  -0.968  -0.446  0.00  0.00    -0.016 A 
ATOM      8  C8  IND d   1       0.416  -0.361  -1.156  0.00  0.00    -0.047 A 
ATOM      9  C9  IND d   1       1.220   0.637  -0.592  0.00  0.00    -0.096 A 
ATOM     10  HN1 IND d   1       0.489  -1.083  -3.026  0.00  0.00     0.298 HD
ENDROOT
TORSDOF 0
ENDMDL
