MODEL 1
REMARK minimizedAffinity -2.36893582
REMARK minimizedRMSD -1
REMARK  0 active torsions:
REMARK  status: ('A' for Active; 'I' for Inactive)
ROOT
ATOM      1  N1  IND d   1       0.411   0.822   0.449  0.00  0.00    -0.196 N 
ATOM      2  C2  IND d   1      -0.436  -0.044   1.083  0.00  0.00     0.054 A 
ATOM      3  C3  IND d   1      -0.731  -1.088   0.276  0.00  0.00    -0.031 A 
ATOM      4  C4  IND d   1       0.145  -1.630  -2.083  0.00  0.00     0.051 A 
ATOM      5  C5  IND d   1       0.912  -1.118  -3.092  0.00  0.00    -0.031 A 
ATOM      6  C6  IND d   1       1.566   0.090  -2.968  0.00  0.00     0.015 A 
ATOM      7  C7  IND d   1       1.487   0.829  -1.822  0.00  0.00    -0.016 A 
ATOM      8  C8  IND d   1       0.704   0.316  -0.798  0.00  0.00    -0.047 A 
ATOM      9  C9  IND d   1       0.003  -0.890  -0.934  0.00  0.00    -0.096 A 
ATOM     10  HN1 IND d   1       0.711   1.559   0.775  0.00  0.00     0.298 HD
ENDROOT
TORSDOF 0
ENDMDL
