MODEL 1
REMARK minimizedAffinity -4.50275421
REMARK minimizedRMSD -1
REMARK  0 active torsions:
REMARK  status: ('A' for Active; 'I' for Inactive)
ROOT
ATOM      1  N1  IND d   1      -0.581   0.100   0.022  0.00  0.00    -0.196 N 
ATOM      2  C2  IND d   1      -0.375   1.451   0.008  0.00  0.00     0.054 A 
ATOM      3  C3  IND d   1       0.619   1.766  -0.852  0.00  0.00    -0.031 A 
ATOM      4  C4  IND d   1       1.975   0.236  -2.416  0.00  0.00     0.051 A 
ATOM      5  C5  IND d   1       2.172  -1.079  -2.732  0.00  0.00    -0.031 A 
ATOM      6  C6  IND d   1       1.444  -2.089  -2.136  0.00  0.00     0.015 A 
ATOM      7  C7  IND d   1       0.480  -1.818  -1.206  0.00  0.00    -0.016 A 
ATOM      8  C8  IND d   1       0.283  -0.485  -0.878  0.00  0.00    -0.047 A 
ATOM      9  C9  IND d   1       1.048   0.541  -1.448  0.00  0.00    -0.096 A 
ATOM     10  HN1 IND d   1      -1.154  -0.315   0.510  0.00  0.00     0.298 HD
ENDROOT
TORSDOF 0
ENDMDL
