MODEL 1
REMARK minimizedAffinity -6.33751202
REMARK minimizedRMSD -1
REMARK  0 active torsions:
REMARK  status: ('A' for Active; 'I' for Inactive)
ROOT
ATOM      1  N1  IND d   1      -0.148  -0.877   0.616  0.00  0.00    -0.196 N 
ATOM      2  C2  IND d   1      -0.073   0.364   1.185  0.00  0.00     0.054 A 
ATOM      3  C3  IND d   1       0.693   1.183   0.430  0.00  0.00    -0.031 A 
ATOM      4  C4  IND d   1       1.841   0.726  -1.829  0.00  0.00     0.051 A 
ATOM      5  C5  IND d   1       2.089  -0.272  -2.729  0.00  0.00    -0.031 A 
ATOM      6  C6  IND d   1       1.592  -1.548  -2.558  0.00  0.00     0.015 A 
ATOM      7  C7  IND d   1       0.816  -1.871  -1.481  0.00  0.00    -0.016 A 
ATOM      8  C8  IND d   1       0.567  -0.862  -0.562  0.00  0.00    -0.047 A 
ATOM      9  C9  IND d   1       1.104   0.423  -0.708  0.00  0.00    -0.096 A 
ATOM     10  HN1 IND d   1      -0.570  -1.553   0.939  0.00  0.00     0.298 HD
ENDROOT
TORSDOF 0
ENDMDL
