MODEL 1
REMARK minimizedAffinity -1.9074949
REMARK minimizedRMSD -1
REMARK  0 active torsions:
REMARK  status: ('A' for Active; 'I' for Inactive)
ROOT
ATOM      1  N1  IND d   1      -1.137  -1.015   0.556  0.00  0.00    -0.196 N 
ATOM      2  C2  IND d   1      -1.270  -0.018   1.482  0.00  0.00     0.054 A 
ATOM      3  C3  IND d   1      -0.422   0.998   1.203  0.00  0.00    -0.031 A 
ATOM      4  C4  IND d   1       1.198   1.280  -0.777  0.00  0.00     0.051 A 
ATOM      5  C5  IND d   1       1.697   0.617  -1.864  0.00  0.00    -0.031 A 
ATOM      6  C6  IND d   1       1.266  -0.648  -2.207  0.00  0.00     0.015 A 
ATOM      7  C7  IND d   1       0.307  -1.295  -1.481  0.00  0.00    -0.016 A 
ATOM      8  C8  IND d   1      -0.196  -0.629  -0.373  0.00  0.00    -0.047 A 
ATOM      9  C9  IND d   1       0.268   0.638   0.006  0.00  0.00    -0.096 A 
ATOM     10  HN1 IND d   1      -1.569  -1.758   0.555  0.00  0.00     0.298 HD
ENDROOT
TORSDOF 0
ENDMDL
