MODEL 1
REMARK minimizedAffinity -3.15415001
REMARK minimizedRMSD -1
REMARK  0 active torsions:
REMARK  status: ('A' for Active; 'I' for Inactive)
ROOT
ATOM      1  N1  IND d   1      -0.723  -0.267   1.629  0.00  0.00    -0.196 N 
ATOM      2  C2  IND d   1      -0.525   1.084   1.571  0.00  0.00     0.054 A 
ATOM      3  C3  IND d   1       0.130   1.415   0.435  0.00  0.00    -0.031 A 
ATOM      4  C4  IND d   1       0.883  -0.087  -1.515  0.00  0.00     0.051 A 
ATOM      5  C5  IND d   1       0.956  -1.396  -1.901  0.00  0.00    -0.031 A 
ATOM      6  C6  IND d   1       0.460  -2.416  -1.115  0.00  0.00     0.015 A 
ATOM      7  C7  IND d   1      -0.140  -2.163   0.087  0.00  0.00    -0.016 A 
ATOM      8  C8  IND d   1      -0.209  -0.835   0.484  0.00  0.00    -0.047 A 
ATOM      9  C9  IND d   1       0.330   0.200  -0.289  0.00  0.00    -0.096 A 
ATOM     10  HN1 IND d   1      -1.104  -0.691   2.273  0.00  0.00     0.298 HD
ENDROOT
TORSDOF 0
ENDMDL
