MODEL 1
REMARK minimizedAffinity -4.53165007
REMARK minimizedRMSD -1
REMARK  0 active torsions:
REMARK  status: ('A' for Active; 'I' for Inactive)
ROOT
ATOM      1  N1  IND d   1       2.256   0.999  -1.186  0.00  0.00    -0.196 N 
ATOM      2  C2  IND d   1       2.039   0.350  -2.370  0.00  0.00     0.054 A 
ATOM      3  C3  IND d   1       0.912  -0.393  -2.298  0.00  0.00    -0.031 A 
ATOM      4  C4  IND d   1      -0.784  -0.612  -0.373  0.00  0.00     0.051 A 
ATOM      5  C5  IND d   1      -0.995  -0.237   0.924  0.00  0.00    -0.031 A 
ATOM      6  C6  IND d   1      -0.117   0.588   1.597  0.00  0.00     0.015 A 
ATOM      7  C7  IND d   1       1.004   1.080   0.991  0.00  0.00    -0.016 A 
ATOM      8  C8  IND d   1       1.226   0.696  -0.324  0.00  0.00    -0.047 A 
ATOM      9  C9  IND d   1       0.360  -0.175  -0.998  0.00  0.00    -0.096 A 
ATOM     10  HN1 IND d   1       2.924   1.511  -1.010  0.00  0.00     0.298 HD
ENDROOT
TORSDOF 0
ENDMDL
