MODEL 1
REMARK minimizedAffinity -1.85337555
REMARK minimizedRMSD -1
REMARK  0 active torsions:
REMARK  status: ('A' for Active; 'I' for Inactive)
ROOT
ATOM      1  N1  IND d   1       2.779   0.797  -1.438  0.00  0.00    -0.196 N 
ATOM      2  C2  IND d   1       2.720   0.102  -2.614  0.00  0.00     0.054 A 
ATOM      3  C3  IND d   1       1.583  -0.627  -2.673  0.00  0.00    -0.031 A 
ATOM      4  C4  IND d   1      -0.370  -0.751  -1.000  0.00  0.00     0.051 A 
ATOM      5  C5  IND d   1      -0.756  -0.321   0.239  0.00  0.00    -0.031 A 
ATOM      6  C6  IND d   1       0.031   0.523   0.996  0.00  0.00     0.015 A 
ATOM      7  C7  IND d   1       1.234   0.979   0.535  0.00  0.00    -0.016 A 
ATOM      8  C8  IND d   1       1.632   0.539  -0.719  0.00  0.00    -0.047 A 
ATOM      9  C9  IND d   1       0.857  -0.351  -1.474  0.00  0.00    -0.096 A 
ATOM     10  HN1 IND d   1       3.423   1.309  -1.190  0.00  0.00     0.298 HD
ENDROOT
TORSDOF 0
ENDMDL
