MODEL 1
REMARK minimizedAffinity -4.00742054
REMARK minimizedRMSD -1
REMARK  0 active torsions:
REMARK  status: ('A' for Active; 'I' for Inactive)
ROOT
ATOM      1  N1  IND d   1      -0.531  -0.807   0.660  0.00  0.00    -0.196 N 
ATOM      2  C2  IND d   1      -0.357   0.368   1.336  0.00  0.00     0.054 A 
ATOM      3  C3  IND d   1       0.531   1.156   0.689  0.00  0.00    -0.031 A 
ATOM      4  C4  IND d   1       1.742   0.759  -1.548  0.00  0.00     0.051 A 
ATOM      5  C5  IND d   1       1.931  -0.184  -2.518  0.00  0.00    -0.031 A 
ATOM      6  C6  IND d   1       1.294  -1.408  -2.479  0.00  0.00     0.015 A 
ATOM      7  C7  IND d   1       0.431  -1.730  -1.470  0.00  0.00    -0.016 A 
ATOM      8  C8  IND d   1       0.242  -0.777  -0.479  0.00  0.00    -0.047 A 
ATOM      9  C9  IND d   1       0.919   0.450  -0.491  0.00  0.00    -0.096 A 
ATOM     10  HN1 IND d   1      -1.039  -1.457   0.905  0.00  0.00     0.298 HD
ENDROOT
TORSDOF 0
ENDMDL
