MODEL 1
REMARK minimizedAffinity -4.75852442
REMARK minimizedRMSD -1
REMARK  0 active torsions:
REMARK  status: ('A' for Active; 'I' for Inactive)
ROOT
ATOM      1  N1  IND d   1      -0.917  -1.185  -0.153  0.00  0.00    -0.196 N 
ATOM      2  C2  IND d   1      -1.205  -0.738   1.107  0.00  0.00     0.054 A 
ATOM      3  C3  IND d   1      -0.468   0.357   1.397  0.00  0.00    -0.031 A 
ATOM      4  C4  IND d   1       1.199   1.647  -0.081  0.00  0.00     0.051 A 
ATOM      5  C5  IND d   1       1.820   1.600  -1.298  0.00  0.00    -0.031 A 
ATOM      6  C6  IND d   1       1.553   0.603  -2.215  0.00  0.00     0.015 A 
ATOM      7  C7  IND d   1       0.643  -0.381  -1.952  0.00  0.00    -0.016 A 
ATOM      8  C8  IND d   1       0.015  -0.340  -0.715  0.00  0.00    -0.047 A 
ATOM      9  C9  IND d   1       0.313   0.644   0.236  0.00  0.00    -0.096 A 
ATOM     10  HN1 IND d   1      -1.259  -1.877  -0.530  0.00  0.00     0.298 HD
ENDROOT
TORSDOF 0
ENDMDL
