MODEL 1
REMARK minimizedAffinity -3.7901063
REMARK minimizedRMSD -1
REMARK  0 active torsions:
REMARK  status: ('A' for Active; 'I' for Inactive)
ROOT
ATOM      1  N1  IND d   1       0.942   0.535   0.873  0.00  0.00    -0.196 N 
ATOM      2  C2  IND d   1      -0.086  -0.279   1.262  0.00  0.00     0.054 A 
ATOM      3  C3  IND d   1      -0.666  -0.851   0.184  0.00  0.00    -0.031 A 
ATOM      4  C4  IND d   1      -0.027  -0.676  -2.304  0.00  0.00     0.051 A 
ATOM      5  C5  IND d   1       0.820  -0.023  -3.155  0.00  0.00    -0.031 A 
ATOM      6  C6  IND d   1       1.772   0.865  -2.697  0.00  0.00     0.015 A 
ATOM      7  C7  IND d   1       1.921   1.125  -1.364  0.00  0.00    -0.016 A 
ATOM      8  C8  IND d   1       1.057   0.470  -0.498  0.00  0.00    -0.047 A 
ATOM      9  C9  IND d   1       0.061  -0.400  -0.960  0.00  0.00    -0.096 A 
ATOM     10  HN1 IND d   1       1.433   1.007   1.397  0.00  0.00     0.298 HD
ENDROOT
TORSDOF 0
ENDMDL
