MODEL 1
REMARK minimizedAffinity 7.87654161
REMARK minimizedRMSD -1
REMARK  0 active torsions:
REMARK  status: ('A' for Active; 'I' for Inactive)
ROOT
ATOM      1  C1  DEN d   1       1.048   2.907   0.147  0.00  0.00     0.130 A 
ATOM      2  C2  DEN d   1       2.408   2.443   0.410  0.00  0.00    -0.031 A 
ATOM      3  C3  DEN d   1       2.404   1.725   1.700  0.00  0.00     0.027 A 
ATOM      4  C4  DEN d   1       0.434   1.284   3.306  0.00  0.00     0.027 A 
ATOM      5  C5  DEN d   1      -0.910   1.494   3.517  0.00  0.00    -0.003 A 
ATOM      6  C6  DEN d   1      -1.683   2.213   2.643  0.00  0.00     0.001 A 
ATOM      7  C7  DEN d   1      -1.126   2.709   1.495  0.00  0.00     0.017 A 
ATOM      8  C8  DEN d   1       0.231   2.509   1.279  0.00  0.00    -0.094 A 
ATOM      9  C9  DEN d   1       0.992   1.769   2.168  0.00  0.00    -0.072 A 
ENDROOT
TORSDOF 0
ENDMDL
