MODEL 1
REMARK minimizedAffinity 13.9219341
REMARK minimizedRMSD -1
REMARK  0 active torsions:
REMARK  status: ('A' for Active; 'I' for Inactive)
ROOT
ATOM      1  C1  DEN d   1      -6.000   2.837  -2.941  0.00  0.00     0.130 A 
ATOM      2  C2  DEN d   1      -5.381   2.635  -4.248  0.00  0.00    -0.031 A 
ATOM      3  C3  DEN d   1      -4.389   1.548  -4.120  0.00  0.00     0.027 A 
ATOM      4  C4  DEN d   1      -3.759   0.163  -2.038  0.00  0.00     0.027 A 
ATOM      5  C5  DEN d   1      -4.007  -0.022  -0.696  0.00  0.00    -0.003 A 
ATOM      6  C6  DEN d   1      -4.904   0.749  -0.006  0.00  0.00     0.001 A 
ATOM      7  C7  DEN d   1      -5.620   1.712  -0.666  0.00  0.00     0.017 A 
ATOM      8  C8  DEN d   1      -5.371   1.910  -2.018  0.00  0.00    -0.094 A 
ATOM      9  C9  DEN d   1      -4.469   1.111  -2.700  0.00  0.00    -0.072 A 
ENDROOT
TORSDOF 0
ENDMDL
