MODEL 1
REMARK minimizedAffinity 4.89780283
REMARK minimizedRMSD -1
REMARK  0 active torsions:
REMARK  status: ('A' for Active; 'I' for Inactive)
ROOT
ATOM      1  C1  DEN d   1      -1.034  -2.711  -1.270  0.00  0.00     0.130 A 
ATOM      2  C2  DEN d   1      -0.962  -4.164  -1.141  0.00  0.00    -0.031 A 
ATOM      3  C3  DEN d   1       0.359  -4.507  -0.576  0.00  0.00     0.027 A 
ATOM      4  C4  DEN d   1       2.286  -2.937   0.114  0.00  0.00     0.027 A 
ATOM      5  C5  DEN d   1       2.695  -1.624   0.180  0.00  0.00    -0.003 A 
ATOM      6  C6  DEN d   1       1.909  -0.592  -0.260  0.00  0.00     0.001 A 
ATOM      7  C7  DEN d   1       0.655  -0.852  -0.745  0.00  0.00     0.017 A 
ATOM      8  C8  DEN d   1       0.239  -2.175  -0.822  0.00  0.00    -0.094 A 
ATOM      9  C9  DEN d   1       1.043  -3.203  -0.361  0.00  0.00    -0.072 A 
ENDROOT
TORSDOF 0
ENDMDL
