MODEL 1
REMARK minimizedAffinity 6.51840925
REMARK minimizedRMSD -1
REMARK  0 active torsions:
REMARK  status: ('A' for Active; 'I' for Inactive)
ROOT
ATOM      1  C1  DEN d   1       5.384  -1.797   2.451  0.00  0.00     0.130 A 
ATOM      2  C2  DEN d   1       5.999  -0.475   2.361  0.00  0.00    -0.031 A 
ATOM      3  C3  DEN d   1       5.178   0.350   1.452  0.00  0.00     0.027 A 
ATOM      4  C4  DEN d   1       3.023  -0.287   0.186  0.00  0.00     0.027 A 
ATOM      5  C5  DEN d   1       2.124  -1.301  -0.062  0.00  0.00    -0.003 A 
ATOM      6  C6  DEN d   1       2.267  -2.551   0.479  0.00  0.00     0.001 A 
ATOM      7  C7  DEN d   1       3.308  -2.807   1.332  0.00  0.00     0.017 A 
ATOM      8  C8  DEN d   1       4.222  -1.791   1.581  0.00  0.00    -0.094 A 
ATOM      9  C9  DEN d   1       4.054  -0.531   1.034  0.00  0.00    -0.072 A 
ENDROOT
TORSDOF 0
ENDMDL
