MODEL 1
REMARK minimizedAffinity 7.886765
REMARK minimizedRMSD -1
REMARK  0 active torsions:
REMARK  status: ('A' for Active; 'I' for Inactive)
ROOT
ATOM      1  C1  DEN d   1       1.764   0.748   3.165  0.00  0.00     0.130 A 
ATOM      2  C2  DEN d   1       1.400   0.369   4.528  0.00  0.00    -0.031 A 
ATOM      3  C3  DEN d   1       0.005   0.793   4.763  0.00  0.00     0.027 A 
ATOM      4  C4  DEN d   1      -1.619   1.989   3.155  0.00  0.00     0.027 A 
ATOM      5  C5  DEN d   1      -1.758   2.527   1.895  0.00  0.00    -0.003 A 
ATOM      6  C6  DEN d   1      -0.731   2.540   0.989  0.00  0.00     0.001 A 
ATOM      7  C7  DEN d   1       0.468   1.963   1.314  0.00  0.00     0.017 A 
ATOM      8  C8  DEN d   1       0.618   1.426   2.586  0.00  0.00    -0.094 A 
ATOM      9  C9  DEN d   1      -0.436   1.412   3.483  0.00  0.00    -0.072 A 
ENDROOT
TORSDOF 0
ENDMDL
