MODEL 1
REMARK minimizedAffinity -1.75776529
REMARK minimizedRMSD -1
REMARK  0 active torsions:
REMARK  status: ('A' for Active; 'I' for Inactive)
ROOT
ATOM      1  C1  DEN d   1       2.426  -0.099   0.789  0.00  0.00     0.130 A 
ATOM      2  C2  DEN d   1       2.966  -1.450   0.913  0.00  0.00    -0.031 A 
ATOM      3  C3  DEN d   1       2.081  -2.366   0.166  0.00  0.00     0.027 A 
ATOM      4  C4  DEN d   1      -0.060  -1.825  -1.167  0.00  0.00     0.027 A 
ATOM      5  C5  DEN d   1      -0.920  -0.820  -1.550  0.00  0.00    -0.003 A 
ATOM      6  C6  DEN d   1      -0.746   0.480  -1.155  0.00  0.00     0.001 A 
ATOM      7  C7  DEN d   1       0.339   0.817  -0.390  0.00  0.00     0.017 A 
ATOM      8  C8  DEN d   1       1.207  -0.192   0.006  0.00  0.00    -0.094 A 
ATOM      9  C9  DEN d   1       1.020  -1.498  -0.413  0.00  0.00    -0.072 A 
ENDROOT
TORSDOF 0
ENDMDL
