MODEL 1
REMARK minimizedAffinity -2.23627782
REMARK minimizedRMSD -1
REMARK  0 active torsions:
REMARK  status: ('A' for Active; 'I' for Inactive)
ROOT
ATOM      1  C1  DEN d   1      -0.393  -0.089  -0.555  0.00  0.00     0.130 A 
ATOM      2  C2  DEN d   1       0.790   0.536   0.032  0.00  0.00    -0.031 A 
ATOM      3  C3  DEN d   1       0.346   1.399   1.145  0.00  0.00     0.027 A 
ATOM      4  C4  DEN d   1      -2.044   1.823   2.015  0.00  0.00     0.027 A 
ATOM      5  C5  DEN d   1      -3.376   1.525   1.830  0.00  0.00    -0.003 A 
ATOM      6  C6  DEN d   1      -3.807   0.701   0.823  0.00  0.00     0.001 A 
ATOM      7  C7  DEN d   1      -2.892   0.111  -0.009  0.00  0.00     0.017 A 
ATOM      8  C8  DEN d   1      -1.548   0.413   0.168  0.00  0.00    -0.094 A 
ATOM      9  C9  DEN d   1      -1.132   1.238   1.199  0.00  0.00    -0.072 A 
ENDROOT
TORSDOF 0
ENDMDL
