MODEL 1
REMARK minimizedAffinity 6.75841761
REMARK minimizedRMSD -1
REMARK  0 active torsions:
REMARK  status: ('A' for Active; 'I' for Inactive)
ROOT
ATOM      1  C1  DEN d   1       0.007   3.996   1.250  0.00  0.00     0.130 A 
ATOM      2  C2  DEN d   1      -0.300   4.249   2.655  0.00  0.00    -0.031 A 
ATOM      3  C3  DEN d   1       0.070   3.046   3.428  0.00  0.00     0.027 A 
ATOM      4  C4  DEN d   1       1.090   0.830   2.590  0.00  0.00     0.027 A 
ATOM      5  C5  DEN d   1       1.518   0.142   1.476  0.00  0.00    -0.003 A 
ATOM      6  C6  DEN d   1       1.442   0.672   0.216  0.00  0.00     0.001 A 
ATOM      7  C7  DEN d   1       0.967   1.946   0.043  0.00  0.00     0.017 A 
ATOM      8  C8  DEN d   1       0.527   2.643   1.160  0.00  0.00    -0.094 A 
ATOM      9  C9  DEN d   1       0.623   2.094   2.427  0.00  0.00    -0.072 A 
ENDROOT
TORSDOF 0
ENDMDL
