MODEL 1
REMARK minimizedAffinity -4.88026857
REMARK minimizedRMSD -1
REMARK  0 active torsions:
REMARK  status: ('A' for Active; 'I' for Inactive)
ROOT
ATOM      1  O1  BZF d   1      -1.650  -1.067  -3.097  0.00  0.00    -0.204 OA
ATOM      2  C2  BZF d   1      -2.401  -0.199  -3.865  0.00  0.00     0.174 A 
ATOM      3  C3  BZF d   1      -2.516   1.000  -3.258  0.00  0.00    -0.012 A 
ATOM      4  C3A BZF d   1      -1.714   0.902  -2.076  0.00  0.00    -0.107 A 
ATOM      5  C4  BZF d   1      -1.416   1.774  -1.069  0.00  0.00     0.055 A 
ATOM      6  C5  BZF d   1      -0.662   1.343  -0.024  0.00  0.00    -0.016 A 
ATOM      7  C6  BZF d   1      -0.196   0.047   0.049  0.00  0.00     0.022 A 
ATOM      8  C7  BZF d   1      -0.461  -0.853  -0.928  0.00  0.00     0.029 A 
ATOM      9  C7A BZF d   1      -1.195  -0.412  -2.002  0.00  0.00     0.058 A 
ENDROOT
TORSDOF 0
ENDMDL
