MODEL 1
REMARK minimizedAffinity -4.74490976
REMARK minimizedRMSD -1
REMARK  0 active torsions:
REMARK  status: ('A' for Active; 'I' for Inactive)
ROOT
ATOM      1  O1  BZF d   1      -0.357  -2.540   1.223  0.00  0.00    -0.204 OA
ATOM      2  C2  BZF d   1       0.405  -3.032   0.181  0.00  0.00     0.174 A 
ATOM      3  C3  BZF d   1       0.585  -2.089  -0.766  0.00  0.00    -0.012 A 
ATOM      4  C3A BZF d   1      -0.029  -0.907  -0.243  0.00  0.00    -0.107 A 
ATOM      5  C4  BZF d   1      -0.166   0.367  -0.714  0.00  0.00     0.055 A 
ATOM      6  C5  BZF d   1      -0.885   1.265   0.009  0.00  0.00    -0.016 A 
ATOM      7  C6  BZF d   1      -1.485   0.922   1.203  0.00  0.00     0.022 A 
ATOM      8  C7  BZF d   1      -1.373  -0.329   1.713  0.00  0.00     0.029 A 
ATOM      9  C7A BZF d   1      -0.619  -1.229   1.001  0.00  0.00     0.058 A 
ENDROOT
TORSDOF 0
ENDMDL
