MODEL 1
REMARK minimizedAffinity -1.55773306
REMARK minimizedRMSD -1
REMARK  0 active torsions:
REMARK  status: ('A' for Active; 'I' for Inactive)
ROOT
ATOM      1  O1  BZF d   1       1.334   0.715  -0.258  0.00  0.00    -0.204 OA
ATOM      2  C2  BZF d   1       0.106   1.191  -0.677  0.00  0.00     0.174 A 
ATOM      3  C3  BZF d   1      -0.897   0.473  -0.132  0.00  0.00    -0.012 A 
ATOM      4  C3A BZF d   1      -0.259  -0.455   0.750  0.00  0.00    -0.107 A 
ATOM      5  C4  BZF d   1      -0.726  -1.427   1.589  0.00  0.00     0.055 A 
ATOM      6  C5  BZF d   1       0.164  -2.207   2.257  0.00  0.00    -0.016 A 
ATOM      7  C6  BZF d   1       1.526  -2.047   2.106  0.00  0.00     0.022 A 
ATOM      8  C7  BZF d   1       2.037  -1.094   1.289  0.00  0.00     0.029 A 
ATOM      9  C7A BZF d   1       1.140  -0.282   0.638  0.00  0.00     0.058 A 
ENDROOT
TORSDOF 0
ENDMDL
