MODEL 1
REMARK minimizedAffinity -5.06899881
REMARK minimizedRMSD -1
REMARK  0 active torsions:
REMARK  status: ('A' for Active; 'I' for Inactive)
ROOT
ATOM      1  O1  BZF d   1      -1.164  -0.610  -0.790  0.00  0.00    -0.204 OA
ATOM      2  C2  BZF d   1      -1.142   0.766  -0.911  0.00  0.00     0.174 A 
ATOM      3  C3  BZF d   1       0.057   1.259  -0.540  0.00  0.00    -0.012 A 
ATOM      4  C3A BZF d   1       0.863   0.113  -0.251  0.00  0.00    -0.107 A 
ATOM      5  C4  BZF d   1       2.158  -0.048   0.153  0.00  0.00     0.055 A 
ATOM      6  C5  BZF d   1       2.617  -1.299   0.418  0.00  0.00    -0.016 A 
ATOM      7  C6  BZF d   1       1.809  -2.410   0.294  0.00  0.00     0.022 A 
ATOM      8  C7  BZF d   1       0.519  -2.302  -0.109  0.00  0.00     0.029 A 
ATOM      9  C7A BZF d   1       0.062  -1.042  -0.408  0.00  0.00     0.058 A 
ENDROOT
TORSDOF 0
ENDMDL
