MODEL 1
REMARK minimizedAffinity -1.406057
REMARK minimizedRMSD -1
REMARK  0 active torsions:
REMARK  status: ('A' for Active; 'I' for Inactive)
ROOT
ATOM      1  O1  BZF d   1       2.366  -0.869  -0.319  0.00  0.00    -0.204 OA
ATOM      2  C2  BZF d   1       2.984  -1.578   0.693  0.00  0.00     0.174 A 
ATOM      3  C3  BZF d   1       2.110  -1.862   1.680  0.00  0.00    -0.012 A 
ATOM      4  C3A BZF d   1       0.847  -1.376   1.216  0.00  0.00    -0.107 A 
ATOM      5  C4  BZF d   1      -0.412  -1.378   1.745  0.00  0.00     0.055 A 
ATOM      6  C5  BZF d   1      -1.414  -0.756   1.069  0.00  0.00    -0.016 A 
ATOM      7  C6  BZF d   1      -1.191  -0.119  -0.134  0.00  0.00     0.022 A 
ATOM      8  C7  BZF d   1       0.040  -0.094  -0.701  0.00  0.00     0.029 A 
ATOM      9  C7A BZF d   1       1.047  -0.750  -0.036  0.00  0.00     0.058 A 
ENDROOT
TORSDOF 0
ENDMDL
