MODEL 1
REMARK minimizedAffinity -3.14529896
REMARK minimizedRMSD -1
REMARK  0 active torsions:
REMARK  status: ('A' for Active; 'I' for Inactive)
ROOT
ATOM      1  O1  BZF d   1       2.335  -1.842   1.173  0.00  0.00    -0.204 OA
ATOM      2  C2  BZF d   1       1.456  -2.739   1.750  0.00  0.00     0.174 A 
ATOM      3  C3  BZF d   1       0.187  -2.467   1.385  0.00  0.00    -0.012 A 
ATOM      4  C3A BZF d   1       0.286  -1.385   0.454  0.00  0.00    -0.107 A 
ATOM      5  C4  BZF d   1      -0.633  -0.682  -0.270  0.00  0.00     0.055 A 
ATOM      6  C5  BZF d   1      -0.216   0.363  -1.032  0.00  0.00    -0.016 A 
ATOM      7  C6  BZF d   1       1.111   0.735  -1.089  0.00  0.00     0.022 A 
ATOM      8  C7  BZF d   1       2.061   0.065  -0.392  0.00  0.00     0.029 A 
ATOM      9  C7A BZF d   1       1.647  -1.012   0.353  0.00  0.00     0.058 A 
ENDROOT
TORSDOF 0
ENDMDL
