MODEL 1
REMARK minimizedAffinity -5.50329065
REMARK minimizedRMSD -1
REMARK  0 active torsions:
REMARK  status: ('A' for Active; 'I' for Inactive)
ROOT
ATOM      1  O1  BZF d   1       2.265  -1.998   0.710  0.00  0.00    -0.204 OA
ATOM      2  C2  BZF d   1       1.399  -3.002   1.099  0.00  0.00     0.174 A 
ATOM      3  C3  BZF d   1       0.116  -2.610   0.955  0.00  0.00    -0.012 A 
ATOM      4  C3A BZF d   1       0.184  -1.312   0.357  0.00  0.00    -0.107 A 
ATOM      5  C4  BZF d   1      -0.761  -0.412  -0.045  0.00  0.00     0.055 A 
ATOM      6  C5  BZF d   1      -0.363   0.796  -0.523  0.00  0.00    -0.016 A 
ATOM      7  C6  BZF d   1       0.970   1.139  -0.608  0.00  0.00     0.022 A 
ATOM      8  C7  BZF d   1       1.945   0.279  -0.226  0.00  0.00     0.029 A 
ATOM      9  C7A BZF d   1       1.547  -0.955   0.227  0.00  0.00     0.058 A 
ENDROOT
TORSDOF 0
ENDMDL
