MODEL 1
REMARK minimizedAffinity -3.32061911
REMARK minimizedRMSD -1
REMARK  0 active torsions:
REMARK  status: ('A' for Active; 'I' for Inactive)
ROOT
ATOM      1  O1  BZF d   1      -0.104  -1.003   2.217  0.00  0.00    -0.204 OA
ATOM      2  C2  BZF d   1      -1.268  -0.322   1.917  0.00  0.00     0.174 A 
ATOM      3  C3  BZF d   1      -1.132   0.376   0.772  0.00  0.00    -0.012 A 
ATOM      4  C3A BZF d   1       0.169   0.043   0.280  0.00  0.00    -0.107 A 
ATOM      5  C4  BZF d   1       0.876   0.408  -0.830  0.00  0.00     0.055 A 
ATOM      6  C5  BZF d   1       2.151  -0.038  -0.979  0.00  0.00    -0.016 A 
ATOM      7  C6  BZF d   1       2.751  -0.846  -0.035  0.00  0.00     0.022 A 
ATOM      8  C7  BZF d   1       2.089  -1.239   1.080  0.00  0.00     0.029 A 
ATOM      9  C7A BZF d   1       0.789  -0.816   1.217  0.00  0.00     0.058 A 
ENDROOT
TORSDOF 0
ENDMDL
