MODEL 1
REMARK minimizedAffinity -1.95173061
REMARK minimizedRMSD -1
REMARK  0 active torsions:
REMARK  status: ('A' for Active; 'I' for Inactive)
ROOT
ATOM      1  O1  BZF d   1      -0.436   0.975   0.385  0.00  0.00    -0.204 OA
ATOM      2  C2  BZF d   1      -0.819   1.286  -0.906  0.00  0.00     0.174 A 
ATOM      3  C3  BZF d   1      -0.090   0.590  -1.802  0.00  0.00    -0.012 A 
ATOM      4  C3A BZF d   1       0.741  -0.274  -1.021  0.00  0.00    -0.107 A 
ATOM      5  C4  BZF d   1       1.674  -1.219  -1.339  0.00  0.00     0.055 A 
ATOM      6  C5  BZF d   1       2.360  -1.833  -0.340  0.00  0.00    -0.016 A 
ATOM      7  C6  BZF d   1       2.142  -1.524   0.987  0.00  0.00     0.022 A 
ATOM      8  C7  BZF d   1       1.223  -0.597   1.352  0.00  0.00     0.029 A 
ATOM      9  C7A BZF d   1       0.505   0.001   0.346  0.00  0.00     0.058 A 
ENDROOT
TORSDOF 0
ENDMDL
