MODEL 1
REMARK minimizedAffinity -1.77525723
REMARK minimizedRMSD -1
REMARK  0 active torsions:
REMARK  status: ('A' for Active; 'I' for Inactive)
ROOT
ATOM      1  O1  BZF d   1      -1.784   1.563   0.165  0.00  0.00    -0.204 OA
ATOM      2  C2  BZF d   1      -1.459   2.124  -1.055  0.00  0.00     0.174 A 
ATOM      3  C3  BZF d   1      -0.320   1.590  -1.539  0.00  0.00    -0.012 A 
ATOM      4  C3A BZF d   1       0.044   0.569  -0.605  0.00  0.00    -0.107 A 
ATOM      5  C4  BZF d   1       1.075  -0.324  -0.545  0.00  0.00     0.055 A 
ATOM      6  C5  BZF d   1       1.183  -1.137   0.539  0.00  0.00    -0.016 A 
ATOM      7  C6  BZF d   1       0.282  -1.079   1.582  0.00  0.00     0.022 A 
ATOM      8  C7  BZF d   1      -0.760  -0.212   1.565  0.00  0.00     0.029 A 
ATOM      9  C7A BZF d   1      -0.890   0.587   0.456  0.00  0.00     0.058 A 
ENDROOT
TORSDOF 0
ENDMDL
