MODEL 1
REMARK minimizedAffinity -5.14037704
REMARK minimizedRMSD -1
REMARK  0 active torsions:
REMARK  status: ('A' for Active; 'I' for Inactive)
ROOT
ATOM      1  O1  BZF d   1       3.496  -0.640  -0.419  0.00  0.00    -0.204 OA
ATOM      2  C2  BZF d   1       3.228   0.562  -1.045  0.00  0.00     0.174 A 
ATOM      3  C3  BZF d   1       1.936   0.910  -0.878  0.00  0.00    -0.012 A 
ATOM      4  C3A BZF d   1       1.383  -0.094  -0.021  0.00  0.00    -0.107 A 
ATOM      5  C4  BZF d   1       0.143  -0.289   0.518  0.00  0.00     0.055 A 
ATOM      6  C5  BZF d   1      -0.088  -1.409   1.253  0.00  0.00    -0.016 A 
ATOM      7  C6  BZF d   1       0.894  -2.354   1.464  0.00  0.00     0.022 A 
ATOM      8  C7  BZF d   1       2.141  -2.201   0.954  0.00  0.00     0.029 A 
ATOM      9  C7A BZF d   1       2.387  -1.055   0.238  0.00  0.00     0.058 A 
ENDROOT
TORSDOF 0
ENDMDL
