MODEL 1
REMARK minimizedAffinity -3.3913784
REMARK minimizedRMSD -1
REMARK  0 active torsions:
REMARK  status: ('A' for Active; 'I' for Inactive)
ROOT
ATOM      1  O1  BZF d   1      -1.170   0.755  -3.466  0.00  0.00    -0.204 OA
ATOM      2  C2  BZF d   1      -2.088   1.759  -3.227  0.00  0.00     0.174 A 
ATOM      3  C3  BZF d   1      -2.199   2.001  -1.905  0.00  0.00    -0.012 A 
ATOM      4  C3A BZF d   1      -1.226   1.156  -1.285  0.00  0.00    -0.107 A 
ATOM      5  C4  BZF d   1      -0.846   0.956   0.012  0.00  0.00     0.055 A 
ATOM      6  C5  BZF d   1       0.084   0.005   0.288  0.00  0.00    -0.016 A 
ATOM      7  C6  BZF d   1       0.651  -0.767  -0.705  0.00  0.00     0.022 A 
ATOM      8  C7  BZF d   1       0.309  -0.602  -2.006  0.00  0.00     0.029 A 
ATOM      9  C7A BZF d   1      -0.607   0.381  -2.292  0.00  0.00     0.058 A 
ENDROOT
TORSDOF 0
ENDMDL
