MODEL 1
REMARK minimizedAffinity -0.675274491
REMARK minimizedRMSD -1
REMARK  0 active torsions:
REMARK  status: ('A' for Active; 'I' for Inactive)
ROOT
ATOM      1  O1  BZF d   1      -0.745  -0.457   0.104  0.00  0.00    -0.204 OA
ATOM      2  C2  BZF d   1      -0.860   0.690  -0.658  0.00  0.00     0.174 A 
ATOM      3  C3  BZF d   1       0.350   1.250  -0.864  0.00  0.00    -0.012 A 
ATOM      4  C3A BZF d   1       1.288   0.351  -0.265  0.00  0.00    -0.107 A 
ATOM      5  C4  BZF d   1       2.649   0.351  -0.155  0.00  0.00     0.055 A 
ATOM      6  C5  BZF d   1       3.254  -0.637   0.554  0.00  0.00    -0.016 A 
ATOM      7  C6  BZF d   1       2.530  -1.637   1.170  0.00  0.00     0.022 A 
ATOM      8  C7  BZF d   1       1.178  -1.682   1.085  0.00  0.00     0.029 A 
ATOM      9  C7A BZF d   1       0.566  -0.703   0.341  0.00  0.00     0.058 A 
ENDROOT
TORSDOF 0
ENDMDL
