MODEL 1
REMARK minimizedAffinity -2.44690919
REMARK minimizedRMSD -1
REMARK  0 active torsions:
REMARK  status: ('A' for Active; 'I' for Inactive)
ROOT
ATOM      1  O1  BZF d   1      -1.169  -0.100   0.092  0.00  0.00    -0.204 OA
ATOM      2  C2  BZF d   1      -1.095   1.100  -0.589  0.00  0.00     0.174 A 
ATOM      3  C3  BZF d   1       0.178   1.372  -0.941  0.00  0.00    -0.012 A 
ATOM      4  C3A BZF d   1       0.935   0.230  -0.530  0.00  0.00    -0.107 A 
ATOM      5  C4  BZF d   1       2.256  -0.103  -0.620  0.00  0.00     0.055 A 
ATOM      6  C5  BZF d   1       2.685  -1.262  -0.055  0.00  0.00    -0.016 A 
ATOM      7  C6  BZF d   1       1.823  -2.108   0.611  0.00  0.00     0.022 A 
ATOM      8  C7  BZF d   1       0.502  -1.823   0.721  0.00  0.00     0.029 A 
ATOM      9  C7A BZF d   1       0.060  -0.669   0.123  0.00  0.00     0.058 A 
ENDROOT
TORSDOF 0
ENDMDL
