MODEL 1
REMARK minimizedAffinity 4.35378027
REMARK minimizedRMSD -1
REMARK  0 active torsions:
REMARK  status: ('A' for Active; 'I' for Inactive)
ROOT
ATOM      1  C   UNL d   1       4.351  -2.328  -0.003  0.00  0.00     0.078 C 
ATOM      2  C1  UNL d   1       3.625  -3.601  -0.315  0.00  0.00    -0.077 A 
ATOM      3  C2  UNL d   1       2.396  -3.898   0.288  0.00  0.00    -0.001 A 
ATOM      4  C3  UNL d   1       1.735  -5.092  -0.004  0.00  0.00     0.003 A 
ATOM      5  C4  UNL d   1       2.296  -6.000  -0.901  0.00  0.00    -0.005 A 
ATOM      6  C5  UNL d   1       3.518  -5.715  -1.505  0.00  0.00     0.003 A 
ATOM      7  C6  UNL d   1       4.181  -4.521  -1.213  0.00  0.00    -0.001 A 
ENDROOT
TORSDOF 0
ENDMDL
