MODEL 1
REMARK minimizedAffinity 1.3383013
REMARK minimizedRMSD -1
REMARK  0 active torsions:
REMARK  status: ('A' for Active; 'I' for Inactive)
ROOT
ATOM      1  C   UNL d   1      -0.012   3.324   0.347  0.00  0.00     0.078 C 
ATOM      2  C1  UNL d   1      -0.406   2.041  -0.320  0.00  0.00    -0.077 A 
ATOM      3  C2  UNL d   1       0.561   1.178  -0.851  0.00  0.00    -0.001 A 
ATOM      4  C3  UNL d   1       0.179  -0.009  -1.478  0.00  0.00     0.003 A 
ATOM      5  C4  UNL d   1      -1.169  -0.343  -1.583  0.00  0.00    -0.005 A 
ATOM      6  C5  UNL d   1      -2.139   0.511  -1.060  0.00  0.00     0.003 A 
ATOM      7  C6  UNL d   1      -1.759   1.698  -0.432  0.00  0.00    -0.001 A 
ENDROOT
TORSDOF 0
ENDMDL
