MODEL 1
REMARK minimizedAffinity 11.9033442
REMARK minimizedRMSD -1
REMARK  0 active torsions:
REMARK  status: ('A' for Active; 'I' for Inactive)
ROOT
ATOM      1  C   UNL d   1      -1.172   2.401   2.489  0.00  0.00     0.078 C 
ATOM      2  C1  UNL d   1      -0.605   3.283   1.417  0.00  0.00    -0.077 A 
ATOM      3  C2  UNL d   1       0.772   3.321   1.168  0.00  0.00    -0.001 A 
ATOM      4  C3  UNL d   1       1.287   4.153   0.173  0.00  0.00     0.003 A 
ATOM      5  C4  UNL d   1       0.432   4.955  -0.580  0.00  0.00    -0.005 A 
ATOM      6  C5  UNL d   1      -0.940   4.926  -0.338  0.00  0.00     0.003 A 
ATOM      7  C6  UNL d   1      -1.457   4.094   0.656  0.00  0.00    -0.001 A 
ENDROOT
TORSDOF 0
ENDMDL
