MODEL 1
REMARK minimizedAffinity 4.8234148
REMARK minimizedRMSD -1
REMARK  0 active torsions:
REMARK  status: ('A' for Active; 'I' for Inactive)
ROOT
ATOM      1  C   UNL d   1       5.349  -5.673   0.050  0.00  0.00     0.078 C 
ATOM      2  C1  UNL d   1       5.137  -4.233  -0.311  0.00  0.00    -0.077 A 
ATOM      3  C2  UNL d   1       5.910  -3.616  -1.303  0.00  0.00    -0.001 A 
ATOM      4  C3  UNL d   1       5.708  -2.272  -1.621  0.00  0.00     0.003 A 
ATOM      5  C4  UNL d   1       4.734  -1.533  -0.953  0.00  0.00    -0.005 A 
ATOM      6  C5  UNL d   1       3.962  -2.137   0.037  0.00  0.00     0.003 A 
ATOM      7  C6  UNL d   1       4.162  -3.481   0.357  0.00  0.00    -0.001 A 
ENDROOT
TORSDOF 0
ENDMDL
