MODEL 1
REMARK minimizedAffinity 8.2393713
REMARK minimizedRMSD -1
REMARK  0 active torsions:
REMARK  status: ('A' for Active; 'I' for Inactive)
ROOT
ATOM      1  C   UNL d   1       5.995  -2.245  -1.841  0.00  0.00     0.078 C 
ATOM      2  C1  UNL d   1       5.265  -3.553  -1.773  0.00  0.00    -0.077 A 
ATOM      3  C2  UNL d   1       5.567  -4.497  -0.785  0.00  0.00    -0.001 A 
ATOM      4  C3  UNL d   1       4.886  -5.715  -0.740  0.00  0.00     0.003 A 
ATOM      5  C4  UNL d   1       3.900  -6.000  -1.682  0.00  0.00    -0.005 A 
ATOM      6  C5  UNL d   1       3.594  -5.067  -2.671  0.00  0.00     0.003 A 
ATOM      7  C6  UNL d   1       4.273  -3.849  -2.717  0.00  0.00    -0.001 A 
ENDROOT
TORSDOF 0
ENDMDL
