MODEL 1
REMARK minimizedAffinity 7.83287382
REMARK minimizedRMSD -1
REMARK  0 active torsions:
REMARK  status: ('A' for Active; 'I' for Inactive)
ROOT
ATOM      1  C   UNL d   1      -3.312   1.110  -0.298  0.00  0.00     0.078 C 
ATOM      2  C1  UNL d   1      -2.515   0.492  -1.408  0.00  0.00    -0.077 A 
ATOM      3  C2  UNL d   1      -2.633   0.953  -2.725  0.00  0.00    -0.001 A 
ATOM      4  C3  UNL d   1      -1.892   0.362  -3.749  0.00  0.00     0.003 A 
ATOM      5  C4  UNL d   1      -1.027  -0.694  -3.467  0.00  0.00    -0.005 A 
ATOM      6  C5  UNL d   1      -0.904  -1.161  -2.160  0.00  0.00     0.003 A 
ATOM      7  C6  UNL d   1      -1.645  -0.571  -1.135  0.00  0.00    -0.001 A 
ENDROOT
TORSDOF 0
ENDMDL
