MODEL 1
REMARK minimizedAffinity 2.87217474
REMARK minimizedRMSD -1
REMARK  0 active torsions:
REMARK  status: ('A' for Active; 'I' for Inactive)
ROOT
ATOM      1  C   UNL d   1       0.538   4.948  -0.443  0.00  0.00     0.078 C 
ATOM      2  C1  UNL d   1       0.099   3.890   0.524  0.00  0.00    -0.077 A 
ATOM      3  C2  UNL d   1      -1.197   3.890   1.054  0.00  0.00    -0.001 A 
ATOM      4  C3  UNL d   1      -1.589   2.905   1.961  0.00  0.00     0.003 A 
ATOM      5  C4  UNL d   1      -0.691   1.911   2.346  0.00  0.00    -0.005 A 
ATOM      6  C5  UNL d   1       0.601   1.903   1.825  0.00  0.00     0.003 A 
ATOM      7  C6  UNL d   1       0.995   2.888   0.918  0.00  0.00    -0.001 A 
ENDROOT
TORSDOF 0
ENDMDL
