MODEL 1
REMARK minimizedAffinity 7.99590874
REMARK minimizedRMSD -1
REMARK  0 active torsions:
REMARK  status: ('A' for Active; 'I' for Inactive)
ROOT
ATOM      1  C   UNL d   1       1.229  -0.706   4.373  0.00  0.00     0.078 C 
ATOM      2  C1  UNL d   1       0.657   0.327   3.448  0.00  0.00    -0.077 A 
ATOM      3  C2  UNL d   1      -0.709   0.635   3.468  0.00  0.00    -0.001 A 
ATOM      4  C3  UNL d   1      -1.230   1.592   2.595  0.00  0.00     0.003 A 
ATOM      5  C4  UNL d   1      -0.392   2.248   1.695  0.00  0.00    -0.005 A 
ATOM      6  C5  UNL d   1       0.968   1.946   1.667  0.00  0.00     0.003 A 
ATOM      7  C6  UNL d   1       1.491   0.990   2.539  0.00  0.00    -0.001 A 
ENDROOT
TORSDOF 0
ENDMDL
