MODEL 1
REMARK minimizedAffinity 1.9691925
REMARK minimizedRMSD -1
REMARK  0 active torsions:
REMARK  status: ('A' for Active; 'I' for Inactive)
ROOT
ATOM      1  C   UNL d   1       2.678  -1.986   5.878  0.00  0.00     0.078 C 
ATOM      2  C1  UNL d   1       1.848  -1.043   5.059  0.00  0.00    -0.077 A 
ATOM      3  C2  UNL d   1       2.429  -0.254   4.058  0.00  0.00    -0.001 A 
ATOM      4  C3  UNL d   1       1.646   0.627   3.310  0.00  0.00     0.003 A 
ATOM      5  C4  UNL d   1       0.278   0.727   3.555  0.00  0.00    -0.005 A 
ATOM      6  C5  UNL d   1      -0.309  -0.052   4.550  0.00  0.00     0.003 A 
ATOM      7  C6  UNL d   1       0.472  -0.934   5.299  0.00  0.00    -0.001 A 
ENDROOT
TORSDOF 0
ENDMDL
