MODEL 1
REMARK minimizedAffinity 8.78473568
REMARK minimizedRMSD -1
REMARK  0 active torsions:
REMARK  status: ('A' for Active; 'I' for Inactive)
ROOT
ATOM      1  C   UNL d   1      -0.190   3.370  -0.004  0.00  0.00     0.078 C 
ATOM      2  C1  UNL d   1       1.007   3.347   0.899  0.00  0.00    -0.077 A 
ATOM      3  C2  UNL d   1       1.254   2.257   1.742  0.00  0.00    -0.001 A 
ATOM      4  C3  UNL d   1       2.366   2.253   2.585  0.00  0.00     0.003 A 
ATOM      5  C4  UNL d   1       3.240   3.339   2.595  0.00  0.00    -0.005 A 
ATOM      6  C5  UNL d   1       3.001   4.430   1.761  0.00  0.00     0.003 A 
ATOM      7  C6  UNL d   1       1.889   4.435   0.918  0.00  0.00    -0.001 A 
ENDROOT
TORSDOF 0
ENDMDL
