MODEL 1
REMARK minimizedAffinity 8.00903893
REMARK minimizedRMSD -1
REMARK  0 active torsions:
REMARK  status: ('A' for Active; 'I' for Inactive)
ROOT
ATOM      1  C   UNL d   1       5.962  -2.085  -1.263  0.00  0.00     0.078 C 
ATOM      2  C1  UNL d   1       4.574  -1.983  -0.705  0.00  0.00    -0.077 A 
ATOM      3  C2  UNL d   1       3.885  -0.764  -0.701  0.00  0.00    -0.001 A 
ATOM      4  C3  UNL d   1       2.597  -0.682  -0.169  0.00  0.00     0.003 A 
ATOM      5  C4  UNL d   1       1.987  -1.816   0.363  0.00  0.00    -0.005 A 
ATOM      6  C5  UNL d   1       2.665  -3.033   0.366  0.00  0.00     0.003 A 
ATOM      7  C6  UNL d   1       3.953  -3.117  -0.165  0.00  0.00    -0.001 A 
ENDROOT
TORSDOF 0
ENDMDL
