MODEL 1
REMARK minimizedAffinity -3.74221969
REMARK minimizedRMSD -1
REMARK  2 active torsions:
REMARK  status: ('A' for Active; 'I' for Inactive)
REMARK    1  A    between atoms: C2'_3  and  C1'_4 
REMARK    2  A    between atoms: C1'_4  and  C1_5 
ROOT
ATOM      1  C1  I4B d   1      -0.005  -0.371  -0.437  0.00  0.00    -0.075 A 
ATOM      2  C2  I4B d   1       0.804   0.370  -1.261  0.00  0.00     0.003 A 
ATOM      3  C3  I4B d   1       1.234  -0.159  -2.502  0.00  0.00     0.002 A 
ATOM      4  C4  I4B d   1       0.876  -1.445  -2.853  0.00  0.00    -0.004 A 
ATOM      5  C5  I4B d   1       0.036  -2.186  -2.027  0.00  0.00     0.002 A 
ATOM      6  C6  I4B d   1      -0.417  -1.642  -0.817  0.00  0.00     0.003 A 
ENDROOT
BRANCH   1   7
ATOM      7  C1' I4B d   1      -0.414   0.206   0.881  0.00  0.00     0.060 C 
BRANCH   7   8
ATOM      8  C2' I4B d   1      -1.662  -0.520   1.342  0.00  0.00    -0.013 C 
ATOM      9  C4' I4B d   1      -1.700  -0.639   2.843  0.00  0.00     0.013 C 
ATOM     10  C3' I4B d   1      -2.852   0.234   0.829  0.00  0.00     0.013 C 
ENDBRANCH   7   8
ENDBRANCH   1   7
TORSDOF 2
ENDMDL
