MODEL 1
REMARK minimizedAffinity -5.92434454
REMARK minimizedRMSD -1
REMARK  2 active torsions:
REMARK  status: ('A' for Active; 'I' for Inactive)
REMARK    1  A    between atoms: C2'_3  and  C1'_4 
REMARK    2  A    between atoms: C1'_4  and  C1_5 
ROOT
ATOM      1  C1  I4B d   1      -0.617  -0.386   0.768  0.00  0.00    -0.075 A 
ATOM      2  C2  I4B d   1      -0.351  -0.538   2.106  0.00  0.00     0.003 A 
ATOM      3  C3  I4B d   1      -1.390  -0.403   3.059  0.00  0.00     0.002 A 
ATOM      4  C4  I4B d   1      -2.660  -0.069   2.636  0.00  0.00    -0.004 A 
ATOM      5  C5  I4B d   1      -2.933   0.062   1.278  0.00  0.00     0.002 A 
ATOM      6  C6  I4B d   1      -1.908  -0.110   0.336  0.00  0.00     0.003 A 
ENDROOT
BRANCH   1   7
ATOM      7  C1' I4B d   1       0.510  -0.503  -0.209  0.00  0.00     0.060 C 
BRANCH   7   8
ATOM      8  C2' I4B d   1      -0.007  -0.083  -1.570  0.00  0.00    -0.013 C 
ATOM      9  C4' I4B d   1       0.583   1.236  -1.994  0.00  0.00     0.013 C 
ATOM     10  C3' I4B d   1       0.333  -1.168  -2.549  0.00  0.00     0.013 C 
ENDBRANCH   7   8
ENDBRANCH   1   7
TORSDOF 2
ENDMDL
