MODEL 1
REMARK minimizedAffinity -6.17349529
REMARK minimizedRMSD -1
REMARK  2 active torsions:
REMARK  status: ('A' for Active; 'I' for Inactive)
REMARK    1  A    between atoms: C2'_3  and  C1'_4 
REMARK    2  A    between atoms: C1'_4  and  C1_5 
ROOT
ATOM      1  C1  I4B d   1      -1.002  -0.386   0.993  0.00  0.00    -0.075 A 
ATOM      2  C2  I4B d   1      -0.636  -0.659   2.288  0.00  0.00     0.003 A 
ATOM      3  C3  I4B d   1      -1.445  -0.222   3.364  0.00  0.00     0.002 A 
ATOM      4  C4  I4B d   1      -2.577   0.523   3.105  0.00  0.00    -0.004 A 
ATOM      5  C5  I4B d   1      -2.959   0.779   1.791  0.00  0.00     0.002 A 
ATOM      6  C6  I4B d   1      -2.173   0.311   0.728  0.00  0.00     0.003 A 
ENDROOT
BRANCH   1   7
ATOM      7  C1' I4B d   1      -0.107  -0.833  -0.119  0.00  0.00     0.060 C 
BRANCH   7   8
ATOM      8  C2' I4B d   1       0.383   0.400  -0.849  0.00  0.00    -0.013 C 
ATOM      9  C4' I4B d   1       1.507   1.067  -0.101  0.00  0.00     0.013 C 
ATOM     10  C3' I4B d   1       0.819  -0.017  -2.222  0.00  0.00     0.013 C 
ENDBRANCH   7   8
ENDBRANCH   1   7
TORSDOF 2
ENDMDL
