MODEL 1
REMARK minimizedAffinity -3.15810084
REMARK minimizedRMSD -1
REMARK  2 active torsions:
REMARK  status: ('A' for Active; 'I' for Inactive)
REMARK    1  A    between atoms: C2'_3  and  C1'_4 
REMARK    2  A    between atoms: C1'_4  and  C1_5 
ROOT
ATOM      1  C1  I4B d   1      -0.373   0.276  -0.680  0.00  0.00    -0.075 A 
ATOM      2  C2  I4B d   1      -1.585   0.033  -0.084  0.00  0.00     0.003 A 
ATOM      3  C3  I4B d   1      -1.669  -0.123   1.321  0.00  0.00     0.002 A 
ATOM      4  C4  I4B d   1      -0.517  -0.079   2.080  0.00  0.00    -0.004 A 
ATOM      5  C5  I4B d   1       0.707   0.191   1.476  0.00  0.00     0.002 A 
ATOM      6  C6  I4B d   1       0.779   0.382   0.089  0.00  0.00     0.003 A 
ENDROOT
BRANCH   1   7
ATOM      7  C1' I4B d   1      -0.315   0.403  -2.170  0.00  0.00     0.060 C 
BRANCH   7   8
ATOM      8  C2' I4B d   1       0.692  -0.605  -2.685  0.00  0.00    -0.013 C 
ATOM      9  C4' I4B d   1       0.078  -1.507  -3.724  0.00  0.00     0.013 C 
ATOM     10  C3' I4B d   1       1.858   0.152  -3.247  0.00  0.00     0.013 C 
ENDBRANCH   7   8
ENDBRANCH   1   7
TORSDOF 2
ENDMDL
