MODEL 1
REMARK minimizedAffinity -6.05637407
REMARK minimizedRMSD -1
REMARK  2 active torsions:
REMARK  status: ('A' for Active; 'I' for Inactive)
REMARK    1  A    between atoms: C2'_3  and  C1'_4 
REMARK    2  A    between atoms: C1'_4  and  C1_5 
ROOT
ATOM      1  C1  I4B d   1      -0.871  -0.425   0.830  0.00  0.00    -0.075 A 
ATOM      2  C2  I4B d   1      -0.429  -0.762   2.085  0.00  0.00     0.003 A 
ATOM      3  C3  I4B d   1      -1.257  -0.548   3.214  0.00  0.00     0.002 A 
ATOM      4  C4  I4B d   1      -2.492   0.046   3.048  0.00  0.00    -0.004 A 
ATOM      5  C5  I4B d   1      -2.947   0.365   1.772  0.00  0.00     0.002 A 
ATOM      6  C6  I4B d   1      -2.137   0.117   0.654  0.00  0.00     0.003 A 
ENDROOT
BRANCH   1   7
ATOM      7  C1' I4B d   1       0.043  -0.634  -0.336  0.00  0.00     0.060 C 
BRANCH   7   8
ATOM      8  C2' I4B d   1       0.306   0.717  -0.970  0.00  0.00    -0.013 C 
ATOM      9  C4' I4B d   1       1.471   1.409  -0.314  0.00  0.00     0.013 C 
ATOM     10  C3' I4B d   1       0.559   0.500  -2.432  0.00  0.00     0.013 C 
ENDBRANCH   7   8
ENDBRANCH   1   7
TORSDOF 2
ENDMDL
