MODEL 1
REMARK minimizedAffinity -3.57419729
REMARK minimizedRMSD -1
REMARK  2 active torsions:
REMARK  status: ('A' for Active; 'I' for Inactive)
REMARK    1  A    between atoms: C2'_3  and  C1'_4 
REMARK    2  A    between atoms: C1'_4  and  C1_5 
ROOT
ATOM      1  C1  I4B d   1       0.211   0.017  -1.428  0.00  0.00    -0.075 A 
ATOM      2  C2  I4B d   1       1.223   0.408  -2.269  0.00  0.00     0.003 A 
ATOM      3  C3  I4B d   1       1.443  -0.280  -3.487  0.00  0.00     0.002 A 
ATOM      4  C4  I4B d   1       0.666  -1.377  -3.799  0.00  0.00    -0.004 A 
ATOM      5  C5  I4B d   1      -0.374  -1.757  -2.956  0.00  0.00     0.002 A 
ATOM      6  C6  I4B d   1      -0.612  -1.049  -1.769  0.00  0.00     0.003 A 
ENDROOT
BRANCH   1   7
ATOM      7  C1' I4B d   1       0.027   0.745  -0.135  0.00  0.00     0.060 C 
BRANCH   7   8
ATOM      8  C2' I4B d   1       0.794  -0.004   0.936  0.00  0.00    -0.013 C 
ATOM      9  C4' I4B d   1       2.265   0.316   0.877  0.00  0.00     0.013 C 
ATOM     10  C3' I4B d   1       0.212   0.366   2.267  0.00  0.00     0.013 C 
ENDBRANCH   7   8
ENDBRANCH   1   7
TORSDOF 2
ENDMDL
