MODEL 1
REMARK minimizedAffinity -4.6861825
REMARK minimizedRMSD -1
REMARK  2 active torsions:
REMARK  status: ('A' for Active; 'I' for Inactive)
REMARK    1  A    between atoms: C2'_3  and  C1'_4 
REMARK    2  A    between atoms: C1'_4  and  C1_5 
ROOT
ATOM      1  C1  I4B d   1      -0.030   0.092  -0.124  0.00  0.00    -0.075 A 
ATOM      2  C2  I4B d   1       1.069   0.502   0.590  0.00  0.00     0.003 A 
ATOM      3  C3  I4B d   1       1.133   0.284   1.987  0.00  0.00     0.002 A 
ATOM      4  C4  I4B d   1       0.062  -0.297   2.635  0.00  0.00    -0.004 A 
ATOM      5  C5  I4B d   1      -1.041  -0.733   1.907  0.00  0.00     0.002 A 
ATOM      6  C6  I4B d   1      -1.083  -0.549   0.517  0.00  0.00     0.003 A 
ENDROOT
BRANCH   1   7
ATOM      7  C1' I4B d   1      -0.079   0.366  -1.593  0.00  0.00     0.060 C 
BRANCH   7   8
ATOM      8  C2' I4B d   1       0.876  -0.590  -2.279  0.00  0.00    -0.013 C 
ATOM      9  C4' I4B d   1       0.129  -1.667  -3.020  0.00  0.00     0.013 C 
ATOM     10  C3' I4B d   1       1.741   0.208  -3.209  0.00  0.00     0.013 C 
ENDBRANCH   7   8
ENDBRANCH   1   7
TORSDOF 2
ENDMDL
