MODEL 1
REMARK minimizedAffinity -4.90257549
REMARK minimizedRMSD -1
REMARK  2 active torsions:
REMARK  status: ('A' for Active; 'I' for Inactive)
REMARK    1  A    between atoms: C2'_3  and  C1'_4 
REMARK    2  A    between atoms: C1'_4  and  C1_5 
ROOT
ATOM      1  C1  I4B d   1      -0.781   0.122   0.314  0.00  0.00    -0.075 A 
ATOM      2  C2  I4B d   1      -1.983  -0.118   0.930  0.00  0.00     0.003 A 
ATOM      3  C3  I4B d   1      -2.025  -0.466   2.302  0.00  0.00     0.002 A 
ATOM      4  C4  I4B d   1      -0.845  -0.612   3.002  0.00  0.00    -0.004 A 
ATOM      5  C5  I4B d   1       0.373  -0.346   2.382  0.00  0.00     0.002 A 
ATOM      6  C6  I4B d   1       0.405   0.036   1.033  0.00  0.00     0.003 A 
ENDROOT
BRANCH   1   7
ATOM      7  C1' I4B d   1      -0.771   0.456  -1.144  0.00  0.00     0.060 C 
BRANCH   7   8
ATOM      8  C2' I4B d   1       0.055  -0.594  -1.858  0.00  0.00    -0.013 C 
ATOM      9  C4' I4B d   1      -0.797  -1.422  -2.783  0.00  0.00     0.013 C 
ATOM     10  C3' I4B d   1       1.147   0.108  -2.609  0.00  0.00     0.013 C 
ENDBRANCH   7   8
ENDBRANCH   1   7
TORSDOF 2
ENDMDL
