MODEL 1
REMARK minimizedAffinity -5.34429026
REMARK minimizedRMSD -1
REMARK  2 active torsions:
REMARK  status: ('A' for Active; 'I' for Inactive)
REMARK    1  A    between atoms: C2'_3  and  C1'_4 
REMARK    2  A    between atoms: C1'_4  and  C1_5 
ROOT
ATOM      1  C1  I4B d   1      -0.272   0.473  -0.203  0.00  0.00    -0.075 A 
ATOM      2  C2  I4B d   1       0.889   0.682   0.498  0.00  0.00     0.003 A 
ATOM      3  C3  I4B d   1       0.926   0.470   1.897  0.00  0.00     0.002 A 
ATOM      4  C4  I4B d   1      -0.227   0.100   2.559  0.00  0.00    -0.004 A 
ATOM      5  C5  I4B d   1      -1.398  -0.134   1.844  0.00  0.00     0.002 A 
ATOM      6  C6  I4B d   1      -1.418   0.041   0.452  0.00  0.00     0.003 A 
ENDROOT
BRANCH   1   7
ATOM      7  C1' I4B d   1      -0.284   0.738  -1.675  0.00  0.00     0.060 C 
BRANCH   7   8
ATOM      8  C2' I4B d   1       0.745  -0.168  -2.321  0.00  0.00    -0.013 C 
ATOM      9  C4' I4B d   1       0.091  -1.164  -3.243  0.00  0.00     0.013 C 
ATOM     10  C3' I4B d   1       1.722   0.695  -3.061  0.00  0.00     0.013 C 
ENDBRANCH   7   8
ENDBRANCH   1   7
TORSDOF 2
ENDMDL
