MODEL 1
REMARK minimizedAffinity -5.15780449
REMARK minimizedRMSD -1
REMARK  2 active torsions:
REMARK  status: ('A' for Active; 'I' for Inactive)
REMARK    1  A    between atoms: C2'_3  and  C1'_4 
REMARK    2  A    between atoms: C1'_4  and  C1_5 
ROOT
ATOM      1  C1  I4B d   1      -0.332  -0.291   1.158  0.00  0.00    -0.075 A 
ATOM      2  C2  I4B d   1       0.121   0.258   2.332  0.00  0.00     0.003 A 
ATOM      3  C3  I4B d   1      -0.768   0.450   3.418  0.00  0.00     0.002 A 
ATOM      4  C4  I4B d   1      -2.101   0.130   3.269  0.00  0.00    -0.004 A 
ATOM      5  C5  I4B d   1      -2.554  -0.448   2.086  0.00  0.00     0.002 A 
ATOM      6  C6  I4B d   1      -1.661  -0.671   1.028  0.00  0.00     0.003 A 
ENDROOT
BRANCH   1   7
ATOM      7  C1' I4B d   1       0.627  -0.450   0.020  0.00  0.00     0.060 C 
BRANCH   7   8
ATOM      8  C2' I4B d   1      -0.167  -0.398  -1.269  0.00  0.00    -0.013 C 
ATOM      9  C4' I4B d   1      -0.531   1.018  -1.629  0.00  0.00     0.013 C 
ATOM     10  C3' I4B d   1       0.659  -1.035  -2.347  0.00  0.00     0.013 C 
ENDBRANCH   7   8
ENDBRANCH   1   7
TORSDOF 2
ENDMDL
