MODEL 1
REMARK minimizedAffinity -2.79206085
REMARK minimizedRMSD -1
REMARK  2 active torsions:
REMARK  status: ('A' for Active; 'I' for Inactive)
REMARK    1  A    between atoms: C2'_3  and  C1'_4 
REMARK    2  A    between atoms: C1'_4  and  C1_5 
ROOT
ATOM      1  C1  I4B d   1       0.425   0.293  -0.168  0.00  0.00    -0.075 A 
ATOM      2  C2  I4B d   1      -0.543   0.324   0.805  0.00  0.00     0.003 A 
ATOM      3  C3  I4B d   1      -0.178   0.348   2.173  0.00  0.00     0.002 A 
ATOM      4  C4  I4B d   1       1.156   0.290   2.522  0.00  0.00    -0.004 A 
ATOM      5  C5  I4B d   1       2.136   0.282   1.534  0.00  0.00     0.002 A 
ATOM      6  C6  I4B d   1       1.770   0.296   0.180  0.00  0.00     0.003 A 
ENDROOT
BRANCH   1   7
ATOM      7  C1' I4B d   1       0.005   0.235  -1.602  0.00  0.00     0.060 C 
BRANCH   7   8
ATOM      8  C2' I4B d   1       0.995  -0.640  -2.344  0.00  0.00    -0.013 C 
ATOM      9  C4' I4B d   1       0.383  -1.966  -2.710  0.00  0.00     0.013 C 
ATOM     10  C3' I4B d   1       1.445   0.105  -3.566  0.00  0.00     0.013 C 
ENDBRANCH   7   8
ENDBRANCH   1   7
TORSDOF 2
ENDMDL
