MODEL 1
REMARK minimizedAffinity 10.7907314
REMARK minimizedRMSD -1
REMARK  0 active torsions:
REMARK  status: ('A' for Active; 'I' for Inactive)
ROOT
ATOM      1  O1  BZF d   1      -3.117   1.912  -1.591  0.00  0.00    -0.204 OA
ATOM      2  C2  BZF d   1      -4.187   1.243  -2.151  0.00  0.00     0.174 A 
ATOM      3  C3  BZF d   1      -3.810   0.028  -2.600  0.00  0.00    -0.012 A 
ATOM      4  C3A BZF d   1      -2.437  -0.104  -2.218  0.00  0.00    -0.107 A 
ATOM      5  C4  BZF d   1      -1.512  -1.097  -2.369  0.00  0.00     0.055 A 
ATOM      6  C5  BZF d   1      -0.238  -0.883  -1.948  0.00  0.00    -0.016 A 
ATOM      7  C6  BZF d   1       0.147   0.313  -1.378  0.00  0.00     0.022 A 
ATOM      8  C7  BZF d   1      -0.736   1.326  -1.203  0.00  0.00     0.029 A 
ATOM      9  C7A BZF d   1      -2.033   1.100  -1.597  0.00  0.00     0.058 A 
ENDROOT
TORSDOF 0
ENDMDL
