MODEL 1
REMARK minimizedAffinity 2.31155086
REMARK minimizedRMSD -1
REMARK  0 active torsions:
REMARK  status: ('A' for Active; 'I' for Inactive)
ROOT
ATOM      1  O1  BZF d   1       0.779   2.124   2.724  0.00  0.00    -0.204 OA
ATOM      2  C2  BZF d   1       1.104   3.463   2.622  0.00  0.00     0.174 A 
ATOM      3  C3  BZF d   1       0.832   3.928   1.386  0.00  0.00    -0.012 A 
ATOM      4  C3A BZF d   1       0.217   2.834   0.699  0.00  0.00    -0.107 A 
ATOM      5  C4  BZF d   1      -0.291   2.682  -0.560  0.00  0.00     0.055 A 
ATOM      6  C5  BZF d   1      -0.753   1.463  -0.943  0.00  0.00    -0.016 A 
ATOM      7  C6  BZF d   1      -0.718   0.374  -0.096  0.00  0.00     0.022 A 
ATOM      8  C7  BZF d   1      -0.228   0.478   1.164  0.00  0.00     0.029 A 
ATOM      9  C7A BZF d   1       0.209   1.716   1.565  0.00  0.00     0.058 A 
ENDROOT
TORSDOF 0
ENDMDL
