MODEL 1
REMARK minimizedAffinity 8.22987175
REMARK minimizedRMSD -1
REMARK  0 active torsions:
REMARK  status: ('A' for Active; 'I' for Inactive)
ROOT
ATOM      1  O1  BZF d   1      -0.324   0.653  -0.113  0.00  0.00    -0.204 OA
ATOM      2  C2  BZF d   1       0.037  -0.598   0.349  0.00  0.00     0.174 A 
ATOM      3  C3  BZF d   1       0.769  -0.498   1.477  0.00  0.00    -0.012 A 
ATOM      4  C3A BZF d   1       0.794   0.899   1.787  0.00  0.00    -0.107 A 
ATOM      5  C4  BZF d   1       1.352   1.626   2.800  0.00  0.00     0.055 A 
ATOM      6  C5  BZF d   1       1.254   2.981   2.771  0.00  0.00    -0.016 A 
ATOM      7  C6  BZF d   1       0.612   3.641   1.744  0.00  0.00     0.022 A 
ATOM      8  C7  BZF d   1       0.039   2.962   0.720  0.00  0.00     0.029 A 
ATOM      9  C7A BZF d   1       0.107   1.591   0.763  0.00  0.00     0.058 A 
ENDROOT
TORSDOF 0
ENDMDL
