MODEL 1
REMARK minimizedAffinity 4.37630224
REMARK minimizedRMSD -1
REMARK  0 active torsions:
REMARK  status: ('A' for Active; 'I' for Inactive)
ROOT
ATOM      1  O1  BZF d   1      -2.654   4.510  -2.956  0.00  0.00    -0.204 OA
ATOM      2  C2  BZF d   1      -3.922   4.351  -3.481  0.00  0.00     0.174 A 
ATOM      3  C3  BZF d   1      -4.234   3.044  -3.589  0.00  0.00    -0.012 A 
ATOM      4  C3A BZF d   1      -3.127   2.343  -3.015  0.00  0.00    -0.107 A 
ATOM      5  C4  BZF d   1      -2.854   1.020  -2.816  0.00  0.00     0.055 A 
ATOM      6  C5  BZF d   1      -1.650   0.665  -2.295  0.00  0.00    -0.016 A 
ATOM      7  C6  BZF d   1      -0.695   1.605  -1.968  0.00  0.00     0.022 A 
ATOM      8  C7  BZF d   1      -0.922   2.930  -2.143  0.00  0.00     0.029 A 
ATOM      9  C7A BZF d   1      -2.150   3.294  -2.638  0.00  0.00     0.058 A 
ENDROOT
TORSDOF 0
ENDMDL
