MODEL 1
REMARK minimizedAffinity 8.98104382
REMARK minimizedRMSD -1
REMARK  0 active torsions:
REMARK  status: ('A' for Active; 'I' for Inactive)
ROOT
ATOM      1  O1  BZF d   1      -2.047  -0.864  -1.436  0.00  0.00    -0.204 OA
ATOM      2  C2  BZF d   1      -0.683  -0.737  -1.619  0.00  0.00     0.174 A 
ATOM      3  C3  BZF d   1      -0.383   0.456  -2.171  0.00  0.00    -0.012 A 
ATOM      4  C3A BZF d   1      -1.629   1.154  -2.258  0.00  0.00    -0.107 A 
ATOM      5  C4  BZF d   1      -1.980   2.395  -2.707  0.00  0.00     0.055 A 
ATOM      6  C5  BZF d   1      -3.293   2.744  -2.724  0.00  0.00    -0.016 A 
ATOM      7  C6  BZF d   1      -4.281   1.876  -2.306  0.00  0.00     0.022 A 
ATOM      8  C7  BZF d   1      -3.981   0.636  -1.848  0.00  0.00     0.029 A 
ATOM      9  C7A BZF d   1      -2.652   0.293  -1.798  0.00  0.00     0.058 A 
ENDROOT
TORSDOF 0
ENDMDL
