MODEL 1
REMARK minimizedAffinity -1.6214987
REMARK minimizedRMSD -1
REMARK  0 active torsions:
REMARK  status: ('A' for Active; 'I' for Inactive)
ROOT
ATOM      1  O1  BZF d   1       0.081   2.829  -1.237  0.00  0.00    -0.204 OA
ATOM      2  C2  BZF d   1      -0.384   1.528  -1.273  0.00  0.00     0.174 A 
ATOM      3  C3  BZF d   1      -0.218   0.928  -0.077  0.00  0.00    -0.012 A 
ATOM      4  C3A BZF d   1       0.303   1.944   0.785  0.00  0.00    -0.107 A 
ATOM      5  C4  BZF d   1       0.660   1.965   2.103  0.00  0.00     0.055 A 
ATOM      6  C5  BZF d   1       1.203   3.097   2.623  0.00  0.00    -0.016 A 
ATOM      7  C6  BZF d   1       1.410   4.223   1.852  0.00  0.00     0.022 A 
ATOM      8  C7  BZF d   1       1.068   4.251   0.541  0.00  0.00     0.029 A 
ATOM      9  C7A BZF d   1       0.488   3.120   0.022  0.00  0.00     0.058 A 
ENDROOT
TORSDOF 0
ENDMDL
