MODEL 1
REMARK minimizedAffinity 3.8267796
REMARK minimizedRMSD -1
REMARK  0 active torsions:
REMARK  status: ('A' for Active; 'I' for Inactive)
ROOT
ATOM      1  O1  BZF d   1      -5.986  -2.375   1.901  0.00  0.00    -0.204 OA
ATOM      2  C2  BZF d   1      -5.914  -1.131   1.306  0.00  0.00     0.174 A 
ATOM      3  C3  BZF d   1      -5.879  -0.156   2.237  0.00  0.00    -0.012 A 
ATOM      4  C3A BZF d   1      -5.839  -0.839   3.494  0.00  0.00    -0.107 A 
ATOM      5  C4  BZF d   1      -5.779  -0.415   4.791  0.00  0.00     0.055 A 
ATOM      6  C5  BZF d   1      -5.828  -1.335   5.790  0.00  0.00    -0.016 A 
ATOM      7  C6  BZF d   1      -5.942  -2.685   5.528  0.00  0.00     0.022 A 
ATOM      8  C7  BZF d   1      -6.000  -3.154   4.258  0.00  0.00     0.029 A 
ATOM      9  C7A BZF d   1      -5.917  -2.228   3.246  0.00  0.00     0.058 A 
ENDROOT
TORSDOF 0
ENDMDL
