MODEL 1
REMARK minimizedAffinity 2.54170394
REMARK minimizedRMSD -1
REMARK  0 active torsions:
REMARK  status: ('A' for Active; 'I' for Inactive)
ROOT
ATOM      1  O1  BZF d   1      -5.882  -0.378   0.898  0.00  0.00    -0.204 OA
ATOM      2  C2  BZF d   1      -5.988  -1.442   0.023  0.00  0.00     0.174 A 
ATOM      3  C3  BZF d   1      -5.996  -2.613   0.692  0.00  0.00    -0.012 A 
ATOM      4  C3A BZF d   1      -5.981  -2.255   2.077  0.00  0.00    -0.107 A 
ATOM      5  C4  BZF d   1      -5.994  -2.979   3.235  0.00  0.00     0.055 A 
ATOM      6  C5  BZF d   1      -5.898  -2.328   4.423  0.00  0.00    -0.016 A 
ATOM      7  C6  BZF d   1      -5.781  -0.955   4.491  0.00  0.00     0.022 A 
ATOM      8  C7  BZF d   1      -5.768  -0.193   3.370  0.00  0.00     0.029 A 
ATOM      9  C7A BZF d   1      -5.899  -0.846   2.169  0.00  0.00     0.058 A 
ENDROOT
TORSDOF 0
ENDMDL
