MODEL 1
REMARK minimizedAffinity 3.26426387
REMARK minimizedRMSD -1
REMARK  0 active torsions:
REMARK  status: ('A' for Active; 'I' for Inactive)
ROOT
ATOM      1  O1  BZF d   1       0.626   4.320   0.222  0.00  0.00    -0.204 OA
ATOM      2  C2  BZF d   1       0.318   4.623  -1.090  0.00  0.00     0.174 A 
ATOM      3  C3  BZF d   1      -0.117   3.527  -1.744  0.00  0.00    -0.012 A 
ATOM      4  C3A BZF d   1      -0.166   2.493  -0.756  0.00  0.00    -0.107 A 
ATOM      5  C4  BZF d   1      -0.534   1.179  -0.790  0.00  0.00     0.055 A 
ATOM      6  C5  BZF d   1      -0.396   0.425   0.332  0.00  0.00    -0.016 A 
ATOM      7  C6  BZF d   1       0.112   0.951   1.502  0.00  0.00     0.022 A 
ATOM      8  C7  BZF d   1       0.486   2.251   1.586  0.00  0.00     0.029 A 
ATOM      9  C7A BZF d   1       0.316   3.024   0.463  0.00  0.00     0.058 A 
ENDROOT
TORSDOF 0
ENDMDL
