MODEL 1
REMARK minimizedAffinity -2.77291298
REMARK minimizedRMSD -1
REMARK  2 active torsions:
REMARK  status: ('A' for Active; 'I' for Inactive)
REMARK    1  A    between atoms: C2'_3  and  C1'_4 
REMARK    2  A    between atoms: C1'_4  and  C1_5 
ROOT
ATOM      1  C1  I4B d   1       0.019   0.481  -0.147  0.00  0.00    -0.075 A 
ATOM      2  C2  I4B d   1       0.554   1.635   0.369  0.00  0.00     0.003 A 
ATOM      3  C3  I4B d   1       0.124   2.118   1.629  0.00  0.00     0.002 A 
ATOM      4  C4  I4B d   1      -0.871   1.448   2.311  0.00  0.00    -0.004 A 
ATOM      5  C5  I4B d   1      -1.396   0.266   1.797  0.00  0.00     0.002 A 
ATOM      6  C6  I4B d   1      -0.940  -0.228   0.566  0.00  0.00     0.003 A 
ENDROOT
BRANCH   1   7
ATOM      7  C1' I4B d   1       0.471   0.017  -1.495  0.00  0.00     0.060 C 
BRANCH   7   8
ATOM      8  C2' I4B d   1      -0.759  -0.188  -2.355  0.00  0.00    -0.013 C 
ATOM      9  C4' I4B d   1      -0.501   0.221  -3.782  0.00  0.00     0.013 C 
ATOM     10  C3' I4B d   1      -1.150  -1.633  -2.268  0.00  0.00     0.013 C 
ENDBRANCH   7   8
ENDBRANCH   1   7
TORSDOF 2
ENDMDL
