MODEL 1
REMARK minimizedAffinity -1.78224254
REMARK minimizedRMSD -1
REMARK  2 active torsions:
REMARK  status: ('A' for Active; 'I' for Inactive)
REMARK    1  A    between atoms: C2'_3  and  C1'_4 
REMARK    2  A    between atoms: C1'_4  and  C1_5 
ROOT
ATOM      1  C1  I4B d   1       0.479  -0.390  -2.812  0.00  0.00    -0.075 A 
ATOM      2  C2  I4B d   1      -0.405  -0.769  -3.791  0.00  0.00     0.003 A 
ATOM      3  C3  I4B d   1      -0.287  -0.242  -5.100  0.00  0.00     0.002 A 
ATOM      4  C4  I4B d   1       0.691   0.693  -5.371  0.00  0.00    -0.004 A 
ATOM      5  C5  I4B d   1       1.601   1.059  -4.383  0.00  0.00     0.002 A 
ATOM      6  C6  I4B d   1       1.502   0.505  -3.098  0.00  0.00     0.003 A 
ENDROOT
BRANCH   1   7
ATOM      7  C1' I4B d   1       0.306  -0.941  -1.432  0.00  0.00     0.060 C 
BRANCH   7   8
ATOM      8  C2' I4B d   1       1.232  -0.180  -0.505  0.00  0.00    -0.013 C 
ATOM      9  C4' I4B d   1       0.469   0.461   0.624  0.00  0.00     0.013 C 
ATOM     10  C3' I4B d   1       2.261  -1.140   0.013  0.00  0.00     0.013 C 
ENDBRANCH   7   8
ENDBRANCH   1   7
TORSDOF 2
ENDMDL
