MODEL 1
REMARK minimizedAffinity -0.347456366
REMARK minimizedRMSD -1
REMARK  2 active torsions:
REMARK  status: ('A' for Active; 'I' for Inactive)
REMARK    1  A    between atoms: C2'_3  and  C1'_4 
REMARK    2  A    between atoms: C1'_4  and  C1_5 
ROOT
ATOM      1  C1  I4B d   1       0.356   0.213   0.345  0.00  0.00    -0.075 A 
ATOM      2  C2  I4B d   1       1.275  -0.046   1.331  0.00  0.00     0.003 A 
ATOM      3  C3  I4B d   1       0.997   0.306   2.674  0.00  0.00     0.002 A 
ATOM      4  C4  I4B d   1      -0.182   0.955   2.976  0.00  0.00    -0.004 A 
ATOM      5  C5  I4B d   1      -1.123   1.196   1.979  0.00  0.00     0.002 A 
ATOM      6  C6  I4B d   1      -0.857   0.811   0.656  0.00  0.00     0.003 A 
ENDROOT
BRANCH   1   7
ATOM      7  C1' I4B d   1       0.697  -0.142  -1.068  0.00  0.00     0.060 C 
BRANCH   7   8
ATOM      8  C2' I4B d   1       0.411   1.067  -1.935  0.00  0.00    -0.013 C 
ATOM      9  C4' I4B d   1       1.686   1.737  -2.375  0.00  0.00     0.013 C 
ATOM     10  C3' I4B d   1      -0.396   0.611  -3.114  0.00  0.00     0.013 C 
ENDBRANCH   7   8
ENDBRANCH   1   7
TORSDOF 2
ENDMDL
