MODEL 1
REMARK minimizedAffinity -1.75862765
REMARK minimizedRMSD -1
REMARK  2 active torsions:
REMARK  status: ('A' for Active; 'I' for Inactive)
REMARK    1  A    between atoms: C2'_3  and  C1'_4 
REMARK    2  A    between atoms: C1'_4  and  C1_5 
ROOT
ATOM      1  C1  I4B d   1      -0.215   0.085  -0.402  0.00  0.00    -0.075 A 
ATOM      2  C2  I4B d   1      -1.521   0.255  -0.016  0.00  0.00     0.003 A 
ATOM      3  C3  I4B d   1      -1.824   0.735   1.282  0.00  0.00     0.002 A 
ATOM      4  C4  I4B d   1      -0.798   0.982   2.171  0.00  0.00    -0.004 A 
ATOM      5  C5  I4B d   1       0.526   0.830   1.770  0.00  0.00     0.002 A 
ATOM      6  C6  I4B d   1       0.820   0.391   0.471  0.00  0.00     0.003 A 
ENDROOT
BRANCH   1   7
ATOM      7  C1' I4B d   1       0.068  -0.455  -1.768  0.00  0.00     0.060 C 
BRANCH   7   8
ATOM      8  C2' I4B d   1       0.130   0.715  -2.729  0.00  0.00    -0.013 C 
ATOM      9  C4' I4B d   1       1.553   1.042  -3.100  0.00  0.00     0.013 C 
ATOM     10  C3' I4B d   1      -0.678   0.362  -3.942  0.00  0.00     0.013 C 
ENDBRANCH   7   8
ENDBRANCH   1   7
TORSDOF 2
ENDMDL
