MODEL 1
REMARK minimizedAffinity -3.2423234
REMARK minimizedRMSD -1
REMARK  2 active torsions:
REMARK  status: ('A' for Active; 'I' for Inactive)
REMARK    1  A    between atoms: C2'_3  and  C1'_4 
REMARK    2  A    between atoms: C1'_4  and  C1_5 
ROOT
ATOM      1  C1  I4B d   1       0.697   0.100  -1.953  0.00  0.00    -0.075 A 
ATOM      2  C2  I4B d   1      -0.346   0.157  -2.844  0.00  0.00     0.003 A 
ATOM      3  C3  I4B d   1      -0.186   0.817  -4.087  0.00  0.00     0.002 A 
ATOM      4  C4  I4B d   1       1.009   1.444  -4.374  0.00  0.00    -0.004 A 
ATOM      5  C5  I4B d   1       2.073   1.365  -3.479  0.00  0.00     0.002 A 
ATOM      6  C6  I4B d   1       1.920   0.678  -2.266  0.00  0.00     0.003 A 
ENDROOT
BRANCH   1   7
ATOM      7  C1' I4B d   1       0.483  -0.576  -0.636  0.00  0.00     0.060 C 
BRANCH   7   8
ATOM      8  C2' I4B d   1       0.558   0.480   0.449  0.00  0.00    -0.013 C 
ATOM      9  C4' I4B d   1      -0.782   0.681   1.106  0.00  0.00     0.013 C 
ATOM     10  C3' I4B d   1       1.591   0.047   1.446  0.00  0.00     0.013 C 
ENDBRANCH   7   8
ENDBRANCH   1   7
TORSDOF 2
ENDMDL
