MODEL 1
REMARK minimizedAffinity -4.30196142
REMARK minimizedRMSD -1
REMARK  2 active torsions:
REMARK  status: ('A' for Active; 'I' for Inactive)
REMARK    1  A    between atoms: C2'_3  and  C1'_4 
REMARK    2  A    between atoms: C1'_4  and  C1_5 
ROOT
ATOM      1  C1  I4B d   1       0.340  -0.283  -1.949  0.00  0.00    -0.075 A 
ATOM      2  C2  I4B d   1       1.631  -0.015  -2.330  0.00  0.00     0.003 A 
ATOM      3  C3  I4B d   1       1.900   0.500  -3.622  0.00  0.00     0.002 A 
ATOM      4  C4  I4B d   1       0.861   0.682  -4.511  0.00  0.00    -0.004 A 
ATOM      5  C5  I4B d   1      -0.450   0.431  -4.115  0.00  0.00     0.002 A 
ATOM      6  C6  I4B d   1      -0.713  -0.043  -2.821  0.00  0.00     0.003 A 
ENDROOT
BRANCH   1   7
ATOM      7  C1' I4B d   1       0.095  -0.857  -0.590  0.00  0.00     0.060 C 
BRANCH   7   8
ATOM      8  C2' I4B d   1       0.177   0.273   0.416  0.00  0.00    -0.013 C 
ATOM      9  C4' I4B d   1      -1.163   0.538   1.049  0.00  0.00     0.013 C 
ATOM     10  C3' I4B d   1       1.199  -0.099   1.449  0.00  0.00     0.013 C 
ENDBRANCH   7   8
ENDBRANCH   1   7
TORSDOF 2
ENDMDL
