MODEL 1
REMARK minimizedAffinity 4.75784063
REMARK minimizedRMSD -1
REMARK  1 active torsions:
REMARK  status: ('A' for Active; 'I' for Inactive)
REMARK    1  A    between atoms: C1_2  and  C2_3 
ROOT
ATOM      1  C2  UNL d   1      -5.101   2.287  -2.490  0.00  0.00    -0.073 A 
ATOM      2  C3  UNL d   1      -5.969   3.384  -2.539  0.00  0.00    -0.002 A 
ATOM      3  C4  UNL d   1      -5.822   4.356  -3.529  0.00  0.00     0.004 A 
ATOM      4  C5  UNL d   1      -4.812   4.238  -4.484  0.00  0.00    -0.004 A 
ATOM      5  C6  UNL d   1      -3.942   3.143  -4.459  0.00  0.00    -0.075 A 
ATOM      6  C7  UNL d   1      -2.849   3.003  -5.477  0.00  0.00     0.076 C 
ATOM      7  C8  UNL d   1      -4.095   2.173  -3.460  0.00  0.00     0.001 A 
ENDROOT
BRANCH   1   8
ATOM      8  C1  UNL d   1      -5.260   1.232  -1.426  0.00  0.00     0.053 C 
ATOM      9  C   UNL d   1      -3.922   0.799  -0.848  0.00  0.00     0.018 C 
ENDBRANCH   1   8
TORSDOF 1
ENDMDL
