MODEL 1
REMARK minimizedAffinity 1.33967578
REMARK minimizedRMSD -1
REMARK  1 active torsions:
REMARK  status: ('A' for Active; 'I' for Inactive)
REMARK    1  A    between atoms: C1_2  and  C2_3 
ROOT
ATOM      1  C2  UNL d   1      -1.929   1.877   0.109  0.00  0.00    -0.073 A 
ATOM      2  C3  UNL d   1      -2.964   0.935   0.127  0.00  0.00    -0.002 A 
ATOM      3  C4  UNL d   1      -4.075   1.123   0.950  0.00  0.00     0.004 A 
ATOM      4  C5  UNL d   1      -4.166   2.257   1.758  0.00  0.00    -0.004 A 
ATOM      5  C6  UNL d   1      -3.148   3.215   1.746  0.00  0.00    -0.075 A 
ATOM      6  C7  UNL d   1      -3.229   4.439   2.610  0.00  0.00     0.076 C 
ATOM      7  C8  UNL d   1      -2.034   3.018   0.918  0.00  0.00     0.001 A 
ENDROOT
BRANCH   1   8
ATOM      8  C1  UNL d   1      -0.731   1.681  -0.783  0.00  0.00     0.053 C 
ATOM      9  C   UNL d   1       0.459   2.511  -0.329  0.00  0.00     0.018 C 
ENDBRANCH   1   8
TORSDOF 1
ENDMDL
