MODEL 1
REMARK minimizedAffinity 5.30727386
REMARK minimizedRMSD -1
REMARK  1 active torsions:
REMARK  status: ('A' for Active; 'I' for Inactive)
REMARK    1  A    between atoms: C1_2  and  C2_3 
ROOT
ATOM      1  C2  UNL d   1       1.511   2.022   0.533  0.00  0.00    -0.073 A 
ATOM      2  C3  UNL d   1       2.754   2.567   0.190  0.00  0.00    -0.002 A 
ATOM      3  C4  UNL d   1       3.792   1.740  -0.241  0.00  0.00     0.004 A 
ATOM      4  C5  UNL d   1       3.597   0.363  -0.340  0.00  0.00    -0.004 A 
ATOM      5  C6  UNL d   1       2.359  -0.200  -0.014  0.00  0.00    -0.075 A 
ATOM      6  C7  UNL d   1       2.134  -1.680  -0.113  0.00  0.00     0.076 C 
ATOM      7  C8  UNL d   1       1.322   0.637   0.421  0.00  0.00     0.001 A 
ENDROOT
BRANCH   1   8
ATOM      8  C1  UNL d   1       0.385   2.912   0.992  0.00  0.00     0.053 C 
ATOM      9  C   UNL d   1      -0.453   2.255   2.077  0.00  0.00     0.018 C 
ENDBRANCH   1   8
TORSDOF 1
ENDMDL
