MODEL 1
REMARK minimizedAffinity 2.74769568
REMARK minimizedRMSD -1
REMARK  1 active torsions:
REMARK  status: ('A' for Active; 'I' for Inactive)
REMARK    1  A    between atoms: C1_2  and  C2_3 
ROOT
ATOM      1  C2  UNL d   1      -4.679   0.780  -2.884  0.00  0.00    -0.073 A 
ATOM      2  C3  UNL d   1      -3.322   0.623  -3.191  0.00  0.00    -0.002 A 
ATOM      3  C4  UNL d   1      -2.722   1.425  -4.162  0.00  0.00     0.004 A 
ATOM      4  C5  UNL d   1      -3.468   2.396  -4.830  0.00  0.00    -0.004 A 
ATOM      5  C6  UNL d   1      -4.822   2.576  -4.529  0.00  0.00    -0.075 A 
ATOM      6  C7  UNL d   1      -5.639   3.615  -5.240  0.00  0.00     0.076 C 
ATOM      7  C8  UNL d   1      -5.418   1.765  -3.555  0.00  0.00     0.001 A 
ENDROOT
BRANCH   1   8
ATOM      8  C1  UNL d   1      -5.330  -0.080  -1.832  0.00  0.00     0.053 C 
ATOM      9  C   UNL d   1      -5.246   0.548  -0.450  0.00  0.00     0.018 C 
ENDBRANCH   1   8
TORSDOF 1
ENDMDL
