MODEL 1
REMARK minimizedAffinity 4.73012114
REMARK minimizedRMSD -1
REMARK  1 active torsions:
REMARK  status: ('A' for Active; 'I' for Inactive)
REMARK    1  A    between atoms: C1_2  and  C2_3 
ROOT
ATOM      1  C2  UNL d   1       1.240   0.979  -0.417  0.00  0.00    -0.073 A 
ATOM      2  C3  UNL d   1       2.051   1.633   0.518  0.00  0.00    -0.002 A 
ATOM      3  C4  UNL d   1       3.146   0.976   1.082  0.00  0.00     0.004 A 
ATOM      4  C5  UNL d   1       3.445  -0.335   0.713  0.00  0.00    -0.004 A 
ATOM      5  C6  UNL d   1       2.653  -1.001  -0.228  0.00  0.00    -0.075 A 
ATOM      6  C7  UNL d   1       2.960  -2.413  -0.634  0.00  0.00     0.076 C 
ATOM      7  C8  UNL d   1       1.554  -0.336  -0.788  0.00  0.00     0.001 A 
ENDROOT
BRANCH   1   8
ATOM      8  C1  UNL d   1       0.061   1.685  -1.033  0.00  0.00     0.053 C 
ATOM      9  C   UNL d   1      -0.613   0.842  -2.105  0.00  0.00     0.018 C 
ENDBRANCH   1   8
TORSDOF 1
ENDMDL
