MODEL 1
REMARK minimizedAffinity 8.13782692
REMARK minimizedRMSD -1
REMARK  1 active torsions:
REMARK  status: ('A' for Active; 'I' for Inactive)
REMARK    1  A    between atoms: C1_2  and  C2_3 
ROOT
ATOM      1  C2  UNL d   1      -5.266   1.855  -2.716  0.00  0.00    -0.073 A 
ATOM      2  C3  UNL d   1      -4.807   3.021  -3.339  0.00  0.00    -0.002 A 
ATOM      3  C4  UNL d   1      -4.389   2.991  -4.670  0.00  0.00     0.004 A 
ATOM      4  C5  UNL d   1      -4.433   1.799  -5.393  0.00  0.00    -0.004 A 
ATOM      5  C6  UNL d   1      -4.901   0.626  -4.792  0.00  0.00    -0.075 A 
ATOM      6  C7  UNL d   1      -4.953  -0.665  -5.555  0.00  0.00     0.076 C 
ATOM      7  C8  UNL d   1      -5.316   0.664  -3.454  0.00  0.00     0.001 A 
ENDROOT
BRANCH   1   8
ATOM      8  C1  UNL d   1      -5.724   1.884  -1.280  0.00  0.00     0.053 C 
ATOM      9  C   UNL d   1      -5.278   0.648  -0.515  0.00  0.00     0.018 C 
ENDBRANCH   1   8
TORSDOF 1
ENDMDL
