MODEL 1
REMARK minimizedAffinity 1.27462828
REMARK minimizedRMSD -1
REMARK  0 active torsions:
REMARK  status: ('A' for Active; 'I' for Inactive)
ROOT
ATOM      1  C   UNL d   1       1.152  -3.359   2.117  0.00  0.00     0.020 A 
ATOM      2  C1  UNL d   1       0.056  -3.036   2.916  0.00  0.00     0.020 A 
ATOM      3  C2  UNL d   1      -0.709  -1.904   2.627  0.00  0.00     0.034 A 
ATOM      4  C3  UNL d   1      -0.379  -1.090   1.538  0.00  0.00     0.017 A 
ATOM      5  C4  UNL d   1       0.722  -1.414   0.737  0.00  0.00     0.017 A 
ATOM      6  C5  UNL d   1       1.485  -2.549   1.030  0.00  0.00     0.034 A 
ATOM      7 Cl   UNL d   1       1.192  -0.459  -0.624  0.00  0.00    -0.070 Cl
ATOM      8 Cl1  UNL d   1      -1.369   0.294   1.239  0.00  0.00    -0.070 Cl
ENDROOT
TORSDOF 0
ENDMDL
