MODEL 1
REMARK minimizedAffinity 7.89664745
REMARK minimizedRMSD -1
REMARK  0 active torsions:
REMARK  status: ('A' for Active; 'I' for Inactive)
ROOT
ATOM      1  C   UNL d   1      -1.343  -3.468   3.552  0.00  0.00     0.020 A 
ATOM      2  C1  UNL d   1      -0.098  -3.852   3.054  0.00  0.00     0.020 A 
ATOM      3  C2  UNL d   1       0.639  -2.970   2.262  0.00  0.00     0.034 A 
ATOM      4  C3  UNL d   1       0.133  -1.699   1.965  0.00  0.00     0.017 A 
ATOM      5  C4  UNL d   1      -1.117  -1.315   2.465  0.00  0.00     0.017 A 
ATOM      6  C5  UNL d   1      -1.851  -2.202   3.258  0.00  0.00     0.034 A 
ATOM      7 Cl   UNL d   1      -1.807   0.236   2.142  0.00  0.00    -0.070 Cl
ATOM      8 Cl1  UNL d   1       1.099  -0.660   0.979  0.00  0.00    -0.070 Cl
ENDROOT
TORSDOF 0
ENDMDL
