MODEL 1
REMARK minimizedAffinity 8.82565498
REMARK minimizedRMSD -1
REMARK  0 active torsions:
REMARK  status: ('A' for Active; 'I' for Inactive)
ROOT
ATOM      1  C   UNL d   1       2.760  -3.580   1.684  0.00  0.00     0.020 A 
ATOM      2  C1  UNL d   1       3.123  -3.363   0.355  0.00  0.00     0.020 A 
ATOM      3  C2  UNL d   1       2.538  -2.321  -0.367  0.00  0.00     0.034 A 
ATOM      4  C3  UNL d   1       1.587  -1.492   0.239  0.00  0.00     0.017 A 
ATOM      5  C4  UNL d   1       1.224  -1.710   1.573  0.00  0.00     0.017 A 
ATOM      6  C5  UNL d   1       1.813  -2.755   2.292  0.00  0.00     0.034 A 
ATOM      7 Cl   UNL d   1       0.059  -0.728   2.389  0.00  0.00    -0.070 Cl
ATOM      8 Cl1  UNL d   1       0.905  -0.222  -0.713  0.00  0.00    -0.070 Cl
ENDROOT
TORSDOF 0
ENDMDL
