MODEL 1
REMARK minimizedAffinity 0.735268414
REMARK minimizedRMSD -1
REMARK  0 active torsions:
REMARK  status: ('A' for Active; 'I' for Inactive)
ROOT
ATOM      1  C   UNL d   1       0.310   0.340  -0.004  0.00  0.00     0.020 A 
ATOM      2  C1  UNL d   1       1.242  -0.329  -0.797  0.00  0.00     0.020 A 
ATOM      3  C2  UNL d   1       1.749  -1.564  -0.386  0.00  0.00     0.034 A 
ATOM      4  C3  UNL d   1       1.324  -2.133   0.819  0.00  0.00     0.017 A 
ATOM      5  C4  UNL d   1       0.389  -1.461   1.614  0.00  0.00     0.017 A 
ATOM      6  C5  UNL d   1      -0.116  -0.225   1.198  0.00  0.00     0.034 A 
ATOM      7 Cl   UNL d   1      -0.183  -2.101   3.115  0.00  0.00    -0.070 Cl
ATOM      8 Cl1  UNL d   1       1.993  -3.663   1.265  0.00  0.00    -0.070 Cl
ENDROOT
TORSDOF 0
ENDMDL
