MODEL 1
REMARK minimizedAffinity 4.15390635
REMARK minimizedRMSD -1
REMARK  0 active torsions:
REMARK  status: ('A' for Active; 'I' for Inactive)
ROOT
ATOM      1  C   UNL d   1       1.014  -3.977   2.308  0.00  0.00     0.020 A 
ATOM      2  C1  UNL d   1      -0.050  -3.608   3.130  0.00  0.00     0.020 A 
ATOM      3  C2  UNL d   1      -0.684  -2.378   2.941  0.00  0.00     0.034 A 
ATOM      4  C3  UNL d   1      -0.254  -1.512   1.928  0.00  0.00     0.017 A 
ATOM      5  C4  UNL d   1       0.815  -1.884   1.104  0.00  0.00     0.017 A 
ATOM      6  C5  UNL d   1       1.445  -3.117   1.298  0.00  0.00     0.034 A 
ATOM      7 Cl   UNL d   1       1.402  -0.869  -0.166  0.00  0.00    -0.070 Cl
ATOM      8 Cl1  UNL d   1      -1.084  -0.007   1.751  0.00  0.00    -0.070 Cl
ENDROOT
TORSDOF 0
ENDMDL
