MODEL 1
REMARK minimizedAffinity -4.40809059
REMARK minimizedRMSD -1
REMARK  0 active torsions:
REMARK  status: ('A' for Active; 'I' for Inactive)
ROOT
ATOM      1  C   UNL d   1       3.129   2.326  -0.071  0.00  0.00     0.023 A 
ATOM      2  C1  UNL d   1       1.952   3.072  -0.009  0.00  0.00     0.003 A 
ATOM      3  C2  UNL d   1       0.723   2.427   0.148  0.00  0.00     0.048 A 
ATOM      4  C3  UNL d   1       0.679   1.037   0.244  0.00  0.00     0.023 A 
ATOM      5  C4  UNL d   1       1.854   0.287   0.183  0.00  0.00     0.048 A 
ATOM      6  C5  UNL d   1       3.080   0.936   0.024  0.00  0.00     0.003 A 
ATOM      7  I   UNL d   1      -1.149   0.075   0.478  0.00  0.00    -0.146 I 
ENDROOT
TORSDOF 0
ENDMDL
