MODEL 1
REMARK minimizedAffinity -3.7298162
REMARK minimizedRMSD -1
REMARK  0 active torsions:
REMARK  status: ('A' for Active; 'I' for Inactive)
ROOT
ATOM      1  C   UNL d   1       0.343   3.544   0.339  0.00  0.00     0.023 A 
ATOM      2  C1  UNL d   1       1.486   2.755   0.206  0.00  0.00     0.003 A 
ATOM      3  C2  UNL d   1       1.375   1.364   0.170  0.00  0.00     0.048 A 
ATOM      4  C3  UNL d   1       0.118   0.767   0.267  0.00  0.00     0.023 A 
ATOM      5  C4  UNL d   1      -1.028   1.552   0.399  0.00  0.00     0.048 A 
ATOM      6  C5  UNL d   1      -0.913   2.943   0.435  0.00  0.00     0.003 A 
ATOM      7  I   UNL d   1      -0.049  -1.304   0.214  0.00  0.00    -0.146 I 
ENDROOT
TORSDOF 0
ENDMDL
