MODEL 1
REMARK minimizedAffinity -3.70828462
REMARK minimizedRMSD -1
REMARK  0 active torsions:
REMARK  status: ('A' for Active; 'I' for Inactive)
ROOT
ATOM      1  C   UNL d   1       0.493   2.934   0.864  0.00  0.00     0.023 A 
ATOM      2  C1  UNL d   1       1.519   2.234   0.229  0.00  0.00     0.003 A 
ATOM      3  C2  UNL d   1       1.330   0.902  -0.144  0.00  0.00     0.048 A 
ATOM      4  C3  UNL d   1       0.113   0.276   0.120  0.00  0.00     0.023 A 
ATOM      5  C4  UNL d   1      -0.917   0.973   0.755  0.00  0.00     0.048 A 
ATOM      6  C5  UNL d   1      -0.723   2.304   1.127  0.00  0.00     0.003 A 
ATOM      7  I   UNL d   1      -0.171  -1.707  -0.434  0.00  0.00    -0.146 I 
ENDROOT
TORSDOF 0
ENDMDL
