MODEL 1
REMARK minimizedAffinity -4.75370312
REMARK minimizedRMSD -1
REMARK  0 active torsions:
REMARK  status: ('A' for Active; 'I' for Inactive)
ROOT
ATOM      1  C   UNL d   1       0.633   3.736   0.241  0.00  0.00     0.023 A 
ATOM      2  C1  UNL d   1      -0.609   3.211  -0.116  0.00  0.00     0.003 A 
ATOM      3  C2  UNL d   1      -0.789   1.829  -0.192  0.00  0.00     0.048 A 
ATOM      4  C3  UNL d   1       0.278   0.976   0.092  0.00  0.00     0.023 A 
ATOM      5  C4  UNL d   1       1.522   1.497   0.451  0.00  0.00     0.048 A 
ATOM      6  C5  UNL d   1       1.697   2.880   0.524  0.00  0.00     0.003 A 
ATOM      7  I   UNL d   1       0.013  -1.082  -0.019  0.00  0.00    -0.146 I 
ENDROOT
TORSDOF 0
ENDMDL
