MODEL 1
REMARK minimizedAffinity -2.40789771
REMARK minimizedRMSD -1
REMARK  0 active torsions:
REMARK  status: ('A' for Active; 'I' for Inactive)
ROOT
ATOM      1  C   UNL d   1      -1.119   2.761   0.876  0.00  0.00     0.023 A 
ATOM      2  C1  UNL d   1      -2.019   1.718   1.096  0.00  0.00     0.003 A 
ATOM      3  C2  UNL d   1      -1.656   0.405   0.791  0.00  0.00     0.048 A 
ATOM      4  C3  UNL d   1      -0.390   0.142   0.269  0.00  0.00     0.023 A 
ATOM      5  C4  UNL d   1       0.514   1.182   0.048  0.00  0.00     0.048 A 
ATOM      6  C5  UNL d   1       0.146   2.494   0.353  0.00  0.00     0.003 A 
ATOM      7  I   UNL d   1       0.154  -1.812  -0.185  0.00  0.00    -0.146 I 
ENDROOT
TORSDOF 0
ENDMDL
