MODEL 1
REMARK minimizedAffinity -3.93259692
REMARK minimizedRMSD -1
REMARK  0 active torsions:
REMARK  status: ('A' for Active; 'I' for Inactive)
ROOT
ATOM      1  C   UNL d   1      -0.107   3.276   0.181  0.00  0.00     0.023 A 
ATOM      2  C1  UNL d   1       0.822   2.682  -0.673  0.00  0.00     0.003 A 
ATOM      3  C2  UNL d   1       0.950   1.292  -0.711  0.00  0.00     0.048 A 
ATOM      4  C3  UNL d   1       0.144   0.501   0.108  0.00  0.00     0.023 A 
ATOM      5  C4  UNL d   1      -0.788   1.091   0.964  0.00  0.00     0.048 A 
ATOM      6  C5  UNL d   1      -0.911   2.481   0.999  0.00  0.00     0.003 A 
ATOM      7  I   UNL d   1       0.332  -1.568   0.054  0.00  0.00    -0.146 I 
ENDROOT
TORSDOF 0
ENDMDL
