MODEL 1
REMARK minimizedAffinity -1.64151227
REMARK minimizedRMSD -1
REMARK  0 active torsions:
REMARK  status: ('A' for Active; 'I' for Inactive)
ROOT
ATOM      1  C   UNL d   1       0.684   3.379   0.554  0.00  0.00     0.023 A 
ATOM      2  C1  UNL d   1      -0.499   2.797   1.008  0.00  0.00     0.003 A 
ATOM      3  C2  UNL d   1      -0.752   1.445   0.766  0.00  0.00     0.048 A 
ATOM      4  C3  UNL d   1       0.183   0.681   0.070  0.00  0.00     0.023 A 
ATOM      5  C4  UNL d   1       1.370   1.258  -0.386  0.00  0.00     0.048 A 
ATOM      6  C5  UNL d   1       1.618   2.610  -0.142  0.00  0.00     0.003 A 
ATOM      7  I   UNL d   1      -0.191  -1.332  -0.291  0.00  0.00    -0.146 I 
ENDROOT
TORSDOF 0
ENDMDL
