MODEL 1
REMARK minimizedAffinity -4.45921087
REMARK minimizedRMSD -1
REMARK  0 active torsions:
REMARK  status: ('A' for Active; 'I' for Inactive)
ROOT
ATOM      1  C   UNL d   1       0.491   3.489   0.586  0.00  0.00     0.023 A 
ATOM      2  C1  UNL d   1       1.585   2.641   0.755  0.00  0.00     0.003 A 
ATOM      3  C2  UNL d   1       1.466   1.280   0.468  0.00  0.00     0.048 A 
ATOM      4  C3  UNL d   1       0.249   0.773   0.011  0.00  0.00     0.023 A 
ATOM      5  C4  UNL d   1      -0.848   1.619  -0.160  0.00  0.00     0.048 A 
ATOM      6  C5  UNL d   1      -0.724   2.979   0.129  0.00  0.00     0.003 A 
ATOM      7  I   UNL d   1       0.069  -1.252  -0.417  0.00  0.00    -0.146 I 
ENDROOT
TORSDOF 0
ENDMDL
