MODEL 1
REMARK minimizedAffinity -5.47714567
REMARK minimizedRMSD -1
REMARK  0 active torsions:
REMARK  status: ('A' for Active; 'I' for Inactive)
ROOT
ATOM      1  C   UNL d   1       1.192   3.737   0.263  0.00  0.00     0.023 A 
ATOM      2  C1  UNL d   1      -0.122   3.271   0.321  0.00  0.00     0.003 A 
ATOM      3  C2  UNL d   1      -0.382   1.901   0.254  0.00  0.00     0.048 A 
ATOM      4  C3  UNL d   1       0.677   1.002   0.130  0.00  0.00     0.023 A 
ATOM      5  C4  UNL d   1       1.993   1.463   0.073  0.00  0.00     0.048 A 
ATOM      6  C5  UNL d   1       2.248   2.834   0.139  0.00  0.00     0.003 A 
ATOM      7  I   UNL d   1       0.293  -1.038   0.031  0.00  0.00    -0.146 I 
ENDROOT
TORSDOF 0
ENDMDL
