MODEL 1
REMARK minimizedAffinity -1.92231834
REMARK minimizedRMSD -1
REMARK  0 active torsions:
REMARK  status: ('A' for Active; 'I' for Inactive)
ROOT
ATOM      1  C   UNL d   1      -0.371   2.694   0.848  0.00  0.00     0.023 A 
ATOM      2  C1  UNL d   1       0.859   2.142   0.492  0.00  0.00     0.003 A 
ATOM      3  C2  UNL d   1       0.949   0.788   0.161  0.00  0.00     0.048 A 
ATOM      4  C3  UNL d   1      -0.196  -0.007   0.186  0.00  0.00     0.023 A 
ATOM      5  C4  UNL d   1      -1.430   0.542   0.540  0.00  0.00     0.048 A 
ATOM      6  C5  UNL d   1      -1.514   1.895   0.872  0.00  0.00     0.003 A 
ATOM      7  I   UNL d   1      -0.065  -2.022  -0.307  0.00  0.00    -0.146 I 
ENDROOT
TORSDOF 0
ENDMDL
