MODEL 1
REMARK minimizedAffinity -5.22565174
REMARK minimizedRMSD -1
REMARK  0 active torsions:
REMARK  status: ('A' for Active; 'I' for Inactive)
ROOT
ATOM      1  C   UNL d   1       0.250   3.731   0.175  0.00  0.00     0.023 A 
ATOM      2  C1  UNL d   1       1.363   2.936   0.448  0.00  0.00     0.003 A 
ATOM      3  C2  UNL d   1       1.275   1.547   0.337  0.00  0.00     0.048 A 
ATOM      4  C3  UNL d   1       0.070   0.960  -0.048  0.00  0.00     0.023 A 
ATOM      5  C4  UNL d   1      -1.046   1.751  -0.324  0.00  0.00     0.048 A 
ATOM      6  C5  UNL d   1      -0.953   3.139  -0.211  0.00  0.00     0.003 A 
ATOM      7  I   UNL d   1      -0.063  -1.108  -0.214  0.00  0.00    -0.146 I 
ENDROOT
TORSDOF 0
ENDMDL
