MODEL 1
REMARK minimizedAffinity -5.33064556
REMARK minimizedRMSD -1
REMARK  0 active torsions:
REMARK  status: ('A' for Active; 'I' for Inactive)
ROOT
ATOM      1  C   UNL d   1       1.432   3.468   0.101  0.00  0.00     0.023 A 
ATOM      2  C1  UNL d   1       2.334   2.458   0.438  0.00  0.00     0.003 A 
ATOM      3  C2  UNL d   1       1.916   1.126   0.458  0.00  0.00     0.048 A 
ATOM      4  C3  UNL d   1       0.596   0.810   0.138  0.00  0.00     0.023 A 
ATOM      5  C4  UNL d   1      -0.309   1.817  -0.201  0.00  0.00     0.048 A 
ATOM      6  C5  UNL d   1       0.113   3.148  -0.218  0.00  0.00     0.003 A 
ATOM      7  I   UNL d   1      -0.028  -1.172   0.166  0.00  0.00    -0.146 I 
ENDROOT
TORSDOF 0
ENDMDL
