MODEL 1
REMARK minimizedAffinity -2.76434445
REMARK minimizedRMSD -1
REMARK  0 active torsions:
REMARK  status: ('A' for Active; 'I' for Inactive)
ROOT
ATOM      1  C   UNL d   1      -1.036  -4.192  -1.351  0.00  0.00     0.023 A 
ATOM      2  C1  UNL d   1      -1.139  -3.653  -0.069  0.00  0.00     0.003 A 
ATOM      3  C2  UNL d   1      -0.472  -2.468   0.248  0.00  0.00     0.048 A 
ATOM      4  C3  UNL d   1       0.295  -1.826  -0.723  0.00  0.00     0.023 A 
ATOM      5  C4  UNL d   1       0.400  -2.360  -2.008  0.00  0.00     0.048 A 
ATOM      6  C5  UNL d   1      -0.268  -3.546  -2.320  0.00  0.00     0.003 A 
ATOM      7  I   UNL d   1       1.289  -0.061  -0.255  0.00  0.00    -0.146 I 
ENDROOT
TORSDOF 0
ENDMDL
