MODEL 1
REMARK minimizedAffinity -4.08141661
REMARK minimizedRMSD -1
REMARK  0 active torsions:
REMARK  status: ('A' for Active; 'I' for Inactive)
ROOT
ATOM      1  C   UNL d   1       0.572   3.460  -0.112  0.00  0.00     0.023 A 
ATOM      2  C1  UNL d   1      -0.674   2.927   0.222  0.00  0.00     0.003 A 
ATOM      3  C2  UNL d   1      -0.873   1.545   0.195  0.00  0.00     0.048 A 
ATOM      4  C3  UNL d   1       0.178   0.702  -0.166  0.00  0.00     0.023 A 
ATOM      5  C4  UNL d   1       1.426   1.231  -0.500  0.00  0.00     0.048 A 
ATOM      6  C5  UNL d   1       1.620   2.613  -0.472  0.00  0.00     0.003 A 
ATOM      7  I   UNL d   1      -0.117  -1.355  -0.207  0.00  0.00    -0.146 I 
ENDROOT
TORSDOF 0
ENDMDL
