MODEL 1
REMARK minimizedAffinity -3.21938491
REMARK minimizedRMSD -1
REMARK  0 active torsions:
REMARK  status: ('A' for Active; 'I' for Inactive)
ROOT
ATOM      1  C   UNL d   1       6.000   0.945  -3.752  0.00  0.00     0.078 C 
ATOM      2  C1  UNL d   1       5.109   2.152  -3.740  0.00  0.00    -0.077 A 
ATOM      3  C2  UNL d   1       5.541   3.362  -3.184  0.00  0.00    -0.001 A 
ATOM      4  C3  UNL d   1       4.698   4.474  -3.171  0.00  0.00     0.003 A 
ATOM      5  C4  UNL d   1       3.417   4.387  -3.713  0.00  0.00    -0.005 A 
ATOM      6  C5  UNL d   1       2.978   3.187  -4.267  0.00  0.00     0.003 A 
ATOM      7  C6  UNL d   1       3.820   2.073  -4.281  0.00  0.00    -0.001 A 
ENDROOT
TORSDOF 0
ENDMDL
