MODEL 1
REMARK minimizedAffinity 9.26769733
REMARK minimizedRMSD -1
REMARK  0 active torsions:
REMARK  status: ('A' for Active; 'I' for Inactive)
ROOT
ATOM      1  C   UNL d   1       2.139   2.852   1.716  0.00  0.00     0.078 C 
ATOM      2  C1  UNL d   1       1.138   3.758   1.063  0.00  0.00    -0.077 A 
ATOM      3  C2  UNL d   1       0.029   3.238   0.386  0.00  0.00    -0.001 A 
ATOM      4  C3  UNL d   1      -0.890   4.093  -0.225  0.00  0.00     0.003 A 
ATOM      5  C4  UNL d   1      -0.708   5.473  -0.166  0.00  0.00    -0.005 A 
ATOM      6  C5  UNL d   1       0.394   6.000   0.505  0.00  0.00     0.003 A 
ATOM      7  C6  UNL d   1       1.314   5.146   1.116  0.00  0.00    -0.001 A 
ENDROOT
TORSDOF 0
ENDMDL
