MODEL 1
REMARK minimizedAffinity -3.76015878
REMARK minimizedRMSD -1
REMARK  0 active torsions:
REMARK  status: ('A' for Active; 'I' for Inactive)
ROOT
ATOM      1  C   UNL d   1       1.142   0.099  -4.672  0.00  0.00     0.078 C 
ATOM      2  C1  UNL d   1       1.303  -0.323  -3.242  0.00  0.00    -0.077 A 
ATOM      3  C2  UNL d   1       2.503  -0.883  -2.787  0.00  0.00    -0.001 A 
ATOM      4  C3  UNL d   1       2.636  -1.281  -1.455  0.00  0.00     0.003 A 
ATOM      5  C4  UNL d   1       1.573  -1.123  -0.568  0.00  0.00    -0.005 A 
ATOM      6  C5  UNL d   1       0.374  -0.569  -1.013  0.00  0.00     0.003 A 
ATOM      7  C6  UNL d   1       0.239  -0.171  -2.344  0.00  0.00    -0.001 A 
ENDROOT
TORSDOF 0
ENDMDL
