MODEL 1
REMARK minimizedAffinity -4.92981577
REMARK minimizedRMSD -1
REMARK  0 active torsions:
REMARK  status: ('A' for Active; 'I' for Inactive)
ROOT
ATOM      1  C   UNL d   1       1.563  -2.967  -5.204  0.00  0.00     0.078 C 
ATOM      2  C1  UNL d   1       1.600  -2.024  -4.038  0.00  0.00    -0.077 A 
ATOM      3  C2  UNL d   1       1.752  -2.501  -2.730  0.00  0.00    -0.001 A 
ATOM      4  C3  UNL d   1       1.775  -1.612  -1.654  0.00  0.00     0.003 A 
ATOM      5  C4  UNL d   1       1.647  -0.242  -1.874  0.00  0.00    -0.005 A 
ATOM      6  C5  UNL d   1       1.493   0.241  -3.172  0.00  0.00     0.003 A 
ATOM      7  C6  UNL d   1       1.470  -0.646  -4.250  0.00  0.00    -0.001 A 
ENDROOT
TORSDOF 0
ENDMDL
