MODEL 1
REMARK minimizedAffinity -0.607732594
REMARK minimizedRMSD -1
REMARK  0 active torsions:
REMARK  status: ('A' for Active; 'I' for Inactive)
ROOT
ATOM      1  C   UNL d   1       1.497   0.424  -4.139  0.00  0.00     0.078 C 
ATOM      2  C1  UNL d   1       1.227  -0.269  -2.837  0.00  0.00    -0.077 A 
ATOM      3  C2  UNL d   1       1.754  -1.540  -2.574  0.00  0.00    -0.001 A 
ATOM      4  C3  UNL d   1       1.487  -2.178  -1.362  0.00  0.00     0.003 A 
ATOM      5  C4  UNL d   1       0.692  -1.553  -0.403  0.00  0.00    -0.005 A 
ATOM      6  C5  UNL d   1       0.162  -0.290  -0.656  0.00  0.00     0.003 A 
ATOM      7  C6  UNL d   1       0.428   0.350  -1.868  0.00  0.00    -0.001 A 
ENDROOT
TORSDOF 0
ENDMDL
