MODEL 1
REMARK minimizedAffinity -4.18706417
REMARK minimizedRMSD -1
REMARK  0 active torsions:
REMARK  status: ('A' for Active; 'I' for Inactive)
ROOT
ATOM      1  C   UNL d   1       1.156   1.574  -2.894  0.00  0.00     0.078 C 
ATOM      2  C1  UNL d   1       0.784   0.601  -1.816  0.00  0.00    -0.077 A 
ATOM      3  C2  UNL d   1       1.502  -0.588  -1.638  0.00  0.00    -0.001 A 
ATOM      4  C3  UNL d   1       1.139  -1.490  -0.636  0.00  0.00     0.003 A 
ATOM      5  C4  UNL d   1       0.056  -1.212   0.195  0.00  0.00    -0.005 A 
ATOM      6  C5  UNL d   1      -0.666  -0.033   0.025  0.00  0.00     0.003 A 
ATOM      7  C6  UNL d   1      -0.304   0.870  -0.976  0.00  0.00    -0.001 A 
ENDROOT
TORSDOF 0
ENDMDL
