MODEL 1
REMARK minimizedAffinity -3.95860338
REMARK minimizedRMSD -1
REMARK  0 active torsions:
REMARK  status: ('A' for Active; 'I' for Inactive)
ROOT
ATOM      1  C   UNL d   1       5.250   2.655   3.914  0.00  0.00     0.078 C 
ATOM      2  C1  UNL d   1       5.350   1.208   4.292  0.00  0.00    -0.077 A 
ATOM      3  C2  UNL d   1       5.534   0.219   3.318  0.00  0.00    -0.001 A 
ATOM      4  C3  UNL d   1       5.615  -1.126   3.684  0.00  0.00     0.003 A 
ATOM      5  C4  UNL d   1       5.512  -1.494   5.023  0.00  0.00    -0.005 A 
ATOM      6  C5  UNL d   1       5.326  -0.517   6.000  0.00  0.00     0.003 A 
ATOM      7  C6  UNL d   1       5.245   0.828   5.636  0.00  0.00    -0.001 A 
ENDROOT
TORSDOF 0
ENDMDL
