MODEL 1
REMARK minimizedAffinity -0.929890156
REMARK minimizedRMSD -1
REMARK  0 active torsions:
REMARK  status: ('A' for Active; 'I' for Inactive)
ROOT
ATOM      1  C   UNL d   1      -0.815   1.243  -0.511  0.00  0.00     0.078 C 
ATOM      2  C1  UNL d   1       0.020   0.120  -1.050  0.00  0.00    -0.077 A 
ATOM      3  C2  UNL d   1       0.136  -1.090  -0.354  0.00  0.00    -0.001 A 
ATOM      4  C3  UNL d   1       0.925  -2.124  -0.863  0.00  0.00     0.003 A 
ATOM      5  C4  UNL d   1       1.603  -1.958  -2.069  0.00  0.00    -0.005 A 
ATOM      6  C5  UNL d   1       1.495  -0.756  -2.767  0.00  0.00     0.003 A 
ATOM      7  C6  UNL d   1       0.708   0.278  -2.259  0.00  0.00    -0.001 A 
ENDROOT
TORSDOF 0
ENDMDL
