MODEL 1
REMARK minimizedAffinity -3.10037088
REMARK minimizedRMSD -1
REMARK  0 active torsions:
REMARK  status: ('A' for Active; 'I' for Inactive)
ROOT
ATOM      1  C   UNL d   1      -1.875   0.300   2.951  0.00  0.00     0.078 C 
ATOM      2  C1  UNL d   1      -1.113  -0.062   1.711  0.00  0.00    -0.077 A 
ATOM      3  C2  UNL d   1      -1.324  -1.288   1.067  0.00  0.00    -0.001 A 
ATOM      4  C3  UNL d   1      -0.601  -1.615  -0.081  0.00  0.00     0.003 A 
ATOM      5  C4  UNL d   1       0.339  -0.724  -0.595  0.00  0.00    -0.005 A 
ATOM      6  C5  UNL d   1       0.557   0.497   0.040  0.00  0.00     0.003 A 
ATOM      7  C6  UNL d   1      -0.165   0.827   1.188  0.00  0.00    -0.001 A 
ENDROOT
TORSDOF 0
ENDMDL
