MODEL 1
REMARK minimizedAffinity -3.63403249
REMARK minimizedRMSD -1
REMARK  0 active torsions:
REMARK  status: ('A' for Active; 'I' for Inactive)
ROOT
ATOM      1  C   UNL d   1       0.885   0.360  -3.651  0.00  0.00     0.078 C 
ATOM      2  C1  UNL d   1       0.735  -0.306  -2.316  0.00  0.00    -0.077 A 
ATOM      3  C2  UNL d   1       0.064   0.329  -1.263  0.00  0.00    -0.001 A 
ATOM      4  C3  UNL d   1      -0.060  -0.299  -0.023  0.00  0.00     0.003 A 
ATOM      5  C4  UNL d   1       0.486  -1.565   0.177  0.00  0.00    -0.005 A 
ATOM      6  C5  UNL d   1       1.157  -2.205  -0.863  0.00  0.00     0.003 A 
ATOM      7  C6  UNL d   1       1.281  -1.578  -2.104  0.00  0.00    -0.001 A 
ENDROOT
TORSDOF 0
ENDMDL
