MODEL 1
REMARK minimizedAffinity 1.81434083
REMARK minimizedRMSD -1
REMARK  0 active torsions:
REMARK  status: ('A' for Active; 'I' for Inactive)
ROOT
ATOM      1  C   UNL d   1       1.785  -1.253  -2.363  0.00  0.00     0.078 C 
ATOM      2  C1  UNL d   1       0.738  -1.243  -1.289  0.00  0.00    -0.077 A 
ATOM      3  C2  UNL d   1      -0.032  -0.099  -1.044  0.00  0.00    -0.001 A 
ATOM      4  C3  UNL d   1      -0.996  -0.101  -0.035  0.00  0.00     0.003 A 
ATOM      5  C4  UNL d   1      -1.198  -1.242   0.738  0.00  0.00    -0.005 A 
ATOM      6  C5  UNL d   1      -0.436  -2.384   0.502  0.00  0.00     0.003 A 
ATOM      7  C6  UNL d   1       0.529  -2.385  -0.506  0.00  0.00    -0.001 A 
ENDROOT
TORSDOF 0
ENDMDL
