MODEL 1
REMARK minimizedAffinity -3.73796034
REMARK minimizedRMSD -1
REMARK  0 active torsions:
REMARK  status: ('A' for Active; 'I' for Inactive)
ROOT
ATOM      1  C   UNL d   1      -1.450   0.658   0.106  0.00  0.00     0.078 C 
ATOM      2  C1  UNL d   1      -0.395   0.316  -0.904  0.00  0.00    -0.077 A 
ATOM      3  C2  UNL d   1      -0.072   1.204  -1.937  0.00  0.00    -0.001 A 
ATOM      4  C3  UNL d   1       0.905   0.868  -2.876  0.00  0.00     0.003 A 
ATOM      5  C4  UNL d   1       1.566  -0.356  -2.791  0.00  0.00    -0.005 A 
ATOM      6  C5  UNL d   1       1.249  -1.246  -1.767  0.00  0.00     0.003 A 
ATOM      7  C6  UNL d   1       0.273  -0.913  -0.828  0.00  0.00    -0.001 A 
ENDROOT
TORSDOF 0
ENDMDL
