MODEL 1
REMARK minimizedAffinity -3.80890107
REMARK minimizedRMSD -1
REMARK  0 active torsions:
REMARK  status: ('A' for Active; 'I' for Inactive)
ROOT
ATOM      1  C   UNL d   1       0.754  -1.838  -0.054  0.00  0.00     0.078 C 
ATOM      2  C1  UNL d   1       0.093  -0.545  -0.425  0.00  0.00    -0.077 A 
ATOM      3  C2  UNL d   1      -1.228  -0.275  -0.044  0.00  0.00    -0.001 A 
ATOM      4  C3  UNL d   1      -1.834   0.930  -0.405  0.00  0.00     0.003 A 
ATOM      5  C4  UNL d   1      -1.128   1.873  -1.149  0.00  0.00    -0.005 A 
ATOM      6  C5  UNL d   1       0.185   1.612  -1.534  0.00  0.00     0.003 A 
ATOM      7  C6  UNL d   1       0.793   0.409  -1.174  0.00  0.00    -0.001 A 
ENDROOT
TORSDOF 0
ENDMDL
