MODEL 1
REMARK minimizedAffinity -2.75302744
REMARK minimizedRMSD -1
REMARK  0 active torsions:
REMARK  status: ('A' for Active; 'I' for Inactive)
ROOT
ATOM      1  C   UNL d   1       1.408   0.881  -4.128  0.00  0.00     0.078 C 
ATOM      2  C1  UNL d   1       1.191   0.184  -2.818  0.00  0.00    -0.077 A 
ATOM      3  C2  UNL d   1       0.340   0.725  -1.846  0.00  0.00    -0.001 A 
ATOM      4  C3  UNL d   1       0.154   0.070  -0.627  0.00  0.00     0.003 A 
ATOM      5  C4  UNL d   1       0.817  -1.128  -0.369  0.00  0.00    -0.005 A 
ATOM      6  C5  UNL d   1       1.667  -1.672  -1.329  0.00  0.00     0.003 A 
ATOM      7  C6  UNL d   1       1.854  -1.019  -2.548  0.00  0.00    -0.001 A 
ENDROOT
TORSDOF 0
ENDMDL
