MODEL 1
REMARK minimizedAffinity -3.35239601
REMARK minimizedRMSD -1
REMARK  0 active torsions:
REMARK  status: ('A' for Active; 'I' for Inactive)
ROOT
ATOM      1  C   UNL d   1       0.037  -2.134  -0.293  0.00  0.00     0.078 C 
ATOM      2  C1  UNL d   1       0.106  -0.636  -0.313  0.00  0.00    -0.077 A 
ATOM      3  C2  UNL d   1       0.231   0.096   0.875  0.00  0.00    -0.001 A 
ATOM      4  C3  UNL d   1       0.284   1.490   0.843  0.00  0.00     0.003 A 
ATOM      5  C4  UNL d   1       0.212   2.165  -0.374  0.00  0.00    -0.005 A 
ATOM      6  C5  UNL d   1       0.085   1.446  -1.561  0.00  0.00     0.003 A 
ATOM      7  C6  UNL d   1       0.032   0.052  -1.531  0.00  0.00    -0.001 A 
ENDROOT
TORSDOF 0
ENDMDL
