MODEL 1
REMARK minimizedAffinity -3.95316648
REMARK minimizedRMSD -1
REMARK  2 active torsions:
REMARK  status: ('A' for Active; 'I' for Inactive)
REMARK    1  A    between atoms: C1_2  and  C2_3 
REMARK    2  A    between atoms: C2_3  and  C3_4 
ROOT
ATOM      1  C3  UNL d   1       0.556  -0.359  -0.591  0.00  0.00    -0.075 A 
ATOM      2  C4  UNL d   1       1.341   0.142   0.457  0.00  0.00     0.002 A 
ATOM      3  C5  UNL d   1       0.752   0.841   1.511  0.00  0.00     0.002 A 
ATOM      4  C6  UNL d   1      -0.625   1.055   1.526  0.00  0.00    -0.004 A 
ATOM      5  C7  UNL d   1      -1.412   0.576   0.481  0.00  0.00     0.002 A 
ATOM      6  C8  UNL d   1      -0.826  -0.127  -0.573  0.00  0.00     0.002 A 
ENDROOT
BRANCH   1   7
ATOM      7  C2  UNL d   1       1.183  -1.142  -1.720  0.00  0.00     0.056 C 
BRANCH   7   8
ATOM      8  C1  UNL d   1       0.761  -0.671  -3.116  0.00  0.00     0.007 C 
ATOM      9  C   UNL d   1       1.881   0.024  -3.880  0.00  0.00     0.009 C 
ENDBRANCH   7   8
ENDBRANCH   1   7
TORSDOF 2
ENDMDL
