MODEL 1
REMARK minimizedAffinity -3.28436899
REMARK minimizedRMSD -1
REMARK  2 active torsions:
REMARK  status: ('A' for Active; 'I' for Inactive)
REMARK    1  A    between atoms: C1_2  and  C2_3 
REMARK    2  A    between atoms: C2_3  and  C3_4 
ROOT
ATOM      1  C3  UNL d   1      -0.222   0.231   1.086  0.00  0.00    -0.075 A 
ATOM      2  C4  UNL d   1       1.008  -0.265   1.543  0.00  0.00     0.002 A 
ATOM      3  C5  UNL d   1       1.262  -0.378   2.910  0.00  0.00     0.002 A 
ATOM      4  C6  UNL d   1       0.297   0.011   3.836  0.00  0.00    -0.004 A 
ATOM      5  C7  UNL d   1      -0.922   0.521   3.394  0.00  0.00     0.002 A 
ATOM      6  C8  UNL d   1      -1.181   0.632   2.027  0.00  0.00     0.002 A 
ENDROOT
BRANCH   1   7
ATOM      7  C2  UNL d   1      -0.515   0.329  -0.392  0.00  0.00     0.056 C 
BRANCH   7   8
ATOM      8  C1  UNL d   1       0.315  -0.626  -1.256  0.00  0.00     0.007 C 
ATOM      9  C   UNL d   1       0.528  -0.119  -2.676  0.00  0.00     0.009 C 
ENDBRANCH   7   8
ENDBRANCH   1   7
TORSDOF 2
ENDMDL
