MODEL 1
REMARK minimizedAffinity -3.67734957
REMARK minimizedRMSD -1
REMARK  2 active torsions:
REMARK  status: ('A' for Active; 'I' for Inactive)
REMARK    1  A    between atoms: C1_2  and  C2_3 
REMARK    2  A    between atoms: C2_3  and  C3_4 
ROOT
ATOM      1  C3  UNL d   1       0.457  -0.268   0.012  0.00  0.00    -0.075 A 
ATOM      2  C4  UNL d   1      -0.923  -0.020  -0.025  0.00  0.00     0.002 A 
ATOM      3  C5  UNL d   1      -1.562   0.592   1.054  0.00  0.00     0.002 A 
ATOM      4  C6  UNL d   1      -0.834   0.955   2.184  0.00  0.00    -0.004 A 
ATOM      5  C7  UNL d   1       0.535   0.698   2.239  0.00  0.00     0.002 A 
ATOM      6  C8  UNL d   1       1.178   0.090   1.159  0.00  0.00     0.002 A 
ENDROOT
BRANCH   1   7
ATOM      7  C2  UNL d   1       1.160  -0.903  -1.164  0.00  0.00     0.056 C 
BRANCH   7   8
ATOM      8  C1  UNL d   1       0.420  -0.738  -2.496  0.00  0.00     0.007 C 
ATOM      9  C   UNL d   1       1.194   0.089  -3.513  0.00  0.00     0.009 C 
ENDBRANCH   7   8
ENDBRANCH   1   7
TORSDOF 2
ENDMDL
