MODEL 1
REMARK minimizedAffinity -4.8573184
REMARK minimizedRMSD -1
REMARK  2 active torsions:
REMARK  status: ('A' for Active; 'I' for Inactive)
REMARK    1  A    between atoms: C1_2  and  C2_3 
REMARK    2  A    between atoms: C2_3  and  C3_4 
ROOT
ATOM      1  C3  UNL d   1      -0.097  -0.058  -0.100  0.00  0.00    -0.075 A 
ATOM      2  C4  UNL d   1      -1.435   0.109   0.285  0.00  0.00     0.002 A 
ATOM      3  C5  UNL d   1      -1.751   0.693   1.512  0.00  0.00     0.002 A 
ATOM      4  C6  UNL d   1      -0.737   1.107   2.372  0.00  0.00    -0.004 A 
ATOM      5  C7  UNL d   1       0.596   0.931   2.007  0.00  0.00     0.002 A 
ATOM      6  C8  UNL d   1       0.916   0.351   0.778  0.00  0.00     0.002 A 
ENDROOT
BRANCH   1   7
ATOM      7  C2  UNL d   1       0.252  -0.662  -1.439  0.00  0.00     0.056 C 
BRANCH   7   8
ATOM      8  C1  UNL d   1       0.632   0.368  -2.508  0.00  0.00     0.007 C 
ATOM      9  C   UNL d   1       0.736  -0.227  -3.906  0.00  0.00     0.009 C 
ENDBRANCH   7   8
ENDBRANCH   1   7
TORSDOF 2
ENDMDL
