MODEL 1
REMARK minimizedAffinity 10.658762
REMARK minimizedRMSD -1
REMARK  0 active torsions:
REMARK  status: ('A' for Active; 'I' for Inactive)
ROOT
ATOM      1  C4' PXY d   1       1.121  -0.914   1.543  0.00  0.00     0.077 C 
ATOM      2  C1' PXY d   1       3.328  -6.000  -0.094  0.00  0.00     0.077 C 
ATOM      3  C1  PXY d   1       2.760  -4.663   0.342  0.00  0.00    -0.082 A 
ATOM      4  C2  PXY d   1       1.449  -4.491   0.379  0.00  0.00     0.003 A 
ATOM      5  C3  PXY d   1       0.919  -3.279   0.740  0.00  0.00     0.003 A 
ATOM      6  C4  PXY d   1       1.739  -2.249   1.119  0.00  0.00    -0.082 A 
ATOM      7  C5  PXY d   1       3.077  -2.421   1.094  0.00  0.00     0.003 A 
ATOM      8  C6  PXY d   1       3.596  -3.646   0.685  0.00  0.00     0.003 A 
ENDROOT
TORSDOF 0
ENDMDL
