MODEL 1
REMARK minimizedAffinity 15.1715508
REMARK minimizedRMSD -1
REMARK  0 active torsions:
REMARK  status: ('A' for Active; 'I' for Inactive)
ROOT
ATOM      1  C4' PXY d   1       5.997   5.999   0.594  0.00  0.00     0.077 C 
ATOM      2  C1' PXY d   1       5.650   0.245   0.166  0.00  0.00     0.077 C 
ATOM      3  C1  PXY d   1       5.737   1.753   0.290  0.00  0.00    -0.082 A 
ATOM      4  C2  PXY d   1       5.635   2.506  -0.793  0.00  0.00     0.003 A 
ATOM      5  C3  PXY d   1       5.744   3.870  -0.702  0.00  0.00     0.003 A 
ATOM      6  C4  PXY d   1       5.906   4.473   0.516  0.00  0.00    -0.082 A 
ATOM      7  C5  PXY d   1       6.000   3.712   1.627  0.00  0.00     0.003 A 
ATOM      8  C6  PXY d   1       5.928   2.327   1.509  0.00  0.00     0.003 A 
ENDROOT
TORSDOF 0
ENDMDL
