MODEL 1
REMARK minimizedAffinity 13.28197
REMARK minimizedRMSD -1
REMARK  0 active torsions:
REMARK  status: ('A' for Active; 'I' for Inactive)
ROOT
ATOM      1  C4' PXY d   1       4.200  -2.327   4.659  0.00  0.00     0.077 C 
ATOM      2  C1' PXY d   1       0.394  -1.275   0.438  0.00  0.00     0.077 C 
ATOM      3  C1  PXY d   1       1.395  -1.562   1.539  0.00  0.00    -0.082 A 
ATOM      4  C2  PXY d   1       1.238  -1.004   2.728  0.00  0.00     0.003 A 
ATOM      5  C3  PXY d   1       2.151  -1.227   3.726  0.00  0.00     0.003 A 
ATOM      6  C4  PXY d   1       3.209  -2.073   3.521  0.00  0.00    -0.082 A 
ATOM      7  C5  PXY d   1       3.371  -2.654   2.313  0.00  0.00     0.003 A 
ATOM      8  C6  PXY d   1       2.455  -2.382   1.301  0.00  0.00     0.003 A 
ENDROOT
TORSDOF 0
ENDMDL
