MODEL 1
REMARK minimizedAffinity 5.22467756
REMARK minimizedRMSD -1
REMARK  0 active torsions:
REMARK  status: ('A' for Active; 'I' for Inactive)
ROOT
ATOM      1  C4' PXY d   1       1.911  -5.297  -0.054  0.00  0.00     0.077 C 
ATOM      2  C1' PXY d   1       1.828  -0.068   2.410  0.00  0.00     0.077 C 
ATOM      3  C1  PXY d   1       1.837  -1.440   1.765  0.00  0.00    -0.082 A 
ATOM      4  C2  PXY d   1       2.933  -2.180   1.816  0.00  0.00     0.003 A 
ATOM      5  C3  PXY d   1       2.968  -3.409   1.210  0.00  0.00     0.003 A 
ATOM      6  C4  PXY d   1       1.853  -3.910   0.592  0.00  0.00    -0.082 A 
ATOM      7  C5  PXY d   1       0.728  -3.165   0.546  0.00  0.00     0.003 A 
ATOM      8  C6  PXY d   1       0.726  -1.903   1.131  0.00  0.00     0.003 A 
ENDROOT
TORSDOF 0
ENDMDL
