MODEL 1
REMARK minimizedAffinity 13.4956923
REMARK minimizedRMSD -1
REMARK  0 active torsions:
REMARK  status: ('A' for Active; 'I' for Inactive)
ROOT
ATOM      1  C4' PXY d   1       2.682  -1.501   3.468  0.00  0.00     0.077 C 
ATOM      2  C1' PXY d   1       6.000  -5.514   5.979  0.00  0.00     0.077 C 
ATOM      3  C1  PXY d   1       5.127  -4.470   5.311  0.00  0.00    -0.082 A 
ATOM      4  C2  PXY d   1       5.306  -3.190   5.594  0.00  0.00     0.003 A 
ATOM      5  C3  PXY d   1       4.505  -2.235   5.023  0.00  0.00     0.003 A 
ATOM      6  C4  PXY d   1       3.546  -2.589   4.112  0.00  0.00    -0.082 A 
ATOM      7  C5  PXY d   1       3.364  -3.893   3.810  0.00  0.00     0.003 A 
ATOM      8  C6  PXY d   1       4.161  -4.850   4.432  0.00  0.00     0.003 A 
ENDROOT
TORSDOF 0
ENDMDL
