MODEL 1
REMARK minimizedAffinity 9.03778267
REMARK minimizedRMSD -1
REMARK  0 active torsions:
REMARK  status: ('A' for Active; 'I' for Inactive)
ROOT
ATOM      1  C4' PXY d   1       2.496  -5.239  -0.249  0.00  0.00     0.077 C 
ATOM      2  C1' PXY d   1       1.231  -0.116   2.110  0.00  0.00     0.077 C 
ATOM      3  C1  PXY d   1       1.550  -1.463   1.493  0.00  0.00    -0.082 A 
ATOM      4  C2  PXY d   1       2.786  -1.933   1.552  0.00  0.00     0.003 A 
ATOM      5  C3  PXY d   1       3.099  -3.135   0.970  0.00  0.00     0.003 A 
ATOM      6  C4  PXY d   1       2.126  -3.888   0.369  0.00  0.00    -0.082 A 
ATOM      7  C5  PXY d   1       0.861  -3.420   0.315  0.00  0.00     0.003 A 
ATOM      8  C6  PXY d   1       0.572  -2.179   0.874  0.00  0.00     0.003 A 
ENDROOT
TORSDOF 0
ENDMDL
