MODEL 1
REMARK minimizedAffinity 10.0022326
REMARK minimizedRMSD -1
REMARK  0 active torsions:
REMARK  status: ('A' for Active; 'I' for Inactive)
ROOT
ATOM      1  C4' PXY d   1       4.245  -2.080   1.012  0.00  0.00     0.077 C 
ATOM      2  C1' PXY d   1      -1.487  -2.097   1.759  0.00  0.00     0.077 C 
ATOM      3  C1  PXY d   1       0.016  -2.106   1.561  0.00  0.00    -0.082 A 
ATOM      4  C2  PXY d   1       0.750  -1.137   2.085  0.00  0.00     0.003 A 
ATOM      5  C3  PXY d   1       2.107  -1.112   1.889  0.00  0.00     0.003 A 
ATOM      6  C4  PXY d   1       2.725  -2.117   1.194  0.00  0.00    -0.082 A 
ATOM      7  C5  PXY d   1       1.984  -3.114   0.666  0.00  0.00     0.003 A 
ATOM      8  C6  PXY d   1       0.604  -3.100   0.842  0.00  0.00     0.003 A 
ENDROOT
TORSDOF 0
ENDMDL
