MODEL 1
REMARK minimizedAffinity 4.13840771
REMARK minimizedRMSD -1
REMARK  0 active torsions:
REMARK  status: ('A' for Active; 'I' for Inactive)
ROOT
ATOM      1  C4' PXY d   1       5.986   5.002  -5.993  0.00  0.00     0.077 C 
ATOM      2  C1' PXY d   1       0.404   4.872  -4.497  0.00  0.00     0.077 C 
ATOM      3  C1  PXY d   1       1.865   4.914  -4.900  0.00  0.00    -0.082 A 
ATOM      4  C2  PXY d   1       2.672   3.929  -4.538  0.00  0.00     0.003 A 
ATOM      5  C3  PXY d   1       4.003   3.967  -4.866  0.00  0.00     0.003 A 
ATOM      6  C4  PXY d   1       4.502   4.997  -5.617  0.00  0.00    -0.082 A 
ATOM      7  C5  PXY d   1       3.683   6.000  -6.000  0.00  0.00     0.003 A 
ATOM      8  C6  PXY d   1       2.344   5.963  -5.621  0.00  0.00     0.003 A 
ENDROOT
TORSDOF 0
ENDMDL
