MODEL 1
REMARK minimizedAffinity 17.2267704
REMARK minimizedRMSD -1
REMARK  0 active torsions:
REMARK  status: ('A' for Active; 'I' for Inactive)
ROOT
ATOM      1  C4' PXY d   1       3.833  -4.061   0.105  0.00  0.00     0.077 C 
ATOM      2  C1' PXY d   1       0.585  -0.266   3.015  0.00  0.00     0.077 C 
ATOM      3  C1  PXY d   1       1.448  -1.255   2.256  0.00  0.00    -0.082 A 
ATOM      4  C2  PXY d   1       0.935  -1.919   1.232  0.00  0.00     0.003 A 
ATOM      5  C3  PXY d   1       1.691  -2.840   0.555  0.00  0.00     0.003 A 
ATOM      6  C4  PXY d   1       3.002  -3.046   0.894  0.00  0.00    -0.082 A 
ATOM      7  C5  PXY d   1       3.535  -2.365   1.931  0.00  0.00     0.003 A 
ATOM      8  C6  PXY d   1       2.738  -1.464   2.632  0.00  0.00     0.003 A 
ENDROOT
TORSDOF 0
ENDMDL
