MODEL 1
REMARK minimizedAffinity -2.85089922
REMARK minimizedRMSD -1
REMARK  0 active torsions:
REMARK  status: ('A' for Active; 'I' for Inactive)
ROOT
ATOM      1  C   UNL d   1      -2.245  -3.412  -1.131  0.00  0.00     0.077 C 
ATOM      2  C1  UNL d   1      -2.124  -2.061  -0.491  0.00  0.00    -0.074 A 
ATOM      3  C2  UNL d   1      -3.253  -1.386  -0.016  0.00  0.00    -0.005 A 
ATOM      4  C3  UNL d   1      -3.123  -0.134   0.586  0.00  0.00     0.006 A 
ATOM      5  C4  UNL d   1      -1.865   0.454   0.719  0.00  0.00    -0.005 A 
ATOM      6  C5  UNL d   1      -0.724  -0.206   0.251  0.00  0.00    -0.074 A 
ATOM      7  C6  UNL d   1       0.637   0.408   0.395  0.00  0.00     0.077 C 
ATOM      8  C7  UNL d   1      -0.862  -1.466  -0.346  0.00  0.00    -0.001 A 
ENDROOT
TORSDOF 0
ENDMDL
