MODEL 1
REMARK minimizedAffinity -5.49532461
REMARK minimizedRMSD -1
REMARK  0 active torsions:
REMARK  status: ('A' for Active; 'I' for Inactive)
ROOT
ATOM      1  C   UNL d   1      -1.914  -2.743   1.676  0.00  0.00     0.077 C 
ATOM      2  C1  UNL d   1      -1.581  -1.663   0.689  0.00  0.00    -0.074 A 
ATOM      3  C2  UNL d   1      -2.526  -1.226  -0.245  0.00  0.00    -0.005 A 
ATOM      4  C3  UNL d   1      -2.205  -0.215  -1.150  0.00  0.00     0.006 A 
ATOM      5  C4  UNL d   1      -0.938   0.370  -1.130  0.00  0.00    -0.005 A 
ATOM      6  C5  UNL d   1       0.020  -0.053  -0.203  0.00  0.00    -0.074 A 
ATOM      7  C6  UNL d   1       1.383   0.571  -0.161  0.00  0.00     0.077 C 
ATOM      8  C7  UNL d   1      -0.312  -1.066   0.708  0.00  0.00    -0.001 A 
ENDROOT
TORSDOF 0
ENDMDL
