MODEL 1
REMARK minimizedAffinity -2.63067722
REMARK minimizedRMSD -1
REMARK  0 active torsions:
REMARK  status: ('A' for Active; 'I' for Inactive)
ROOT
ATOM      1  C   UNL d   1      -3.410  -0.432   0.180  0.00  0.00     0.077 C 
ATOM      2  C1  UNL d   1      -2.004  -0.254  -0.310  0.00  0.00    -0.074 A 
ATOM      3  C2  UNL d   1      -1.608  -0.757  -1.553  0.00  0.00    -0.005 A 
ATOM      4  C3  UNL d   1      -0.299  -0.576  -2.000  0.00  0.00     0.006 A 
ATOM      5  C4  UNL d   1       0.625   0.109  -1.210  0.00  0.00    -0.005 A 
ATOM      6  C5  UNL d   1       0.247   0.620   0.035  0.00  0.00    -0.074 A 
ATOM      7  C6  UNL d   1       1.224   1.367   0.893  0.00  0.00     0.077 C 
ATOM      8  C7  UNL d   1      -1.072   0.440   0.474  0.00  0.00    -0.001 A 
ENDROOT
TORSDOF 0
ENDMDL
