MODEL 1
REMARK minimizedAffinity -5.41608143
REMARK minimizedRMSD -1
REMARK  0 active torsions:
REMARK  status: ('A' for Active; 'I' for Inactive)
ROOT
ATOM      1  C   UNL d   1      -3.747  -0.668  -0.201  0.00  0.00     0.077 C 
ATOM      2  C1  UNL d   1      -2.392  -1.081   0.294  0.00  0.00    -0.074 A 
ATOM      3  C2  UNL d   1      -2.243  -2.180   1.146  0.00  0.00    -0.005 A 
ATOM      4  C3  UNL d   1      -0.976  -2.558   1.590  0.00  0.00     0.006 A 
ATOM      5  C4  UNL d   1       0.152  -1.842   1.189  0.00  0.00    -0.005 A 
ATOM      6  C5  UNL d   1       0.022  -0.741   0.337  0.00  0.00    -0.074 A 
ATOM      7  C6  UNL d   1       1.226   0.034  -0.112  0.00  0.00     0.077 C 
ATOM      8  C7  UNL d   1      -1.253  -0.371  -0.111  0.00  0.00    -0.001 A 
ENDROOT
TORSDOF 0
ENDMDL
