MODEL 1
REMARK minimizedAffinity 1.04907715
REMARK minimizedRMSD -1
REMARK  0 active torsions:
REMARK  status: ('A' for Active; 'I' for Inactive)
ROOT
ATOM      1  C   UNL d   1      -0.151   0.676  -1.849  0.00  0.00     0.077 C 
ATOM      2  C1  UNL d   1      -1.041  -0.279  -1.110  0.00  0.00    -0.074 A 
ATOM      3  C2  UNL d   1      -2.092  -0.933  -1.760  0.00  0.00    -0.005 A 
ATOM      4  C3  UNL d   1      -2.905  -1.825  -1.062  0.00  0.00     0.006 A 
ATOM      5  C4  UNL d   1      -2.676  -2.073   0.292  0.00  0.00    -0.005 A 
ATOM      6  C5  UNL d   1      -1.628  -1.430   0.959  0.00  0.00    -0.074 A 
ATOM      7  C6  UNL d   1      -1.362  -1.693   2.411  0.00  0.00     0.077 C 
ATOM      8  C7  UNL d   1      -0.811  -0.540   0.249  0.00  0.00    -0.001 A 
ENDROOT
TORSDOF 0
ENDMDL
