MODEL 1
REMARK minimizedAffinity -3.58386326
REMARK minimizedRMSD -1
REMARK  0 active torsions:
REMARK  status: ('A' for Active; 'I' for Inactive)
ROOT
ATOM      1  C   UNL d   1      -2.970  -1.441   0.330  0.00  0.00     0.077 C 
ATOM      2  C1  UNL d   1      -1.762  -0.708  -0.173  0.00  0.00    -0.074 A 
ATOM      3  C2  UNL d   1      -1.754  -0.120  -1.442  0.00  0.00    -0.005 A 
ATOM      4  C3  UNL d   1      -0.627   0.566  -1.893  0.00  0.00     0.006 A 
ATOM      5  C4  UNL d   1       0.503   0.671  -1.081  0.00  0.00    -0.005 A 
ATOM      6  C5  UNL d   1       0.514   0.091   0.191  0.00  0.00    -0.074 A 
ATOM      7  C6  UNL d   1       1.716   0.203   1.081  0.00  0.00     0.077 C 
ATOM      8  C7  UNL d   1      -0.625  -0.591   0.640  0.00  0.00    -0.001 A 
ENDROOT
TORSDOF 0
ENDMDL
