MODEL 1
REMARK minimizedAffinity -3.54932737
REMARK minimizedRMSD -1
REMARK  0 active torsions:
REMARK  status: ('A' for Active; 'I' for Inactive)
ROOT
ATOM      1  C   UNL d   1       1.141   0.453  -0.239  0.00  0.00     0.077 C 
ATOM      2  C1  UNL d   1      -0.266  -0.049  -0.371  0.00  0.00    -0.074 A 
ATOM      3  C2  UNL d   1      -1.162   0.549  -1.262  0.00  0.00    -0.005 A 
ATOM      4  C3  UNL d   1      -2.465   0.064  -1.380  0.00  0.00     0.006 A 
ATOM      5  C4  UNL d   1      -2.883  -1.022  -0.610  0.00  0.00    -0.005 A 
ATOM      6  C5  UNL d   1      -2.000  -1.633   0.286  0.00  0.00    -0.074 A 
ATOM      7  C6  UNL d   1      -2.431  -2.807   1.114  0.00  0.00     0.077 C 
ATOM      8  C7  UNL d   1      -0.691  -1.145   0.394  0.00  0.00    -0.001 A 
ENDROOT
TORSDOF 0
ENDMDL
