MODEL 1
REMARK minimizedAffinity -5.1521945
REMARK minimizedRMSD -1
REMARK  0 active torsions:
REMARK  status: ('A' for Active; 'I' for Inactive)
ROOT
ATOM      1  C   UNL d   1       0.706   0.689   0.511  0.00  0.00     0.077 C 
ATOM      2  C1  UNL d   1      -0.554  -0.108   0.346  0.00  0.00    -0.074 A 
ATOM      3  C2  UNL d   1      -1.512   0.252  -0.608  0.00  0.00    -0.005 A 
ATOM      4  C3  UNL d   1      -2.674  -0.505  -0.757  0.00  0.00     0.006 A 
ATOM      5  C4  UNL d   1      -2.890  -1.626   0.044  0.00  0.00    -0.005 A 
ATOM      6  C5  UNL d   1      -1.943  -2.002   1.002  0.00  0.00    -0.074 A 
ATOM      7  C6  UNL d   1      -2.155  -3.210   1.865  0.00  0.00     0.077 C 
ATOM      8  C7  UNL d   1      -0.774  -1.240   1.142  0.00  0.00    -0.001 A 
ENDROOT
TORSDOF 0
ENDMDL
