MODEL 1
REMARK minimizedAffinity -4.21809673
REMARK minimizedRMSD -1
REMARK  0 active torsions:
REMARK  status: ('A' for Active; 'I' for Inactive)
ROOT
ATOM      1  C   UNL d   1      -3.324  -0.671  -1.499  0.00  0.00     0.077 C 
ATOM      2  C1  UNL d   1      -1.879  -0.404  -1.197  0.00  0.00    -0.074 A 
ATOM      3  C2  UNL d   1      -1.185   0.619  -1.851  0.00  0.00    -0.005 A 
ATOM      4  C3  UNL d   1       0.155   0.862  -1.553  0.00  0.00     0.006 A 
ATOM      5  C4  UNL d   1       0.815   0.086  -0.600  0.00  0.00    -0.005 A 
ATOM      6  C5  UNL d   1       0.137  -0.941   0.065  0.00  0.00    -0.074 A 
ATOM      7  C6  UNL d   1       0.829  -1.778   1.100  0.00  0.00     0.077 C 
ATOM      8  C7  UNL d   1      -1.212  -1.174  -0.235  0.00  0.00    -0.001 A 
ENDROOT
TORSDOF 0
ENDMDL
