MODEL 1
REMARK minimizedAffinity -5.50653458
REMARK minimizedRMSD -1
REMARK  0 active torsions:
REMARK  status: ('A' for Active; 'I' for Inactive)
ROOT
ATOM      1  C   UNL d   1      -2.564  -2.778   1.316  0.00  0.00     0.077 C 
ATOM      2  C1  UNL d   1      -1.875  -1.803   0.408  0.00  0.00    -0.074 A 
ATOM      3  C2  UNL d   1      -2.446  -1.430  -0.813  0.00  0.00    -0.005 A 
ATOM      4  C3  UNL d   1      -1.798  -0.515  -1.643  0.00  0.00     0.006 A 
ATOM      5  C4  UNL d   1      -0.574   0.035  -1.261  0.00  0.00    -0.005 A 
ATOM      6  C5  UNL d   1       0.012  -0.324  -0.043  0.00  0.00    -0.074 A 
ATOM      7  C6  UNL d   1       1.322   0.266   0.387  0.00  0.00     0.077 C 
ATOM      8  C7  UNL d   1      -0.649  -1.239   0.788  0.00  0.00    -0.001 A 
ENDROOT
TORSDOF 0
ENDMDL
