MODEL 1
REMARK minimizedAffinity -4.50379753
REMARK minimizedRMSD -1
REMARK  0 active torsions:
REMARK  status: ('A' for Active; 'I' for Inactive)
ROOT
ATOM      1  C   UNL d   1      -1.147  -2.980   2.366  0.00  0.00     0.077 C 
ATOM      2  C1  UNL d   1      -1.638  -2.202   1.181  0.00  0.00    -0.074 A 
ATOM      3  C2  UNL d   1      -2.814  -2.568   0.518  0.00  0.00    -0.005 A 
ATOM      4  C3  UNL d   1      -3.262  -1.830  -0.577  0.00  0.00     0.006 A 
ATOM      5  C4  UNL d   1      -2.541  -0.720  -1.020  0.00  0.00    -0.005 A 
ATOM      6  C5  UNL d   1      -1.363  -0.339  -0.369  0.00  0.00    -0.074 A 
ATOM      7  C6  UNL d   1      -0.581   0.856  -0.826  0.00  0.00     0.077 C 
ATOM      8  C7  UNL d   1      -0.923  -1.082   0.735  0.00  0.00    -0.001 A 
ENDROOT
TORSDOF 0
ENDMDL
