MODEL 1
REMARK minimizedAffinity -6.11961126
REMARK minimizedRMSD -1
REMARK  0 active torsions:
REMARK  status: ('A' for Active; 'I' for Inactive)
ROOT
ATOM      1  C   UNL d   1       1.127   0.658   0.278  0.00  0.00     0.077 C 
ATOM      2  C1  UNL d   1      -0.129  -0.094  -0.047  0.00  0.00    -0.074 A 
ATOM      3  C2  UNL d   1      -0.851   0.183  -1.212  0.00  0.00    -0.005 A 
ATOM      4  C3  UNL d   1      -2.013  -0.531  -1.507  0.00  0.00     0.006 A 
ATOM      5  C4  UNL d   1      -2.463  -1.528  -0.640  0.00  0.00    -0.005 A 
ATOM      6  C5  UNL d   1      -1.753  -1.820   0.529  0.00  0.00    -0.074 A 
ATOM      7  C6  UNL d   1      -2.217  -2.896   1.466  0.00  0.00     0.077 C 
ATOM      8  C7  UNL d   1      -0.583  -1.103   0.814  0.00  0.00    -0.001 A 
ENDROOT
TORSDOF 0
ENDMDL
