MODEL 1
REMARK minimizedAffinity -3.42072058
REMARK minimizedRMSD -1
REMARK  0 active torsions:
REMARK  status: ('A' for Active; 'I' for Inactive)
ROOT
ATOM      1  C   UNL d   1      -3.512  -0.939   0.391  0.00  0.00     0.077 C 
ATOM      2  C1  UNL d   1      -2.259  -0.410  -0.242  0.00  0.00    -0.074 A 
ATOM      3  C2  UNL d   1      -2.158  -0.271  -1.630  0.00  0.00    -0.005 A 
ATOM      4  C3  UNL d   1      -0.990   0.231  -2.203  0.00  0.00     0.006 A 
ATOM      5  C4  UNL d   1       0.088   0.598  -1.396  0.00  0.00    -0.005 A 
ATOM      6  C5  UNL d   1       0.005   0.466  -0.007  0.00  0.00    -0.074 A 
ATOM      7  C6  UNL d   1       1.150   0.865   0.876  0.00  0.00     0.077 C 
ATOM      8  C7  UNL d   1      -1.175  -0.032   0.563  0.00  0.00    -0.001 A 
ENDROOT
TORSDOF 0
ENDMDL
