MODEL 1
REMARK minimizedAffinity -4.32611513
REMARK minimizedRMSD -1
REMARK  0 active torsions:
REMARK  status: ('A' for Active; 'I' for Inactive)
ROOT
ATOM      1  C   UNL d   1       1.292   0.168   0.839  0.00  0.00     0.077 C 
ATOM      2  C1  UNL d   1       0.167   0.009  -0.140  0.00  0.00    -0.074 A 
ATOM      3  C2  UNL d   1       0.282   0.483  -1.451  0.00  0.00    -0.005 A 
ATOM      4  C3  UNL d   1      -0.769   0.319  -2.353  0.00  0.00     0.006 A 
ATOM      5  C4  UNL d   1      -1.943  -0.321  -1.955  0.00  0.00    -0.005 A 
ATOM      6  C5  UNL d   1      -2.076  -0.802  -0.648  0.00  0.00    -0.074 A 
ATOM      7  C6  UNL d   1      -3.328  -1.501  -0.207  0.00  0.00     0.077 C 
ATOM      8  C7  UNL d   1      -1.013  -0.640   0.250  0.00  0.00    -0.001 A 
ENDROOT
TORSDOF 0
ENDMDL
