MODEL 1
REMARK minimizedAffinity 10.3614683
REMARK minimizedRMSD -1
REMARK  1 active torsions:
REMARK  status: ('A' for Active; 'I' for Inactive)
REMARK    1  A    between atoms: C1_2  and  C2_3 
ROOT
ATOM      1  C2  UNL d   1       3.168  -2.940   4.103  0.00  0.00    -0.081 A 
ATOM      2  C3  UNL d   1       3.757  -1.869   3.420  0.00  0.00     0.006 A 
ATOM      3  C4  UNL d   1       3.025  -1.139   2.481  0.00  0.00     0.002 A 
ATOM      4  C5  UNL d   1       1.690  -1.462   2.215  0.00  0.00    -0.080 A 
ATOM      5  C6  UNL d   1       0.883  -0.667   1.232  0.00  0.00     0.076 C 
ATOM      6  C7  UNL d   1       1.106  -2.542   2.885  0.00  0.00     0.002 A 
ATOM      7  C8  UNL d   1       1.838  -3.273   3.823  0.00  0.00     0.006 A 
ENDROOT
BRANCH   1   8
ATOM      8  C1  UNL d   1       3.935  -3.688   5.163  0.00  0.00     0.054 C 
ATOM      9  C   UNL d   1       5.119  -2.876   5.667  0.00  0.00     0.018 C 
ENDBRANCH   1   8
TORSDOF 1
ENDMDL
