MODEL 1
REMARK minimizedAffinity 11.2317095
REMARK minimizedRMSD -1
REMARK  1 active torsions:
REMARK  status: ('A' for Active; 'I' for Inactive)
REMARK    1  A    between atoms: C1_2  and  C2_3 
ROOT
ATOM      1  C2  UNL d   1       2.586   2.160   0.524  0.00  0.00    -0.081 A 
ATOM      2  C3  UNL d   1       1.253   2.418   0.863  0.00  0.00     0.006 A 
ATOM      3  C4  UNL d   1       0.558   3.467   0.257  0.00  0.00     0.002 A 
ATOM      4  C5  UNL d   1       1.182   4.270  -0.704  0.00  0.00    -0.080 A 
ATOM      5  C6  UNL d   1       0.438   5.381  -1.384  0.00  0.00     0.076 C 
ATOM      6  C7  UNL d   1       2.520   4.024  -1.030  0.00  0.00     0.002 A 
ATOM      7  C8  UNL d   1       3.215   2.975  -0.423  0.00  0.00     0.006 A 
ENDROOT
BRANCH   1   8
ATOM      8  C1  UNL d   1       3.318   0.989   1.128  0.00  0.00     0.054 C 
ATOM      9  C   UNL d   1       2.372   0.088   1.909  0.00  0.00     0.018 C 
ENDBRANCH   1   8
TORSDOF 1
ENDMDL
