MODEL 1
REMARK minimizedAffinity 8.50684261
REMARK minimizedRMSD -1
REMARK  1 active torsions:
REMARK  status: ('A' for Active; 'I' for Inactive)
REMARK    1  A    between atoms: C1_2  and  C2_3 
ROOT
ATOM      1  C2  UNL d   1       1.611  -4.715   4.054  0.00  0.00    -0.081 A 
ATOM      2  C3  UNL d   1       2.894  -4.157   4.084  0.00  0.00     0.006 A 
ATOM      3  C4  UNL d   1       3.150  -2.935   3.456  0.00  0.00     0.002 A 
ATOM      4  C5  UNL d   1       2.126  -2.248   2.796  0.00  0.00    -0.080 A 
ATOM      5  C6  UNL d   1       2.381  -0.921   2.144  0.00  0.00     0.076 C 
ATOM      6  C7  UNL d   1       0.847  -2.814   2.751  0.00  0.00     0.002 A 
ATOM      7  C8  UNL d   1       0.591  -4.035   3.378  0.00  0.00     0.006 A 
ENDROOT
BRANCH   1   8
ATOM      8  C1  UNL d   1       1.316  -6.000   4.785  0.00  0.00     0.054 C 
ATOM      9  C   UNL d   1      -0.072  -5.976   5.408  0.00  0.00     0.018 C 
ENDBRANCH   1   8
TORSDOF 1
ENDMDL
