MODEL 1
REMARK minimizedAffinity 1.75814748
REMARK minimizedRMSD -1
REMARK  0 active torsions:
REMARK  status: ('A' for Active; 'I' for Inactive)
ROOT
ATOM      1  N1  IND d   1      -0.682   0.457   2.995  0.00  0.00    -0.196 N 
ATOM      2  C2  IND d   1      -1.675  -0.295   2.432  0.00  0.00     0.054 A 
ATOM      3  C3  IND d   1      -1.154  -1.389   1.832  0.00  0.00    -0.031 A 
ATOM      4  C4  IND d   1       1.289  -2.195   1.739  0.00  0.00     0.051 A 
ATOM      5  C5  IND d   1       2.560  -1.823   2.077  0.00  0.00    -0.031 A 
ATOM      6  C6  IND d   1       2.820  -0.650   2.755  0.00  0.00     0.015 A 
ATOM      7  C7  IND d   1       1.814   0.194   3.131  0.00  0.00    -0.016 A 
ATOM      8  C8  IND d   1       0.523  -0.177   2.783  0.00  0.00    -0.047 A 
ATOM      9  C9  IND d   1       0.256  -1.346   2.058  0.00  0.00    -0.096 A 
ATOM     10  HN1 IND d   1      -0.791   1.202   3.411  0.00  0.00     0.298 HD
ENDROOT
TORSDOF 0
ENDMDL
