MODEL 1
REMARK minimizedAffinity 13.7532482
REMARK minimizedRMSD -1
REMARK  0 active torsions:
REMARK  status: ('A' for Active; 'I' for Inactive)
ROOT
ATOM      1  N1  IND d   1       1.524  -1.965   0.390  0.00  0.00    -0.196 N 
ATOM      2  C2  IND d   1       2.021  -1.915   1.663  0.00  0.00     0.054 A 
ATOM      3  C3  IND d   1       2.441  -0.664   1.955  0.00  0.00    -0.031 A 
ATOM      4  C4  IND d   1       2.316   1.478   0.533  0.00  0.00     0.051 A 
ATOM      5  C5  IND d   1       1.976   1.925  -0.713  0.00  0.00    -0.031 A 
ATOM      6  C6  IND d   1       1.456   1.082  -1.674  0.00  0.00     0.015 A 
ATOM      7  C7  IND d   1       1.243  -0.243  -1.419  0.00  0.00    -0.016 A 
ATOM      8  C8  IND d   1       1.594  -0.702  -0.157  0.00  0.00    -0.047 A 
ATOM      9  C9  IND d   1       2.162   0.140   0.808  0.00  0.00    -0.096 A 
ATOM     10  HN1 IND d   1       1.219  -2.666  -0.002  0.00  0.00     0.298 HD
ENDROOT
TORSDOF 0
ENDMDL
