MODEL 1
REMARK minimizedAffinity 4.56607819
REMARK minimizedRMSD -1
REMARK  0 active torsions:
REMARK  status: ('A' for Active; 'I' for Inactive)
ROOT
ATOM      1  N1  IND d   1       2.904  -1.486   2.063  0.00  0.00    -0.196 N 
ATOM      2  C2  IND d   1       3.032  -2.232   0.925  0.00  0.00     0.054 A 
ATOM      3  C3  IND d   1       1.821  -2.439   0.360  0.00  0.00    -0.031 A 
ATOM      4  C4  IND d   1      -0.490  -1.561   1.078  0.00  0.00     0.051 A 
ATOM      5  C5  IND d   1      -1.117  -0.868   2.076  0.00  0.00    -0.031 A 
ATOM      6  C6  IND d   1      -0.421  -0.333   3.140  0.00  0.00     0.015 A 
ATOM      7  C7  IND d   1       0.935  -0.461   3.241  0.00  0.00    -0.016 A 
ATOM      8  C8  IND d   1       1.574  -1.170   2.234  0.00  0.00    -0.047 A 
ATOM      9  C9  IND d   1       0.868  -1.752   1.173  0.00  0.00    -0.096 A 
ATOM     10  HN1 IND d   1       3.547  -1.253   2.585  0.00  0.00     0.298 HD
ENDROOT
TORSDOF 0
ENDMDL
