MODEL 1
REMARK minimizedAffinity 0.47861138
REMARK minimizedRMSD -1
REMARK  0 active torsions:
REMARK  status: ('A' for Active; 'I' for Inactive)
ROOT
ATOM      1  N1  IND d   1       2.868  -2.053  -0.155  0.00  0.00    -0.196 N 
ATOM      2  C2  IND d   1       2.158  -1.604  -1.234  0.00  0.00     0.054 A 
ATOM      3  C3  IND d   1       1.001  -1.033  -0.830  0.00  0.00    -0.031 A 
ATOM      4  C4  IND d   1       0.117  -0.635   1.555  0.00  0.00     0.051 A 
ATOM      5  C5  IND d   1       0.397  -0.903   2.865  0.00  0.00    -0.031 A 
ATOM      6  C6  IND d   1       1.539  -1.578   3.244  0.00  0.00     0.015 A 
ATOM      7  C7  IND d   1       2.453  -2.004   2.323  0.00  0.00    -0.016 A 
ATOM      8  C8  IND d   1       2.169  -1.740   0.990  0.00  0.00    -0.047 A 
ATOM      9  C9  IND d   1       0.991  -1.092   0.597  0.00  0.00    -0.096 A 
ATOM     10  HN1 IND d   1       3.624  -2.461  -0.187  0.00  0.00     0.298 HD
ENDROOT
TORSDOF 0
ENDMDL
