MODEL 1
REMARK minimizedAffinity 4.35680771
REMARK minimizedRMSD -1
REMARK  0 active torsions:
REMARK  status: ('A' for Active; 'I' for Inactive)
ROOT
ATOM      1  N1  IND d   1       2.250  -1.064  -2.038  0.00  0.00    -0.196 N 
ATOM      2  C2  IND d   1       2.571  -1.760  -0.906  0.00  0.00     0.054 A 
ATOM      3  C3  IND d   1       2.990  -0.915   0.063  0.00  0.00    -0.031 A 
ATOM      4  C4  IND d   1       3.130   1.655   0.043  0.00  0.00     0.051 A 
ATOM      5  C5  IND d   1       2.977   2.736  -0.779  0.00  0.00    -0.031 A 
ATOM      6  C6  IND d   1       2.563   2.603  -2.088  0.00  0.00     0.015 A 
ATOM      7  C7  IND d   1       2.274   1.380  -2.623  0.00  0.00    -0.016 A 
ATOM      8  C8  IND d   1       2.435   0.279  -1.794  0.00  0.00    -0.047 A 
ATOM      9  C9  IND d   1       2.896   0.404  -0.477  0.00  0.00    -0.096 A 
ATOM     10  HN1 IND d   1       1.978  -1.407  -2.778  0.00  0.00     0.298 HD
ENDROOT
TORSDOF 0
ENDMDL
