MODEL 1
REMARK minimizedAffinity -0.181966811
REMARK minimizedRMSD -1
REMARK  0 active torsions:
REMARK  status: ('A' for Active; 'I' for Inactive)
ROOT
ATOM      1  N1  IND d   1       2.605  -1.425  -1.709  0.00  0.00    -0.196 N 
ATOM      2  C2  IND d   1       2.646  -1.755  -0.383  0.00  0.00     0.054 A 
ATOM      3  C3  IND d   1       2.629  -0.639   0.380  0.00  0.00    -0.031 A 
ATOM      4  C4  IND d   1       2.435   1.827  -0.334  0.00  0.00     0.051 A 
ATOM      5  C5  IND d   1       2.408   2.630  -1.439  0.00  0.00    -0.031 A 
ATOM      6  C6  IND d   1       2.443   2.111  -2.718  0.00  0.00     0.015 A 
ATOM      7  C7  IND d   1       2.495   0.764  -2.939  0.00  0.00    -0.016 A 
ATOM      8  C8  IND d   1       2.530  -0.054  -1.818  0.00  0.00    -0.047 A 
ATOM      9  C9  IND d   1       2.538   0.468  -0.518  0.00  0.00    -0.096 A 
ATOM     10  HN1 IND d   1       2.624  -1.981  -2.365  0.00  0.00     0.298 HD
ENDROOT
TORSDOF 0
ENDMDL
