MODEL 1
REMARK minimizedAffinity -1.36824048
REMARK minimizedRMSD -1
REMARK  2 active torsions:
REMARK  status: ('A' for Active; 'I' for Inactive)
REMARK    1  A    between atoms: C2'_3  and  C1'_4 
REMARK    2  A    between atoms: C1'_4  and  C1_5 
ROOT
ATOM      1  C1  I4B d   1       5.188   2.102  -0.647  0.00  0.00    -0.075 A 
ATOM      2  C2  I4B d   1       5.206   3.185  -1.490  0.00  0.00     0.003 A 
ATOM      3  C3  I4B d   1       5.640   4.448  -1.020  0.00  0.00     0.002 A 
ATOM      4  C4  I4B d   1       5.996   4.594   0.305  0.00  0.00    -0.004 A 
ATOM      5  C5  I4B d   1       5.999   3.490   1.153  0.00  0.00     0.002 A 
ATOM      6  C6  I4B d   1       5.605   2.234   0.672  0.00  0.00     0.003 A 
ENDROOT
BRANCH   1   7
ATOM      7  C1' I4B d   1       4.693   0.790  -1.168  0.00  0.00     0.060 C 
BRANCH   7   8
ATOM      8  C2' I4B d   1       3.722   0.222  -0.153  0.00  0.00    -0.013 C 
ATOM      9  C4' I4B d   1       2.325   0.732  -0.391  0.00  0.00     0.013 C 
ATOM     10  C3' I4B d   1       3.775  -1.274  -0.249  0.00  0.00     0.013 C 
ENDBRANCH   7   8
ENDBRANCH   1   7
TORSDOF 2
ENDMDL
