MODEL 1
REMARK minimizedAffinity 2.23722196
REMARK minimizedRMSD -1
REMARK  2 active torsions:
REMARK  status: ('A' for Active; 'I' for Inactive)
REMARK    1  A    between atoms: C2'_3  and  C1'_4 
REMARK    2  A    between atoms: C1'_4  and  C1_5 
ROOT
ATOM      1  C1  I4B d   1      -1.705   3.067   1.024  0.00  0.00    -0.075 A 
ATOM      2  C2  I4B d   1      -3.032   2.933   1.350  0.00  0.00     0.003 A 
ATOM      3  C3  I4B d   1      -3.673   3.914   2.145  0.00  0.00     0.002 A 
ATOM      4  C4  I4B d   1      -2.942   4.979   2.632  0.00  0.00    -0.004 A 
ATOM      5  C5  I4B d   1      -1.603   5.125   2.282  0.00  0.00     0.002 A 
ATOM      6  C6  I4B d   1      -0.983   4.170   1.463  0.00  0.00     0.003 A 
ENDROOT
BRANCH   1   7
ATOM      7  C1' I4B d   1      -1.051   1.996   0.210  0.00  0.00     0.060 C 
BRANCH   7   8
ATOM      8  C2' I4B d   1       0.319   1.731   0.801  0.00  0.00    -0.013 C 
ATOM      9  C4' I4B d   1       0.229   0.833   2.007  0.00  0.00     0.013 C 
ATOM     10  C3' I4B d   1       1.173   1.119  -0.268  0.00  0.00     0.013 C 
ENDBRANCH   7   8
ENDBRANCH   1   7
TORSDOF 2
ENDMDL
