MODEL 1
REMARK minimizedAffinity 6.93294859
REMARK minimizedRMSD -1
REMARK  2 active torsions:
REMARK  status: ('A' for Active; 'I' for Inactive)
REMARK    1  A    between atoms: C2'_3  and  C1'_4 
REMARK    2  A    between atoms: C1'_4  and  C1_5 
ROOT
ATOM      1  C1  I4B d   1       3.461   0.359  -0.636  0.00  0.00    -0.075 A 
ATOM      2  C2  I4B d   1       3.608   1.642  -1.102  0.00  0.00     0.003 A 
ATOM      3  C3  I4B d   1       4.894   2.229  -1.180  0.00  0.00     0.002 A 
ATOM      4  C4  I4B d   1       5.992   1.520  -0.739  0.00  0.00    -0.004 A 
ATOM      5  C5  I4B d   1       5.844   0.211  -0.289  0.00  0.00     0.002 A 
ATOM      6  C6  I4B d   1       4.572  -0.378  -0.249  0.00  0.00     0.003 A 
ENDROOT
BRANCH   1   7
ATOM      7  C1' I4B d   1       2.084  -0.218  -0.536  0.00  0.00     0.060 C 
BRANCH   7   8
ATOM      8  C2' I4B d   1       1.171   0.848   0.034  0.00  0.00    -0.013 C 
ATOM      9  C4' I4B d   1      -0.038   1.054  -0.840  0.00  0.00     0.013 C 
ATOM     10  C3' I4B d   1       0.775   0.428   1.418  0.00  0.00     0.013 C 
ENDBRANCH   7   8
ENDBRANCH   1   7
TORSDOF 2
ENDMDL
