MODEL 1
REMARK minimizedAffinity 9.87776756
REMARK minimizedRMSD -1
REMARK  2 active torsions:
REMARK  status: ('A' for Active; 'I' for Inactive)
REMARK    1  A    between atoms: C2'_3  and  C1'_4 
REMARK    2  A    between atoms: C1'_4  and  C1_5 
ROOT
ATOM      1  C1  I4B d   1       0.724   2.417   2.218  0.00  0.00    -0.075 A 
ATOM      2  C2  I4B d   1       1.959   2.105   2.731  0.00  0.00     0.003 A 
ATOM      3  C3  I4B d   1       2.808   3.129   3.217  0.00  0.00     0.002 A 
ATOM      4  C4  I4B d   1       2.406   4.446   3.126  0.00  0.00    -0.004 A 
ATOM      5  C5  I4B d   1       1.144   4.758   2.627  0.00  0.00     0.002 A 
ATOM      6  C6  I4B d   1       0.293   3.736   2.181  0.00  0.00     0.003 A 
ENDROOT
BRANCH   1   7
ATOM      7  C1' I4B d   1      -0.133   1.314   1.683  0.00  0.00     0.060 C 
BRANCH   7   8
ATOM      8  C2' I4B d   1      -0.994   1.887   0.576  0.00  0.00    -0.013 C 
ATOM      9  C4' I4B d   1      -0.657   1.267  -0.754  0.00  0.00     0.013 C 
ATOM     10  C3' I4B d   1      -2.430   1.649   0.936  0.00  0.00     0.013 C 
ENDBRANCH   7   8
ENDBRANCH   1   7
TORSDOF 2
ENDMDL
