MODEL 1
REMARK minimizedAffinity 9.0591898
REMARK minimizedRMSD -1
REMARK  2 active torsions:
REMARK  status: ('A' for Active; 'I' for Inactive)
REMARK    1  A    between atoms: C2'_3  and  C1'_4 
REMARK    2  A    between atoms: C1'_4  and  C1_5 
ROOT
ATOM      1  C1  I4B d   1       2.194  -2.390  -0.816  0.00  0.00    -0.075 A 
ATOM      2  C2  I4B d   1       1.760  -3.310   0.104  0.00  0.00     0.003 A 
ATOM      3  C3  I4B d   1       0.644  -4.134  -0.183  0.00  0.00     0.002 A 
ATOM      4  C4  I4B d   1      -0.033  -3.969  -1.374  0.00  0.00    -0.004 A 
ATOM      5  C5  I4B d   1       0.422  -3.051  -2.315  0.00  0.00     0.002 A 
ATOM      6  C6  I4B d   1       1.551  -2.264  -2.041  0.00  0.00     0.003 A 
ENDROOT
BRANCH   1   7
ATOM      7  C1' I4B d   1       3.356  -1.514  -0.467  0.00  0.00     0.060 C 
BRANCH   7   8
ATOM      8  C2' I4B d   1       3.057  -0.118  -0.974  0.00  0.00    -0.013 C 
ATOM      9  C4' I4B d   1       1.933   0.516  -0.197  0.00  0.00     0.013 C 
ATOM     10  C3' I4B d   1       4.313   0.693  -0.867  0.00  0.00     0.013 C 
ENDBRANCH   7   8
ENDBRANCH   1   7
TORSDOF 2
ENDMDL
