MODEL 1
REMARK minimizedAffinity 2.5614326
REMARK minimizedRMSD -1
REMARK  2 active torsions:
REMARK  status: ('A' for Active; 'I' for Inactive)
REMARK    1  A    between atoms: C2'_3  and  C1'_4 
REMARK    2  A    between atoms: C1'_4  and  C1_5 
ROOT
ATOM      1  C1  I4B d   1       5.561   2.611  -1.023  0.00  0.00    -0.075 A 
ATOM      2  C2  I4B d   1       5.744   3.578  -1.979  0.00  0.00     0.003 A 
ATOM      3  C3  I4B d   1       5.993   4.919  -1.598  0.00  0.00     0.002 A 
ATOM      4  C4  I4B d   1       6.000   5.255  -0.260  0.00  0.00    -0.004 A 
ATOM      5  C5  I4B d   1       5.836   4.269   0.709  0.00  0.00     0.002 A 
ATOM      6  C6  I4B d   1       5.627   2.936   0.326  0.00  0.00     0.003 A 
ENDROOT
BRANCH   1   7
ATOM      7  C1' I4B d   1       5.267   1.211  -1.461  0.00  0.00     0.060 C 
BRANCH   7   8
ATOM      8  C2' I4B d   1       4.303   0.602  -0.464  0.00  0.00    -0.013 C 
ATOM      9  C4' I4B d   1       3.141  -0.056  -1.160  0.00  0.00     0.013 C 
ATOM     10  C3' I4B d   1       5.062  -0.384   0.372  0.00  0.00     0.013 C 
ENDBRANCH   7   8
ENDBRANCH   1   7
TORSDOF 2
ENDMDL
