MODEL 1
REMARK minimizedAffinity 3.0106113
REMARK minimizedRMSD -1
REMARK  2 active torsions:
REMARK  status: ('A' for Active; 'I' for Inactive)
REMARK    1  A    between atoms: C2'_3  and  C1'_4 
REMARK    2  A    between atoms: C1'_4  and  C1_5 
ROOT
ATOM      1  C1  I4B d   1       1.280  -1.943  -1.001  0.00  0.00    -0.075 A 
ATOM      2  C2  I4B d   1       1.800  -0.737  -0.602  0.00  0.00     0.003 A 
ATOM      3  C3  I4B d   1       3.145  -0.407  -0.898  0.00  0.00     0.002 A 
ATOM      4  C4  I4B d   1       3.943  -1.328  -1.546  0.00  0.00    -0.004 A 
ATOM      5  C5  I4B d   1       3.408  -2.541  -1.970  0.00  0.00     0.002 A 
ATOM      6  C6  I4B d   1       2.064  -2.845  -1.707  0.00  0.00     0.003 A 
ENDROOT
BRANCH   1   7
ATOM      7  C1' I4B d   1      -0.135  -2.271  -0.642  0.00  0.00     0.060 C 
BRANCH   7   8
ATOM      8  C2' I4B d   1      -0.835  -2.752  -1.897  0.00  0.00    -0.013 C 
ATOM      9  C4' I4B d   1      -1.907  -3.758  -1.572  0.00  0.00     0.013 C 
ATOM     10  C3' I4B d   1      -1.409  -1.554  -2.594  0.00  0.00     0.013 C 
ENDBRANCH   7   8
ENDBRANCH   1   7
TORSDOF 2
ENDMDL
