MODEL 1
REMARK minimizedAffinity 6.20115805
REMARK minimizedRMSD -1
REMARK  2 active torsions:
REMARK  status: ('A' for Active; 'I' for Inactive)
REMARK    1  A    between atoms: C2'_3  and  C1'_4 
REMARK    2  A    between atoms: C1'_4  and  C1_5 
ROOT
ATOM      1  C1  I4B d   1       5.050   1.671  -0.433  0.00  0.00    -0.075 A 
ATOM      2  C2  I4B d   1       4.887   1.217   0.852  0.00  0.00     0.003 A 
ATOM      3  C3  I4B d   1       3.973   0.171   1.128  0.00  0.00     0.002 A 
ATOM      4  C4  I4B d   1       3.211  -0.353   0.104  0.00  0.00    -0.004 A 
ATOM      5  C5  I4B d   1       3.394   0.093  -1.202  0.00  0.00     0.002 A 
ATOM      6  C6  I4B d   1       4.328   1.103  -1.474  0.00  0.00     0.003 A 
ENDROOT
BRANCH   1   7
ATOM      7  C1' I4B d   1       6.000   2.800  -0.683  0.00  0.00     0.060 C 
BRANCH   7   8
ATOM      8  C2' I4B d   1       5.407   4.053  -0.073  0.00  0.00    -0.013 C 
ATOM      9  C4' I4B d   1       5.676   4.118   1.408  0.00  0.00     0.013 C 
ATOM     10  C3' I4B d   1       5.996   5.236  -0.782  0.00  0.00     0.013 C 
ENDBRANCH   7   8
ENDBRANCH   1   7
TORSDOF 2
ENDMDL
