MODEL 1
REMARK minimizedAffinity -2.76236892
REMARK minimizedRMSD -1
REMARK  2 active torsions:
REMARK  status: ('A' for Active; 'I' for Inactive)
REMARK    1  A    between atoms: C2'_3  and  C1'_4 
REMARK    2  A    between atoms: C1'_4  and  C1_5 
ROOT
ATOM      1  C1  I4B d   1      -4.734   1.424  -3.552  0.00  0.00    -0.075 A 
ATOM      2  C2  I4B d   1      -3.524   1.120  -2.980  0.00  0.00     0.003 A 
ATOM      3  C3  I4B d   1      -2.459   0.640  -3.779  0.00  0.00     0.002 A 
ATOM      4  C4  I4B d   1      -2.661   0.432  -5.128  0.00  0.00    -0.004 A 
ATOM      5  C5  I4B d   1      -3.882   0.762  -5.711  0.00  0.00     0.002 A 
ATOM      6  C6  I4B d   1      -4.921   1.273  -4.920  0.00  0.00     0.003 A 
ENDROOT
BRANCH   1   7
ATOM      7  C1' I4B d   1      -5.848   1.899  -2.674  0.00  0.00     0.060 C 
BRANCH   7   8
ATOM      8  C2' I4B d   1      -6.000   3.392  -2.877  0.00  0.00    -0.013 C 
ATOM      9  C4' I4B d   1      -5.992   4.126  -1.562  0.00  0.00     0.013 C 
ATOM     10  C3' I4B d   1      -4.881   3.855  -3.762  0.00  0.00     0.013 C 
ENDBRANCH   7   8
ENDBRANCH   1   7
TORSDOF 2
ENDMDL
