MODEL 1
REMARK minimizedAffinity -5.17202234
REMARK minimizedRMSD -1
REMARK  1 active torsions:
REMARK  status: ('A' for Active; 'I' for Inactive)
REMARK    1  A    between atoms: C1_2  and  C2_3 
ROOT
ATOM      1  C2  UNL d   1       0.534   1.024  -0.556  0.00  0.00    -0.081 A 
ATOM      2  C3  UNL d   1      -0.774   0.852  -0.088  0.00  0.00     0.006 A 
ATOM      3  C4  UNL d   1      -1.152  -0.339   0.537  0.00  0.00     0.002 A 
ATOM      4  C5  UNL d   1      -0.226  -1.373   0.712  0.00  0.00    -0.080 A 
ATOM      5  C6  UNL d   1      -0.611  -2.644   1.409  0.00  0.00     0.076 C 
ATOM      6  C7  UNL d   1       1.076  -1.208   0.229  0.00  0.00     0.002 A 
ATOM      7  C8  UNL d   1       1.454  -0.018  -0.396  0.00  0.00     0.006 A 
ENDROOT
BRANCH   1   8
ATOM      8  C1  UNL d   1       0.962   2.332  -1.173  0.00  0.00     0.054 C 
ATOM      9  C   UNL d   1       0.846   2.292  -2.690  0.00  0.00     0.018 C 
ENDBRANCH   1   8
TORSDOF 1
ENDMDL
