MODEL 1
REMARK minimizedAffinity -4.53633642
REMARK minimizedRMSD -1
REMARK  1 active torsions:
REMARK  status: ('A' for Active; 'I' for Inactive)
REMARK    1  A    between atoms: C1_2  and  C2_3 
ROOT
ATOM      1  C2  UNL d   1       0.934   0.704  -0.588  0.00  0.00    -0.081 A 
ATOM      2  C3  UNL d   1       1.571  -0.507  -0.289  0.00  0.00     0.006 A 
ATOM      3  C4  UNL d   1       0.851  -1.569   0.262  0.00  0.00     0.002 A 
ATOM      4  C5  UNL d   1      -0.519  -1.442   0.516  0.00  0.00    -0.080 A 
ATOM      5  C6  UNL d   1      -1.310  -2.585   1.079  0.00  0.00     0.076 C 
ATOM      6  C7  UNL d   1      -1.152  -0.227   0.233  0.00  0.00     0.002 A 
ATOM      7  C8  UNL d   1      -0.433   0.836  -0.317  0.00  0.00     0.006 A 
ENDROOT
BRANCH   1   8
ATOM      8  C1  UNL d   1       1.694   1.829  -1.243  0.00  0.00     0.054 C 
ATOM      9  C   UNL d   1       1.315   1.973  -2.710  0.00  0.00     0.018 C 
ENDBRANCH   1   8
TORSDOF 1
ENDMDL
