MODEL 1
REMARK minimizedAffinity -3.36837959
REMARK minimizedRMSD -1
REMARK  1 active torsions:
REMARK  status: ('A' for Active; 'I' for Inactive)
REMARK    1  A    between atoms: C1_2  and  C2_3 
ROOT
ATOM      1  C2  UNL d   1       0.249   0.759  -1.166  0.00  0.00    -0.081 A 
ATOM      2  C3  UNL d   1       0.615  -0.546  -1.519  0.00  0.00     0.006 A 
ATOM      3  C4  UNL d   1       0.309  -1.619  -0.679  0.00  0.00     0.002 A 
ATOM      4  C5  UNL d   1      -0.375  -1.407   0.523  0.00  0.00    -0.080 A 
ATOM      5  C6  UNL d   1      -0.738  -2.554   1.419  0.00  0.00     0.076 C 
ATOM      6  C7  UNL d   1      -0.726  -0.102   0.884  0.00  0.00     0.002 A 
ATOM      7  C8  UNL d   1      -0.419   0.972   0.045  0.00  0.00     0.006 A 
ENDROOT
BRANCH   1   8
ATOM      8  C1  UNL d   1       0.521   1.910  -2.100  0.00  0.00     0.054 C 
ATOM      9  C   UNL d   1       0.310   1.506  -3.552  0.00  0.00     0.018 C 
ENDBRANCH   1   8
TORSDOF 1
ENDMDL
