MODEL 1
REMARK minimizedAffinity -5.51842833
REMARK minimizedRMSD -1
REMARK  1 active torsions:
REMARK  status: ('A' for Active; 'I' for Inactive)
REMARK    1  A    between atoms: C1_2  and  C2_3 
ROOT
ATOM      1  C2  UNL d   1       0.292   0.348  -0.404  0.00  0.00    -0.081 A 
ATOM      2  C3  UNL d   1       0.807  -0.918  -0.103  0.00  0.00     0.006 A 
ATOM      3  C4  UNL d   1      -0.003  -1.891   0.486  0.00  0.00     0.002 A 
ATOM      4  C5  UNL d   1      -1.344  -1.617   0.776  0.00  0.00    -0.080 A 
ATOM      5  C6  UNL d   1      -2.234  -2.663   1.380  0.00  0.00     0.076 C 
ATOM      6  C7  UNL d   1      -1.855  -0.346   0.492  0.00  0.00     0.002 A 
ATOM      7  C8  UNL d   1      -1.045   0.627  -0.097  0.00  0.00     0.006 A 
ENDROOT
BRANCH   1   8
ATOM      8  C1  UNL d   1       1.146   1.378  -1.098  0.00  0.00     0.054 C 
ATOM      9  C   UNL d   1       0.660   1.634  -2.518  0.00  0.00     0.018 C 
ENDBRANCH   1   8
TORSDOF 1
ENDMDL
