MODEL 1
REMARK minimizedAffinity -4.65326023
REMARK minimizedRMSD -1
REMARK  1 active torsions:
REMARK  status: ('A' for Active; 'I' for Inactive)
REMARK    1  A    between atoms: C1_2  and  C2_3 
ROOT
ATOM      1  C2  UNL d   1       0.299   0.235  -0.003  0.00  0.00    -0.081 A 
ATOM      2  C3  UNL d   1       0.931  -0.996   0.212  0.00  0.00     0.006 A 
ATOM      3  C4  UNL d   1       0.185  -2.124   0.559  0.00  0.00     0.002 A 
ATOM      4  C5  UNL d   1      -1.205  -2.043   0.690  0.00  0.00    -0.080 A 
ATOM      5  C6  UNL d   1      -2.022  -3.254   1.032  0.00  0.00     0.076 C 
ATOM      6  C7  UNL d   1      -1.835  -0.809   0.492  0.00  0.00     0.002 A 
ATOM      7  C8  UNL d   1      -1.089   0.319   0.146  0.00  0.00     0.006 A 
ENDROOT
BRANCH   1   8
ATOM      8  C1  UNL d   1       1.094   1.439  -0.440  0.00  0.00     0.054 C 
ATOM      9  C   UNL d   1       0.914   1.710  -1.927  0.00  0.00     0.018 C 
ENDBRANCH   1   8
TORSDOF 1
ENDMDL
