MODEL 1
REMARK minimizedAffinity -3.65696716
REMARK minimizedRMSD -1
REMARK  1 active torsions:
REMARK  status: ('A' for Active; 'I' for Inactive)
REMARK    1  A    between atoms: C1_2  and  C2_3 
ROOT
ATOM      1  C2  UNL d   1       0.429   0.864  -0.463  0.00  0.00    -0.081 A 
ATOM      2  C3  UNL d   1       1.257  -0.217  -0.134  0.00  0.00     0.006 A 
ATOM      3  C4  UNL d   1       0.754  -1.297   0.595  0.00  0.00     0.002 A 
ATOM      4  C5  UNL d   1      -0.584  -1.319   1.002  0.00  0.00    -0.080 A 
ATOM      5  C6  UNL d   1      -1.143  -2.486   1.759  0.00  0.00     0.076 C 
ATOM      6  C7  UNL d   1      -1.406  -0.231   0.689  0.00  0.00     0.002 A 
ATOM      7  C8  UNL d   1      -0.905   0.850  -0.040  0.00  0.00     0.006 A 
ENDROOT
BRANCH   1   8
ATOM      8  C1  UNL d   1       0.951   2.000  -1.305  0.00  0.00     0.054 C 
ATOM      9  C   UNL d   1       0.044   2.265  -2.498  0.00  0.00     0.018 C 
ENDBRANCH   1   8
TORSDOF 1
ENDMDL
