MODEL 1
REMARK minimizedAffinity -4.37797546
REMARK minimizedRMSD -1
REMARK  1 active torsions:
REMARK  status: ('A' for Active; 'I' for Inactive)
REMARK    1  A    between atoms: C1_2  and  C2_3 
ROOT
ATOM      1  C2  UNL d   1       0.293   0.675  -0.492  0.00  0.00    -0.081 A 
ATOM      2  C3  UNL d   1       0.340  -0.724  -0.470  0.00  0.00     0.006 A 
ATOM      3  C4  UNL d   1      -0.520  -1.449   0.357  0.00  0.00     0.002 A 
ATOM      4  C5  UNL d   1      -1.447  -0.788   1.170  0.00  0.00    -0.080 A 
ATOM      5  C6  UNL d   1      -2.397  -1.556   2.041  0.00  0.00     0.076 C 
ATOM      6  C7  UNL d   1      -1.483   0.610   1.162  0.00  0.00     0.002 A 
ATOM      7  C8  UNL d   1      -0.622   1.336   0.335  0.00  0.00     0.006 A 
ENDROOT
BRANCH   1   8
ATOM      8  C1  UNL d   1       1.175   1.457  -1.432  0.00  0.00     0.054 C 
ATOM      9  C   UNL d   1       0.521   1.623  -2.796  0.00  0.00     0.018 C 
ENDBRANCH   1   8
TORSDOF 1
ENDMDL
