MODEL 1
REMARK minimizedAffinity -4.20419407
REMARK minimizedRMSD -1
REMARK  1 active torsions:
REMARK  status: ('A' for Active; 'I' for Inactive)
REMARK    1  A    between atoms: C1_2  and  C2_3 
ROOT
ATOM      1  C2  UNL d   1       0.684   0.430  -0.396  0.00  0.00    -0.081 A 
ATOM      2  C3  UNL d   1       1.139  -0.842  -0.025  0.00  0.00     0.006 A 
ATOM      3  C4  UNL d   1       0.259  -1.775   0.529  0.00  0.00     0.002 A 
ATOM      4  C5  UNL d   1      -1.090  -1.456   0.713  0.00  0.00    -0.080 A 
ATOM      5  C6  UNL d   1      -2.052  -2.458   1.279  0.00  0.00     0.076 C 
ATOM      6  C7  UNL d   1      -1.541  -0.180   0.359  0.00  0.00     0.002 A 
ATOM      7  C8  UNL d   1      -0.662   0.754  -0.194  0.00  0.00     0.006 A 
ENDROOT
BRANCH   1   8
ATOM      8  C1  UNL d   1       1.616   1.415  -1.053  0.00  0.00     0.054 C 
ATOM      9  C   UNL d   1       1.406   1.456  -2.560  0.00  0.00     0.018 C 
ENDBRANCH   1   8
TORSDOF 1
ENDMDL
