MODEL 1
REMARK minimizedAffinity -1.51597118
REMARK minimizedRMSD -1
REMARK  1 active torsions:
REMARK  status: ('A' for Active; 'I' for Inactive)
REMARK    1  A    between atoms: C1_2  and  C2_3 
ROOT
ATOM      1  C2  UNL d   1       0.382   0.024  -0.193  0.00  0.00    -0.081 A 
ATOM      2  C3  UNL d   1       0.775  -0.904   0.779  0.00  0.00     0.006 A 
ATOM      3  C4  UNL d   1      -0.132  -1.851   1.262  0.00  0.00     0.002 A 
ATOM      4  C5  UNL d   1      -1.443  -1.890   0.776  0.00  0.00    -0.080 A 
ATOM      5  C6  UNL d   1      -2.418  -2.920   1.264  0.00  0.00     0.076 C 
ATOM      6  C7  UNL d   1      -1.841  -0.952  -0.182  0.00  0.00     0.002 A 
ATOM      7  C8  UNL d   1      -0.935  -0.005  -0.665  0.00  0.00     0.006 A 
ENDROOT
BRANCH   1   8
ATOM      8  C1  UNL d   1       1.375   1.004  -0.763  0.00  0.00     0.054 C 
ATOM      9  C   UNL d   1       1.383   0.962  -2.284  0.00  0.00     0.018 C 
ENDBRANCH   1   8
TORSDOF 1
ENDMDL
