MODEL 1
REMARK minimizedAffinity -4.25104618
REMARK minimizedRMSD -1
REMARK  1 active torsions:
REMARK  status: ('A' for Active; 'I' for Inactive)
REMARK    1  A    between atoms: C1_2  and  C2_3 
ROOT
ATOM      1  C2  UNL d   1      -3.447  -4.463  -5.256  0.00  0.00    -0.081 A 
ATOM      2  C3  UNL d   1      -3.264  -4.261  -3.883  0.00  0.00     0.006 A 
ATOM      3  C4  UNL d   1      -4.081  -3.368  -3.184  0.00  0.00     0.002 A 
ATOM      4  C5  UNL d   1      -5.097  -2.670  -3.844  0.00  0.00    -0.080 A 
ATOM      5  C6  UNL d   1      -6.000  -1.731  -3.099  0.00  0.00     0.076 C 
ATOM      6  C7  UNL d   1      -5.268  -2.859  -5.219  0.00  0.00     0.002 A 
ATOM      7  C8  UNL d   1      -4.452  -3.750  -5.919  0.00  0.00     0.006 A 
ENDROOT
BRANCH   1   8
ATOM      8  C1  UNL d   1      -2.611  -5.473  -6.000  0.00  0.00     0.054 C 
ATOM      9  C   UNL d   1      -1.126  -5.255  -5.748  0.00  0.00     0.018 C 
ENDBRANCH   1   8
TORSDOF 1
ENDMDL
