MODEL 1
REMARK minimizedAffinity 10.6097994
REMARK minimizedRMSD -1
REMARK  1 active torsions:
REMARK  status: ('A' for Active; 'I' for Inactive)
REMARK    1  A    between atoms: C1_2  and  C2_3 
ROOT
ATOM      1  C2  UNL d   1       2.892   3.309  -2.877  0.00  0.00    -0.077 A 
ATOM      2  C3  UNL d   1       1.786   4.167  -2.788  0.00  0.00     0.002 A 
ATOM      3  C4  UNL d   1       0.666   3.799  -2.041  0.00  0.00     0.002 A 
ATOM      4  C5  UNL d   1       0.641   2.576  -1.374  0.00  0.00    -0.004 A 
ATOM      5  C6  UNL d   1       1.735   1.715  -1.458  0.00  0.00     0.002 A 
ATOM      6  C7  UNL d   1       2.855   2.080  -2.206  0.00  0.00     0.002 A 
ENDROOT
BRANCH   1   7
ATOM      7  C1  UNL d   1       4.121   3.724  -3.643  0.00  0.00     0.055 C 
ATOM      8  C   UNL d   1       4.007   3.356  -5.115  0.00  0.00     0.019 C 
ENDBRANCH   1   7
TORSDOF 1
ENDMDL
