MODEL 1
REMARK minimizedAffinity 8.47105122
REMARK minimizedRMSD -1
REMARK  1 active torsions:
REMARK  status: ('A' for Active; 'I' for Inactive)
REMARK    1  A    between atoms: C1_2  and  C2_3 
ROOT
ATOM      1  C2  UNL d   1       4.981   4.858  -2.279  0.00  0.00    -0.077 A 
ATOM      2  C3  UNL d   1       3.810   4.105  -2.436  0.00  0.00     0.002 A 
ATOM      3  C4  UNL d   1       3.567   3.415  -3.625  0.00  0.00     0.002 A 
ATOM      4  C5  UNL d   1       4.493   3.468  -4.665  0.00  0.00    -0.004 A 
ATOM      5  C6  UNL d   1       5.661   4.217  -4.520  0.00  0.00     0.002 A 
ATOM      6  C7  UNL d   1       5.904   4.908  -3.332  0.00  0.00     0.002 A 
ENDROOT
BRANCH   1   7
ATOM      7  C1  UNL d   1       5.267   5.563  -0.979  0.00  0.00     0.055 C 
ATOM      8  C   UNL d   1       5.999   4.651  -0.005  0.00  0.00     0.019 C 
ENDBRANCH   1   7
TORSDOF 1
ENDMDL
