MODEL 1
REMARK minimizedAffinity 11.708066
REMARK minimizedRMSD -1
REMARK  1 active torsions:
REMARK  status: ('A' for Active; 'I' for Inactive)
REMARK    1  A    between atoms: C1_2  and  C2_3 
ROOT
ATOM      1  C2  UNL d   1       4.521   4.103  -2.596  0.00  0.00    -0.077 A 
ATOM      2  C3  UNL d   1       3.233   3.907  -2.077  0.00  0.00     0.002 A 
ATOM      3  C4  UNL d   1       2.243   3.304  -2.855  0.00  0.00     0.002 A 
ATOM      4  C5  UNL d   1       2.530   2.889  -4.153  0.00  0.00    -0.004 A 
ATOM      5  C6  UNL d   1       3.808   3.081  -4.679  0.00  0.00     0.002 A 
ATOM      6  C7  UNL d   1       4.799   3.684  -3.903  0.00  0.00     0.002 A 
ENDROOT
BRANCH   1   7
ATOM      7  C1  UNL d   1       5.604   4.708  -1.742  0.00  0.00     0.055 C 
ATOM      8  C   UNL d   1       5.972   3.792  -0.584  0.00  0.00     0.019 C 
ENDBRANCH   1   7
TORSDOF 1
ENDMDL
