MODEL 1
REMARK minimizedAffinity 17.4399853
REMARK minimizedRMSD -1
REMARK  1 active torsions:
REMARK  status: ('A' for Active; 'I' for Inactive)
REMARK    1  A    between atoms: C1_2  and  C2_3 
ROOT
ATOM      1  C2  UNL d   1      -2.695   5.584  -3.512  0.00  0.00    -0.077 A 
ATOM      2  C3  UNL d   1      -1.633   5.594  -2.596  0.00  0.00     0.002 A 
ATOM      3  C4  UNL d   1      -1.879   5.448  -1.229  0.00  0.00     0.002 A 
ATOM      4  C5  UNL d   1      -3.183   5.286  -0.767  0.00  0.00    -0.004 A 
ATOM      5  C6  UNL d   1      -4.246   5.277  -1.670  0.00  0.00     0.002 A 
ATOM      6  C7  UNL d   1      -4.002   5.425  -3.036  0.00  0.00     0.002 A 
ENDROOT
BRANCH   1   7
ATOM      7  C1  UNL d   1      -2.428   5.693  -4.990  0.00  0.00     0.055 C 
ATOM      8  C   UNL d   1      -0.992   5.315  -5.323  0.00  0.00     0.019 C 
ENDBRANCH   1   7
TORSDOF 1
ENDMDL
