MODEL 1
REMARK minimizedAffinity 9.14063263
REMARK minimizedRMSD -1
REMARK  1 active torsions:
REMARK  status: ('A' for Active; 'I' for Inactive)
REMARK    1  A    between atoms: C1_2  and  C2_3 
ROOT
ATOM      1  C2  UNL d   1      -5.294   2.523  -0.620  0.00  0.00    -0.077 A 
ATOM      2  C3  UNL d   1      -5.347   1.615   0.447  0.00  0.00     0.002 A 
ATOM      3  C4  UNL d   1      -5.481   0.247   0.203  0.00  0.00     0.002 A 
ATOM      4  C5  UNL d   1      -5.559  -0.225  -1.105  0.00  0.00    -0.004 A 
ATOM      5  C6  UNL d   1      -5.510   0.670  -2.173  0.00  0.00     0.002 A 
ATOM      6  C7  UNL d   1      -5.377   2.038  -1.931  0.00  0.00     0.002 A 
ENDROOT
BRANCH   1   7
ATOM      7  C1  UNL d   1      -5.100   3.995  -0.361  0.00  0.00     0.055 C 
ATOM      8  C   UNL d   1      -3.990   4.568  -1.230  0.00  0.00     0.019 C 
ENDBRANCH   1   7
TORSDOF 1
ENDMDL
