MODEL 1
REMARK minimizedAffinity 8.85671043
REMARK minimizedRMSD -1
REMARK  1 active torsions:
REMARK  status: ('A' for Active; 'I' for Inactive)
REMARK    1  A    between atoms: C1_2  and  C2_3 
ROOT
ATOM      1  C2  UNL d   1       0.056   3.402  -3.344  0.00  0.00    -0.077 A 
ATOM      2  C3  UNL d   1       0.017   2.335  -2.435  0.00  0.00     0.002 A 
ATOM      3  C4  UNL d   1       1.201   1.770  -1.957  0.00  0.00     0.002 A 
ATOM      4  C5  UNL d   1       2.432   2.268  -2.380  0.00  0.00    -0.004 A 
ATOM      5  C6  UNL d   1       2.482   3.327  -3.285  0.00  0.00     0.002 A 
ATOM      6  C7  UNL d   1       1.299   3.892  -3.765  0.00  0.00     0.002 A 
ENDROOT
BRANCH   1   7
ATOM      7  C1  UNL d   1      -1.220   4.044  -3.822  0.00  0.00     0.055 C 
ATOM      8  C   UNL d   1      -1.172   4.325  -5.317  0.00  0.00     0.019 C 
ENDBRANCH   1   7
TORSDOF 1
ENDMDL
