MODEL 1
REMARK minimizedAffinity 3.33596539
REMARK minimizedRMSD -1
REMARK  1 active torsions:
REMARK  status: ('A' for Active; 'I' for Inactive)
REMARK    1  A    between atoms: C1_2  and  C2_3 
ROOT
ATOM      1  C2  UNL d   1      -4.024  -0.154   0.934  0.00  0.00    -0.077 A 
ATOM      2  C3  UNL d   1      -4.879  -0.918   1.741  0.00  0.00     0.002 A 
ATOM      3  C4  UNL d   1      -4.361  -1.700   2.776  0.00  0.00     0.002 A 
ATOM      4  C5  UNL d   1      -2.989  -1.722   3.015  0.00  0.00    -0.004 A 
ATOM      5  C6  UNL d   1      -2.130  -0.968   2.216  0.00  0.00     0.002 A 
ATOM      6  C7  UNL d   1      -2.646  -0.186   1.181  0.00  0.00     0.002 A 
ENDROOT
BRANCH   1   7
ATOM      7  C1  UNL d   1      -4.585   0.728  -0.151  0.00  0.00     0.055 C 
ATOM      8  C   UNL d   1      -4.832  -0.057  -1.430  0.00  0.00     0.019 C 
ENDBRANCH   1   7
TORSDOF 1
ENDMDL
