MODEL 1
REMARK minimizedAffinity 11.3279161
REMARK minimizedRMSD -1
REMARK  1 active torsions:
REMARK  status: ('A' for Active; 'I' for Inactive)
REMARK    1  A    between atoms: C1_2  and  C2_3 
ROOT
ATOM      1  C2  UNL d   1       3.451   3.677  -3.632  0.00  0.00    -0.077 A 
ATOM      2  C3  UNL d   1       4.339   4.442  -2.863  0.00  0.00     0.002 A 
ATOM      3  C4  UNL d   1       5.525   4.922  -3.423  0.00  0.00     0.002 A 
ATOM      4  C5  UNL d   1       5.830   4.647  -4.754  0.00  0.00    -0.004 A 
ATOM      5  C6  UNL d   1       4.954   3.885  -5.526  0.00  0.00     0.002 A 
ATOM      6  C7  UNL d   1       3.769   3.403  -4.968  0.00  0.00     0.002 A 
ENDROOT
BRANCH   1   7
ATOM      7  C1  UNL d   1       2.148   3.200  -3.044  0.00  0.00     0.055 C 
ATOM      8  C   UNL d   1       2.378   2.133  -1.983  0.00  0.00     0.019 C 
ENDBRANCH   1   7
TORSDOF 1
ENDMDL
