MODEL 1
REMARK minimizedAffinity 6.16271305
REMARK minimizedRMSD -1
REMARK  1 active torsions:
REMARK  status: ('A' for Active; 'I' for Inactive)
REMARK    1  A    between atoms: C1_2  and  C2_3 
ROOT
ATOM      1  C2  UNL d   1       3.136   3.339  -3.206  0.00  0.00    -0.077 A 
ATOM      2  C3  UNL d   1       3.451   3.214  -4.566  0.00  0.00     0.002 A 
ATOM      3  C4  UNL d   1       4.581   3.845  -5.090  0.00  0.00     0.002 A 
ATOM      4  C5  UNL d   1       5.406   4.601  -4.261  0.00  0.00    -0.004 A 
ATOM      5  C6  UNL d   1       5.100   4.734  -2.908  0.00  0.00     0.002 A 
ATOM      6  C7  UNL d   1       3.970   4.105  -2.382  0.00  0.00     0.002 A 
ENDROOT
BRANCH   1   7
ATOM      7  C1  UNL d   1       1.945   2.619  -2.628  0.00  0.00     0.055 C 
ATOM      8  C   UNL d   1       2.349   1.730  -1.461  0.00  0.00     0.019 C 
ENDBRANCH   1   7
TORSDOF 1
ENDMDL
