MODEL 1
REMARK minimizedAffinity -2.95742989
REMARK minimizedRMSD -1
REMARK  1 active torsions:
REMARK  status: ('A' for Active; 'I' for Inactive)
REMARK    1  A    between atoms: C1_2  and  C2_3 
ROOT
ATOM      1  C2  UNL d   1      -4.218   0.555   3.061  0.00  0.00    -0.077 A 
ATOM      2  C3  UNL d   1      -4.215  -0.327   1.971  0.00  0.00     0.002 A 
ATOM      3  C4  UNL d   1      -3.019  -0.894   1.525  0.00  0.00     0.002 A 
ATOM      4  C5  UNL d   1      -1.820  -0.589   2.165  0.00  0.00    -0.004 A 
ATOM      5  C6  UNL d   1      -1.812   0.289   3.248  0.00  0.00     0.002 A 
ATOM      6  C7  UNL d   1      -3.006   0.858   3.695  0.00  0.00     0.002 A 
ENDROOT
BRANCH   1   7
ATOM      7  C1  UNL d   1      -5.512   1.130   3.574  0.00  0.00     0.055 C 
ATOM      8  C   UNL d   1      -5.682   0.866   5.063  0.00  0.00     0.019 C 
ENDBRANCH   1   7
TORSDOF 1
ENDMDL
