MODEL 1
REMARK minimizedAffinity 7.9969883
REMARK minimizedRMSD -1
REMARK  1 active torsions:
REMARK  status: ('A' for Active; 'I' for Inactive)
REMARK    1  A    between atoms: C1_2  and  C2_3 
ROOT
ATOM      1  C2  UNL d   1       2.659   3.740  -3.132  0.00  0.00    -0.077 A 
ATOM      2  C3  UNL d   1       3.217   3.332  -4.351  0.00  0.00     0.002 A 
ATOM      3  C4  UNL d   1       4.488   3.771  -4.728  0.00  0.00     0.002 A 
ATOM      4  C5  UNL d   1       5.212   4.616  -3.890  0.00  0.00    -0.004 A 
ATOM      5  C6  UNL d   1       4.664   5.029  -2.676  0.00  0.00     0.002 A 
ATOM      6  C7  UNL d   1       3.394   4.592  -2.298  0.00  0.00     0.002 A 
ENDROOT
BRANCH   1   7
ATOM      7  C1  UNL d   1       1.309   3.228  -2.701  0.00  0.00     0.055 C 
ATOM      8  C   UNL d   1       1.438   1.973  -1.851  0.00  0.00     0.019 C 
ENDBRANCH   1   7
TORSDOF 1
ENDMDL
