MODEL 1
REMARK minimizedAffinity 6.47739315
REMARK minimizedRMSD -1
REMARK  1 active torsions:
REMARK  status: ('A' for Active; 'I' for Inactive)
REMARK    1  A    between atoms: C1_2  and  C2_3 
ROOT
ATOM      1  C2  UNL d   1       5.444   3.777  -0.173  0.00  0.00    -0.077 A 
ATOM      2  C3  UNL d   1       4.375   2.877  -0.285  0.00  0.00     0.002 A 
ATOM      3  C4  UNL d   1       3.832   2.281   0.855  0.00  0.00     0.002 A 
ATOM      4  C5  UNL d   1       4.348   2.582   2.114  0.00  0.00    -0.004 A 
ATOM      5  C6  UNL d   1       5.412   3.475   2.235  0.00  0.00     0.002 A 
ATOM      6  C7  UNL d   1       5.957   4.070   1.097  0.00  0.00     0.002 A 
ENDROOT
BRANCH   1   7
ATOM      7  C1  UNL d   1       6.000   4.459  -1.396  0.00  0.00     0.055 C 
ATOM      8  C   UNL d   1       5.900   5.973  -1.280  0.00  0.00     0.019 C 
ENDBRANCH   1   7
TORSDOF 1
ENDMDL
