MODEL 1
REMARK minimizedAffinity 3.11975861
REMARK minimizedRMSD -1
REMARK  1 active torsions:
REMARK  status: ('A' for Active; 'I' for Inactive)
REMARK    1  A    between atoms: C1_2  and  C2_3 
ROOT
ATOM      1  C2  UNL d   1      -2.386  -0.177   2.331  0.00  0.00    -0.077 A 
ATOM      2  C3  UNL d   1      -2.128  -1.436   1.769  0.00  0.00     0.002 A 
ATOM      3  C4  UNL d   1      -1.038  -2.193   2.205  0.00  0.00     0.002 A 
ATOM      4  C5  UNL d   1      -0.202  -1.703   3.205  0.00  0.00    -0.004 A 
ATOM      5  C6  UNL d   1      -0.449  -0.451   3.768  0.00  0.00     0.002 A 
ATOM      6  C7  UNL d   1      -1.537   0.308   3.333  0.00  0.00     0.002 A 
ENDROOT
BRANCH   1   7
ATOM      7  C1  UNL d   1      -3.589   0.619   1.897  0.00  0.00     0.055 C 
ATOM      8  C   UNL d   1      -4.591  -0.251   1.153  0.00  0.00     0.019 C 
ENDBRANCH   1   7
TORSDOF 1
ENDMDL
