MODEL 1
REMARK minimizedAffinity 14.6946507
REMARK minimizedRMSD -1
REMARK  0 active torsions:
REMARK  status: ('A' for Active; 'I' for Inactive)
ROOT
ATOM      1  C2' OXE d   1       4.552   1.727   2.457  0.00  0.00     0.078 C 
ATOM      2  C1' OXE d   1       3.646   3.392   0.387  0.00  0.00     0.078 C 
ATOM      3  C1  OXE d   1       4.052   4.042   1.685  0.00  0.00    -0.078 A 
ATOM      4  C2  OXE d   1       4.450   3.216   2.709  0.00  0.00    -0.078 A 
ATOM      5  C3  OXE d   1       4.888   3.767   3.910  0.00  0.00     0.003 A 
ATOM      6  C4  OXE d   1       4.781   5.144   4.138  0.00  0.00    -0.002 A 
ATOM      7  C5  OXE d   1       4.341   6.000   3.123  0.00  0.00    -0.002 A 
ATOM      8  C6  OXE d   1       4.014   5.471   1.879  0.00  0.00     0.003 A 
ENDROOT
TORSDOF 0
ENDMDL
