MODEL 1
REMARK minimizedAffinity 9.01344967
REMARK minimizedRMSD -1
REMARK  0 active torsions:
REMARK  status: ('A' for Active; 'I' for Inactive)
ROOT
ATOM      1  C2' OXE d   1       5.771   2.468   3.754  0.00  0.00     0.078 C 
ATOM      2  C1' OXE d   1       3.704   2.164   1.880  0.00  0.00     0.078 C 
ATOM      3  C1  OXE d   1       4.352   3.520   1.998  0.00  0.00    -0.078 A 
ATOM      4  C2  OXE d   1       5.331   3.672   2.951  0.00  0.00    -0.078 A 
ATOM      5  C3  OXE d   1       6.000   4.888   3.064  0.00  0.00     0.003 A 
ATOM      6  C4  OXE d   1       5.580   6.000   2.324  0.00  0.00    -0.002 A 
ATOM      7  C5  OXE d   1       4.558   5.877   1.377  0.00  0.00    -0.002 A 
ATOM      8  C6  OXE d   1       3.964   4.637   1.172  0.00  0.00     0.003 A 
ENDROOT
TORSDOF 0
ENDMDL
