MODEL 1
REMARK minimizedAffinity 16.865572
REMARK minimizedRMSD -1
REMARK  0 active torsions:
REMARK  status: ('A' for Active; 'I' for Inactive)
ROOT
ATOM      1  C2' OXE d   1      -2.024  -1.713   2.998  0.00  0.00     0.078 C 
ATOM      2  C1' OXE d   1       0.060  -2.876   4.476  0.00  0.00     0.078 C 
ATOM      3  C1  OXE d   1       0.386  -1.672   3.628  0.00  0.00    -0.078 A 
ATOM      4  C2  OXE d   1      -0.629  -1.138   2.872  0.00  0.00    -0.078 A 
ATOM      5  C3  OXE d   1      -0.396   0.007   2.115  0.00  0.00     0.003 A 
ATOM      6  C4  OXE d   1       0.898   0.526   1.996  0.00  0.00    -0.002 A 
ATOM      7  C5  OXE d   1       1.955  -0.027   2.726  0.00  0.00    -0.002 A 
ATOM      8  C6  OXE d   1       1.708  -1.098   3.578  0.00  0.00     0.003 A 
ENDROOT
TORSDOF 0
ENDMDL
