MODEL 1
REMARK minimizedAffinity 17.9113789
REMARK minimizedRMSD -1
REMARK  0 active torsions:
REMARK  status: ('A' for Active; 'I' for Inactive)
ROOT
ATOM      1  C2' OXE d   1      -1.982  -0.444   2.428  0.00  0.00     0.078 C 
ATOM      2  C1' OXE d   1       0.079   0.778   0.964  0.00  0.00     0.078 C 
ATOM      3  C1  OXE d   1       0.461  -0.021   2.184  0.00  0.00    -0.078 A 
ATOM      4  C2  OXE d   1      -0.557  -0.577   2.921  0.00  0.00    -0.078 A 
ATOM      5  C3  OXE d   1      -0.256  -1.369   4.025  0.00  0.00     0.003 A 
ATOM      6  C4  OXE d   1       1.063  -1.478   4.481  0.00  0.00    -0.002 A 
ATOM      7  C5  OXE d   1       2.112  -0.888   3.768  0.00  0.00    -0.002 A 
ATOM      8  C6  OXE d   1       1.833  -0.193   2.596  0.00  0.00     0.003 A 
ENDROOT
TORSDOF 0
ENDMDL
