MODEL 1
REMARK minimizedAffinity 8.28998566
REMARK minimizedRMSD -1
REMARK  0 active torsions:
REMARK  status: ('A' for Active; 'I' for Inactive)
ROOT
ATOM      1  C2' OXE d   1      -0.786   2.390   4.281  0.00  0.00     0.078 C 
ATOM      2  C1' OXE d   1      -1.745   0.117   2.941  0.00  0.00     0.078 C 
ATOM      3  C1  OXE d   1      -0.304   0.114   3.390  0.00  0.00    -0.078 A 
ATOM      4  C2  OXE d   1       0.169   1.249   4.003  0.00  0.00    -0.078 A 
ATOM      5  C3  OXE d   1       1.474   1.279   4.485  0.00  0.00     0.003 A 
ATOM      6  C4  OXE d   1       2.354   0.223   4.215  0.00  0.00    -0.002 A 
ATOM      7  C5  OXE d   1       1.903  -0.926   3.556  0.00  0.00    -0.002 A 
ATOM      8  C6  OXE d   1       0.569  -1.013   3.176  0.00  0.00     0.003 A 
ENDROOT
TORSDOF 0
ENDMDL
