MODEL 1
REMARK minimizedAffinity 8.29748726
REMARK minimizedRMSD -1
REMARK  0 active torsions:
REMARK  status: ('A' for Active; 'I' for Inactive)
ROOT
ATOM      1  C2' OXE d   1      -2.759  -1.147   2.974  0.00  0.00     0.078 C 
ATOM      2  C1' OXE d   1      -1.054  -3.035   4.161  0.00  0.00     0.078 C 
ATOM      3  C1  OXE d   1      -0.438  -1.763   3.636  0.00  0.00    -0.078 A 
ATOM      4  C2  OXE d   1      -1.273  -0.866   3.015  0.00  0.00    -0.078 A 
ATOM      5  C3  OXE d   1      -0.765   0.348   2.561  0.00  0.00     0.003 A 
ATOM      6  C4  OXE d   1       0.613   0.597   2.593  0.00  0.00    -0.002 A 
ATOM      7  C5  OXE d   1       1.486  -0.321   3.186  0.00  0.00    -0.002 A 
ATOM      8  C6  OXE d   1       0.972  -1.485   3.749  0.00  0.00     0.003 A 
ENDROOT
TORSDOF 0
ENDMDL
