MODEL 1
REMARK minimizedAffinity 17.037796
REMARK minimizedRMSD -1
REMARK  0 active torsions:
REMARK  status: ('A' for Active; 'I' for Inactive)
ROOT
ATOM      1  C2' OXE d   1       0.126   1.969   5.827  0.00  0.00     0.078 C 
ATOM      2  C1' OXE d   1      -1.418   2.414   3.525  0.00  0.00     0.078 C 
ATOM      3  C1  OXE d   1      -0.448   1.259   3.509  0.00  0.00    -0.078 A 
ATOM      4  C2  OXE d   1       0.337   1.077   4.622  0.00  0.00    -0.078 A 
ATOM      5  C3  OXE d   1       1.209  -0.006   4.681  0.00  0.00     0.003 A 
ATOM      6  C4  OXE d   1       1.405  -0.820   3.559  0.00  0.00    -0.002 A 
ATOM      7  C5  OXE d   1       0.645  -0.628   2.401  0.00  0.00    -0.002 A 
ATOM      8  C6  OXE d   1      -0.315   0.378   2.375  0.00  0.00     0.003 A 
ENDROOT
TORSDOF 0
ENDMDL
