MODEL 1
REMARK minimizedAffinity 6.01354551
REMARK minimizedRMSD -1
REMARK  0 active torsions:
REMARK  status: ('A' for Active; 'I' for Inactive)
ROOT
ATOM      1  C2' OXE d   1       5.998   5.916   4.587  0.00  0.00     0.078 C 
ATOM      2  C1' OXE d   1       3.193   5.998   4.504  0.00  0.00     0.078 C 
ATOM      3  C1  OXE d   1       3.913   5.371   3.336  0.00  0.00    -0.078 A 
ATOM      4  C2  OXE d   1       5.287   5.378   3.364  0.00  0.00    -0.078 A 
ATOM      5  C3  OXE d   1       6.000   4.764   2.338  0.00  0.00     0.003 A 
ATOM      6  C4  OXE d   1       5.335   4.278   1.205  0.00  0.00    -0.002 A 
ATOM      7  C5  OXE d   1       3.938   4.297   1.139  0.00  0.00    -0.002 A 
ATOM      8  C6  OXE d   1       3.212   4.801   2.213  0.00  0.00     0.003 A 
ENDROOT
TORSDOF 0
ENDMDL
