MODEL 1
REMARK minimizedAffinity 10.208992
REMARK minimizedRMSD -1
REMARK  0 active torsions:
REMARK  status: ('A' for Active; 'I' for Inactive)
ROOT
ATOM      1  C2' OXE d   1      -0.891   2.367   2.947  0.00  0.00     0.078 C 
ATOM      2  C1' OXE d   1       1.030   1.976   4.956  0.00  0.00     0.078 C 
ATOM      3  C1  OXE d   1       0.779   0.843   3.993  0.00  0.00    -0.078 A 
ATOM      4  C2  OXE d   1      -0.196   1.026   3.042  0.00  0.00    -0.078 A 
ATOM      5  C3  OXE d   1      -0.429   0.033   2.094  0.00  0.00     0.003 A 
ATOM      6  C4  OXE d   1       0.211  -1.208   2.195  0.00  0.00    -0.002 A 
ATOM      7  C5  OXE d   1       1.179  -1.429   3.181  0.00  0.00    -0.002 A 
ATOM      8  C6  OXE d   1       1.504  -0.402   4.059  0.00  0.00     0.003 A 
ENDROOT
TORSDOF 0
ENDMDL
