MODEL 1
REMARK minimizedAffinity 20.1837349
REMARK minimizedRMSD -1
REMARK  0 active torsions:
REMARK  status: ('A' for Active; 'I' for Inactive)
ROOT
ATOM      1  C2' OXE d   1       2.872   0.881   4.047  0.00  0.00     0.078 C 
ATOM      2  C1' OXE d   1       0.382   1.999   3.392  0.00  0.00     0.078 C 
ATOM      3  C1  OXE d   1       0.622   0.555   3.030  0.00  0.00    -0.078 A 
ATOM      4  C2  OXE d   1       1.860   0.029   3.312  0.00  0.00    -0.078 A 
ATOM      5  C3  OXE d   1       2.115  -1.313   3.049  0.00  0.00     0.003 A 
ATOM      6  C4  OXE d   1       1.176  -2.092   2.360  0.00  0.00    -0.002 A 
ATOM      7  C5  OXE d   1      -0.076  -1.564   2.028  0.00  0.00    -0.002 A 
ATOM      8  C6  OXE d   1      -0.384  -0.259   2.393  0.00  0.00     0.003 A 
ENDROOT
TORSDOF 0
ENDMDL
