MODEL 1
REMARK minimizedAffinity 8.12947941
REMARK minimizedRMSD -1
REMARK  0 active torsions:
REMARK  status: ('A' for Active; 'I' for Inactive)
ROOT
ATOM      1  C2' OXE d   1       0.574   1.817   5.596  0.00  0.00     0.078 C 
ATOM      2  C1' OXE d   1      -0.735   2.307   3.162  0.00  0.00     0.078 C 
ATOM      3  C1  OXE d   1      -0.122   0.945   3.369  0.00  0.00    -0.078 A 
ATOM      4  C2  OXE d   1       0.557   0.729   4.544  0.00  0.00    -0.078 A 
ATOM      5  C3  OXE d   1       1.095  -0.527   4.809  0.00  0.00     0.003 A 
ATOM      6  C4  OXE d   1       1.084  -1.524   3.826  0.00  0.00    -0.002 A 
ATOM      7  C5  OXE d   1       0.432  -1.312   2.607  0.00  0.00    -0.002 A 
ATOM      8  C6  OXE d   1      -0.211  -0.100   2.380  0.00  0.00     0.003 A 
ENDROOT
TORSDOF 0
ENDMDL
