MODEL 1
REMARK minimizedAffinity 15.2515688
REMARK minimizedRMSD -1
REMARK  0 active torsions:
REMARK  status: ('A' for Active; 'I' for Inactive)
ROOT
ATOM      1  C2' OXE d   1       3.418  -3.043  -4.494  0.00  0.00     0.078 C 
ATOM      2  C1' OXE d   1       1.316  -4.220  -5.935  0.00  0.00     0.078 C 
ATOM      3  C1  OXE d   1       1.087  -2.849  -5.351  0.00  0.00    -0.078 A 
ATOM      4  C2  OXE d   1       2.104  -2.300  -4.608  0.00  0.00    -0.078 A 
ATOM      5  C3  OXE d   1       1.965  -1.014  -4.093  0.00  0.00     0.003 A 
ATOM      6  C4  OXE d   1       0.743  -0.338  -4.194  0.00  0.00    -0.002 A 
ATOM      7  C5  OXE d   1      -0.319  -0.896  -4.913  0.00  0.00    -0.002 A 
ATOM      8  C6  OXE d   1      -0.150  -2.129  -5.533  0.00  0.00     0.003 A 
ENDROOT
TORSDOF 0
ENDMDL
