MODEL 1
REMARK minimizedAffinity -3.46802831
REMARK minimizedRMSD -1
REMARK  2 active torsions:
REMARK  status: ('A' for Active; 'I' for Inactive)
REMARK    1  A    between atoms: C2'_3  and  C1'_4 
REMARK    2  A    between atoms: C1'_4  and  C1_5 
ROOT
ATOM      1  C1  I4B d   1       0.051   0.336  -0.113  0.00  0.00    -0.075 A 
ATOM      2  C2  I4B d   1       0.852   0.891   0.855  0.00  0.00     0.003 A 
ATOM      3  C3  I4B d   1       0.649   0.568   2.218  0.00  0.00     0.002 A 
ATOM      4  C4  I4B d   1      -0.391  -0.267   2.572  0.00  0.00    -0.004 A 
ATOM      5  C5  I4B d   1      -1.187  -0.846   1.588  0.00  0.00     0.002 A 
ATOM      6  C6  I4B d   1      -0.957  -0.552   0.236  0.00  0.00     0.003 A 
ENDROOT
BRANCH   1   7
ATOM      7  C1' I4B d   1       0.272   0.724  -1.541  0.00  0.00     0.060 C 
BRANCH   7   8
ATOM      8  C2' I4B d   1       0.625  -0.529  -2.315  0.00  0.00    -0.013 C 
ATOM      9  C4' I4B d   1      -0.585  -1.103  -3.005  0.00  0.00     0.013 C 
ATOM     10  C3' I4B d   1       1.695  -0.176  -3.305  0.00  0.00     0.013 C 
ENDBRANCH   7   8
ENDBRANCH   1   7
TORSDOF 2
ENDMDL
