MODEL 1
REMARK minimizedAffinity -5.41883945
REMARK minimizedRMSD -1
REMARK  2 active torsions:
REMARK  status: ('A' for Active; 'I' for Inactive)
REMARK    1  A    between atoms: C2'_3  and  C1'_4 
REMARK    2  A    between atoms: C1'_4  and  C1_5 
ROOT
ATOM      1  C1  I4B d   1      -0.738   0.457   3.338  0.00  0.00    -0.075 A 
ATOM      2  C2  I4B d   1       0.565   0.881   3.270  0.00  0.00     0.003 A 
ATOM      3  C3  I4B d   1       0.910   2.195   3.671  0.00  0.00     0.002 A 
ATOM      4  C4  I4B d   1      -0.082   3.061   4.083  0.00  0.00    -0.004 A 
ATOM      5  C5  I4B d   1      -1.400   2.622   4.174  0.00  0.00     0.002 A 
ATOM      6  C6  I4B d   1      -1.729   1.308   3.811  0.00  0.00     0.003 A 
ENDROOT
BRANCH   1   7
ATOM      7  C1' I4B d   1      -1.071  -0.926   2.876  0.00  0.00     0.060 C 
BRANCH   7   8
ATOM      8  C2' I4B d   1      -1.710  -0.819   1.506  0.00  0.00    -0.013 C 
ATOM      9  C4' I4B d   1      -2.981  -0.012   1.559  0.00  0.00     0.013 C 
ATOM     10  C3' I4B d   1      -0.712  -0.197   0.577  0.00  0.00     0.013 C 
ENDBRANCH   7   8
ENDBRANCH   1   7
TORSDOF 2
ENDMDL
