MODEL 1
REMARK minimizedAffinity -6.06441355
REMARK minimizedRMSD -1
REMARK  2 active torsions:
REMARK  status: ('A' for Active; 'I' for Inactive)
REMARK    1  A    between atoms: C2'_3  and  C1'_4 
REMARK    2  A    between atoms: C1'_4  and  C1_5 
ROOT
ATOM      1  C1  I4B d   1      -0.960   0.150   0.013  0.00  0.00    -0.075 A 
ATOM      2  C2  I4B d   1      -0.048  -0.189   0.982  0.00  0.00     0.003 A 
ATOM      3  C3  I4B d   1      -0.478  -0.449   2.306  0.00  0.00     0.002 A 
ATOM      4  C4  I4B d   1      -1.813  -0.308   2.626  0.00  0.00    -0.004 A 
ATOM      5  C5  I4B d   1      -2.739   0.014   1.638  0.00  0.00     0.002 A 
ATOM      6  C6  I4B d   1      -2.311   0.232   0.320  0.00  0.00     0.003 A 
ENDROOT
BRANCH   1   7
ATOM      7  C1' I4B d   1      -0.467   0.449  -1.367  0.00  0.00     0.060 C 
BRANCH   7   8
ATOM      8  C2' I4B d   1       0.289  -0.765  -1.866  0.00  0.00    -0.013 C 
ATOM      9  C4' I4B d   1      -0.615  -1.693  -2.634  0.00  0.00     0.013 C 
ATOM     10  C3' I4B d   1       1.424  -0.285  -2.721  0.00  0.00     0.013 C 
ENDBRANCH   7   8
ENDBRANCH   1   7
TORSDOF 2
ENDMDL
