MODEL 1
REMARK minimizedAffinity -3.90383315
REMARK minimizedRMSD -1
REMARK  2 active torsions:
REMARK  status: ('A' for Active; 'I' for Inactive)
REMARK    1  A    between atoms: C2'_3  and  C1'_4 
REMARK    2  A    between atoms: C1'_4  and  C1_5 
ROOT
ATOM      1  C1  I4B d   1       3.751   1.133  -3.823  0.00  0.00    -0.075 A 
ATOM      2  C2  I4B d   1       3.745   1.813  -5.015  0.00  0.00     0.003 A 
ATOM      3  C3  I4B d   1       4.887   2.544  -5.425  0.00  0.00     0.002 A 
ATOM      4  C4  I4B d   1       5.987   2.608  -4.594  0.00  0.00    -0.004 A 
ATOM      5  C5  I4B d   1       6.000   1.899  -3.397  0.00  0.00     0.002 A 
ATOM      6  C6  I4B d   1       4.880   1.146  -3.014  0.00  0.00     0.003 A 
ENDROOT
BRANCH   1   7
ATOM      7  C1' I4B d   1       2.517   0.398  -3.406  0.00  0.00     0.060 C 
BRANCH   7   8
ATOM      8  C2' I4B d   1       2.793  -1.087  -3.531  0.00  0.00    -0.013 C 
ATOM      9  C4' I4B d   1       1.770  -1.760  -4.408  0.00  0.00     0.013 C 
ATOM     10  C3' I4B d   1       4.176  -1.256  -4.085  0.00  0.00     0.013 C 
ENDBRANCH   7   8
ENDBRANCH   1   7
TORSDOF 2
ENDMDL
