MODEL 1
REMARK minimizedAffinity -1.61745608
REMARK minimizedRMSD -1
REMARK  2 active torsions:
REMARK  status: ('A' for Active; 'I' for Inactive)
REMARK    1  A    between atoms: C2'_3  and  C1'_4 
REMARK    2  A    between atoms: C1'_4  and  C1_5 
ROOT
ATOM      1  C1  I4B d   1      -0.432  -0.205  -0.869  0.00  0.00    -0.075 A 
ATOM      2  C2  I4B d   1       0.366  -0.513   0.203  0.00  0.00     0.003 A 
ATOM      3  C3  I4B d   1      -0.195  -0.639   1.497  0.00  0.00     0.002 A 
ATOM      4  C4  I4B d   1      -1.542  -0.401   1.680  0.00  0.00    -0.004 A 
ATOM      5  C5  I4B d   1      -2.354  -0.112   0.587  0.00  0.00     0.002 A 
ATOM      6  C6  I4B d   1      -1.799  -0.025  -0.698  0.00  0.00     0.003 A 
ENDROOT
BRANCH   1   7
ATOM      7  C1' I4B d   1       0.199  -0.047  -2.216  0.00  0.00     0.060 C 
BRANCH   7   8
ATOM      8  C2' I4B d   1       0.580  -1.425  -2.718  0.00  0.00    -0.013 C 
ATOM      9  C4' I4B d   1      -0.506  -2.010  -3.581  0.00  0.00     0.013 C 
ATOM     10  C3' I4B d   1       1.867  -1.301  -3.477  0.00  0.00     0.013 C 
ENDBRANCH   7   8
ENDBRANCH   1   7
TORSDOF 2
ENDMDL
