MODEL 1
REMARK minimizedAffinity 5.53083324
REMARK minimizedRMSD -1
REMARK  2 active torsions:
REMARK  status: ('A' for Active; 'I' for Inactive)
REMARK    1  A    between atoms: C2'_3  and  C1'_4 
REMARK    2  A    between atoms: C1'_4  and  C1_5 
ROOT
ATOM      1  C1  I4B d   1      -0.933   0.014   1.333  0.00  0.00    -0.075 A 
ATOM      2  C2  I4B d   1      -0.180  -0.363   2.417  0.00  0.00     0.003 A 
ATOM      3  C3  I4B d   1       1.181   0.019   2.507  0.00  0.00     0.002 A 
ATOM      4  C4  I4B d   1       1.757   0.729   1.474  0.00  0.00    -0.004 A 
ATOM      5  C5  I4B d   1       0.986   1.130   0.387  0.00  0.00     0.002 A 
ATOM      6  C6  I4B d   1      -0.370   0.782   0.321  0.00  0.00     0.003 A 
ENDROOT
BRANCH   1   7
ATOM      7  C1' I4B d   1      -2.358  -0.434   1.254  0.00  0.00     0.060 C 
BRANCH   7   8
ATOM      8  C2' I4B d   1      -3.202   0.555   2.033  0.00  0.00    -0.013 C 
ATOM      9  C4' I4B d   1      -4.231   1.208   1.148  0.00  0.00     0.013 C 
ATOM     10  C3' I4B d   1      -3.851  -0.182   3.166  0.00  0.00     0.013 C 
ENDBRANCH   7   8
ENDBRANCH   1   7
TORSDOF 2
ENDMDL
