MODEL 1
REMARK minimizedAffinity -4.424016
REMARK minimizedRMSD -1
REMARK  2 active torsions:
REMARK  status: ('A' for Active; 'I' for Inactive)
REMARK    1  A    between atoms: C2'_3  and  C1'_4 
REMARK    2  A    between atoms: C1'_4  and  C1_5 
ROOT
ATOM      1  C1  I4B d   1      -0.558  -0.034   1.439  0.00  0.00    -0.075 A 
ATOM      2  C2  I4B d   1      -0.190  -0.464   2.690  0.00  0.00     0.003 A 
ATOM      3  C3  I4B d   1      -1.178  -0.783   3.653  0.00  0.00     0.002 A 
ATOM      4  C4  I4B d   1      -2.511  -0.611   3.342  0.00  0.00    -0.004 A 
ATOM      5  C5  I4B d   1      -2.883  -0.197   2.066  0.00  0.00     0.002 A 
ATOM      6  C6  I4B d   1      -1.901   0.081   1.104  0.00  0.00     0.003 A 
ENDROOT
BRANCH   1   7
ATOM      7  C1' I4B d   1       0.511   0.326   0.457  0.00  0.00     0.060 C 
BRANCH   7   8
ATOM      8  C2' I4B d   1      -0.034   0.085  -0.936  0.00  0.00    -0.013 C 
ATOM      9  C4' I4B d   1      -0.885   1.239  -1.396  0.00  0.00     0.013 C 
ATOM     10  C3' I4B d   1       1.130  -0.131  -1.857  0.00  0.00     0.013 C 
ENDBRANCH   7   8
ENDBRANCH   1   7
TORSDOF 2
ENDMDL
