MODEL 1
REMARK minimizedAffinity -5.50087357
REMARK minimizedRMSD -1
REMARK  2 active torsions:
REMARK  status: ('A' for Active; 'I' for Inactive)
REMARK    1  A    between atoms: C2'_3  and  C1'_4 
REMARK    2  A    between atoms: C1'_4  and  C1_5 
ROOT
ATOM      1  C1  I4B d   1       3.256  -0.501  -3.814  0.00  0.00    -0.075 A 
ATOM      2  C2  I4B d   1       2.473   0.533  -3.364  0.00  0.00     0.003 A 
ATOM      3  C3  I4B d   1       1.090   0.334  -3.138  0.00  0.00     0.002 A 
ATOM      4  C4  I4B d   1       0.525  -0.893  -3.421  0.00  0.00    -0.004 A 
ATOM      5  C5  I4B d   1       1.324  -1.947  -3.855  0.00  0.00     0.002 A 
ATOM      6  C6  I4B d   1       2.701  -1.753  -4.041  0.00  0.00     0.003 A 
ENDROOT
BRANCH   1   7
ATOM      7  C1' I4B d   1       4.707  -0.246  -4.074  0.00  0.00     0.060 C 
BRANCH   7   8
ATOM      8  C2' I4B d   1       4.920   1.254  -4.103  0.00  0.00    -0.013 C 
ATOM      9  C4' I4B d   1       5.987   1.672  -3.126  0.00  0.00     0.013 C 
ATOM     10  C3' I4B d   1       5.286   1.643  -5.504  0.00  0.00     0.013 C 
ENDBRANCH   7   8
ENDBRANCH   1   7
TORSDOF 2
ENDMDL
