MODEL 1
REMARK minimizedAffinity -0.148544028
REMARK minimizedRMSD -1
REMARK  2 active torsions:
REMARK  status: ('A' for Active; 'I' for Inactive)
REMARK    1  A    between atoms: C2'_3  and  C1'_4 
REMARK    2  A    between atoms: C1'_4  and  C1_5 
ROOT
ATOM      1  C1  I4B d   1       0.395  -0.736  -0.781  0.00  0.00    -0.075 A 
ATOM      2  C2  I4B d   1      -0.444  -0.973  -1.841  0.00  0.00     0.003 A 
ATOM      3  C3  I4B d   1       0.087  -1.318  -3.108  0.00  0.00     0.002 A 
ATOM      4  C4  I4B d   1       1.455  -1.364  -3.281  0.00  0.00    -0.004 A 
ATOM      5  C5  I4B d   1       2.304  -1.146  -2.200  0.00  0.00     0.002 A 
ATOM      6  C6  I4B d   1       1.771  -0.842  -0.939  0.00  0.00     0.003 A 
ENDROOT
BRANCH   1   7
ATOM      7  C1' I4B d   1      -0.199  -0.342   0.534  0.00  0.00     0.060 C 
BRANCH   7   8
ATOM      8  C2' I4B d   1       0.899  -0.397   1.577  0.00  0.00    -0.013 C 
ATOM      9  C4' I4B d   1       1.007   0.907   2.323  0.00  0.00     0.013 C 
ATOM     10  C3' I4B d   1       0.596  -1.531   2.509  0.00  0.00     0.013 C 
ENDBRANCH   7   8
ENDBRANCH   1   7
TORSDOF 2
ENDMDL
