MODEL 1
REMARK minimizedAffinity 1.84999466
REMARK minimizedRMSD -1
REMARK  2 active torsions:
REMARK  status: ('A' for Active; 'I' for Inactive)
REMARK    1  A    between atoms: C2'_3  and  C1'_4 
REMARK    2  A    between atoms: C1'_4  and  C1_5 
ROOT
ATOM      1  C1  I4B d   1       2.280   1.576  -4.032  0.00  0.00    -0.075 A 
ATOM      2  C2  I4B d   1       2.251   2.694  -3.236  0.00  0.00     0.003 A 
ATOM      3  C3  I4B d   1       2.237   3.984  -3.820  0.00  0.00     0.002 A 
ATOM      4  C4  I4B d   1       2.303   4.110  -5.193  0.00  0.00    -0.004 A 
ATOM      5  C5  I4B d   1       2.309   2.975  -5.998  0.00  0.00     0.002 A 
ATOM      6  C6  I4B d   1       2.285   1.700  -5.415  0.00  0.00     0.003 A 
ENDROOT
BRANCH   1   7
ATOM      7  C1' I4B d   1       2.328   0.230  -3.381  0.00  0.00     0.060 C 
BRANCH   7   8
ATOM      8  C2' I4B d   1       2.690  -0.789  -4.443  0.00  0.00    -0.013 C 
ATOM      9  C4' I4B d   1       4.150  -1.152  -4.375  0.00  0.00     0.013 C 
ATOM     10  C3' I4B d   1       1.822  -1.995  -4.242  0.00  0.00     0.013 C 
ENDBRANCH   7   8
ENDBRANCH   1   7
TORSDOF 2
ENDMDL
