MODEL 1
REMARK minimizedAffinity 3.16302538
REMARK minimizedRMSD -1
REMARK  2 active torsions:
REMARK  status: ('A' for Active; 'I' for Inactive)
REMARK    1  A    between atoms: C2'_3  and  C1'_4 
REMARK    2  A    between atoms: C1'_4  and  C1_5 
ROOT
ATOM      1  C1  I4B d   1      -0.168   0.451   0.599  0.00  0.00    -0.075 A 
ATOM      2  C2  I4B d   1      -0.637   0.082   1.835  0.00  0.00     0.003 A 
ATOM      3  C3  I4B d   1      -0.076   0.645   3.007  0.00  0.00     0.002 A 
ATOM      4  C4  I4B d   1       0.978   1.528   2.900  0.00  0.00    -0.004 A 
ATOM      5  C5  I4B d   1       1.437   1.918   1.645  0.00  0.00     0.002 A 
ATOM      6  C6  I4B d   1       0.852   1.386   0.486  0.00  0.00     0.003 A 
ENDROOT
BRANCH   1   7
ATOM      7  C1' I4B d   1      -0.762  -0.187  -0.617  0.00  0.00     0.060 C 
BRANCH   7   8
ATOM      8  C2' I4B d   1      -0.360   0.639  -1.821  0.00  0.00    -0.013 C 
ATOM      9  C4' I4B d   1       0.123  -0.237  -2.947  0.00  0.00     0.013 C 
ATOM     10  C3' I4B d   1      -1.546   1.455  -2.240  0.00  0.00     0.013 C 
ENDBRANCH   7   8
ENDBRANCH   1   7
TORSDOF 2
ENDMDL
