MODEL 1
REMARK minimizedAffinity 4.17394066
REMARK minimizedRMSD -1
REMARK  2 active torsions:
REMARK  status: ('A' for Active; 'I' for Inactive)
REMARK    1  A    between atoms: C2'_3  and  C1'_4 
REMARK    2  A    between atoms: C1'_4  and  C1_5 
ROOT
ATOM      1  C1  I4B d   1      -1.015   0.055   1.547  0.00  0.00    -0.075 A 
ATOM      2  C2  I4B d   1      -0.425  -1.149   1.251  0.00  0.00     0.003 A 
ATOM      3  C3  I4B d   1       0.814  -1.498   1.840  0.00  0.00     0.002 A 
ATOM      4  C4  I4B d   1       1.449  -0.599   2.673  0.00  0.00    -0.004 A 
ATOM      5  C5  I4B d   1       0.838   0.611   2.989  0.00  0.00     0.002 A 
ATOM      6  C6  I4B d   1      -0.407   0.935   2.432  0.00  0.00     0.003 A 
ENDROOT
BRANCH   1   7
ATOM      7  C1' I4B d   1      -2.308   0.406   0.882  0.00  0.00     0.060 C 
BRANCH   7   8
ATOM      8  C2' I4B d   1      -3.189   1.092   1.907  0.00  0.00    -0.013 C 
ATOM      9  C4' I4B d   1      -4.586   1.291   1.380  0.00  0.00     0.013 C 
ATOM     10  C3' I4B d   1      -3.194   0.252   3.149  0.00  0.00     0.013 C 
ENDBRANCH   7   8
ENDBRANCH   1   7
TORSDOF 2
ENDMDL
