MODEL 1
REMARK minimizedAffinity 3.43931198
REMARK minimizedRMSD -1
REMARK  2 active torsions:
REMARK  status: ('A' for Active; 'I' for Inactive)
REMARK    1  A    between atoms: C2'_3  and  C1'_4 
REMARK    2  A    between atoms: C1'_4  and  C1_5 
ROOT
ATOM      1  C1  I4B d   1      -0.741  -0.821  -0.720  0.00  0.00    -0.075 A 
ATOM      2  C2  I4B d   1      -0.403  -1.883  -1.520  0.00  0.00     0.003 A 
ATOM      3  C3  I4B d   1       0.214  -1.663  -2.775  0.00  0.00     0.002 A 
ATOM      4  C4  I4B d   1       0.427  -0.370  -3.210  0.00  0.00    -0.004 A 
ATOM      5  C5  I4B d   1       0.104   0.705  -2.388  0.00  0.00     0.002 A 
ATOM      6  C6  I4B d   1      -0.472   0.479  -1.129  0.00  0.00     0.003 A 
ENDROOT
BRANCH   1   7
ATOM      7  C1' I4B d   1      -1.421  -1.089   0.585  0.00  0.00     0.060 C 
BRANCH   7   8
ATOM      8  C2' I4B d   1      -1.395   0.191   1.397  0.00  0.00    -0.013 C 
ATOM      9  C4' I4B d   1      -2.700   0.406   2.117  0.00  0.00     0.013 C 
ATOM     10  C3' I4B d   1      -0.251   0.103   2.362  0.00  0.00     0.013 C 
ENDBRANCH   7   8
ENDBRANCH   1   7
TORSDOF 2
ENDMDL
