MODEL 1
REMARK minimizedAffinity 4.36872625
REMARK minimizedRMSD -1
REMARK  1 active torsions:
REMARK  status: ('A' for Active; 'I' for Inactive)
REMARK    1  A    between atoms: C1_2  and  C2_3 
ROOT
ATOM      1  C2  UNL d   1      -4.023  -0.209   1.374  0.00  0.00    -0.076 A 
ATOM      2  C3  UNL d   1      -2.700  -0.626   1.146  0.00  0.00     0.004 A 
ATOM      3  C4  UNL d   1      -1.635  -0.029   1.818  0.00  0.00    -0.003 A 
ATOM      4  C5  UNL d   1      -1.875   0.993   2.729  0.00  0.00     0.000 A 
ATOM      5  C6  UNL d   1      -3.183   1.407   2.980  0.00  0.00     0.000 A 
ATOM      6  C7  UNL d   1      -4.270   0.806   2.324  0.00  0.00    -0.073 A 
ATOM      7  C8  UNL d   1      -5.659   1.296   2.628  0.00  0.00     0.078 C 
ENDROOT
BRANCH   1   8
ATOM      8  C1  UNL d   1      -5.136  -0.874   0.596  0.00  0.00     0.053 C 
ATOM      9  C   UNL d   1      -4.725  -2.224   0.029  0.00  0.00     0.018 C 
ENDBRANCH   1   8
TORSDOF 1
ENDMDL
