MODEL 1
REMARK minimizedAffinity 12.1074162
REMARK minimizedRMSD -1
REMARK  1 active torsions:
REMARK  status: ('A' for Active; 'I' for Inactive)
REMARK    1  A    between atoms: C1_2  and  C2_3 
ROOT
ATOM      1  C2  UNL d   1      -3.426  -0.274   1.065  0.00  0.00    -0.076 A 
ATOM      2  C3  UNL d   1      -2.107  -0.710   1.284  0.00  0.00     0.004 A 
ATOM      3  C4  UNL d   1      -1.204   0.069   2.004  0.00  0.00    -0.003 A 
ATOM      4  C5  UNL d   1      -1.605   1.298   2.519  0.00  0.00     0.000 A 
ATOM      5  C6  UNL d   1      -2.914   1.738   2.327  0.00  0.00     0.000 A 
ATOM      6  C7  UNL d   1      -3.842   0.957   1.617  0.00  0.00    -0.073 A 
ATOM      7  C8  UNL d   1      -5.239   1.484   1.434  0.00  0.00     0.078 C 
ENDROOT
BRANCH   1   8
ATOM      8  C1  UNL d   1      -4.353  -1.149   0.253  0.00  0.00     0.053 C 
ATOM      9  C   UNL d   1      -4.999  -2.245   1.087  0.00  0.00     0.018 C 
ENDBRANCH   1   8
TORSDOF 1
ENDMDL
