MODEL 1
REMARK minimizedAffinity 4.97256947
REMARK minimizedRMSD -1
REMARK  1 active torsions:
REMARK  status: ('A' for Active; 'I' for Inactive)
REMARK    1  A    between atoms: C1_2  and  C2_3 
ROOT
ATOM      1  C2  UNL d   1      -2.664  -0.437   1.130  0.00  0.00    -0.076 A 
ATOM      2  C3  UNL d   1      -2.055  -1.684   0.905  0.00  0.00     0.004 A 
ATOM      3  C4  UNL d   1      -2.772  -2.743   0.351  0.00  0.00    -0.003 A 
ATOM      4  C5  UNL d   1      -4.110  -2.573   0.014  0.00  0.00     0.000 A 
ATOM      5  C6  UNL d   1      -4.726  -1.338   0.214  0.00  0.00     0.000 A 
ATOM      6  C7  UNL d   1      -4.012  -0.255   0.756  0.00  0.00    -0.073 A 
ATOM      7  C8  UNL d   1      -4.727   1.053   0.955  0.00  0.00     0.078 C 
ENDROOT
BRANCH   1   8
ATOM      8  C1  UNL d   1      -1.843   0.667   1.758  0.00  0.00     0.053 C 
ATOM      9  C   UNL d   1      -1.064   0.193   2.975  0.00  0.00     0.018 C 
ENDBRANCH   1   8
TORSDOF 1
ENDMDL
