MODEL 1
REMARK minimizedAffinity 8.42385674
REMARK minimizedRMSD -1
REMARK  1 active torsions:
REMARK  status: ('A' for Active; 'I' for Inactive)
REMARK    1  A    between atoms: C1_2  and  C2_3 
ROOT
ATOM      1  C2  UNL d   1      -2.871   0.509   1.188  0.00  0.00    -0.076 A 
ATOM      2  C3  UNL d   1      -3.846   1.517   1.091  0.00  0.00     0.004 A 
ATOM      3  C4  UNL d   1      -3.573   2.821   1.499  0.00  0.00    -0.003 A 
ATOM      4  C5  UNL d   1      -2.320   3.140   2.010  0.00  0.00     0.000 A 
ATOM      5  C6  UNL d   1      -1.335   2.156   2.098  0.00  0.00     0.000 A 
ATOM      6  C7  UNL d   1      -1.588   0.840   1.676  0.00  0.00    -0.073 A 
ATOM      7  C8  UNL d   1      -0.491  -0.182   1.799  0.00  0.00     0.078 C 
ENDROOT
BRANCH   1   8
ATOM      8  C1  UNL d   1      -3.233  -0.894   0.756  0.00  0.00     0.053 C 
ATOM      9  C   UNL d   1      -4.608  -0.968   0.111  0.00  0.00     0.018 C 
ENDBRANCH   1   8
TORSDOF 1
ENDMDL
