MODEL 1
REMARK minimizedAffinity 7.86959171
REMARK minimizedRMSD -1
REMARK  1 active torsions:
REMARK  status: ('A' for Active; 'I' for Inactive)
REMARK    1  A    between atoms: C1_2  and  C2_3 
ROOT
ATOM      1  C2  UNL d   1      -2.837  -2.941  -5.985  0.00  0.00    -0.076 A 
ATOM      2  C3  UNL d   1      -3.630  -4.102  -5.999  0.00  0.00     0.004 A 
ATOM      3  C4  UNL d   1      -5.021  -4.021  -5.965  0.00  0.00    -0.003 A 
ATOM      4  C5  UNL d   1      -5.642  -2.778  -5.918  0.00  0.00     0.000 A 
ATOM      5  C6  UNL d   1      -4.871  -1.615  -5.922  0.00  0.00     0.000 A 
ATOM      6  C7  UNL d   1      -3.468  -1.679  -5.972  0.00  0.00    -0.073 A 
ATOM      7  C8  UNL d   1      -2.687  -0.394  -5.968  0.00  0.00     0.078 C 
ENDROOT
BRANCH   1   8
ATOM      8  C1  UNL d   1      -1.333  -3.092  -5.996  0.00  0.00     0.053 C 
ATOM      9  C   UNL d   1      -0.893  -4.548  -5.987  0.00  0.00     0.018 C 
ENDBRANCH   1   8
TORSDOF 1
ENDMDL
