MODEL 1
REMARK minimizedAffinity 11.7937222
REMARK minimizedRMSD -1
REMARK  1 active torsions:
REMARK  status: ('A' for Active; 'I' for Inactive)
REMARK    1  A    between atoms: C1_2  and  C2_3 
ROOT
ATOM      1  C2  UNL d   1      -3.622  -0.062   0.818  0.00  0.00    -0.076 A 
ATOM      2  C3  UNL d   1      -2.457  -0.737   1.222  0.00  0.00     0.004 A 
ATOM      3  C4  UNL d   1      -1.364  -0.039   1.732  0.00  0.00    -0.003 A 
ATOM      4  C5  UNL d   1      -1.418   1.346   1.847  0.00  0.00     0.000 A 
ATOM      5  C6  UNL d   1      -2.572   2.030   1.468  0.00  0.00     0.000 A 
ATOM      6  C7  UNL d   1      -3.689   1.340   0.968  0.00  0.00    -0.073 A 
ATOM      7  C8  UNL d   1      -4.906   2.129   0.569  0.00  0.00     0.078 C 
ENDROOT
BRANCH   1   8
ATOM      8  C1  UNL d   1      -4.766  -0.869   0.248  0.00  0.00     0.053 C 
ATOM      9  C   UNL d   1      -4.397  -2.327   0.026  0.00  0.00     0.018 C 
ENDBRANCH   1   8
TORSDOF 1
ENDMDL
