MODEL 1
REMARK minimizedAffinity 11.9773769
REMARK minimizedRMSD -1
REMARK  1 active torsions:
REMARK  status: ('A' for Active; 'I' for Inactive)
REMARK    1  A    between atoms: C1_2  and  C2_3 
ROOT
ATOM      1  C2  UNL d   1      -2.023  -2.987  -5.980  0.00  0.00    -0.076 A 
ATOM      2  C3  UNL d   1      -3.172  -3.798  -5.986  0.00  0.00     0.004 A 
ATOM      3  C4  UNL d   1      -4.447  -3.235  -5.971  0.00  0.00    -0.003 A 
ATOM      4  C5  UNL d   1      -4.594  -1.853  -5.952  0.00  0.00     0.000 A 
ATOM      5  C6  UNL d   1      -3.466  -1.033  -5.963  0.00  0.00     0.000 A 
ATOM      6  C7  UNL d   1      -2.174  -1.584  -5.994  0.00  0.00    -0.073 A 
ATOM      7  C8  UNL d   1      -0.992  -0.653  -5.999  0.00  0.00     0.078 C 
ENDROOT
BRANCH   1   8
ATOM      8  C1  UNL d   1      -0.666  -3.654  -5.968  0.00  0.00     0.053 C 
ATOM      9  C   UNL d   1      -0.763  -5.172  -5.999  0.00  0.00     0.018 C 
ENDBRANCH   1   8
TORSDOF 1
ENDMDL
