MODEL 1
REMARK minimizedAffinity 15.7807884
REMARK minimizedRMSD -1
REMARK  1 active torsions:
REMARK  status: ('A' for Active; 'I' for Inactive)
REMARK    1  A    between atoms: C1_2  and  C2_3 
ROOT
ATOM      1  C2  UNL d   1      -3.865   4.486   4.033  0.00  0.00    -0.076 A 
ATOM      2  C3  UNL d   1      -3.252   5.345   4.962  0.00  0.00     0.004 A 
ATOM      3  C4  UNL d   1      -4.003   6.000   5.937  0.00  0.00    -0.003 A 
ATOM      4  C5  UNL d   1      -5.378   5.805   6.000  0.00  0.00     0.000 A 
ATOM      5  C6  UNL d   1      -6.000   4.943   5.097  0.00  0.00     0.000 A 
ATOM      6  C7  UNL d   1      -5.255   4.263   4.118  0.00  0.00    -0.073 A 
ATOM      7  C8  UNL d   1      -5.979   3.350   3.167  0.00  0.00     0.078 C 
ENDROOT
BRANCH   1   8
ATOM      8  C1  UNL d   1      -3.003   3.825   2.981  0.00  0.00     0.053 C 
ATOM      9  C   UNL d   1      -3.825   3.187   1.872  0.00  0.00     0.018 C 
ENDBRANCH   1   8
TORSDOF 1
ENDMDL
