MODEL 1
REMARK minimizedAffinity 5.90113258
REMARK minimizedRMSD -1
REMARK  1 active torsions:
REMARK  status: ('A' for Active; 'I' for Inactive)
REMARK    1  A    between atoms: C1_2  and  C2_3 
ROOT
ATOM      1  C2  UNL d   1       2.412  -5.364   2.137  0.00  0.00    -0.076 A 
ATOM      2  C3  UNL d   1       2.053  -4.744   0.927  0.00  0.00     0.004 A 
ATOM      3  C4  UNL d   1       0.796  -4.165   0.763  0.00  0.00    -0.003 A 
ATOM      4  C5  UNL d   1      -0.123  -4.196   1.806  0.00  0.00     0.000 A 
ATOM      5  C6  UNL d   1       0.222  -4.791   3.019  0.00  0.00     0.000 A 
ATOM      6  C7  UNL d   1       1.491  -5.366   3.207  0.00  0.00    -0.073 A 
ATOM      7  C8  UNL d   1       1.808  -6.000   4.533  0.00  0.00     0.078 C 
ENDROOT
BRANCH   1   8
ATOM      8  C1  UNL d   1       3.779  -6.000   2.247  0.00  0.00     0.053 C 
ATOM      9  C   UNL d   1       4.898  -5.048   1.850  0.00  0.00     0.018 C 
ENDBRANCH   1   8
TORSDOF 1
ENDMDL
