MODEL 1
REMARK minimizedAffinity 9.02159595
REMARK minimizedRMSD -1
REMARK  1 active torsions:
REMARK  status: ('A' for Active; 'I' for Inactive)
REMARK    1  A    between atoms: C1_2  and  C2_3 
ROOT
ATOM      1  C2  UNL d   1      -4.804   3.733   3.691  0.00  0.00    -0.076 A 
ATOM      2  C3  UNL d   1      -4.143   4.889   3.241  0.00  0.00     0.004 A 
ATOM      3  C4  UNL d   1      -3.996   6.000   4.071  0.00  0.00    -0.003 A 
ATOM      4  C5  UNL d   1      -4.506   5.972   5.364  0.00  0.00     0.000 A 
ATOM      5  C6  UNL d   1      -5.149   4.827   5.833  0.00  0.00     0.000 A 
ATOM      6  C7  UNL d   1      -5.292   3.693   5.015  0.00  0.00    -0.073 A 
ATOM      7  C8  UNL d   1      -6.000   2.487   5.570  0.00  0.00     0.078 C 
ENDROOT
BRANCH   1   8
ATOM      8  C1  UNL d   1      -4.958   2.569   2.738  0.00  0.00     0.053 C 
ATOM      9  C   UNL d   1      -3.711   2.334   1.900  0.00  0.00     0.018 C 
ENDBRANCH   1   8
TORSDOF 1
ENDMDL
