MODEL 1
REMARK minimizedAffinity 14.7443314
REMARK minimizedRMSD -1
REMARK  1 active torsions:
REMARK  status: ('A' for Active; 'I' for Inactive)
REMARK    1  A    between atoms: C1_2  and  C2_3 
ROOT
ATOM      1  C2  UNL d   1      -4.282   0.951   2.986  0.00  0.00    -0.076 A 
ATOM      2  C3  UNL d   1      -2.976   0.641   3.402  0.00  0.00     0.004 A 
ATOM      3  C4  UNL d   1      -1.925   0.588   2.488  0.00  0.00    -0.003 A 
ATOM      4  C5  UNL d   1      -2.163   0.844   1.143  0.00  0.00     0.000 A 
ATOM      5  C6  UNL d   1      -3.449   1.171   0.714  0.00  0.00     0.000 A 
ATOM      6  C7  UNL d   1      -4.517   1.245   1.626  0.00  0.00    -0.073 A 
ATOM      7  C8  UNL d   1      -5.885   1.596   1.108  0.00  0.00     0.078 C 
ENDROOT
BRANCH   1   8
ATOM      8  C1  UNL d   1      -5.386   0.968   4.018  0.00  0.00     0.053 C 
ATOM      9  C   UNL d   1      -4.877   0.675   5.421  0.00  0.00     0.018 C 
ENDBRANCH   1   8
TORSDOF 1
ENDMDL
