MODEL 1
REMARK minimizedAffinity 0.585566401
REMARK minimizedRMSD -1
REMARK  1 active torsions:
REMARK  status: ('A' for Active; 'I' for Inactive)
REMARK    1  A    between atoms: C1_2  and  C2_3 
ROOT
ATOM      1  C2  UNL d   1       2.529   0.296  -4.340  0.00  0.00    -0.076 A 
ATOM      2  C3  UNL d   1       3.319   0.987  -3.405  0.00  0.00     0.004 A 
ATOM      3  C4  UNL d   1       2.947   1.059  -2.064  0.00  0.00    -0.003 A 
ATOM      4  C5  UNL d   1       1.778   0.440  -1.635  0.00  0.00     0.000 A 
ATOM      5  C6  UNL d   1       0.991  -0.266  -2.545  0.00  0.00     0.000 A 
ATOM      6  C7  UNL d   1       1.361  -0.361  -3.898  0.00  0.00    -0.073 A 
ATOM      7  C8  UNL d   1       0.472  -1.130  -4.836  0.00  0.00     0.078 C 
ENDROOT
BRANCH   1   8
ATOM      8  C1  UNL d   1       2.969   0.275  -5.786  0.00  0.00     0.053 C 
ATOM      9  C   UNL d   1       4.239  -0.534  -5.997  0.00  0.00     0.018 C 
ENDBRANCH   1   8
TORSDOF 1
ENDMDL
