MODEL 1
REMARK minimizedAffinity -0.172671571
REMARK minimizedRMSD -1
REMARK  1 active torsions:
REMARK  status: ('A' for Active; 'I' for Inactive)
REMARK    1  A    between atoms: C1_2  and  C2_3 
ROOT
ATOM      1  C2  UNL d   1      -3.960  -2.415  -5.869  0.00  0.00    -0.076 A 
ATOM      2  C3  UNL d   1      -2.848  -3.273  -5.807  0.00  0.00     0.004 A 
ATOM      3  C4  UNL d   1      -1.550  -2.768  -5.850  0.00  0.00    -0.003 A 
ATOM      4  C5  UNL d   1      -1.342  -1.397  -5.955  0.00  0.00     0.000 A 
ATOM      5  C6  UNL d   1      -2.434  -0.530  -6.000  0.00  0.00     0.000 A 
ATOM      6  C7  UNL d   1      -3.749  -1.022  -5.941  0.00  0.00    -0.073 A 
ATOM      7  C8  UNL d   1      -4.889  -0.042  -6.000  0.00  0.00     0.078 C 
ENDROOT
BRANCH   1   8
ATOM      8  C1  UNL d   1      -5.345  -3.022  -5.846  0.00  0.00     0.053 C 
ATOM      9  C   UNL d   1      -5.969  -2.997  -4.459  0.00  0.00     0.018 C 
ENDBRANCH   1   8
TORSDOF 1
ENDMDL
