MODEL 1
REMARK minimizedAffinity 11.0866089
REMARK minimizedRMSD -1
REMARK  1 active torsions:
REMARK  status: ('A' for Active; 'I' for Inactive)
REMARK    1  A    between atoms: C1_2  and  C2_3 
ROOT
ATOM      1  C2  UNL d   1      -3.073   0.779   2.459  0.00  0.00    -0.076 A 
ATOM      2  C3  UNL d   1      -2.014  -0.130   2.291  0.00  0.00     0.004 A 
ATOM      3  C4  UNL d   1      -0.774   0.293   1.816  0.00  0.00    -0.003 A 
ATOM      4  C5  UNL d   1      -0.572   1.633   1.502  0.00  0.00     0.000 A 
ATOM      5  C6  UNL d   1      -1.606   2.551   1.679  0.00  0.00     0.000 A 
ATOM      6  C7  UNL d   1      -2.857   2.144   2.172  0.00  0.00    -0.073 A 
ATOM      7  C8  UNL d   1      -3.938   3.177   2.338  0.00  0.00     0.078 C 
ENDROOT
BRANCH   1   8
ATOM      8  C1  UNL d   1      -4.404   0.258   2.951  0.00  0.00     0.053 C 
ATOM      9  C   UNL d   1      -5.288  -0.243   1.820  0.00  0.00     0.018 C 
ENDBRANCH   1   8
TORSDOF 1
ENDMDL
