MODEL 1
REMARK minimizedAffinity 18.7034626
REMARK minimizedRMSD -1
REMARK  0 active torsions:
REMARK  status: ('A' for Active; 'I' for Inactive)
ROOT
ATOM      1  C   UNL d   1      -0.626   3.429   1.812  0.00  0.00     0.023 A 
ATOM      2  C1  UNL d   1      -1.087   4.721   1.558  0.00  0.00     0.003 A 
ATOM      3  C2  UNL d   1      -0.687   5.392   0.401  0.00  0.00     0.048 A 
ATOM      4  C3  UNL d   1       0.174   4.764  -0.499  0.00  0.00     0.023 A 
ATOM      5  C4  UNL d   1       0.637   3.471  -0.250  0.00  0.00     0.048 A 
ATOM      6  C5  UNL d   1       0.235   2.805   0.909  0.00  0.00     0.003 A 
ATOM      7  I   UNL d   1       0.771   5.761  -2.223  0.00  0.00    -0.146 I 
ENDROOT
TORSDOF 0
ENDMDL
