MODEL 1
REMARK minimizedAffinity 13.699542
REMARK minimizedRMSD -1
REMARK  0 active torsions:
REMARK  status: ('A' for Active; 'I' for Inactive)
ROOT
ATOM      1  C   UNL d   1       5.999  -3.913   5.347  0.00  0.00     0.023 A 
ATOM      2  C1  UNL d   1       4.917  -4.358   4.588  0.00  0.00     0.003 A 
ATOM      3  C2  UNL d   1       3.767  -3.573   4.482  0.00  0.00     0.048 A 
ATOM      4  C3  UNL d   1       3.707  -2.343   5.136  0.00  0.00     0.023 A 
ATOM      5  C4  UNL d   1       4.788  -1.893   5.896  0.00  0.00     0.048 A 
ATOM      6  C5  UNL d   1       5.935  -2.682   6.000  0.00  0.00     0.003 A 
ATOM      7  I   UNL d   1       1.997  -1.172   4.978  0.00  0.00    -0.146 I 
ENDROOT
TORSDOF 0
ENDMDL
