MODEL 1
REMARK minimizedAffinity 6.061903
REMARK minimizedRMSD -1
REMARK  0 active torsions:
REMARK  status: ('A' for Active; 'I' for Inactive)
ROOT
ATOM      1  C   UNL d   1       3.847  -1.505  -0.753  0.00  0.00     0.023 A 
ATOM      2  C1  UNL d   1       3.289  -2.371   0.188  0.00  0.00     0.003 A 
ATOM      3  C2  UNL d   1       3.905  -3.593   0.467  0.00  0.00     0.048 A 
ATOM      4  C3  UNL d   1       5.080  -3.942  -0.199  0.00  0.00     0.023 A 
ATOM      5  C4  UNL d   1       5.642  -3.078  -1.140  0.00  0.00     0.048 A 
ATOM      6  C5  UNL d   1       5.022  -1.858  -1.416  0.00  0.00     0.003 A 
ATOM      7  I   UNL d   1       6.000  -5.759   0.214  0.00  0.00    -0.146 I 
ENDROOT
TORSDOF 0
ENDMDL
