MODEL 1
REMARK minimizedAffinity 12.4086733
REMARK minimizedRMSD -1
REMARK  0 active torsions:
REMARK  status: ('A' for Active; 'I' for Inactive)
ROOT
ATOM      1  C   UNL d   1      -0.654  -0.672  -2.203  0.00  0.00     0.023 A 
ATOM      2  C1  UNL d   1       0.674  -0.434  -1.850  0.00  0.00     0.003 A 
ATOM      3  C2  UNL d   1       0.989   0.603  -0.969  0.00  0.00     0.048 A 
ATOM      4  C3  UNL d   1      -0.029   1.397  -0.444  0.00  0.00     0.023 A 
ATOM      5  C4  UNL d   1      -1.360   1.163  -0.794  0.00  0.00     0.048 A 
ATOM      6  C5  UNL d   1      -1.670   0.126  -1.675  0.00  0.00     0.003 A 
ATOM      7  I   UNL d   1       0.437   2.941   0.868  0.00  0.00    -0.146 I 
ENDROOT
TORSDOF 0
ENDMDL
