MODEL 1
REMARK minimizedAffinity 8.92206001
REMARK minimizedRMSD -1
REMARK  0 active torsions:
REMARK  status: ('A' for Active; 'I' for Inactive)
ROOT
ATOM      1  C   UNL d   1       4.930  -2.065   0.677  0.00  0.00     0.023 A 
ATOM      2  C1  UNL d   1       4.047  -3.009   0.154  0.00  0.00     0.003 A 
ATOM      3  C2  UNL d   1       4.137  -3.383  -1.189  0.00  0.00     0.048 A 
ATOM      4  C3  UNL d   1       5.114  -2.809  -2.002  0.00  0.00     0.023 A 
ATOM      5  C4  UNL d   1       6.000  -1.863  -1.482  0.00  0.00     0.048 A 
ATOM      6  C5  UNL d   1       5.905  -1.492  -0.140  0.00  0.00     0.003 A 
ATOM      7  I   UNL d   1       5.251  -3.363  -4.000  0.00  0.00    -0.146 I 
ENDROOT
TORSDOF 0
ENDMDL
