MODEL 1
REMARK minimizedAffinity 11.2186384
REMARK minimizedRMSD -1
REMARK  0 active torsions:
REMARK  status: ('A' for Active; 'I' for Inactive)
ROOT
ATOM      1  C   UNL d   1      -0.050   4.601   1.245  0.00  0.00     0.023 A 
ATOM      2  C1  UNL d   1      -0.205   3.398   1.934  0.00  0.00     0.003 A 
ATOM      3  C2  UNL d   1      -0.196   2.187   1.238  0.00  0.00     0.048 A 
ATOM      4  C3  UNL d   1      -0.029   2.186  -0.146  0.00  0.00     0.023 A 
ATOM      5  C4  UNL d   1       0.127   3.388  -0.840  0.00  0.00     0.048 A 
ATOM      6  C5  UNL d   1       0.116   4.596  -0.140  0.00  0.00     0.003 A 
ATOM      7  I   UNL d   1      -0.015   0.386  -1.184  0.00  0.00    -0.146 I 
ENDROOT
TORSDOF 0
ENDMDL
