MODEL 1
REMARK minimizedAffinity 6.60681343
REMARK minimizedRMSD -1
REMARK  0 active torsions:
REMARK  status: ('A' for Active; 'I' for Inactive)
ROOT
ATOM      1  C   UNL d   1      -0.144   4.313   1.496  0.00  0.00     0.023 A 
ATOM      2  C1  UNL d   1       0.282   3.603   0.373  0.00  0.00     0.003 A 
ATOM      3  C2  UNL d   1       0.002   4.086  -0.907  0.00  0.00     0.048 A 
ATOM      4  C3  UNL d   1      -0.702   5.279  -1.058  0.00  0.00     0.023 A 
ATOM      5  C4  UNL d   1      -1.130   5.994   0.063  0.00  0.00     0.048 A 
ATOM      6  C5  UNL d   1      -0.848   5.507   1.341  0.00  0.00     0.003 A 
ATOM      7  I   UNL d   1      -1.120   6.000  -2.962  0.00  0.00    -0.146 I 
ENDROOT
TORSDOF 0
ENDMDL
