MODEL 1
REMARK minimizedAffinity 9.46856594
REMARK minimizedRMSD -1
REMARK  0 active torsions:
REMARK  status: ('A' for Active; 'I' for Inactive)
ROOT
ATOM      1  C1  DEN d   1       0.620  -0.210   0.168  0.00  0.00     0.130 A 
ATOM      2  C2  DEN d   1      -0.371   0.335   1.091  0.00  0.00    -0.031 A 
ATOM      3  C3  DEN d   1       0.119   1.645   1.566  0.00  0.00     0.027 A 
ATOM      4  C4  DEN d   1       2.303   2.877   0.961  0.00  0.00     0.027 A 
ATOM      5  C5  DEN d   1       3.466   2.804   0.227  0.00  0.00    -0.003 A 
ATOM      6  C6  DEN d   1       3.775   1.716  -0.545  0.00  0.00     0.001 A 
ATOM      7  C7  DEN d   1       2.890   0.675  -0.637  0.00  0.00     0.017 A 
ATOM      8  C8  DEN d   1       1.718   0.738   0.106  0.00  0.00    -0.094 A 
ATOM      9  C9  DEN d   1       1.418   1.851   0.871  0.00  0.00    -0.072 A 
ENDROOT
TORSDOF 0
ENDMDL
