MODEL 1
REMARK minimizedAffinity 2.5910852
REMARK minimizedRMSD -1
REMARK  0 active torsions:
REMARK  status: ('A' for Active; 'I' for Inactive)
ROOT
ATOM      1  C1  DEN d   1      -2.454   0.043   0.191  0.00  0.00     0.130 A 
ATOM      2  C2  DEN d   1      -1.744  -0.780  -0.784  0.00  0.00    -0.031 A 
ATOM      3  C3  DEN d   1      -0.337  -0.890  -0.350  0.00  0.00     0.027 A 
ATOM      4  C4  DEN d   1       0.804   0.125   1.728  0.00  0.00     0.027 A 
ATOM      5  C5  DEN d   1       0.611   0.909   2.844  0.00  0.00    -0.003 A 
ATOM      6  C6  DEN d   1      -0.599   1.483   3.133  0.00  0.00     0.001 A 
ATOM      7  C7  DEN d   1      -1.675   1.244   2.320  0.00  0.00     0.017 A 
ATOM      8  C8  DEN d   1      -1.486   0.460   1.189  0.00  0.00    -0.094 A 
ATOM      9  C9  DEN d   1      -0.259  -0.121   0.921  0.00  0.00    -0.072 A 
ENDROOT
TORSDOF 0
ENDMDL
