MODEL 1
REMARK minimizedAffinity -1.39096189
REMARK minimizedRMSD -1
REMARK  0 active torsions:
REMARK  status: ('A' for Active; 'I' for Inactive)
ROOT
ATOM      1  C1  DEN d   1      -1.383  -1.304  -1.125  0.00  0.00     0.130 A 
ATOM      2  C2  DEN d   1      -2.774  -0.931  -0.882  0.00  0.00    -0.031 A 
ATOM      3  C3  DEN d   1      -2.852  -0.306   0.454  0.00  0.00     0.027 A 
ATOM      4  C4  DEN d   1      -0.964   0.123   2.157  0.00  0.00     0.027 A 
ATOM      5  C5  DEN d   1       0.383  -0.030   2.402  0.00  0.00    -0.003 A 
ATOM      6  C6  DEN d   1       1.222  -0.644   1.511  0.00  0.00     0.001 A 
ATOM      7  C7  DEN d   1       0.731  -1.087   0.311  0.00  0.00     0.017 A 
ATOM      8  C8  DEN d   1      -0.627  -0.943   0.060  0.00  0.00    -0.094 A 
ATOM      9  C9  DEN d   1      -1.457  -0.309   0.969  0.00  0.00    -0.072 A 
ENDROOT
TORSDOF 0
ENDMDL
