MODEL 1
REMARK minimizedAffinity 5.763731
REMARK minimizedRMSD -1
REMARK  0 active torsions:
REMARK  status: ('A' for Active; 'I' for Inactive)
ROOT
ATOM      1  C1  DEN d   1       3.585   5.945  -0.507  0.00  0.00     0.130 A 
ATOM      2  C2  DEN d   1       4.355   5.973   0.733  0.00  0.00    -0.031 A 
ATOM      3  C3  DEN d   1       3.404   6.000   1.861  0.00  0.00     0.027 A 
ATOM      4  C4  DEN d   1       0.825   5.995   1.810  0.00  0.00     0.027 A 
ATOM      5  C5  DEN d   1      -0.281   5.987   0.989  0.00  0.00    -0.003 A 
ATOM      6  C6  DEN d   1      -0.178   6.000  -0.376  0.00  0.00     0.001 A 
ATOM      7  C7  DEN d   1       1.060   5.974  -0.963  0.00  0.00     0.017 A 
ATOM      8  C8  DEN d   1       2.180   5.989  -0.143  0.00  0.00    -0.094 A 
ATOM      9  C9  DEN d   1       2.054   5.964   1.236  0.00  0.00    -0.072 A 
ENDROOT
TORSDOF 0
ENDMDL
