MODEL 1
REMARK minimizedAffinity 7.10693932
REMARK minimizedRMSD -1
REMARK  0 active torsions:
REMARK  status: ('A' for Active; 'I' for Inactive)
ROOT
ATOM      1  C1  DEN d   1       0.414   0.926   1.786  0.00  0.00     0.130 A 
ATOM      2  C2  DEN d   1       1.783   0.439   1.642  0.00  0.00    -0.031 A 
ATOM      3  C3  DEN d   1       1.788  -0.607   0.601  0.00  0.00     0.027 A 
ATOM      4  C4  DEN d   1      -0.180  -1.513  -0.799  0.00  0.00     0.027 A 
ATOM      5  C5  DEN d   1      -1.535  -1.416  -1.025  0.00  0.00    -0.003 A 
ATOM      6  C6  DEN d   1      -2.335  -0.563  -0.312  0.00  0.00     0.001 A 
ATOM      7  C7  DEN d   1      -1.778   0.260   0.631  0.00  0.00     0.017 A 
ATOM      8  C8  DEN d   1      -0.414   0.163   0.869  0.00  0.00    -0.094 A 
ATOM      9  C9  DEN d   1       0.380  -0.697   0.129  0.00  0.00    -0.072 A 
ENDROOT
TORSDOF 0
ENDMDL
