MODEL 1
REMARK minimizedAffinity 9.17216301
REMARK minimizedRMSD -1
REMARK  0 active torsions:
REMARK  status: ('A' for Active; 'I' for Inactive)
ROOT
ATOM      1  C1  DEN d   1       1.268   1.452   2.615  0.00  0.00     0.130 A 
ATOM      2  C2  DEN d   1       0.021   0.698   2.710  0.00  0.00    -0.031 A 
ATOM      3  C3  DEN d   1      -0.069  -0.187   1.532  0.00  0.00     0.027 A 
ATOM      4  C4  DEN d   1       1.596  -0.466  -0.418  0.00  0.00     0.027 A 
ATOM      5  C5  DEN d   1       2.793  -0.031  -0.943  0.00  0.00    -0.003 A 
ATOM      6  C6  DEN d   1       3.542   0.945  -0.342  0.00  0.00     0.001 A 
ATOM      7  C7  DEN d   1       3.125   1.487   0.845  0.00  0.00     0.017 A 
ATOM      8  C8  DEN d   1       1.916   1.059   1.377  0.00  0.00    -0.094 A 
ATOM      9  C9  DEN d   1       1.178   0.062   0.760  0.00  0.00    -0.072 A 
ENDROOT
TORSDOF 0
ENDMDL
