MODEL 1
REMARK minimizedAffinity 20.2631245
REMARK minimizedRMSD -1
REMARK  0 active torsions:
REMARK  status: ('A' for Active; 'I' for Inactive)
ROOT
ATOM      1  C   UNL d   1      -4.374   5.999   1.504  0.00  0.00    -0.002 A 
ATOM      2  C1  UNL d   1      -3.088   5.490   1.394  0.00  0.00     0.010 A 
ATOM      3  C2  UNL d   1      -2.633   4.964   0.183  0.00  0.00     0.041 A 
ATOM      4  C3  UNL d   1      -3.501   4.960  -0.927  0.00  0.00    -0.075 A 
ATOM      5  S   UNL d   1      -3.160   4.368  -2.510  0.00  0.00     0.015 SA
ATOM      6  C4  UNL d   1      -4.714   4.777  -3.078  0.00  0.00     0.022 A 
ATOM      7  C5  UNL d   1      -5.487   5.352  -2.097  0.00  0.00     0.026 A 
ATOM      8  C6  UNL d   1      -4.800   5.467  -0.841  0.00  0.00    -0.082 A 
ATOM      9  C7  UNL d   1      -5.232   5.992   0.400  0.00  0.00     0.045 A 
ENDROOT
TORSDOF 0
ENDMDL
