MODEL 1
REMARK minimizedAffinity 21.8891888
REMARK minimizedRMSD -1
REMARK  0 active torsions:
REMARK  status: ('A' for Active; 'I' for Inactive)
ROOT
ATOM      1  C   UNL d   1       0.114   2.255   0.087  0.00  0.00    -0.002 A 
ATOM      2  C1  UNL d   1      -0.077   2.554  -1.255  0.00  0.00     0.010 A 
ATOM      3  C2  UNL d   1      -1.095   3.423  -1.651  0.00  0.00     0.041 A 
ATOM      4  C3  UNL d   1      -1.924   3.995  -0.666  0.00  0.00    -0.075 A 
ATOM      5  S   UNL d   1      -3.234   5.088  -0.916  0.00  0.00     0.015 SA
ATOM      6  C4  UNL d   1      -3.570   5.184   0.752  0.00  0.00     0.022 A 
ATOM      7  C5  UNL d   1      -2.713   4.408   1.497  0.00  0.00     0.026 A 
ATOM      8  C6  UNL d   1      -1.751   3.710   0.692  0.00  0.00    -0.082 A 
ATOM      9  C7  UNL d   1      -0.710   2.823   1.061  0.00  0.00     0.045 A 
ENDROOT
TORSDOF 0
ENDMDL
