MODEL 1
REMARK minimizedAffinity 12.3591337
REMARK minimizedRMSD -1
REMARK  0 active torsions:
REMARK  status: ('A' for Active; 'I' for Inactive)
ROOT
ATOM      1  C   UNL d   1       1.181  -4.843  -0.779  0.00  0.00    -0.002 A 
ATOM      2  C1  UNL d   1       1.418  -3.477  -0.855  0.00  0.00     0.010 A 
ATOM      3  C2  UNL d   1       2.724  -2.985  -0.909  0.00  0.00     0.041 A 
ATOM      4  C3  UNL d   1       3.797  -3.897  -0.886  0.00  0.00    -0.075 A 
ATOM      5  S   UNL d   1       5.479  -3.524  -0.944  0.00  0.00     0.015 SA
ATOM      6  C4  UNL d   1       5.923  -5.168  -0.869  0.00  0.00     0.022 A 
ATOM      7  C5  UNL d   1       4.827  -5.995  -0.802  0.00  0.00     0.026 A 
ATOM      8  C6  UNL d   1       3.583  -5.277  -0.811  0.00  0.00    -0.082 A 
ATOM      9  C7  UNL d   1       2.248  -5.744  -0.757  0.00  0.00     0.045 A 
ENDROOT
TORSDOF 0
ENDMDL
