MODEL 1
REMARK minimizedAffinity 11.1594315
REMARK minimizedRMSD -1
REMARK  0 active torsions:
REMARK  status: ('A' for Active; 'I' for Inactive)
ROOT
ATOM      1  C   UNL d   1      -1.497   1.866  -0.053  0.00  0.00    -0.002 A 
ATOM      2  C1  UNL d   1      -0.521   1.421   0.827  0.00  0.00     0.010 A 
ATOM      3  C2  UNL d   1       0.760   1.976   0.807  0.00  0.00     0.041 A 
ATOM      4  C3  UNL d   1       1.046   2.998  -0.120  0.00  0.00    -0.075 A 
ATOM      5  S   UNL d   1       2.544   3.826  -0.325  0.00  0.00     0.015 SA
ATOM      6  C4  UNL d   1       1.923   4.791  -1.586  0.00  0.00     0.022 A 
ATOM      7  C5  UNL d   1       0.606   4.502  -1.856  0.00  0.00     0.026 A 
ATOM      8  C6  UNL d   1       0.079   3.464  -1.015  0.00  0.00    -0.082 A 
ATOM      9  C7  UNL d   1      -1.210   2.880  -0.971  0.00  0.00     0.045 A 
ENDROOT
TORSDOF 0
ENDMDL
