MODEL 1
REMARK minimizedAffinity 16.5280037
REMARK minimizedRMSD -1
REMARK  0 active torsions:
REMARK  status: ('A' for Active; 'I' for Inactive)
ROOT
ATOM      1  C   UNL d   1       0.351  -4.022  -2.999  0.00  0.00    -0.002 A 
ATOM      2  C1  UNL d   1       0.424  -4.399  -1.665  0.00  0.00     0.010 A 
ATOM      3  C2  UNL d   1       1.574  -5.011  -1.162  0.00  0.00     0.041 A 
ATOM      4  C3  UNL d   1       2.660  -5.238  -2.029  0.00  0.00    -0.075 A 
ATOM      5  S   UNL d   1       4.170  -5.971  -1.635  0.00  0.00     0.015 SA
ATOM      6  C4  UNL d   1       4.754  -5.801  -3.227  0.00  0.00     0.022 A 
ATOM      7  C5  UNL d   1       3.832  -5.202  -4.052  0.00  0.00     0.026 A 
ATOM      8  C6  UNL d   1       2.611  -4.867  -3.376  0.00  0.00    -0.082 A 
ATOM      9  C7  UNL d   1       1.431  -4.249  -3.856  0.00  0.00     0.045 A 
ENDROOT
TORSDOF 0
ENDMDL
