MODEL 1
REMARK minimizedAffinity 12.4984312
REMARK minimizedRMSD -1
REMARK  0 active torsions:
REMARK  status: ('A' for Active; 'I' for Inactive)
ROOT
ATOM      1  C   UNL d   1      -3.215   3.583  -0.264  0.00  0.00    -0.002 A 
ATOM      2  C1  UNL d   1      -3.192   3.863   1.095  0.00  0.00     0.010 A 
ATOM      3  C2  UNL d   1      -2.119   3.450   1.887  0.00  0.00     0.041 A 
ATOM      4  C3  UNL d   1      -1.058   2.746   1.285  0.00  0.00    -0.075 A 
ATOM      5  S   UNL d   1       0.360   2.143   2.057  0.00  0.00     0.015 SA
ATOM      6  C4  UNL d   1       0.970   1.500   0.601  0.00  0.00     0.022 A 
ATOM      7  C5  UNL d   1       0.125   1.731  -0.458  0.00  0.00     0.026 A 
ATOM      8  C6  UNL d   1      -1.058   2.453  -0.082  0.00  0.00    -0.082 A 
ATOM      9  C7  UNL d   1      -2.160   2.884  -0.858  0.00  0.00     0.045 A 
ENDROOT
TORSDOF 0
ENDMDL
