MODEL 1
REMARK minimizedAffinity 11.5418444
REMARK minimizedRMSD -1
REMARK  0 active torsions:
REMARK  status: ('A' for Active; 'I' for Inactive)
ROOT
ATOM      1  C   UNL d   1      -4.167   1.801  -1.024  0.00  0.00    -0.002 A 
ATOM      2  C1  UNL d   1      -3.581   0.551  -1.164  0.00  0.00     0.010 A 
ATOM      3  C2  UNL d   1      -3.792  -0.445  -0.208  0.00  0.00     0.041 A 
ATOM      4  C3  UNL d   1      -4.612  -0.160   0.901  0.00  0.00    -0.075 A 
ATOM      5  S   UNL d   1      -5.014  -1.224   2.197  0.00  0.00     0.015 SA
ATOM      6  C4  UNL d   1      -5.973  -0.045   2.967  0.00  0.00     0.022 A 
ATOM      7  C5  UNL d   1      -5.998   1.138   2.267  0.00  0.00     0.026 A 
ATOM      8  C6  UNL d   1      -5.214   1.091   1.065  0.00  0.00    -0.082 A 
ATOM      9  C7  UNL d   1      -4.979   2.079   0.078  0.00  0.00     0.045 A 
ENDROOT
TORSDOF 0
ENDMDL
