MODEL 1
REMARK minimizedAffinity 1.50908744
REMARK minimizedRMSD -1
REMARK  0 active torsions:
REMARK  status: ('A' for Active; 'I' for Inactive)
ROOT
ATOM      1  C   UNL d   1      -3.714   3.813  -5.999  0.00  0.00    -0.002 A 
ATOM      2  C1  UNL d   1      -3.643   5.199  -6.000  0.00  0.00     0.010 A 
ATOM      3  C2  UNL d   1      -2.405   5.846  -5.999  0.00  0.00     0.041 A 
ATOM      4  C3  UNL d   1      -1.230   5.070  -5.999  0.00  0.00    -0.075 A 
ATOM      5  S   UNL d   1       0.396   5.644  -5.999  0.00  0.00     0.015 SA
ATOM      6  C4  UNL d   1       1.033   4.064  -5.998  0.00  0.00     0.022 A 
ATOM      7  C5  UNL d   1       0.044   3.109  -5.998  0.00  0.00     0.026 A 
ATOM      8  C6  UNL d   1      -1.276   3.673  -5.999  0.00  0.00    -0.082 A 
ATOM      9  C7  UNL d   1      -2.546   3.046  -5.999  0.00  0.00     0.045 A 
ENDROOT
TORSDOF 0
ENDMDL
