MODEL 1
REMARK minimizedAffinity 6.2505455
REMARK minimizedRMSD -1
REMARK  0 active torsions:
REMARK  status: ('A' for Active; 'I' for Inactive)
ROOT
ATOM      1  C   UNL d   1       3.332   5.395   0.635  0.00  0.00    -0.002 A 
ATOM      2  C1  UNL d   1       4.700   5.190   0.523  0.00  0.00     0.010 A 
ATOM      3  C2  UNL d   1       5.207   4.264  -0.392  0.00  0.00     0.041 A 
ATOM      4  C3  UNL d   1       4.307   3.543  -1.201  0.00  0.00    -0.075 A 
ATOM      5  S   UNL d   1       4.699   2.359  -2.391  0.00  0.00     0.015 SA
ATOM      6  C4  UNL d   1       3.060   2.098  -2.779  0.00  0.00     0.022 A 
ATOM      7  C5  UNL d   1       2.220   2.886  -2.028  0.00  0.00     0.026 A 
ATOM      8  C6  UNL d   1       2.925   3.732  -1.107  0.00  0.00    -0.082 A 
ATOM      9  C7  UNL d   1       2.443   4.677  -0.169  0.00  0.00     0.045 A 
ENDROOT
TORSDOF 0
ENDMDL
