MODEL 1
REMARK minimizedAffinity 10.0472755
REMARK minimizedRMSD -1
REMARK  0 active torsions:
REMARK  status: ('A' for Active; 'I' for Inactive)
ROOT
ATOM      1  C   UNL d   1       0.945   3.343  -0.007  0.00  0.00    -0.002 A 
ATOM      2  C1  UNL d   1       0.620   3.158   1.329  0.00  0.00     0.010 A 
ATOM      3  C2  UNL d   1      -0.038   1.999   1.746  0.00  0.00     0.041 A 
ATOM      4  C3  UNL d   1      -0.364   1.019   0.788  0.00  0.00    -0.075 A 
ATOM      5  S   UNL d   1      -1.168  -0.480   1.068  0.00  0.00     0.015 SA
ATOM      6  C4  UNL d   1      -1.098  -0.911  -0.580  0.00  0.00     0.022 A 
ATOM      7  C5  UNL d   1      -0.480   0.054  -1.339  0.00  0.00     0.026 A 
ATOM      8  C6  UNL d   1      -0.046   1.182  -0.563  0.00  0.00    -0.082 A 
ATOM      9  C7  UNL d   1       0.620   2.368  -0.954  0.00  0.00     0.045 A 
ENDROOT
TORSDOF 0
ENDMDL
