MODEL 1
REMARK minimizedAffinity 7.20577908
REMARK minimizedRMSD -1
REMARK  0 active torsions:
REMARK  status: ('A' for Active; 'I' for Inactive)
ROOT
ATOM      1  C   UNL d   1       1.238  -3.659  -4.174  0.00  0.00    -0.002 A 
ATOM      2  C1  UNL d   1       1.381  -2.281  -4.086  0.00  0.00     0.010 A 
ATOM      3  C2  UNL d   1       0.492  -1.522  -3.323  0.00  0.00     0.041 A 
ATOM      4  C3  UNL d   1      -0.553  -2.176  -2.642  0.00  0.00    -0.075 A 
ATOM      5  S   UNL d   1      -1.760  -1.451  -1.647  0.00  0.00     0.015 SA
ATOM      6  C4  UNL d   1      -2.494  -2.953  -1.314  0.00  0.00     0.022 A 
ATOM      7  C5  UNL d   1      -1.847  -3.993  -1.939  0.00  0.00     0.026 A 
ATOM      8  C6  UNL d   1      -0.717  -3.562  -2.714  0.00  0.00    -0.082 A 
ATOM      9  C7  UNL d   1       0.200  -4.304  -3.496  0.00  0.00     0.045 A 
ENDROOT
TORSDOF 0
ENDMDL
