MODEL 1
REMARK minimizedAffinity 0.366125047
REMARK minimizedRMSD -1
REMARK  0 active torsions:
REMARK  status: ('A' for Active; 'I' for Inactive)
ROOT
ATOM      1  C   UNL d   1      -1.416   5.140  -5.995  0.00  0.00    -0.002 A 
ATOM      2  C1  UNL d   1      -1.419   3.752  -5.995  0.00  0.00     0.010 A 
ATOM      3  C2  UNL d   1      -0.218   3.039  -5.997  0.00  0.00     0.041 A 
ATOM      4  C3  UNL d   1       0.997   3.752  -5.998  0.00  0.00    -0.075 A 
ATOM      5  S   UNL d   1       2.590   3.091  -6.000  0.00  0.00     0.015 SA
ATOM      6  C4  UNL d   1       3.311   4.636  -6.000  0.00  0.00     0.022 A 
ATOM      7  C5  UNL d   1       2.375   5.642  -5.999  0.00  0.00     0.026 A 
ATOM      8  C6  UNL d   1       1.026   5.150  -5.997  0.00  0.00    -0.082 A 
ATOM      9  C7  UNL d   1      -0.209   5.843  -5.996  0.00  0.00     0.045 A 
ENDROOT
TORSDOF 0
ENDMDL
