MODEL 1
REMARK minimizedAffinity 0.804194748
REMARK minimizedRMSD -1
REMARK  0 active torsions:
REMARK  status: ('A' for Active; 'I' for Inactive)
ROOT
ATOM      1  C   UNL d   1       3.889   3.755  -5.960  0.00  0.00    -0.002 A 
ATOM      2  C1  UNL d   1       3.961   5.141  -5.978  0.00  0.00     0.010 A 
ATOM      3  C2  UNL d   1       2.797   5.912  -5.992  0.00  0.00     0.041 A 
ATOM      4  C3  UNL d   1       1.548   5.261  -5.986  0.00  0.00    -0.075 A 
ATOM      5  S   UNL d   1      -0.010   6.000  -6.000  0.00  0.00     0.015 SA
ATOM      6  C4  UNL d   1      -0.807   4.493  -5.982  0.00  0.00     0.022 A 
ATOM      7  C5  UNL d   1       0.078   3.442  -5.966  0.00  0.00     0.026 A 
ATOM      8  C6  UNL d   1       1.450   3.867  -5.967  0.00  0.00    -0.082 A 
ATOM      9  C7  UNL d   1       2.648   3.113  -5.954  0.00  0.00     0.045 A 
ENDROOT
TORSDOF 0
ENDMDL
