MODEL 1
REMARK minimizedAffinity 4.13970804
REMARK minimizedRMSD -1
REMARK  0 active torsions:
REMARK  status: ('A' for Active; 'I' for Inactive)
ROOT
ATOM      1  C   UNL d   1      -2.231   5.449  -5.998  0.00  0.00    -0.002 A 
ATOM      2  C1  UNL d   1      -2.417   4.074  -5.997  0.00  0.00     0.010 A 
ATOM      3  C2  UNL d   1      -1.321   3.209  -5.997  0.00  0.00     0.041 A 
ATOM      4  C3  UNL d   1      -0.022   3.755  -5.996  0.00  0.00    -0.075 A 
ATOM      5  S   UNL d   1       1.469   2.890  -5.995  0.00  0.00     0.015 SA
ATOM      6  C4  UNL d   1       2.388   4.325  -5.995  0.00  0.00     0.022 A 
ATOM      7  C5  UNL d   1       1.592   5.446  -5.997  0.00  0.00     0.026 A 
ATOM      8  C6  UNL d   1       0.190   5.136  -5.997  0.00  0.00    -0.082 A 
ATOM      9  C7  UNL d   1      -0.942   5.987  -5.998  0.00  0.00     0.045 A 
ENDROOT
TORSDOF 0
ENDMDL
