MODEL 1
REMARK minimizedAffinity -1.49860966
REMARK minimizedRMSD -1
REMARK  0 active torsions:
REMARK  status: ('A' for Active; 'I' for Inactive)
ROOT
ATOM      1  C   UNL d   1      -2.625   4.428  -6.000  0.00  0.00    -0.002 A 
ATOM      2  C1  UNL d   1      -2.627   3.040  -5.999  0.00  0.00     0.010 A 
ATOM      3  C2  UNL d   1      -1.426   2.328  -5.999  0.00  0.00     0.041 A 
ATOM      4  C3  UNL d   1      -0.211   3.041  -5.998  0.00  0.00    -0.075 A 
ATOM      5  S   UNL d   1       1.382   2.381  -5.996  0.00  0.00     0.015 SA
ATOM      6  C4  UNL d   1       2.102   3.925  -5.995  0.00  0.00     0.022 A 
ATOM      7  C5  UNL d   1       1.165   4.931  -5.996  0.00  0.00     0.026 A 
ATOM      8  C6  UNL d   1      -0.183   4.439  -5.997  0.00  0.00    -0.082 A 
ATOM      9  C7  UNL d   1      -1.418   5.132  -5.998  0.00  0.00     0.045 A 
ENDROOT
TORSDOF 0
ENDMDL
