MODEL 1
REMARK minimizedAffinity -1.32782853
REMARK minimizedRMSD -1
REMARK  0 active torsions:
REMARK  status: ('A' for Active; 'I' for Inactive)
ROOT
ATOM      1  C   UNL d   1       4.454   3.889  -5.990  0.00  0.00    -0.002 A 
ATOM      2  C1  UNL d   1       4.469   5.277  -5.994  0.00  0.00     0.010 A 
ATOM      3  C2  UNL d   1       3.274   6.000  -5.999  0.00  0.00     0.041 A 
ATOM      4  C3  UNL d   1       2.053   5.298  -5.996  0.00  0.00    -0.075 A 
ATOM      5  S   UNL d   1       0.466   5.973  -6.000  0.00  0.00     0.015 SA
ATOM      6  C4  UNL d   1      -0.269   4.435  -5.994  0.00  0.00     0.022 A 
ATOM      7  C5  UNL d   1       0.659   3.420  -5.990  0.00  0.00     0.026 A 
ATOM      8  C6  UNL d   1       2.012   3.901  -5.991  0.00  0.00    -0.082 A 
ATOM      9  C7  UNL d   1       3.240   3.196  -5.987  0.00  0.00     0.045 A 
ENDROOT
TORSDOF 0
ENDMDL
