MODEL 1
REMARK minimizedAffinity 14.2982922
REMARK minimizedRMSD -1
REMARK  0 active torsions:
REMARK  status: ('A' for Active; 'I' for Inactive)
ROOT
ATOM      1  C   UNL d   1       1.554  -3.521  -4.015  0.00  0.00    -0.002 A 
ATOM      2  C1  UNL d   1       2.044  -2.857  -2.899  0.00  0.00     0.010 A 
ATOM      3  C2  UNL d   1       1.192  -2.508  -1.849  0.00  0.00     0.041 A 
ATOM      4  C3  UNL d   1      -0.174  -2.843  -1.940  0.00  0.00    -0.075 A 
ATOM      5  S   UNL d   1      -1.403  -2.518  -0.776  0.00  0.00     0.015 SA
ATOM      6  C4  UNL d   1      -2.607  -3.254  -1.731  0.00  0.00     0.022 A 
ATOM      7  C5  UNL d   1      -2.101  -3.742  -2.913  0.00  0.00     0.026 A 
ATOM      8  C6  UNL d   1      -0.690  -3.513  -3.052  0.00  0.00    -0.082 A 
ATOM      9  C7  UNL d   1       0.199  -3.852  -4.101  0.00  0.00     0.045 A 
ENDROOT
TORSDOF 0
ENDMDL
