MODEL 1
REMARK minimizedAffinity 4.78680372
REMARK minimizedRMSD -1
REMARK  0 active torsions:
REMARK  status: ('A' for Active; 'I' for Inactive)
ROOT
ATOM      1  C1  BNZ d   1      -3.367   2.938  -3.917  0.00  0.00     0.000 A 
ATOM      2  C2  BNZ d   1      -3.557   4.287  -4.051  0.00  0.00     0.000 A 
ATOM      3  C3  BNZ d   1      -4.809   4.804  -4.234  0.00  0.00     0.000 A 
ATOM      4  C4  BNZ d   1      -5.864   3.968  -4.323  0.00  0.00     0.000 A 
ATOM      5  C5  BNZ d   1      -5.688   2.604  -4.199  0.00  0.00     0.000 A 
ATOM      6  C6  BNZ d   1      -4.431   2.091  -3.975  0.00  0.00     0.000 A 
ENDROOT
TORSDOF 0
ENDMDL
