MODEL 1
REMARK minimizedAffinity -0.218798876
REMARK minimizedRMSD -1
REMARK  0 active torsions:
REMARK  status: ('A' for Active; 'I' for Inactive)
ROOT
ATOM      1  C1  BNZ d   1      -5.046   0.063  -3.026  0.00  0.00     0.000 A 
ATOM      2  C2  BNZ d   1      -4.210  -0.194  -1.972  0.00  0.00     0.000 A 
ATOM      3  C3  BNZ d   1      -3.769  -1.463  -1.722  0.00  0.00     0.000 A 
ATOM      4  C4  BNZ d   1      -4.196  -2.479  -2.500  0.00  0.00     0.000 A 
ATOM      5  C5  BNZ d   1      -5.046  -2.237  -3.560  0.00  0.00     0.000 A 
ATOM      6  C6  BNZ d   1      -5.457  -0.953  -3.833  0.00  0.00     0.000 A 
ENDROOT
TORSDOF 0
ENDMDL
