MODEL 1
REMARK minimizedAffinity 2.05946803
REMARK minimizedRMSD -1
REMARK  0 active torsions:
REMARK  status: ('A' for Active; 'I' for Inactive)
ROOT
ATOM      1  C1  BNZ d   1       5.608  -4.091   0.345  0.00  0.00     0.000 A 
ATOM      2  C2  BNZ d   1       5.127  -3.802   1.595  0.00  0.00     0.000 A 
ATOM      3  C3  BNZ d   1       3.782  -3.741   1.829  0.00  0.00     0.000 A 
ATOM      4  C4  BNZ d   1       2.921  -3.928   0.808  0.00  0.00     0.000 A 
ATOM      5  C5  BNZ d   1       3.391  -4.211  -0.459  0.00  0.00     0.000 A 
ATOM      6  C6  BNZ d   1       4.745  -4.311  -0.683  0.00  0.00     0.000 A 
ENDROOT
TORSDOF 0
ENDMDL
