MODEL 1
REMARK minimizedAffinity 1.47089458
REMARK minimizedRMSD -1
REMARK  0 active torsions:
REMARK  status: ('A' for Active; 'I' for Inactive)
ROOT
ATOM      1  C1  BNZ d   1       3.024  -3.981   2.324  0.00  0.00     0.000 A 
ATOM      2  C2  BNZ d   1       1.953  -3.713   1.513  0.00  0.00     0.000 A 
ATOM      3  C3  BNZ d   1       1.018  -2.782   1.873  0.00  0.00     0.000 A 
ATOM      4  C4  BNZ d   1       1.134  -2.151   3.059  0.00  0.00     0.000 A 
ATOM      5  C5  BNZ d   1       2.203  -2.416   3.891  0.00  0.00     0.000 A 
ATOM      6  C6  BNZ d   1       3.163  -3.325   3.508  0.00  0.00     0.000 A 
ENDROOT
TORSDOF 0
ENDMDL
