MODEL 1
REMARK minimizedAffinity 3.96548748
REMARK minimizedRMSD -1
REMARK  0 active torsions:
REMARK  status: ('A' for Active; 'I' for Inactive)
ROOT
ATOM      1  C1  BNZ d   1      -4.333   3.380  -3.670  0.00  0.00     0.000 A 
ATOM      2  C2  BNZ d   1      -3.014   3.747  -3.688  0.00  0.00     0.000 A 
ATOM      3  C3  BNZ d   1      -2.411   4.138  -4.851  0.00  0.00     0.000 A 
ATOM      4  C4  BNZ d   1      -3.117   4.124  -6.000  0.00  0.00     0.000 A 
ATOM      5  C5  BNZ d   1      -4.446   3.748  -6.000  0.00  0.00     0.000 A 
ATOM      6  C6  BNZ d   1      -5.059   3.392  -4.821  0.00  0.00     0.000 A 
ENDROOT
TORSDOF 0
ENDMDL
