MODEL 1
REMARK minimizedAffinity 4.30187035
REMARK minimizedRMSD -1
REMARK  0 active torsions:
REMARK  status: ('A' for Active; 'I' for Inactive)
ROOT
ATOM      1  C1  BNZ d   1      -2.759  -1.390   1.846  0.00  0.00     0.000 A 
ATOM      2  C2  BNZ d   1      -3.729  -0.802   1.080  0.00  0.00     0.000 A 
ATOM      3  C3  BNZ d   1      -4.406   0.297   1.530  0.00  0.00     0.000 A 
ATOM      4  C4  BNZ d   1      -4.140   0.782   2.760  0.00  0.00     0.000 A 
ATOM      5  C5  BNZ d   1      -3.171   0.194   3.548  0.00  0.00     0.000 A 
ATOM      6  C6  BNZ d   1      -2.464  -0.888   3.076  0.00  0.00     0.000 A 
ENDROOT
TORSDOF 0
ENDMDL
