MODEL 1
REMARK minimizedAffinity 3.3728137
REMARK minimizedRMSD -1
REMARK  0 active torsions:
REMARK  status: ('A' for Active; 'I' for Inactive)
ROOT
ATOM      1  C1  BNZ d   1       0.823   0.700  -1.183  0.00  0.00     0.000 A 
ATOM      2  C2  BNZ d   1       0.149   1.862  -1.450  0.00  0.00     0.000 A 
ATOM      3  C3  BNZ d   1       0.184   2.419  -2.697  0.00  0.00     0.000 A 
ATOM      4  C4  BNZ d   1       0.923   1.837  -3.664  0.00  0.00     0.000 A 
ATOM      5  C5  BNZ d   1       1.615   0.671  -3.407  0.00  0.00     0.000 A 
ATOM      6  C6  BNZ d   1       1.547   0.091  -2.161  0.00  0.00     0.000 A 
ENDROOT
TORSDOF 0
ENDMDL
