MODEL 1
REMARK minimizedAffinity 3.73667741
REMARK minimizedRMSD -1
REMARK  0 active torsions:
REMARK  status: ('A' for Active; 'I' for Inactive)
ROOT
ATOM      1  C1  BNZ d   1      -3.736  -0.941  -1.880  0.00  0.00     0.000 A 
ATOM      2  C2  BNZ d   1      -4.942  -0.845  -2.520  0.00  0.00     0.000 A 
ATOM      3  C3  BNZ d   1      -5.133  -1.422  -3.744  0.00  0.00     0.000 A 
ATOM      4  C4  BNZ d   1      -4.108  -2.060  -4.344  0.00  0.00     0.000 A 
ATOM      5  C5  BNZ d   1      -2.882  -2.158  -3.716  0.00  0.00     0.000 A 
ATOM      6  C6  BNZ d   1      -2.705  -1.609  -2.466  0.00  0.00     0.000 A 
ENDROOT
TORSDOF 0
ENDMDL
