MODEL 1
REMARK minimizedAffinity 8.81943893
REMARK minimizedRMSD -1
REMARK  0 active torsions:
REMARK  status: ('A' for Active; 'I' for Inactive)
ROOT
ATOM      1  C1  BNZ d   1      -4.399  -2.635  -1.772  0.00  0.00     0.000 A 
ATOM      2  C2  BNZ d   1      -5.055  -2.873  -2.950  0.00  0.00     0.000 A 
ATOM      3  C3  BNZ d   1      -5.095  -1.925  -3.934  0.00  0.00     0.000 A 
ATOM      4  C4  BNZ d   1      -4.515  -0.726  -3.723  0.00  0.00     0.000 A 
ATOM      5  C5  BNZ d   1      -3.857  -0.467  -2.537  0.00  0.00     0.000 A 
ATOM      6  C6  BNZ d   1      -3.785  -1.438  -1.565  0.00  0.00     0.000 A 
ENDROOT
TORSDOF 0
ENDMDL
