MODEL 1
REMARK minimizedAffinity 9.56185341
REMARK minimizedRMSD -1
REMARK  0 active torsions:
REMARK  status: ('A' for Active; 'I' for Inactive)
ROOT
ATOM      1  C1  BNZ d   1      -3.732  -1.485  -1.993  0.00  0.00     0.000 A 
ATOM      2  C2  BNZ d   1      -4.386  -2.383  -2.794  0.00  0.00     0.000 A 
ATOM      3  C3  BNZ d   1      -5.073  -1.964  -3.900  0.00  0.00     0.000 A 
ATOM      4  C4  BNZ d   1      -5.138  -0.646  -4.180  0.00  0.00     0.000 A 
ATOM      5  C5  BNZ d   1      -4.492   0.272  -3.376  0.00  0.00     0.000 A 
ATOM      6  C6  BNZ d   1      -3.769  -0.157  -2.287  0.00  0.00     0.000 A 
ENDROOT
TORSDOF 0
ENDMDL
