MODEL 1
REMARK minimizedAffinity 6.81605387
REMARK minimizedRMSD -1
REMARK  0 active torsions:
REMARK  status: ('A' for Active; 'I' for Inactive)
ROOT
ATOM      1  N1  IND d   1      -0.084   3.990  -0.786  0.00  0.00    -0.196 N 
ATOM      2  C2  IND d   1       0.469   4.967  -1.567  0.00  0.00     0.054 A 
ATOM      3  C3  IND d   1       1.531   5.523  -0.942  0.00  0.00    -0.031 A 
ATOM      4  C4  IND d   1       2.600   4.918   1.320  0.00  0.00     0.051 A 
ATOM      5  C5  IND d   1       2.427   4.117   2.414  0.00  0.00    -0.031 A 
ATOM      6  C6  IND d   1       1.388   3.213   2.497  0.00  0.00     0.015 A 
ATOM      7  C7  IND d   1       0.487   3.067   1.481  0.00  0.00    -0.016 A 
ATOM      8  C8  IND d   1       0.656   3.884   0.372  0.00  0.00    -0.047 A 
ATOM      9  C9  IND d   1       1.683   4.833   0.299  0.00  0.00    -0.096 A 
ATOM     10  HN1 IND d   1      -0.777   3.522  -0.984  0.00  0.00     0.298 HD
ENDROOT
TORSDOF 0
ENDMDL
