MODEL 1
REMARK minimizedAffinity -2.43624282
REMARK minimizedRMSD -1
REMARK  0 active torsions:
REMARK  status: ('A' for Active; 'I' for Inactive)
ROOT
ATOM      1  N1  IND d   1      -6.000   3.374  -5.068  0.00  0.00    -0.196 N 
ATOM      2  C2  IND d   1      -5.007   3.657  -5.964  0.00  0.00     0.054 A 
ATOM      3  C3  IND d   1      -3.794   3.476  -5.395  0.00  0.00    -0.031 A 
ATOM      4  C4  IND d   1      -3.203   2.623  -3.040  0.00  0.00     0.051 A 
ATOM      5  C5  IND d   1      -3.772   2.269  -1.848  0.00  0.00    -0.031 A 
ATOM      6  C6  IND d   1      -5.140   2.263  -1.666  0.00  0.00     0.015 A 
ATOM      7  C7  IND d   1      -5.994   2.601  -2.677  0.00  0.00    -0.016 A 
ATOM      8  C8  IND d   1      -5.420   2.967  -3.886  0.00  0.00    -0.047 A 
ATOM      9  C9  IND d   1      -4.032   3.016  -4.064  0.00  0.00    -0.096 A 
ATOM     10  HN1 IND d   1      -6.844   3.439  -5.217  0.00  0.00     0.298 HD
ENDROOT
TORSDOF 0
ENDMDL
