MODEL 1
REMARK minimizedAffinity 7.03658915
REMARK minimizedRMSD -1
REMARK  0 active torsions:
REMARK  status: ('A' for Active; 'I' for Inactive)
ROOT
ATOM      1  N1  IND d   1       0.837  -4.459  -0.626  0.00  0.00    -0.196 N 
ATOM      2  C2  IND d   1      -0.403  -4.327  -1.187  0.00  0.00     0.054 A 
ATOM      3  C3  IND d   1      -0.581  -3.067  -1.643  0.00  0.00    -0.031 A 
ATOM      4  C4  IND d   1       1.065  -1.087  -1.664  0.00  0.00     0.051 A 
ATOM      5  C5  IND d   1       2.305  -0.714  -1.230  0.00  0.00    -0.031 A 
ATOM      6  C6  IND d   1       3.138  -1.588  -0.562  0.00  0.00     0.015 A 
ATOM      7  C7  IND d   1       2.764  -2.877  -0.311  0.00  0.00    -0.016 A 
ATOM      8  C8  IND d   1       1.501  -3.258  -0.744  0.00  0.00    -0.047 A 
ATOM      9  C9  IND d   1       0.635  -2.363  -1.385  0.00  0.00    -0.096 A 
ATOM     10  HN1 IND d   1       1.149  -5.172  -0.261  0.00  0.00     0.298 HD
ENDROOT
TORSDOF 0
ENDMDL
