MODEL 1
REMARK minimizedAffinity 3.64870191
REMARK minimizedRMSD -1
REMARK  0 active torsions:
REMARK  status: ('A' for Active; 'I' for Inactive)
ROOT
ATOM      1  N1  IND d   1      -0.787  -4.368  -1.255  0.00  0.00    -0.196 N 
ATOM      2  C2  IND d   1       0.416  -4.025  -0.703  0.00  0.00     0.054 A 
ATOM      3  C3  IND d   1       1.091  -3.192  -1.527  0.00  0.00    -0.031 A 
ATOM      4  C4  IND d   1       0.368  -2.183  -3.782  0.00  0.00     0.051 A 
ATOM      5  C5  IND d   1      -0.632  -2.230  -4.713  0.00  0.00    -0.031 A 
ATOM      6  C6  IND d   1      -1.759  -3.006  -4.533  0.00  0.00     0.015 A 
ATOM      7  C7  IND d   1      -1.933  -3.758  -3.406  0.00  0.00    -0.016 A 
ATOM      8  C8  IND d   1      -0.917  -3.718  -2.462  0.00  0.00    -0.047 A 
ATOM      9  C9  IND d   1       0.248  -2.966  -2.658  0.00  0.00    -0.096 A 
ATOM     10  HN1 IND d   1      -1.365  -4.901  -0.906  0.00  0.00     0.298 HD
ENDROOT
TORSDOF 0
ENDMDL
