MODEL 1
REMARK minimizedAffinity 11.2090244
REMARK minimizedRMSD -1
REMARK  0 active torsions:
REMARK  status: ('A' for Active; 'I' for Inactive)
ROOT
ATOM      1  N1  IND d   1       0.923  -4.969  -0.277  0.00  0.00    -0.196 N 
ATOM      2  C2  IND d   1      -0.227  -4.800  -0.997  0.00  0.00     0.054 A 
ATOM      3  C3  IND d   1      -0.357  -3.510  -1.380  0.00  0.00    -0.031 A 
ATOM      4  C4  IND d   1       1.249  -1.529  -1.024  0.00  0.00     0.051 A 
ATOM      5  C5  IND d   1       2.411  -1.184  -0.394  0.00  0.00    -0.031 A 
ATOM      6  C6  IND d   1       3.154  -2.103   0.320  0.00  0.00     0.015 A 
ATOM      7  C7  IND d   1       2.765  -3.409   0.421  0.00  0.00    -0.016 A 
ATOM      8  C8  IND d   1       1.581  -3.761  -0.212  0.00  0.00    -0.047 A 
ATOM      9  C9  IND d   1       0.802  -2.824  -0.902  0.00  0.00    -0.096 A 
ATOM     10  HN1 IND d   1       1.190  -5.706   0.075  0.00  0.00     0.298 HD
ENDROOT
TORSDOF 0
ENDMDL
