MODEL 1
REMARK minimizedAffinity 6.34778309
REMARK minimizedRMSD -1
REMARK  0 active torsions:
REMARK  status: ('A' for Active; 'I' for Inactive)
ROOT
ATOM      1  N1  IND d   1      -3.775   2.928  -2.395  0.00  0.00    -0.196 N 
ATOM      2  C2  IND d   1      -4.957   2.699  -1.748  0.00  0.00     0.054 A 
ATOM      3  C3  IND d   1      -6.000   3.011  -2.550  0.00  0.00    -0.031 A 
ATOM      4  C4  IND d   1      -5.999   3.818  -4.995  0.00  0.00     0.051 A 
ATOM      5  C5  IND d   1      -5.160   4.208  -6.000  0.00  0.00    -0.031 A 
ATOM      6  C6  IND d   1      -3.788   4.189  -5.853  0.00  0.00     0.015 A 
ATOM      7  C7  IND d   1      -3.202   3.766  -4.694  0.00  0.00    -0.016 A 
ATOM      8  C8  IND d   1      -4.051   3.375  -3.668  0.00  0.00    -0.047 A 
ATOM      9  C9  IND d   1      -5.445   3.433  -3.797  0.00  0.00    -0.096 A 
ATOM     10  HN1 IND d   1      -2.990   2.812  -2.062  0.00  0.00     0.298 HD
ENDROOT
TORSDOF 0
ENDMDL
