MODEL 1
REMARK minimizedAffinity -4.59374428
REMARK minimizedRMSD -1
REMARK  0 active torsions:
REMARK  status: ('A' for Active; 'I' for Inactive)
ROOT
ATOM      1  C   UNL d   1      -0.051  -0.875  -0.506  0.00  0.00     0.078 C 
ATOM      2  C1  UNL d   1       0.846   0.174   0.079  0.00  0.00    -0.077 A 
ATOM      3  C2  UNL d   1       2.160   0.337  -0.376  0.00  0.00    -0.001 A 
ATOM      4  C3  UNL d   1       2.987   1.311   0.185  0.00  0.00     0.003 A 
ATOM      5  C4  UNL d   1       2.509   2.130   1.206  0.00  0.00    -0.005 A 
ATOM      6  C5  UNL d   1       1.204   1.975   1.668  0.00  0.00     0.003 A 
ATOM      7  C6  UNL d   1       0.376   1.001   1.108  0.00  0.00    -0.001 A 
ENDROOT
TORSDOF 0
ENDMDL
