MODEL 1
REMARK minimizedAffinity -2.85999441
REMARK minimizedRMSD -1
REMARK  0 active torsions:
REMARK  status: ('A' for Active; 'I' for Inactive)
ROOT
ATOM      1  C   UNL d   1      -0.913  -1.111  -1.016  0.00  0.00     0.078 C 
ATOM      2  C1  UNL d   1      -0.005  -0.278  -0.161  0.00  0.00    -0.077 A 
ATOM      3  C2  UNL d   1      -0.520   0.561   0.834  0.00  0.00    -0.001 A 
ATOM      4  C3  UNL d   1       0.337   1.338   1.616  0.00  0.00     0.003 A 
ATOM      5  C4  UNL d   1       1.714   1.283   1.410  0.00  0.00    -0.005 A 
ATOM      6  C5  UNL d   1       2.236   0.453   0.420  0.00  0.00     0.003 A 
ATOM      7  C6  UNL d   1       1.380  -0.325  -0.362  0.00  0.00    -0.001 A 
ENDROOT
TORSDOF 0
ENDMDL
