MODEL 1
REMARK minimizedAffinity -5.37810755
REMARK minimizedRMSD -1
REMARK  0 active torsions:
REMARK  status: ('A' for Active; 'I' for Inactive)
ROOT
ATOM      1  C   UNL d   1      -0.932   1.141   1.201  0.00  0.00     0.078 C 
ATOM      2  C1  UNL d   1       0.492   1.129   0.731  0.00  0.00    -0.077 A 
ATOM      3  C2  UNL d   1       0.958   0.128  -0.130  0.00  0.00    -0.001 A 
ATOM      4  C3  UNL d   1       2.288   0.123  -0.553  0.00  0.00     0.003 A 
ATOM      5  C4  UNL d   1       3.164   1.116  -0.118  0.00  0.00    -0.005 A 
ATOM      6  C5  UNL d   1       2.710   2.115   0.741  0.00  0.00     0.003 A 
ATOM      7  C6  UNL d   1       1.380   2.122   1.164  0.00  0.00    -0.001 A 
ENDROOT
TORSDOF 0
ENDMDL
