MODEL 1
REMARK minimizedAffinity -4.2389369
REMARK minimizedRMSD -1
REMARK  0 active torsions:
REMARK  status: ('A' for Active; 'I' for Inactive)
ROOT
ATOM      1  C   UNL d   1       0.697   2.421   1.444  0.00  0.00     0.078 C 
ATOM      2  C1  UNL d   1       0.373   1.066   0.889  0.00  0.00    -0.077 A 
ATOM      3  C2  UNL d   1      -0.757   0.361   1.322  0.00  0.00    -0.001 A 
ATOM      4  C3  UNL d   1      -1.041  -0.904   0.804  0.00  0.00     0.003 A 
ATOM      5  C4  UNL d   1      -0.199  -1.475  -0.148  0.00  0.00    -0.005 A 
ATOM      6  C5  UNL d   1       0.929  -0.782  -0.583  0.00  0.00     0.003 A 
ATOM      7  C6  UNL d   1       1.215   0.483  -0.066  0.00  0.00    -0.001 A 
ENDROOT
TORSDOF 0
ENDMDL
