MODEL 1
REMARK minimizedAffinity -3.87281275
REMARK minimizedRMSD -1
REMARK  0 active torsions:
REMARK  status: ('A' for Active; 'I' for Inactive)
ROOT
ATOM      1  C   UNL d   1      -1.915  -2.177  -2.098  0.00  0.00     0.078 C 
ATOM      2  C1  UNL d   1      -0.873  -1.563  -1.211  0.00  0.00    -0.077 A 
ATOM      3  C2  UNL d   1       0.491  -1.762  -1.456  0.00  0.00    -0.001 A 
ATOM      4  C3  UNL d   1       1.450  -1.193  -0.617  0.00  0.00     0.003 A 
ATOM      5  C4  UNL d   1       1.055  -0.422   0.475  0.00  0.00    -0.005 A 
ATOM      6  C5  UNL d   1      -0.300  -0.220   0.728  0.00  0.00     0.003 A 
ATOM      7  C6  UNL d   1      -1.260  -0.789  -0.110  0.00  0.00    -0.001 A 
ENDROOT
TORSDOF 0
ENDMDL
