MODEL 1
REMARK minimizedAffinity -5.94830179
REMARK minimizedRMSD -1
REMARK  0 active torsions:
REMARK  status: ('A' for Active; 'I' for Inactive)
ROOT
ATOM      1  C   UNL d   1      -0.269  -0.964  -0.414  0.00  0.00     0.078 C 
ATOM      2  C1  UNL d   1       0.473   0.173   0.223  0.00  0.00    -0.077 A 
ATOM      3  C2  UNL d   1      -0.050   0.841   1.336  0.00  0.00    -0.001 A 
ATOM      4  C3  UNL d   1       0.647   1.904   1.913  0.00  0.00     0.003 A 
ATOM      5  C4  UNL d   1       1.870   2.309   1.383  0.00  0.00    -0.005 A 
ATOM      6  C5  UNL d   1       2.397   1.651   0.274  0.00  0.00     0.003 A 
ATOM      7  C6  UNL d   1       1.702   0.588  -0.305  0.00  0.00    -0.001 A 
ENDROOT
TORSDOF 0
ENDMDL
