MODEL 1
REMARK minimizedAffinity -6.14815807
REMARK minimizedRMSD -1
REMARK  0 active torsions:
REMARK  status: ('A' for Active; 'I' for Inactive)
ROOT
ATOM      1  C   UNL d   1       0.311  -0.753  -0.314  0.00  0.00     0.078 C 
ATOM      2  C1  UNL d   1       0.984   0.433   0.311  0.00  0.00    -0.077 A 
ATOM      3  C2  UNL d   1       2.233   0.876  -0.143  0.00  0.00    -0.001 A 
ATOM      4  C3  UNL d   1       2.852   1.975   0.454  0.00  0.00     0.003 A 
ATOM      5  C4  UNL d   1       2.230   2.640   1.509  0.00  0.00    -0.005 A 
ATOM      6  C5  UNL d   1       0.989   2.205   1.969  0.00  0.00     0.003 A 
ATOM      7  C6  UNL d   1       0.369   1.106   1.373  0.00  0.00    -0.001 A 
ENDROOT
TORSDOF 0
ENDMDL
