MODEL 1
REMARK minimizedAffinity -4.76127291
REMARK minimizedRMSD -1
REMARK  0 active torsions:
REMARK  status: ('A' for Active; 'I' for Inactive)
ROOT
ATOM      1  C   UNL d   1      -0.454  -0.151  -0.071  0.00  0.00     0.078 C 
ATOM      2  C1  UNL d   1       0.759   0.701   0.160  0.00  0.00    -0.077 A 
ATOM      3  C2  UNL d   1       1.967   0.429  -0.494  0.00  0.00    -0.001 A 
ATOM      4  C3  UNL d   1       3.090   1.224  -0.261  0.00  0.00     0.003 A 
ATOM      5  C4  UNL d   1       3.016   2.296   0.626  0.00  0.00    -0.005 A 
ATOM      6  C5  UNL d   1       1.819   2.573   1.283  0.00  0.00     0.003 A 
ATOM      7  C6  UNL d   1       0.695   1.779   1.052  0.00  0.00    -0.001 A 
ENDROOT
TORSDOF 0
ENDMDL
