MODEL 1
REMARK minimizedAffinity -4.17082739
REMARK minimizedRMSD -1
REMARK  0 active torsions:
REMARK  status: ('A' for Active; 'I' for Inactive)
ROOT
ATOM      1  C   UNL d   1      -0.815  -0.932  -0.944  0.00  0.00     0.078 C 
ATOM      2  C1  UNL d   1       0.186  -0.163  -0.134  0.00  0.00    -0.077 A 
ATOM      3  C2  UNL d   1       1.548  -0.189  -0.457  0.00  0.00    -0.001 A 
ATOM      4  C3  UNL d   1       2.470   0.524   0.312  0.00  0.00     0.003 A 
ATOM      5  C4  UNL d   1       2.039   1.267   1.409  0.00  0.00    -0.005 A 
ATOM      6  C5  UNL d   1       0.686   1.297   1.740  0.00  0.00     0.003 A 
ATOM      7  C6  UNL d   1      -0.237   0.585   0.972  0.00  0.00    -0.001 A 
ENDROOT
TORSDOF 0
ENDMDL
