MODEL 1
REMARK minimizedAffinity -5.39686632
REMARK minimizedRMSD -1
REMARK  0 active torsions:
REMARK  status: ('A' for Active; 'I' for Inactive)
ROOT
ATOM      1  C   UNL d   1       0.671  -1.196  -0.010  0.00  0.00     0.078 C 
ATOM      2  C1  UNL d   1       1.357   0.137   0.048  0.00  0.00    -0.077 A 
ATOM      3  C2  UNL d   1       0.623   1.328  -0.003  0.00  0.00    -0.001 A 
ATOM      4  C3  UNL d   1       1.275   2.561   0.042  0.00  0.00     0.003 A 
ATOM      5  C4  UNL d   1       2.664   2.615   0.137  0.00  0.00    -0.005 A 
ATOM      6  C5  UNL d   1       3.403   1.435   0.186  0.00  0.00     0.003 A 
ATOM      7  C6  UNL d   1       2.753   0.201   0.141  0.00  0.00    -0.001 A 
ENDROOT
TORSDOF 0
ENDMDL
