MODEL 1
REMARK minimizedAffinity -6.00176573
REMARK minimizedRMSD -1
REMARK  0 active torsions:
REMARK  status: ('A' for Active; 'I' for Inactive)
ROOT
ATOM      1  C   UNL d   1      -0.148  -0.552  -0.168  0.00  0.00     0.078 C 
ATOM      2  C1  UNL d   1       0.728   0.562   0.323  0.00  0.00    -0.077 A 
ATOM      3  C2  UNL d   1       2.091   0.602   0.004  0.00  0.00    -0.001 A 
ATOM      4  C3  UNL d   1       2.896   1.639   0.477  0.00  0.00     0.003 A 
ATOM      5  C4  UNL d   1       2.348   2.644   1.273  0.00  0.00    -0.005 A 
ATOM      6  C5  UNL d   1       0.994   2.611   1.597  0.00  0.00     0.003 A 
ATOM      7  C6  UNL d   1       0.187   1.574   1.125  0.00  0.00    -0.001 A 
ENDROOT
TORSDOF 0
ENDMDL
