MODEL 1
REMARK minimizedAffinity -5.43250895
REMARK minimizedRMSD -1
REMARK  0 active torsions:
REMARK  status: ('A' for Active; 'I' for Inactive)
ROOT
ATOM      1  C   UNL d   1      -0.276  -1.129  -0.407  0.00  0.00     0.078 C 
ATOM      2  C1  UNL d   1       0.546  -0.019   0.178  0.00  0.00    -0.077 A 
ATOM      3  C2  UNL d   1       1.932   0.030  -0.013  0.00  0.00    -0.001 A 
ATOM      4  C3  UNL d   1       2.685   1.064   0.546  0.00  0.00     0.003 A 
ATOM      5  C4  UNL d   1       2.061   2.055   1.300  0.00  0.00    -0.005 A 
ATOM      6  C5  UNL d   1       0.683   2.014   1.498  0.00  0.00     0.003 A 
ATOM      7  C6  UNL d   1      -0.072   0.981   0.940  0.00  0.00    -0.001 A 
ENDROOT
TORSDOF 0
ENDMDL
