MODEL 1
REMARK minimizedAffinity -3.11603189
REMARK minimizedRMSD -1
REMARK  0 active torsions:
REMARK  status: ('A' for Active; 'I' for Inactive)
ROOT
ATOM      1  C   UNL d   1       1.817   1.792   1.886  0.00  0.00     0.078 C 
ATOM      2  C1  UNL d   1       1.425   0.610   1.051  0.00  0.00    -0.077 A 
ATOM      3  C2  UNL d   1       0.104   0.145   1.033  0.00  0.00    -0.001 A 
ATOM      4  C3  UNL d   1      -0.244  -0.963   0.259  0.00  0.00     0.003 A 
ATOM      5  C4  UNL d   1       0.722  -1.615  -0.504  0.00  0.00    -0.005 A 
ATOM      6  C5  UNL d   1       2.040  -1.162  -0.491  0.00  0.00     0.003 A 
ATOM      7  C6  UNL d   1       2.390  -0.054   0.283  0.00  0.00    -0.001 A 
ENDROOT
TORSDOF 0
ENDMDL
