MODEL 1
REMARK minimizedAffinity -1.67949057
REMARK minimizedRMSD -1
REMARK  0 active torsions:
REMARK  status: ('A' for Active; 'I' for Inactive)
ROOT
ATOM      1  C   UNL d   1       1.417  -0.370  -0.722  0.00  0.00     0.078 C 
ATOM      2  C1  UNL d   1       0.408   0.233   0.210  0.00  0.00    -0.077 A 
ATOM      3  C2  UNL d   1       0.803   0.823   1.417  0.00  0.00    -0.001 A 
ATOM      4  C3  UNL d   1      -0.147   1.371   2.279  0.00  0.00     0.003 A 
ATOM      5  C4  UNL d   1      -1.500   1.333   1.945  0.00  0.00    -0.005 A 
ATOM      6  C5  UNL d   1      -1.903   0.746   0.748  0.00  0.00     0.003 A 
ATOM      7  C6  UNL d   1      -0.953   0.197  -0.116  0.00  0.00    -0.001 A 
ENDROOT
TORSDOF 0
ENDMDL
