MODEL 1
REMARK minimizedAffinity -3.86587
REMARK minimizedRMSD -1
REMARK  0 active torsions:
REMARK  status: ('A' for Active; 'I' for Inactive)
ROOT
ATOM      1  C   UNL d   1       1.948   2.791   1.951  0.00  0.00     0.078 C 
ATOM      2  C1  UNL d   1       1.559   1.580   1.156  0.00  0.00    -0.077 A 
ATOM      3  C2  UNL d   1       2.458   0.986   0.262  0.00  0.00    -0.001 A 
ATOM      4  C3  UNL d   1       2.079  -0.135  -0.479  0.00  0.00     0.003 A 
ATOM      5  C4  UNL d   1       0.801  -0.670  -0.335  0.00  0.00    -0.005 A 
ATOM      6  C5  UNL d   1      -0.101  -0.083   0.550  0.00  0.00     0.003 A 
ATOM      7  C6  UNL d   1       0.275   1.037   1.292  0.00  0.00    -0.001 A 
ENDROOT
TORSDOF 0
ENDMDL
