MODEL 1
REMARK minimizedAffinity 4.93742895
REMARK minimizedRMSD -1
REMARK  0 active torsions:
REMARK  status: ('A' for Active; 'I' for Inactive)
ROOT
ATOM      1  C   UNL d   1       1.993  -0.012  -0.414  0.00  0.00     0.078 C 
ATOM      2  C1  UNL d   1       1.654  -0.590  -1.755  0.00  0.00    -0.077 A 
ATOM      3  C2  UNL d   1       2.602  -1.315  -2.489  0.00  0.00    -0.001 A 
ATOM      4  C3  UNL d   1       2.276  -1.839  -3.740  0.00  0.00     0.003 A 
ATOM      5  C4  UNL d   1       1.002  -1.644  -4.270  0.00  0.00    -0.005 A 
ATOM      6  C5  UNL d   1       0.053  -0.923  -3.549  0.00  0.00     0.003 A 
ATOM      7  C6  UNL d   1       0.377  -0.398  -2.297  0.00  0.00    -0.001 A 
ENDROOT
TORSDOF 0
ENDMDL
