MODEL 1
REMARK minimizedAffinity 7.58607388
REMARK minimizedRMSD -1
REMARK  1 active torsions:
REMARK  status: ('A' for Active; 'I' for Inactive)
REMARK    1  A    between atoms: N_2  and  C1_3 
ROOT
ATOM      1  C1  UNL d   1      -3.060   1.836   2.250  0.00  0.00     0.143 A 
ATOM      2  C2  UNL d   1      -1.969   1.658   1.392  0.00  0.00    -0.057 A 
ATOM      3  C3  UNL d   1      -1.233   0.467   1.392  0.00  0.00     0.033 A 
ATOM      4  C4  UNL d   1      -1.557  -0.559   2.273  0.00  0.00    -0.042 A 
ATOM      5  C5  UNL d   1      -2.621  -0.394   3.153  0.00  0.00     0.033 A 
ATOM      6  C6  UNL d   1      -3.357   0.795   3.144  0.00  0.00    -0.057 A 
ENDROOT
BRANCH   1   7
ATOM      7  N   UNL d   1      -3.770   3.033   2.367  0.00  0.00    -0.732 N 
ATOM      8  C   UNL d   1      -4.944   3.115   3.210  0.00  0.00     0.284 C 
ATOM      9  H3  UNL d   1      -3.158   3.844   2.427  0.00  0.00     0.395 HD
ENDBRANCH   1   7
TORSDOF 1
ENDMDL
