MODEL 1
REMARK minimizedAffinity 15.0637627
REMARK minimizedRMSD -1
REMARK  1 active torsions:
REMARK  status: ('A' for Active; 'I' for Inactive)
REMARK    1  A    between atoms: N_2  and  C1_3 
ROOT
ATOM      1  C1  UNL d   1      -0.154  -2.182  -5.345  0.00  0.00     0.143 A 
ATOM      2  C2  UNL d   1       0.944  -2.257  -4.481  0.00  0.00    -0.057 A 
ATOM      3  C3  UNL d   1       1.521  -1.103  -3.938  0.00  0.00     0.033 A 
ATOM      4  C4  UNL d   1       1.027   0.153  -4.274  0.00  0.00    -0.042 A 
ATOM      5  C5  UNL d   1      -0.048   0.254  -5.150  0.00  0.00     0.033 A 
ATOM      6  C6  UNL d   1      -0.624  -0.903  -5.684  0.00  0.00    -0.057 A 
ENDROOT
BRANCH   1   7
ATOM      7  N   UNL d   1      -0.710  -3.286  -5.994  0.00  0.00    -0.732 N 
ATOM      8  C   UNL d   1      -2.142  -3.495  -6.000  0.00  0.00     0.284 C 
ATOM      9  H3  UNL d   1      -0.258  -3.481  -6.885  0.00  0.00     0.395 HD
ENDBRANCH   1   7
TORSDOF 1
ENDMDL
