MODEL 1
REMARK minimizedAffinity 10.5365314
REMARK minimizedRMSD -1
REMARK  1 active torsions:
REMARK  status: ('A' for Active; 'I' for Inactive)
REMARK    1  A    between atoms: N_2  and  C1_3 
ROOT
ATOM      1  C1  UNL d   1       0.055  -2.113  -5.512  0.00  0.00     0.143 A 
ATOM      2  C2  UNL d   1      -0.531  -0.884  -5.833  0.00  0.00    -0.057 A 
ATOM      3  C3  UNL d   1      -0.083   0.308  -5.250  0.00  0.00     0.033 A 
ATOM      4  C4  UNL d   1       0.944   0.288  -4.312  0.00  0.00    -0.042 A 
ATOM      5  C5  UNL d   1       1.524  -0.925  -3.959  0.00  0.00     0.033 A 
ATOM      6  C6  UNL d   1       1.077  -2.111  -4.549  0.00  0.00    -0.057 A 
ENDROOT
BRANCH   1   7
ATOM      7  N   UNL d   1      -0.410  -3.343  -5.982  0.00  0.00    -0.732 N 
ATOM      8  C   UNL d   1      -1.827  -3.638  -5.997  0.00  0.00     0.284 C 
ATOM      9  H3  UNL d   1       0.088  -3.655  -6.812  0.00  0.00     0.395 HD
ENDBRANCH   1   7
TORSDOF 1
ENDMDL
