MODEL 1
REMARK minimizedAffinity 9.09079552
REMARK minimizedRMSD -1
REMARK  1 active torsions:
REMARK  status: ('A' for Active; 'I' for Inactive)
REMARK    1  A    between atoms: N_2  and  C1_3 
ROOT
ATOM      1  C1  UNL d   1      -0.160  -1.942  -5.069  0.00  0.00     0.143 A 
ATOM      2  C2  UNL d   1       0.703  -2.112  -3.981  0.00  0.00    -0.057 A 
ATOM      3  C3  UNL d   1       1.340  -1.019  -3.381  0.00  0.00     0.033 A 
ATOM      4  C4  UNL d   1       1.147   0.265  -3.880  0.00  0.00    -0.042 A 
ATOM      5  C5  UNL d   1       0.313   0.456  -4.976  0.00  0.00     0.033 A 
ATOM      6  C6  UNL d   1      -0.325  -0.639  -5.566  0.00  0.00    -0.057 A 
ENDROOT
BRANCH   1   7
ATOM      7  N   UNL d   1      -0.746  -2.999  -5.770  0.00  0.00    -0.732 N 
ATOM      8  C   UNL d   1      -2.175  -3.032  -5.995  0.00  0.00     0.284 C 
ATOM      9  H3  UNL d   1      -0.192  -3.286  -6.574  0.00  0.00     0.395 HD
ENDBRANCH   1   7
TORSDOF 1
ENDMDL
