MODEL 1
REMARK minimizedAffinity 2.68356133
REMARK minimizedRMSD -1
REMARK  1 active torsions:
REMARK  status: ('A' for Active; 'I' for Inactive)
REMARK    1  A    between atoms: N_2  and  C1_3 
ROOT
ATOM      1  C1  UNL d   1      -5.343  -3.073  -4.648  0.00  0.00     0.143 A 
ATOM      2  C2  UNL d   1      -5.792  -3.714  -3.488  0.00  0.00    -0.057 A 
ATOM      3  C3  UNL d   1      -5.999  -3.003  -2.300  0.00  0.00     0.033 A 
ATOM      4  C4  UNL d   1      -5.733  -1.639  -2.243  0.00  0.00    -0.042 A 
ATOM      5  C5  UNL d   1      -5.262  -0.986  -3.377  0.00  0.00     0.033 A 
ATOM      6  C6  UNL d   1      -5.064  -1.700  -4.562  0.00  0.00    -0.057 A 
ENDROOT
BRANCH   1   7
ATOM      7  N   UNL d   1      -5.024  -3.742  -5.832  0.00  0.00    -0.732 N 
ATOM      8  C   UNL d   1      -3.730  -4.369  -5.999  0.00  0.00     0.284 C 
ATOM      9  H3  UNL d   1      -5.802  -4.293  -6.189  0.00  0.00     0.395 HD
ENDBRANCH   1   7
TORSDOF 1
ENDMDL
