MODEL 1
REMARK minimizedAffinity 10.1952219
REMARK minimizedRMSD -1
REMARK  1 active torsions:
REMARK  status: ('A' for Active; 'I' for Inactive)
REMARK    1  A    between atoms: N_2  and  C1_3 
ROOT
ATOM      1  C1  UNL d   1      -1.925  -1.331   2.704  0.00  0.00     0.143 A 
ATOM      2  C2  UNL d   1      -2.736  -1.799   1.664  0.00  0.00    -0.057 A 
ATOM      3  C3  UNL d   1      -2.973  -1.023   0.523  0.00  0.00     0.033 A 
ATOM      4  C4  UNL d   1      -2.425   0.251   0.414  0.00  0.00    -0.042 A 
ATOM      5  C5  UNL d   1      -1.636   0.746   1.446  0.00  0.00     0.033 A 
ATOM      6  C6  UNL d   1      -1.397  -0.036   2.580  0.00  0.00    -0.057 A 
ENDROOT
BRANCH   1   7
ATOM      7  N   UNL d   1      -1.731  -2.014   3.907  0.00  0.00    -0.732 N 
ATOM      8  C   UNL d   1      -2.766  -2.035   4.918  0.00  0.00     0.284 C 
ATOM      9  H3  UNL d   1      -1.261  -2.907   3.775  0.00  0.00     0.395 HD
ENDBRANCH   1   7
TORSDOF 1
ENDMDL
