MODEL 1
REMARK minimizedAffinity 4.34429979
REMARK minimizedRMSD -1
REMARK  1 active torsions:
REMARK  status: ('A' for Active; 'I' for Inactive)
REMARK    1  A    between atoms: N_2  and  C1_3 
ROOT
ATOM      1  C1  UNL d   1       3.391   2.131  -5.205  0.00  0.00     0.143 A 
ATOM      2  C2  UNL d   1       2.576   2.059  -4.070  0.00  0.00    -0.057 A 
ATOM      3  C3  UNL d   1       2.366   3.178  -3.255  0.00  0.00     0.033 A 
ATOM      4  C4  UNL d   1       2.994   4.385  -3.545  0.00  0.00    -0.042 A 
ATOM      5  C5  UNL d   1       3.828   4.473  -4.654  0.00  0.00     0.033 A 
ATOM      6  C6  UNL d   1       4.028   3.354  -5.468  0.00  0.00    -0.057 A 
ENDROOT
BRANCH   1   7
ATOM      7  N   UNL d   1       3.717   1.029  -5.999  0.00  0.00    -0.732 N 
ATOM      8  C   UNL d   1       3.140  -0.270  -5.730  0.00  0.00     0.284 C 
ATOM      9  H3  UNL d   1       3.769   1.264  -6.988  0.00  0.00     0.395 HD
ENDBRANCH   1   7
TORSDOF 1
ENDMDL
