MODEL 1
REMARK minimizedAffinity 6.39561653
REMARK minimizedRMSD -1
REMARK  1 active torsions:
REMARK  status: ('A' for Active; 'I' for Inactive)
REMARK    1  A    between atoms: N_2  and  C1_3 
ROOT
ATOM      1  C1  UNL d   1       2.278   0.844  -5.595  0.00  0.00     0.143 A 
ATOM      2  C2  UNL d   1       0.982   1.182  -5.999  0.00  0.00    -0.057 A 
ATOM      3  C3  UNL d   1      -0.119   0.393  -5.645  0.00  0.00     0.033 A 
ATOM      4  C4  UNL d   1       0.061  -0.769  -4.901  0.00  0.00    -0.042 A 
ATOM      5  C5  UNL d   1       1.343  -1.138  -4.510  0.00  0.00     0.033 A 
ATOM      6  C6  UNL d   1       2.438  -0.342  -4.861  0.00  0.00    -0.057 A 
ENDROOT
BRANCH   1   7
ATOM      7  N   UNL d   1       3.424   1.534  -5.998  0.00  0.00    -0.732 N 
ATOM      8  C   UNL d   1       3.451   2.981  -6.000  0.00  0.00     0.284 C 
ATOM      9  H3  UNL d   1       4.278   1.102  -5.653  0.00  0.00     0.395 HD
ENDBRANCH   1   7
TORSDOF 1
ENDMDL
