MODEL 1
REMARK minimizedAffinity 8.57308006
REMARK minimizedRMSD -1
REMARK  1 active torsions:
REMARK  status: ('A' for Active; 'I' for Inactive)
REMARK    1  A    between atoms: N_2  and  C1_3 
ROOT
ATOM      1  C1  UNL d   1      -4.115  -3.883  -0.221  0.00  0.00     0.143 A 
ATOM      2  C2  UNL d   1      -4.959  -2.773  -0.112  0.00  0.00    -0.057 A 
ATOM      3  C3  UNL d   1      -4.526  -1.589   0.497  0.00  0.00     0.033 A 
ATOM      4  C4  UNL d   1      -3.247  -1.504   1.036  0.00  0.00    -0.042 A 
ATOM      5  C5  UNL d   1      -2.399  -2.603   0.961  0.00  0.00     0.033 A 
ATOM      6  C6  UNL d   1      -2.834  -3.781   0.346  0.00  0.00    -0.057 A 
ENDROOT
BRANCH   1   7
ATOM      7  N   UNL d   1      -4.519  -5.121  -0.727  0.00  0.00    -0.732 N 
ATOM      8  C   UNL d   1      -5.365  -5.996   0.056  0.00  0.00     0.284 C 
ATOM      9  H3  UNL d   1      -4.766  -5.075  -1.713  0.00  0.00     0.395 HD
ENDBRANCH   1   7
TORSDOF 1
ENDMDL
