MODEL 1
REMARK minimizedAffinity 9.60005951
REMARK minimizedRMSD -1
REMARK  1 active torsions:
REMARK  status: ('A' for Active; 'I' for Inactive)
REMARK    1  A    between atoms: N_2  and  C1_3 
ROOT
ATOM      1  C1  UNL d   1       3.741   2.001  -4.800  0.00  0.00     0.143 A 
ATOM      2  C2  UNL d   1       3.459   2.195  -3.444  0.00  0.00    -0.057 A 
ATOM      3  C3  UNL d   1       2.806   1.211  -2.690  0.00  0.00     0.033 A 
ATOM      4  C4  UNL d   1       2.396   0.025  -3.290  0.00  0.00    -0.042 A 
ATOM      5  C5  UNL d   1       2.644  -0.178  -4.643  0.00  0.00     0.033 A 
ATOM      6  C6  UNL d   1       3.302   0.804  -5.388  0.00  0.00    -0.057 A 
ENDROOT
BRANCH   1   7
ATOM      7  N   UNL d   1       4.299   2.980  -5.626  0.00  0.00    -0.732 N 
ATOM      8  C   UNL d   1       5.698   3.331  -5.511  0.00  0.00     0.284 C 
ATOM      9  H3  UNL d   1       3.963   2.917  -6.584  0.00  0.00     0.395 HD
ENDBRANCH   1   7
TORSDOF 1
ENDMDL
