MODEL 1
REMARK minimizedAffinity 10.871809
REMARK minimizedRMSD -1
REMARK  1 active torsions:
REMARK  status: ('A' for Active; 'I' for Inactive)
REMARK    1  A    between atoms: N_2  and  C1_3 
ROOT
ATOM      1  C1  UNL d   1      -4.891   5.522   3.282  0.00  0.00     0.143 A 
ATOM      2  C2  UNL d   1      -4.044   4.505   2.828  0.00  0.00    -0.057 A 
ATOM      3  C3  UNL d   1      -4.152   3.997   1.528  0.00  0.00     0.033 A 
ATOM      4  C4  UNL d   1      -5.130   4.480   0.665  0.00  0.00    -0.042 A 
ATOM      5  C5  UNL d   1      -5.998   5.474   1.103  0.00  0.00     0.033 A 
ATOM      6  C6  UNL d   1      -5.882   5.981   2.400  0.00  0.00    -0.057 A 
ENDROOT
BRANCH   1   7
ATOM      7  N   UNL d   1      -4.898   6.000   4.595  0.00  0.00    -0.732 N 
ATOM      8  C   UNL d   1      -5.989   5.678   5.490  0.00  0.00     0.284 C 
ATOM      9  H3  UNL d   1      -3.979   5.959   5.028  0.00  0.00     0.395 HD
ENDBRANCH   1   7
TORSDOF 1
ENDMDL
