MODEL 1
REMARK minimizedAffinity 3.62287736
REMARK minimizedRMSD -1
REMARK  1 active torsions:
REMARK  status: ('A' for Active; 'I' for Inactive)
REMARK    1  A    between atoms: C1_2  and  C2_3 
ROOT
ATOM      1  C2  UNL d   1       0.229   3.177   1.488  0.00  0.00    -0.081 A 
ATOM      2  C3  UNL d   1      -1.097   3.169   1.035  0.00  0.00     0.006 A 
ATOM      3  C4  UNL d   1      -1.402   3.561  -0.270  0.00  0.00     0.002 A 
ATOM      4  C5  UNL d   1      -0.387   3.959  -1.147  0.00  0.00    -0.080 A 
ATOM      5  C6  UNL d   1      -0.698   4.354  -2.560  0.00  0.00     0.076 C 
ATOM      6  C7  UNL d   1       0.935   3.985  -0.690  0.00  0.00     0.002 A 
ATOM      7  C8  UNL d   1       1.240   3.593   0.616  0.00  0.00     0.006 A 
ENDROOT
BRANCH   1   8
ATOM      8  C1  UNL d   1       0.568   2.693   2.874  0.00  0.00     0.054 C 
ATOM      9  C   UNL d   1       1.979   3.101   3.272  0.00  0.00     0.018 C 
ENDBRANCH   1   8
TORSDOF 1
ENDMDL
