MODEL 1
REMARK minimizedAffinity -2.11214352
REMARK minimizedRMSD -1
REMARK  1 active torsions:
REMARK  status: ('A' for Active; 'I' for Inactive)
REMARK    1  A    between atoms: C1_2  and  C2_3 
ROOT
ATOM      1  C2  UNL d   1      -4.908   3.081  -2.662  0.00  0.00    -0.081 A 
ATOM      2  C3  UNL d   1      -4.564   4.439  -2.667  0.00  0.00     0.006 A 
ATOM      3  C4  UNL d   1      -4.905   5.251  -3.751  0.00  0.00     0.002 A 
ATOM      4  C5  UNL d   1      -5.601   4.722  -4.843  0.00  0.00    -0.080 A 
ATOM      5  C6  UNL d   1      -6.000   5.591  -6.000  0.00  0.00     0.076 C 
ATOM      6  C7  UNL d   1      -5.929   3.362  -4.846  0.00  0.00     0.002 A 
ATOM      7  C8  UNL d   1      -5.588   2.549  -3.763  0.00  0.00     0.006 A 
ENDROOT
BRANCH   1   8
ATOM      8  C1  UNL d   1      -4.599   2.217  -1.466  0.00  0.00     0.054 C 
ATOM      9  C   UNL d   1      -3.098   2.060  -1.270  0.00  0.00     0.018 C 
ENDBRANCH   1   8
TORSDOF 1
ENDMDL
