MODEL 1
REMARK minimizedAffinity 0.0688120648
REMARK minimizedRMSD -1
REMARK  1 active torsions:
REMARK  status: ('A' for Active; 'I' for Inactive)
REMARK    1  A    between atoms: C1_2  and  C2_3 
ROOT
ATOM      1  C2  UNL d   1      -5.907   3.798  -4.658  0.00  0.00    -0.081 A 
ATOM      2  C3  UNL d   1      -5.802   4.539  -3.475  0.00  0.00     0.006 A 
ATOM      3  C4  UNL d   1      -5.778   3.896  -2.236  0.00  0.00     0.002 A 
ATOM      4  C5  UNL d   1      -5.851   2.501  -2.159  0.00  0.00    -0.080 A 
ATOM      5  C6  UNL d   1      -5.796   1.795  -0.836  0.00  0.00     0.076 C 
ATOM      6  C7  UNL d   1      -5.974   1.761  -3.340  0.00  0.00     0.002 A 
ATOM      7  C8  UNL d   1      -5.998   2.404  -4.579  0.00  0.00     0.006 A 
ENDROOT
BRANCH   1   8
ATOM      8  C1  UNL d   1      -5.868   4.485  -5.999  0.00  0.00     0.054 C 
ATOM      9  C   UNL d   1      -5.989   5.995  -5.851  0.00  0.00     0.018 C 
ENDBRANCH   1   8
TORSDOF 1
ENDMDL
