MODEL 1
REMARK minimizedAffinity -4.46024418
REMARK minimizedRMSD -1
REMARK  1 active torsions:
REMARK  status: ('A' for Active; 'I' for Inactive)
REMARK    1  A    between atoms: C1_2  and  C2_3 
ROOT
ATOM      1  C2  UNL d   1      -5.588   4.274  -3.810  0.00  0.00    -0.081 A 
ATOM      2  C3  UNL d   1      -5.999   4.612  -2.515  0.00  0.00     0.006 A 
ATOM      3  C4  UNL d   1      -5.697   3.778  -1.436  0.00  0.00     0.002 A 
ATOM      4  C5  UNL d   1      -4.973   2.597  -1.633  0.00  0.00    -0.080 A 
ATOM      5  C6  UNL d   1      -4.617   1.708  -0.479  0.00  0.00     0.076 C 
ATOM      6  C7  UNL d   1      -4.578   2.251  -2.929  0.00  0.00     0.002 A 
ATOM      7  C8  UNL d   1      -4.879   3.084  -4.008  0.00  0.00     0.006 A 
ENDROOT
BRANCH   1   8
ATOM      8  C1  UNL d   1      -5.855   5.204  -4.966  0.00  0.00     0.054 C 
ATOM      9  C   UNL d   1      -4.737   5.141  -5.998  0.00  0.00     0.018 C 
ENDBRANCH   1   8
TORSDOF 1
ENDMDL
