MODEL 1
REMARK minimizedAffinity -0.404816628
REMARK minimizedRMSD -1
REMARK  1 active torsions:
REMARK  status: ('A' for Active; 'I' for Inactive)
REMARK    1  A    between atoms: C1_2  and  C2_3 
ROOT
ATOM      1  C2  UNL d   1      -0.345  -1.839  -1.485  0.00  0.00    -0.081 A 
ATOM      2  C3  UNL d   1       0.902  -1.207  -1.575  0.00  0.00     0.006 A 
ATOM      3  C4  UNL d   1       1.070   0.098  -1.108  0.00  0.00     0.002 A 
ATOM      4  C5  UNL d   1      -0.002   0.791  -0.535  0.00  0.00    -0.080 A 
ATOM      5  C6  UNL d   1       0.173   2.182  -0.002  0.00  0.00     0.076 C 
ATOM      6  C7  UNL d   1      -1.252   0.166  -0.460  0.00  0.00     0.002 A 
ATOM      7  C8  UNL d   1      -1.421  -1.139  -0.928  0.00  0.00     0.006 A 
ENDROOT
BRANCH   1   8
ATOM      8  C1  UNL d   1      -0.513  -3.269  -1.929  0.00  0.00     0.054 C 
ATOM      9  C   UNL d   1       0.507  -4.180  -1.260  0.00  0.00     0.018 C 
ENDBRANCH   1   8
TORSDOF 1
ENDMDL
