MODEL 1
REMARK minimizedAffinity -1.73117709
REMARK minimizedRMSD -1
REMARK  1 active torsions:
REMARK  status: ('A' for Active; 'I' for Inactive)
REMARK    1  A    between atoms: C1_2  and  C2_3 
ROOT
ATOM      1  C2  UNL d   1      -4.490   2.660  -4.520  0.00  0.00    -0.081 A 
ATOM      2  C3  UNL d   1      -3.983   3.497  -3.518  0.00  0.00     0.006 A 
ATOM      3  C4  UNL d   1      -4.478   3.420  -2.214  0.00  0.00     0.002 A 
ATOM      4  C5  UNL d   1      -5.481   2.501  -1.889  0.00  0.00    -0.080 A 
ATOM      5  C6  UNL d   1      -6.000   2.387  -0.486  0.00  0.00     0.076 C 
ATOM      6  C7  UNL d   1      -6.000   1.677  -2.894  0.00  0.00     0.002 A 
ATOM      7  C8  UNL d   1      -5.506   1.754  -4.198  0.00  0.00     0.006 A 
ENDROOT
BRANCH   1   8
ATOM      8  C1  UNL d   1      -3.913   2.695  -5.913  0.00  0.00     0.054 C 
ATOM      9  C   UNL d   1      -2.628   1.884  -6.000  0.00  0.00     0.018 C 
ENDBRANCH   1   8
TORSDOF 1
ENDMDL
