MODEL 1
REMARK minimizedAffinity 1.76115298
REMARK minimizedRMSD -1
REMARK  1 active torsions:
REMARK  status: ('A' for Active; 'I' for Inactive)
REMARK    1  A    between atoms: C1_2  and  C2_3 
ROOT
ATOM      1  C2  UNL d   1      -2.006  -0.920   2.669  0.00  0.00    -0.073 A 
ATOM      2  C3  UNL d   1      -1.460  -1.914   1.850  0.00  0.00    -0.002 A 
ATOM      3  C4  UNL d   1      -1.561  -3.259   2.210  0.00  0.00     0.004 A 
ATOM      4  C5  UNL d   1      -2.215  -3.622   3.387  0.00  0.00    -0.004 A 
ATOM      5  C6  UNL d   1      -2.778  -2.644   4.213  0.00  0.00    -0.075 A 
ATOM      6  C7  UNL d   1      -3.483  -3.019   5.483  0.00  0.00     0.076 C 
ATOM      7  C8  UNL d   1      -2.670  -1.296   3.846  0.00  0.00     0.001 A 
ENDROOT
BRANCH   1   8
ATOM      8  C1  UNL d   1      -1.904   0.533   2.281  0.00  0.00     0.053 C 
ATOM      9  C   UNL d   1      -0.529   1.108   2.580  0.00  0.00     0.018 C 
ENDBRANCH   1   8
TORSDOF 1
ENDMDL
