MODEL 1
REMARK minimizedAffinity 4.44397402
REMARK minimizedRMSD -1
REMARK  1 active torsions:
REMARK  status: ('A' for Active; 'I' for Inactive)
REMARK    1  A    between atoms: C1_2  and  C2_3 
ROOT
ATOM      1  C2  UNL d   1       1.287   5.341  -5.452  0.00  0.00    -0.073 A 
ATOM      2  C3  UNL d   1       1.200   4.134  -4.749  0.00  0.00    -0.002 A 
ATOM      3  C4  UNL d   1       2.351   3.530  -4.241  0.00  0.00     0.004 A 
ATOM      4  C5  UNL d   1       3.597   4.129  -4.424  0.00  0.00    -0.004 A 
ATOM      5  C6  UNL d   1       3.703   5.341  -5.114  0.00  0.00    -0.075 A 
ATOM      6  C7  UNL d   1       5.036   5.997  -5.322  0.00  0.00     0.076 C 
ATOM      7  C8  UNL d   1       2.543   5.940  -5.623  0.00  0.00     0.001 A 
ENDROOT
BRANCH   1   8
ATOM      8  C1  UNL d   1       0.046   6.000  -5.997  0.00  0.00     0.053 C 
ATOM      9  C   UNL d   1      -1.093   5.992  -4.989  0.00  0.00     0.018 C 
ENDBRANCH   1   8
TORSDOF 1
ENDMDL
