MODEL 1
REMARK minimizedAffinity -1.16012299
REMARK minimizedRMSD -1
REMARK  1 active torsions:
REMARK  status: ('A' for Active; 'I' for Inactive)
REMARK    1  A    between atoms: C1_2  and  C2_3 
ROOT
ATOM      1  C2  UNL d   1      -0.735   5.997  -4.460  0.00  0.00    -0.073 A 
ATOM      2  C3  UNL d   1      -0.214   5.994  -3.161  0.00  0.00    -0.002 A 
ATOM      3  C4  UNL d   1      -1.070   5.998  -2.059  0.00  0.00     0.004 A 
ATOM      4  C5  UNL d   1      -2.452   5.998  -2.244  0.00  0.00    -0.004 A 
ATOM      5  C6  UNL d   1      -2.992   5.990  -3.534  0.00  0.00    -0.075 A 
ATOM      6  C7  UNL d   1      -4.477   5.993  -3.749  0.00  0.00     0.076 C 
ATOM      7  C8  UNL d   1      -2.126   5.988  -4.636  0.00  0.00     0.001 A 
ENDROOT
BRANCH   1   8
ATOM      8  C1  UNL d   1       0.185   5.986  -5.654  0.00  0.00     0.053 C 
ATOM      9  C   UNL d   1       1.281   4.940  -5.520  0.00  0.00     0.018 C 
ENDBRANCH   1   8
TORSDOF 1
ENDMDL
