MODEL 1
REMARK minimizedAffinity -3.72386146
REMARK minimizedRMSD -1
REMARK  1 active torsions:
REMARK  status: ('A' for Active; 'I' for Inactive)
REMARK    1  A    between atoms: C1_2  and  C2_3 
ROOT
ATOM      1  C2  UNL d   1      -0.100   0.942   2.266  0.00  0.00    -0.073 A 
ATOM      2  C3  UNL d   1      -0.355   1.313   0.941  0.00  0.00    -0.002 A 
ATOM      3  C4  UNL d   1       0.700   1.515   0.050  0.00  0.00     0.004 A 
ATOM      4  C5  UNL d   1       2.018   1.341   0.472  0.00  0.00    -0.004 A 
ATOM      5  C6  UNL d   1       2.293   0.959   1.789  0.00  0.00    -0.075 A 
ATOM      6  C7  UNL d   1       3.705   0.770   2.259  0.00  0.00     0.076 C 
ATOM      7  C8  UNL d   1       1.228   0.761   2.679  0.00  0.00     0.001 A 
ENDROOT
BRANCH   1   8
ATOM      8  C1  UNL d   1      -1.236   0.717   3.230  0.00  0.00     0.053 C 
ATOM      9  C   UNL d   1      -2.372   1.703   3.012  0.00  0.00     0.018 C 
ENDBRANCH   1   8
TORSDOF 1
ENDMDL
