MODEL 1
REMARK minimizedAffinity 7.99193954
REMARK minimizedRMSD -1
REMARK  1 active torsions:
REMARK  status: ('A' for Active; 'I' for Inactive)
REMARK    1  A    between atoms: C1_2  and  C2_3 
ROOT
ATOM      1  C2  UNL d   1      -0.548   5.527  -3.953  0.00  0.00    -0.073 A 
ATOM      2  C3  UNL d   1      -1.840   5.991  -3.680  0.00  0.00    -0.002 A 
ATOM      3  C4  UNL d   1      -2.511   5.571  -2.530  0.00  0.00     0.004 A 
ATOM      4  C5  UNL d   1      -1.895   4.690  -1.640  0.00  0.00    -0.004 A 
ATOM      5  C6  UNL d   1      -0.600   4.226  -1.890  0.00  0.00    -0.075 A 
ATOM      6  C7  UNL d   1       0.075   3.276  -0.944  0.00  0.00     0.076 C 
ATOM      7  C8  UNL d   1       0.066   4.650  -3.048  0.00  0.00     0.001 A 
ENDROOT
BRANCH   1   8
ATOM      8  C1  UNL d   1       0.183   5.983  -5.190  0.00  0.00     0.053 C 
ATOM      9  C   UNL d   1       1.690   5.999  -4.988  0.00  0.00     0.018 C 
ENDBRANCH   1   8
TORSDOF 1
ENDMDL
