MODEL 1
REMARK minimizedAffinity -1.47734177
REMARK minimizedRMSD -1
REMARK  1 active torsions:
REMARK  status: ('A' for Active; 'I' for Inactive)
REMARK    1  A    between atoms: C1_2  and  C2_3 
ROOT
ATOM      1  C2  UNL d   1      -1.666   6.000  -3.525  0.00  0.00    -0.073 A 
ATOM      2  C3  UNL d   1      -2.275   5.994  -4.785  0.00  0.00    -0.002 A 
ATOM      3  C4  UNL d   1      -1.498   5.994  -5.944  0.00  0.00     0.004 A 
ATOM      4  C5  UNL d   1      -0.106   5.993  -5.855  0.00  0.00    -0.004 A 
ATOM      5  C6  UNL d   1       0.521   5.987  -4.605  0.00  0.00    -0.075 A 
ATOM      6  C7  UNL d   1       2.018   5.987  -4.493  0.00  0.00     0.076 C 
ATOM      7  C8  UNL d   1      -0.266   5.989  -3.446  0.00  0.00     0.001 A 
ENDROOT
BRANCH   1   8
ATOM      8  C1  UNL d   1      -2.501   5.993  -2.271  0.00  0.00     0.053 C 
ATOM      9  C   UNL d   1      -3.990   5.977  -2.577  0.00  0.00     0.018 C 
ENDBRANCH   1   8
TORSDOF 1
ENDMDL
