MODEL 1
REMARK minimizedAffinity 0.351218045
REMARK minimizedRMSD -1
REMARK  1 active torsions:
REMARK  status: ('A' for Active; 'I' for Inactive)
REMARK    1  A    between atoms: C1_2  and  C2_3 
ROOT
ATOM      1  C2  UNL d   1      -0.521   6.000  -4.836  0.00  0.00    -0.073 A 
ATOM      2  C3  UNL d   1      -0.132   5.995  -3.492  0.00  0.00    -0.002 A 
ATOM      3  C4  UNL d   1      -1.093   5.998  -2.480  0.00  0.00     0.004 A 
ATOM      4  C5  UNL d   1      -2.450   5.999  -2.801  0.00  0.00    -0.004 A 
ATOM      5  C6  UNL d   1      -2.859   5.992  -4.139  0.00  0.00    -0.075 A 
ATOM      6  C7  UNL d   1      -4.315   5.995  -4.501  0.00  0.00     0.076 C 
ATOM      7  C8  UNL d   1      -1.888   5.991  -5.149  0.00  0.00     0.001 A 
ENDROOT
BRANCH   1   8
ATOM      8  C1  UNL d   1       0.513   5.989  -5.933  0.00  0.00     0.053 C 
ATOM      9  C   UNL d   1       1.790   5.284  -5.505  0.00  0.00     0.018 C 
ENDBRANCH   1   8
TORSDOF 1
ENDMDL
