MODEL 1
REMARK minimizedAffinity 9.33963394
REMARK minimizedRMSD -1
REMARK  1 active torsions:
REMARK  status: ('A' for Active; 'I' for Inactive)
REMARK    1  A    between atoms: C1_2  and  C2_3 
ROOT
ATOM      1  C2  UNL d   1      -2.661  -1.396  -3.048  0.00  0.00    -0.073 A 
ATOM      2  C3  UNL d   1      -2.340  -0.392  -2.128  0.00  0.00    -0.002 A 
ATOM      3  C4  UNL d   1      -2.956  -0.359  -0.876  0.00  0.00     0.004 A 
ATOM      4  C5  UNL d   1      -3.892  -1.333  -0.529  0.00  0.00    -0.004 A 
ATOM      5  C6  UNL d   1      -4.218  -2.352  -1.430  0.00  0.00    -0.075 A 
ATOM      6  C7  UNL d   1      -5.224  -3.406  -1.072  0.00  0.00     0.076 C 
ATOM      7  C8  UNL d   1      -3.597  -2.376  -2.686  0.00  0.00     0.001 A 
ENDROOT
BRANCH   1   8
ATOM      8  C1  UNL d   1      -1.994  -1.439  -4.398  0.00  0.00     0.053 C 
ATOM      9  C   UNL d   1      -0.885  -0.407  -4.519  0.00  0.00     0.018 C 
ENDBRANCH   1   8
TORSDOF 1
ENDMDL
