MODEL 1
REMARK minimizedAffinity -1.98706591
REMARK minimizedRMSD -1
REMARK  1 active torsions:
REMARK  status: ('A' for Active; 'I' for Inactive)
REMARK    1  A    between atoms: C1_2  and  C2_3 
ROOT
ATOM      1  C2  UNL d   1       3.438   5.386  -4.109  0.00  0.00    -0.073 A 
ATOM      2  C3  UNL d   1       4.321   5.982  -5.017  0.00  0.00    -0.002 A 
ATOM      3  C4  UNL d   1       5.578   5.423  -5.248  0.00  0.00     0.004 A 
ATOM      4  C5  UNL d   1       5.963   4.260  -4.581  0.00  0.00    -0.004 A 
ATOM      5  C6  UNL d   1       5.090   3.643  -3.679  0.00  0.00    -0.075 A 
ATOM      6  C7  UNL d   1       5.490   2.392  -2.952  0.00  0.00     0.076 C 
ATOM      7  C8  UNL d   1       3.830   4.212  -3.450  0.00  0.00     0.001 A 
ENDROOT
BRANCH   1   8
ATOM      8  C1  UNL d   1       2.077   5.982  -3.861  0.00  0.00     0.053 C 
ATOM      9  C   UNL d   1       1.185   5.899  -5.089  0.00  0.00     0.018 C 
ENDBRANCH   1   8
TORSDOF 1
ENDMDL
