MODEL 1
REMARK minimizedAffinity 5.18754005
REMARK minimizedRMSD -1
REMARK  1 active torsions:
REMARK  status: ('A' for Active; 'I' for Inactive)
REMARK    1  A    between atoms: C1_2  and  C2_3 
ROOT
ATOM      1  C2  UNL d   1      -2.793  -1.386  -2.670  0.00  0.00    -0.073 A 
ATOM      2  C3  UNL d   1      -3.351  -1.491  -3.949  0.00  0.00    -0.002 A 
ATOM      3  C4  UNL d   1      -2.528  -1.550  -5.074  0.00  0.00     0.004 A 
ATOM      4  C5  UNL d   1      -1.141  -1.512  -4.932  0.00  0.00    -0.004 A 
ATOM      5  C6  UNL d   1      -0.564  -1.419  -3.662  0.00  0.00    -0.075 A 
ATOM      6  C7  UNL d   1       0.926  -1.375  -3.492  0.00  0.00     0.076 C 
ATOM      7  C8  UNL d   1      -1.398  -1.357  -2.537  0.00  0.00     0.001 A 
ENDROOT
BRANCH   1   8
ATOM      8  C1  UNL d   1      -3.678  -1.328  -1.451  0.00  0.00     0.053 C 
ATOM      9  C   UNL d   1      -4.083  -2.714  -0.975  0.00  0.00     0.018 C 
ENDBRANCH   1   8
TORSDOF 1
ENDMDL
