MODEL 1
REMARK minimizedAffinity -3.51871824
REMARK minimizedRMSD -1
REMARK  0 active torsions:
REMARK  status: ('A' for Active; 'I' for Inactive)
ROOT
ATOM      1  C2' OXE d   1      -1.532   0.706  -0.229  0.00  0.00     0.078 C 
ATOM      2  C1' OXE d   1       0.432   2.170  -1.601  0.00  0.00     0.078 C 
ATOM      3  C1  OXE d   1       0.773   0.764  -1.173  0.00  0.00    -0.078 A 
ATOM      4  C2  OXE d   1      -0.177   0.072  -0.461  0.00  0.00    -0.078 A 
ATOM      5  C3  OXE d   1       0.065  -1.247  -0.090  0.00  0.00     0.003 A 
ATOM      6  C4  OXE d   1       1.324  -1.823  -0.300  0.00  0.00    -0.002 A 
ATOM      7  C5  OXE d   1       2.320  -1.121  -0.988  0.00  0.00    -0.002 A 
ATOM      8  C6  OXE d   1       2.047   0.155  -1.467  0.00  0.00     0.003 A 
ENDROOT
TORSDOF 0
ENDMDL
