MODEL 1
REMARK minimizedAffinity -2.25365186
REMARK minimizedRMSD -1
REMARK  0 active torsions:
REMARK  status: ('A' for Active; 'I' for Inactive)
ROOT
ATOM      1  C2' OXE d   1      -0.598   0.355   0.392  0.00  0.00     0.078 C 
ATOM      2  C1' OXE d   1      -0.132  -2.371  -0.086  0.00  0.00     0.078 C 
ATOM      3  C1  OXE d   1       0.869  -1.381  -0.627  0.00  0.00    -0.078 A 
ATOM      4  C2  OXE d   1       0.608  -0.047  -0.429  0.00  0.00    -0.078 A 
ATOM      5  C3  OXE d   1       1.527   0.906  -0.860  0.00  0.00     0.003 A 
ATOM      6  C4  OXE d   1       2.635   0.527  -1.627  0.00  0.00    -0.002 A 
ATOM      7  C5  OXE d   1       2.898  -0.825  -1.875  0.00  0.00    -0.002 A 
ATOM      8  C6  OXE d   1       2.049  -1.792  -1.347  0.00  0.00     0.003 A 
ENDROOT
TORSDOF 0
ENDMDL
