MODEL 1
REMARK minimizedAffinity -0.259732246
REMARK minimizedRMSD -1
REMARK  0 active torsions:
REMARK  status: ('A' for Active; 'I' for Inactive)
ROOT
ATOM      1  C2' OXE d   1       1.239   1.440  -0.314  0.00  0.00     0.078 C 
ATOM      2  C1' OXE d   1       3.237  -0.367  -1.103  0.00  0.00     0.078 C 
ATOM      3  C1  OXE d   1       1.837  -0.900  -0.921  0.00  0.00    -0.078 A 
ATOM      4  C2  OXE d   1       0.876  -0.018  -0.490  0.00  0.00    -0.078 A 
ATOM      5  C3  OXE d   1      -0.442  -0.445  -0.359  0.00  0.00     0.003 A 
ATOM      6  C4  OXE d   1      -0.768  -1.798  -0.514  0.00  0.00    -0.002 A 
ATOM      7  C5  OXE d   1       0.204  -2.721  -0.914  0.00  0.00    -0.002 A 
ATOM      8  C6  OXE d   1       1.500  -2.281  -1.163  0.00  0.00     0.003 A 
ENDROOT
TORSDOF 0
ENDMDL
