MODEL 1
REMARK minimizedAffinity -4.75169325
REMARK minimizedRMSD -1
REMARK  0 active torsions:
REMARK  status: ('A' for Active; 'I' for Inactive)
ROOT
ATOM      1  C2' OXE d   1      -1.189   0.588   0.156  0.00  0.00     0.078 C 
ATOM      2  C1' OXE d   1       0.653   2.233  -1.179  0.00  0.00     0.078 C 
ATOM      3  C1  OXE d   1       1.028   0.789  -0.962  0.00  0.00    -0.078 A 
ATOM      4  C2  OXE d   1       0.141   0.002  -0.267  0.00  0.00    -0.078 A 
ATOM      5  C3  OXE d   1       0.414  -1.351  -0.088  0.00  0.00     0.003 A 
ATOM      6  C4  OXE d   1       1.650  -1.882  -0.473  0.00  0.00    -0.002 A 
ATOM      7  C5  OXE d   1       2.584  -1.089  -1.148  0.00  0.00    -0.002 A 
ATOM      8  C6  OXE d   1       2.272   0.235  -1.437  0.00  0.00     0.003 A 
ENDROOT
TORSDOF 0
ENDMDL
