MODEL 1
REMARK minimizedAffinity -3.27176905
REMARK minimizedRMSD -1
REMARK  0 active torsions:
REMARK  status: ('A' for Active; 'I' for Inactive)
ROOT
ATOM      1  C2' OXE d   1      -1.628   1.236  -0.722  0.00  0.00     0.078 C 
ATOM      2  C1' OXE d   1       0.820   1.749  -1.997  0.00  0.00     0.078 C 
ATOM      3  C1  OXE d   1       0.667   0.436  -1.271  0.00  0.00    -0.078 A 
ATOM      4  C2  OXE d   1      -0.517   0.213  -0.611  0.00  0.00    -0.078 A 
ATOM      5  C3  OXE d   1      -0.731  -1.004   0.029  0.00  0.00     0.003 A 
ATOM      6  C4  OXE d   1       0.304  -1.941   0.135  0.00  0.00    -0.002 A 
ATOM      7  C5  OXE d   1       1.532  -1.716  -0.497  0.00  0.00    -0.002 A 
ATOM      8  C6  OXE d   1       1.714  -0.554  -1.238  0.00  0.00     0.003 A 
ENDROOT
TORSDOF 0
ENDMDL
