MODEL 1
REMARK minimizedAffinity -4.90115309
REMARK minimizedRMSD -1
REMARK  0 active torsions:
REMARK  status: ('A' for Active; 'I' for Inactive)
ROOT
ATOM      1  C2' OXE d   1       0.944  -1.964  -0.071  0.00  0.00     0.078 C 
ATOM      2  C1' OXE d   1       2.943  -0.256  -1.055  0.00  0.00     0.078 C 
ATOM      3  C1  OXE d   1       1.524   0.255  -1.044  0.00  0.00    -0.078 A 
ATOM      4  C2  OXE d   1       0.546  -0.604  -0.604  0.00  0.00    -0.078 A 
ATOM      5  C3  OXE d   1      -0.772  -0.164  -0.522  0.00  0.00     0.003 A 
ATOM      6  C4  OXE d   1      -1.133   1.091  -1.026  0.00  0.00    -0.002 A 
ATOM      7  C5  OXE d   1      -0.158   1.967  -1.516  0.00  0.00    -0.002 A 
ATOM      8  C6  OXE d   1       1.178   1.581  -1.492  0.00  0.00     0.003 A 
ENDROOT
TORSDOF 0
ENDMDL
