MODEL 1
REMARK minimizedAffinity -3.63258004
REMARK minimizedRMSD -1
REMARK  0 active torsions:
REMARK  status: ('A' for Active; 'I' for Inactive)
ROOT
ATOM      1  C2' OXE d   1       1.500   2.029  -1.506  0.00  0.00     0.078 C 
ATOM      2  C1' OXE d   1       2.741  -0.489  -1.466  0.00  0.00     0.078 C 
ATOM      3  C1  OXE d   1       1.450  -0.328  -0.702  0.00  0.00    -0.078 A 
ATOM      4  C2  OXE d   1       0.875   0.919  -0.689  0.00  0.00    -0.078 A 
ATOM      5  C3  OXE d   1      -0.345   1.109  -0.045  0.00  0.00     0.003 A 
ATOM      6  C4  OXE d   1      -0.912   0.080   0.717  0.00  0.00    -0.002 A 
ATOM      7  C5  OXE d   1      -0.321  -1.187   0.750  0.00  0.00    -0.002 A 
ATOM      8  C6  OXE d   1       0.835  -1.419   0.013  0.00  0.00     0.003 A 
ENDROOT
TORSDOF 0
ENDMDL
