MODEL 1
REMARK minimizedAffinity -4.42246771
REMARK minimizedRMSD -1
REMARK  0 active torsions:
REMARK  status: ('A' for Active; 'I' for Inactive)
ROOT
ATOM      1  C2' OXE d   1       3.497  -0.203  -2.061  0.00  0.00     0.078 C 
ATOM      2  C1' OXE d   1       1.732   1.838  -2.835  0.00  0.00     0.078 C 
ATOM      3  C1  OXE d   1       1.222   0.794  -1.872  0.00  0.00    -0.078 A 
ATOM      4  C2  OXE d   1       2.078  -0.227  -1.536  0.00  0.00    -0.078 A 
ATOM      5  C3  OXE d   1       1.678  -1.185  -0.609  0.00  0.00     0.003 A 
ATOM      6  C4  OXE d   1       0.360  -1.206  -0.135  0.00  0.00    -0.002 A 
ATOM      7  C5  OXE d   1      -0.540  -0.198  -0.497  0.00  0.00    -0.002 A 
ATOM      8  C6  OXE d   1      -0.113   0.831  -1.329  0.00  0.00     0.003 A 
ENDROOT
TORSDOF 0
ENDMDL
