MODEL 1
REMARK minimizedAffinity -4.01450872
REMARK minimizedRMSD -1
REMARK  0 active torsions:
REMARK  status: ('A' for Active; 'I' for Inactive)
ROOT
ATOM      1  C2' OXE d   1       0.441  -2.224   0.388  0.00  0.00     0.078 C 
ATOM      2  C1' OXE d   1      -0.654   0.358   0.266  0.00  0.00     0.078 C 
ATOM      3  C1  OXE d   1       0.599   0.087  -0.527  0.00  0.00    -0.078 A 
ATOM      4  C2  OXE d   1       1.155  -1.165  -0.425  0.00  0.00    -0.078 A 
ATOM      5  C3  OXE d   1       2.280  -1.484  -1.179  0.00  0.00     0.003 A 
ATOM      6  C4  OXE d   1       2.940  -0.496  -1.921  0.00  0.00    -0.002 A 
ATOM      7  C5  OXE d   1       2.413   0.797  -2.007  0.00  0.00    -0.002 A 
ATOM      8  C6  OXE d   1       1.223   1.093  -1.352  0.00  0.00     0.003 A 
ENDROOT
TORSDOF 0
ENDMDL
