MODEL 1
REMARK minimizedAffinity -3.55680656
REMARK minimizedRMSD -1
REMARK  0 active torsions:
REMARK  status: ('A' for Active; 'I' for Inactive)
ROOT
ATOM      1  C2' OXE d   1      -1.151   0.405   0.829  0.00  0.00     0.078 C 
ATOM      2  C1' OXE d   1      -0.377   1.874  -1.435  0.00  0.00     0.078 C 
ATOM      3  C1  OXE d   1       0.333   0.571  -1.165  0.00  0.00    -0.078 A 
ATOM      4  C2  OXE d   1      -0.020  -0.118  -0.030  0.00  0.00    -0.078 A 
ATOM      5  C3  OXE d   1       0.565  -1.353   0.237  0.00  0.00     0.003 A 
ATOM      6  C4  OXE d   1       1.617  -1.825  -0.557  0.00  0.00    -0.002 A 
ATOM      7  C5  OXE d   1       2.019  -1.119  -1.696  0.00  0.00    -0.002 A 
ATOM      8  C6  OXE d   1       1.360   0.057  -2.037  0.00  0.00     0.003 A 
ENDROOT
TORSDOF 0
ENDMDL
