MODEL 1
REMARK minimizedAffinity -2.68509269
REMARK minimizedRMSD -1
REMARK  0 active torsions:
REMARK  status: ('A' for Active; 'I' for Inactive)
ROOT
ATOM      1  C2' OXE d   1      -2.075   0.207  -0.078  0.00  0.00     0.078 C 
ATOM      2  C1' OXE d   1       0.403  -0.639   0.934  0.00  0.00     0.078 C 
ATOM      3  C1  OXE d   1      -0.615  -0.114   1.915  0.00  0.00    -0.078 A 
ATOM      4  C2  OXE d   1      -1.807   0.341   1.406  0.00  0.00    -0.078 A 
ATOM      5  C3  OXE d   1      -2.802   0.785   2.272  0.00  0.00     0.003 A 
ATOM      6  C4  OXE d   1      -2.543   0.915   3.642  0.00  0.00    -0.002 A 
ATOM      7  C5  OXE d   1      -1.321   0.494   4.176  0.00  0.00    -0.002 A 
ATOM      8  C6  OXE d   1      -0.364  -0.061   3.334  0.00  0.00     0.003 A 
ENDROOT
TORSDOF 0
ENDMDL
