MODEL 1
REMARK minimizedAffinity -4.19371462
REMARK minimizedRMSD -1
REMARK  0 active torsions:
REMARK  status: ('A' for Active; 'I' for Inactive)
ROOT
ATOM      1  C2' OXE d   1       2.824  -0.131  -1.005  0.00  0.00     0.078 C 
ATOM      2  C1' OXE d   1       0.980   1.825  -1.815  0.00  0.00     0.078 C 
ATOM      3  C1  OXE d   1       0.461   0.658  -1.014  0.00  0.00    -0.078 A 
ATOM      4  C2  OXE d   1       1.362  -0.318  -0.662  0.00  0.00    -0.078 A 
ATOM      5  C3  OXE d   1       0.945  -1.389   0.124  0.00  0.00     0.003 A 
ATOM      6  C4  OXE d   1      -0.410  -1.560   0.429  0.00  0.00    -0.002 A 
ATOM      7  C5  OXE d   1      -1.351  -0.598   0.046  0.00  0.00    -0.002 A 
ATOM      8  C6  OXE d   1      -0.926   0.536  -0.638  0.00  0.00     0.003 A 
ENDROOT
TORSDOF 0
ENDMDL
