MODEL 1
REMARK minimizedAffinity -2.66732359
REMARK minimizedRMSD -1
REMARK  0 active torsions:
REMARK  status: ('A' for Active; 'I' for Inactive)
ROOT
ATOM      1  C2' OXE d   1      -1.592   0.801   3.386  0.00  0.00     0.078 C 
ATOM      2  C1' OXE d   1      -3.397  -0.784   1.935  0.00  0.00     0.078 C 
ATOM      3  C1  OXE d   1      -1.983  -0.680   1.422  0.00  0.00    -0.078 A 
ATOM      4  C2  OXE d   1      -1.118   0.136   2.112  0.00  0.00    -0.078 A 
ATOM      5  C3  OXE d   1       0.212   0.225   1.713  0.00  0.00     0.003 A 
ATOM      6  C4  OXE d   1       0.639  -0.386   0.527  0.00  0.00    -0.002 A 
ATOM      7  C5  OXE d   1      -0.236  -1.189  -0.213  0.00  0.00    -0.002 A 
ATOM      8  C6  OXE d   1      -1.535  -1.380   0.243  0.00  0.00     0.003 A 
ENDROOT
TORSDOF 0
ENDMDL
