MODEL 1
REMARK minimizedAffinity -3.6865201
REMARK minimizedRMSD -1
REMARK  0 active torsions:
REMARK  status: ('A' for Active; 'I' for Inactive)
ROOT
ATOM      1  C2' OXE d   1      -1.178   0.540   0.925  0.00  0.00     0.078 C 
ATOM      2  C1' OXE d   1      -0.386   1.651  -1.528  0.00  0.00     0.078 C 
ATOM      3  C1  OXE d   1       0.263   0.359  -1.099  0.00  0.00    -0.078 A 
ATOM      4  C2  OXE d   1      -0.097  -0.153   0.124  0.00  0.00    -0.078 A 
ATOM      5  C3  OXE d   1       0.431  -1.371   0.544  0.00  0.00     0.003 A 
ATOM      6  C4  OXE d   1       1.437  -2.001  -0.198  0.00  0.00    -0.002 A 
ATOM      7  C5  OXE d   1       1.847  -1.475  -1.429  0.00  0.00    -0.002 A 
ATOM      8  C6  OXE d   1       1.240  -0.321  -1.912  0.00  0.00     0.003 A 
ENDROOT
TORSDOF 0
ENDMDL
