MODEL 1
REMARK minimizedAffinity -4.75128317
REMARK minimizedRMSD -1
REMARK  0 active torsions:
REMARK  status: ('A' for Active; 'I' for Inactive)
ROOT
ATOM      1  C2' OXE d   1       1.584   1.757  -1.985  0.00  0.00     0.078 C 
ATOM      2  C1' OXE d   1       2.931  -0.622  -1.347  0.00  0.00     0.078 C 
ATOM      3  C1  OXE d   1       1.507  -0.472  -0.876  0.00  0.00    -0.078 A 
ATOM      4  C2  OXE d   1       0.870   0.714  -1.152  0.00  0.00    -0.078 A 
ATOM      5  C3  OXE d   1      -0.462   0.883  -0.787  0.00  0.00     0.003 A 
ATOM      6  C4  OXE d   1      -1.112  -0.082  -0.008  0.00  0.00    -0.002 A 
ATOM      7  C5  OXE d   1      -0.469  -1.281   0.318  0.00  0.00    -0.002 A 
ATOM      8  C6  OXE d   1       0.823  -1.509  -0.143  0.00  0.00     0.003 A 
ENDROOT
TORSDOF 0
ENDMDL
