MODEL 1
REMARK minimizedAffinity -5.39391375
REMARK minimizedRMSD -1
REMARK  0 active torsions:
REMARK  status: ('A' for Active; 'I' for Inactive)
ROOT
ATOM      1  C2' OXE d   1       1.622   1.957  -0.962  0.00  0.00     0.078 C 
ATOM      2  C1' OXE d   1       3.101  -0.392  -1.378  0.00  0.00     0.078 C 
ATOM      3  C1  OXE d   1       1.692  -0.531  -0.860  0.00  0.00    -0.078 A 
ATOM      4  C2  OXE d   1       0.991   0.626  -0.615  0.00  0.00    -0.078 A 
ATOM      5  C3  OXE d   1      -0.332   0.554  -0.188  0.00  0.00     0.003 A 
ATOM      6  C4  OXE d   1      -0.904  -0.681   0.140  0.00  0.00    -0.002 A 
ATOM      7  C5  OXE d   1      -0.194  -1.869  -0.064  0.00  0.00    -0.002 A 
ATOM      8  C6  OXE d   1       1.087  -1.814  -0.602  0.00  0.00     0.003 A 
ENDROOT
TORSDOF 0
ENDMDL
