MODEL 1
REMARK minimizedAffinity -4.87451792
REMARK minimizedRMSD -1
REMARK  0 active torsions:
REMARK  status: ('A' for Active; 'I' for Inactive)
ROOT
ATOM      1  C2' OXE d   1      -0.359   1.194  -0.768  0.00  0.00     0.078 C 
ATOM      2  C1' OXE d   1       0.377  -1.281   0.334  0.00  0.00     0.078 C 
ATOM      3  C1  OXE d   1      -0.442  -0.346   1.189  0.00  0.00    -0.078 A 
ATOM      4  C2  OXE d   1      -0.757   0.882   0.659  0.00  0.00    -0.078 A 
ATOM      5  C3  OXE d   1      -1.557   1.761   1.384  0.00  0.00     0.003 A 
ATOM      6  C4  OXE d   1      -1.913   1.469   2.706  0.00  0.00    -0.002 A 
ATOM      7  C5  OXE d   1      -1.568   0.241   3.280  0.00  0.00    -0.002 A 
ATOM      8  C6  OXE d   1      -0.870  -0.693   2.521  0.00  0.00     0.003 A 
ENDROOT
TORSDOF 0
ENDMDL
