MODEL 1
REMARK minimizedAffinity -2.4995234
REMARK minimizedRMSD -1
REMARK  0 active torsions:
REMARK  status: ('A' for Active; 'I' for Inactive)
ROOT
ATOM      1  C2' OXE d   1       5.986   2.884   5.999  0.00  0.00     0.078 C 
ATOM      2  C1' OXE d   1       5.467   2.894   3.240  0.00  0.00     0.078 C 
ATOM      3  C1  OXE d   1       5.487   1.562   3.947  0.00  0.00    -0.078 A 
ATOM      4  C2  OXE d   1       5.787   1.563   5.288  0.00  0.00    -0.078 A 
ATOM      5  C3  OXE d   1       5.765   0.367   6.000  0.00  0.00     0.003 A 
ATOM      6  C4  OXE d   1       5.590  -0.852   5.333  0.00  0.00    -0.002 A 
ATOM      7  C5  OXE d   1       5.322  -0.878   3.960  0.00  0.00    -0.002 A 
ATOM      8  C6  OXE d   1       5.225   0.321   3.262  0.00  0.00     0.003 A 
ENDROOT
TORSDOF 0
ENDMDL
