MODEL 1
REMARK minimizedAffinity -0.953019857
REMARK minimizedRMSD -1
REMARK  3 active torsions:
REMARK  status: ('A' for Active; 'I' for Inactive)
REMARK    1  A    between atoms: C3'_2  and  C2'_3 
REMARK    2  A    between atoms: C2'_3  and  C1'_4 
REMARK    3  A    between atoms: C1'_4  and  C1_5 
ROOT
ATOM      1  C1  N4B d   1       0.760   0.299  -0.475  0.00  0.00    -0.075 A 
ATOM      2  C2  N4B d   1       0.230   1.251   0.424  0.00  0.00     0.002 A 
ATOM      3  C3  N4B d   1       0.794   1.411   1.666  0.00  0.00     0.002 A 
ATOM      4  C4  N4B d   1       1.872   0.621   2.037  0.00  0.00    -0.004 A 
ATOM      5  C5  N4B d   1       2.394  -0.278   1.153  0.00  0.00     0.002 A 
ATOM      6  C6  N4B d   1       1.840  -0.447  -0.100  0.00  0.00     0.002 A 
ENDROOT
BRANCH   1   7
ATOM      7  C1' N4B d   1       0.124   0.029  -1.811  0.00  0.00     0.057 C 
BRANCH   7   8
ATOM      8  C2' N4B d   1       1.014   0.594  -2.913  0.00  0.00     0.009 C 
BRANCH   8   9
ATOM      9  C3' N4B d   1       0.425   0.362  -4.294  0.00  0.00     0.004 C 
ATOM     10  C4' N4B d   1      -0.154  -1.012  -4.455  0.00  0.00     0.003 C 
ENDBRANCH   8   9
ENDBRANCH   7   8
ENDBRANCH   1   7
TORSDOF 3
ENDMDL
