MODEL 1
REMARK minimizedAffinity 0.682789326
REMARK minimizedRMSD -1
REMARK  3 active torsions:
REMARK  status: ('A' for Active; 'I' for Inactive)
REMARK    1  A    between atoms: C3'_2  and  C2'_3 
REMARK    2  A    between atoms: C2'_3  and  C1'_4 
REMARK    3  A    between atoms: C1'_4  and  C1_5 
ROOT
ATOM      1  C1  N4B d   1      -0.528  -0.022   0.267  0.00  0.00    -0.075 A 
ATOM      2  C2  N4B d   1      -1.670   0.314   1.027  0.00  0.00     0.002 A 
ATOM      3  C3  N4B d   1      -1.526   0.858   2.280  0.00  0.00     0.002 A 
ATOM      4  C4  N4B d   1      -0.255   1.056   2.799  0.00  0.00    -0.004 A 
ATOM      5  C5  N4B d   1       0.843   0.752   2.049  0.00  0.00     0.002 A 
ATOM      6  C6  N4B d   1       0.713   0.209   0.787  0.00  0.00     0.002 A 
ENDROOT
BRANCH   1   7
ATOM      7  C1' N4B d   1      -0.636  -0.699  -1.072  0.00  0.00     0.057 C 
BRANCH   7   8
ATOM      8  C2' N4B d   1       0.039   0.172  -2.128  0.00  0.00     0.009 C 
BRANCH   8   9
ATOM      9  C3' N4B d   1       0.105  -0.522  -3.478  0.00  0.00     0.004 C 
ATOM     10  C4' N4B d   1       0.427   0.420  -4.600  0.00  0.00     0.003 C 
ENDBRANCH   8   9
ENDBRANCH   7   8
ENDBRANCH   1   7
TORSDOF 3
ENDMDL
