MODEL 1
REMARK minimizedAffinity -2.46566319
REMARK minimizedRMSD -1
REMARK  3 active torsions:
REMARK  status: ('A' for Active; 'I' for Inactive)
REMARK    1  A    between atoms: C3'_2  and  C2'_3 
REMARK    2  A    between atoms: C2'_3  and  C1'_4 
REMARK    3  A    between atoms: C1'_4  and  C1_5 
ROOT
ATOM      1  C1  N4B d   1      -0.131  -0.468  -0.171  0.00  0.00    -0.075 A 
ATOM      2  C2  N4B d   1      -1.100  -1.449  -0.476  0.00  0.00     0.002 A 
ATOM      3  C3  N4B d   1      -2.410  -1.084  -0.667  0.00  0.00     0.002 A 
ATOM      4  C4  N4B d   1      -2.776   0.248  -0.540  0.00  0.00    -0.004 A 
ATOM      5  C5  N4B d   1      -1.830   1.192  -0.271  0.00  0.00     0.002 A 
ATOM      6  C6  N4B d   1      -0.509   0.840  -0.081  0.00  0.00     0.002 A 
ENDROOT
BRANCH   1   7
ATOM      7  C1' N4B d   1       1.298  -0.830   0.130  0.00  0.00     0.057 C 
BRANCH   7   8
ATOM      8  C2' N4B d   1       1.904   0.237   1.037  0.00  0.00     0.009 C 
BRANCH   8   9
ATOM      9  C3' N4B d   1       2.845   1.158   0.280  0.00  0.00     0.004 C 
ATOM     10  C4' N4B d   1       2.613   2.607   0.590  0.00  0.00     0.003 C 
ENDBRANCH   8   9
ENDBRANCH   7   8
ENDBRANCH   1   7
TORSDOF 3
ENDMDL
