MODEL 1
REMARK minimizedAffinity -0.133119538
REMARK minimizedRMSD -1
REMARK  3 active torsions:
REMARK  status: ('A' for Active; 'I' for Inactive)
REMARK    1  A    between atoms: C3'_2  and  C2'_3 
REMARK    2  A    between atoms: C2'_3  and  C1'_4 
REMARK    3  A    between atoms: C1'_4  and  C1_5 
ROOT
ATOM      1  C1  N4B d   1      -0.544  -0.195   1.274  0.00  0.00    -0.075 A 
ATOM      2  C2  N4B d   1      -0.898  -0.663  -0.011  0.00  0.00     0.002 A 
ATOM      3  C3  N4B d   1      -2.038  -0.199  -0.620  0.00  0.00     0.002 A 
ATOM      4  C4  N4B d   1      -2.846   0.715   0.041  0.00  0.00    -0.004 A 
ATOM      5  C5  N4B d   1      -2.483   1.180   1.271  0.00  0.00     0.002 A 
ATOM      6  C6  N4B d   1      -1.338   0.726   1.893  0.00  0.00     0.002 A 
ENDROOT
BRANCH   1   7
ATOM      7  C1' N4B d   1       0.647  -0.737   2.016  0.00  0.00     0.057 C 
BRANCH   7   8
ATOM      8  C2' N4B d   1       0.342  -0.752   3.510  0.00  0.00     0.009 C 
BRANCH   8   9
ATOM      9  C3' N4B d   1       0.764  -2.057   4.164  0.00  0.00     0.004 C 
ATOM     10  C4' N4B d   1       2.107  -1.966   4.826  0.00  0.00     0.003 C 
ENDBRANCH   8   9
ENDBRANCH   7   8
ENDBRANCH   1   7
TORSDOF 3
ENDMDL
