MODEL 1
REMARK minimizedAffinity 0.360345483
REMARK minimizedRMSD -1
REMARK  3 active torsions:
REMARK  status: ('A' for Active; 'I' for Inactive)
REMARK    1  A    between atoms: C3'_2  and  C2'_3 
REMARK    2  A    between atoms: C2'_3  and  C1'_4 
REMARK    3  A    between atoms: C1'_4  and  C1_5 
ROOT
ATOM      1  C1  N4B d   1       0.609  -1.847   4.892  0.00  0.00    -0.075 A 
ATOM      2  C2  N4B d   1       1.443  -2.114   6.000  0.00  0.00     0.002 A 
ATOM      3  C3  N4B d   1       2.808  -2.125   5.845  0.00  0.00     0.002 A 
ATOM      4  C4  N4B d   1       3.358  -1.891   4.593  0.00  0.00    -0.004 A 
ATOM      5  C5  N4B d   1       2.546  -1.609   3.534  0.00  0.00     0.002 A 
ATOM      6  C6  N4B d   1       1.173  -1.591   3.676  0.00  0.00     0.002 A 
ENDROOT
BRANCH   1   7
ATOM      7  C1' N4B d   1      -0.891  -1.909   4.994  0.00  0.00     0.057 C 
BRANCH   7   8
ATOM      8  C2' N4B d   1      -1.487  -1.942   3.590  0.00  0.00     0.009 C 
BRANCH   8   9
ATOM      9  C3' N4B d   1      -2.758  -1.115   3.493  0.00  0.00     0.004 C 
ATOM     10  C4' N4B d   1      -2.751  -0.177   2.323  0.00  0.00     0.003 C 
ENDBRANCH   8   9
ENDBRANCH   7   8
ENDBRANCH   1   7
TORSDOF 3
ENDMDL
