MODEL 1
REMARK minimizedAffinity 1.98474884
REMARK minimizedRMSD -1
REMARK  3 active torsions:
REMARK  status: ('A' for Active; 'I' for Inactive)
REMARK    1  A    between atoms: C3'_2  and  C2'_3 
REMARK    2  A    between atoms: C2'_3  and  C1'_4 
REMARK    3  A    between atoms: C1'_4  and  C1_5 
ROOT
ATOM      1  C1  N4B d   1       0.351  -3.476  -2.794  0.00  0.00    -0.075 A 
ATOM      2  C2  N4B d   1      -0.033  -2.878  -4.015  0.00  0.00     0.002 A 
ATOM      3  C3  N4B d   1       0.004  -3.607  -5.178  0.00  0.00     0.002 A 
ATOM      4  C4  N4B d   1       0.437  -4.924  -5.149  0.00  0.00    -0.004 A 
ATOM      5  C5  N4B d   1       0.781  -5.502  -3.962  0.00  0.00     0.002 A 
ATOM      6  C6  N4B d   1       0.746  -4.783  -2.784  0.00  0.00     0.002 A 
ENDROOT
BRANCH   1   7
ATOM      7  C1' N4B d   1       0.410  -2.694  -1.511  0.00  0.00     0.057 C 
BRANCH   7   8
ATOM      8  C2' N4B d   1      -0.871  -1.879  -1.362  0.00  0.00     0.009 C 
BRANCH   8   9
ATOM      9  C3' N4B d   1      -0.815  -0.945  -0.165  0.00  0.00     0.004 C 
ATOM     10  C4' N4B d   1      -2.150  -0.352   0.172  0.00  0.00     0.003 C 
ENDBRANCH   8   9
ENDBRANCH   7   8
ENDBRANCH   1   7
TORSDOF 3
ENDMDL
