MODEL 1
REMARK minimizedAffinity -4.79196596
REMARK minimizedRMSD -1
REMARK  1 active torsions:
REMARK  status: ('A' for Active; 'I' for Inactive)
REMARK    1  A    between atoms: C1_2  and  C2_3 
ROOT
ATOM      1  C2  UNL d   1       0.156   0.003  -0.764  0.00  0.00    -0.077 A 
ATOM      2  C3  UNL d   1       1.333  -0.717  -1.015  0.00  0.00     0.002 A 
ATOM      3  C4  UNL d   1       2.214  -1.013   0.026  0.00  0.00     0.002 A 
ATOM      4  C5  UNL d   1       1.927  -0.598   1.325  0.00  0.00    -0.004 A 
ATOM      5  C6  UNL d   1       0.760   0.120   1.584  0.00  0.00     0.002 A 
ATOM      6  C7  UNL d   1      -0.122   0.418   0.544  0.00  0.00     0.002 A 
ENDROOT
BRANCH   1   7
ATOM      7  C1  UNL d   1      -0.821   0.281  -1.877  0.00  0.00     0.055 C 
ATOM      8  C   UNL d   1      -0.820   1.754  -2.259  0.00  0.00     0.019 C 
ENDBRANCH   1   7
TORSDOF 1
ENDMDL
