MODEL 1
REMARK minimizedAffinity -3.6975348
REMARK minimizedRMSD -1
REMARK  1 active torsions:
REMARK  status: ('A' for Active; 'I' for Inactive)
REMARK    1  A    between atoms: C1_2  and  C2_3 
ROOT
ATOM      1  C2  UNL d   1      -0.076  -0.205  -0.011  0.00  0.00    -0.077 A 
ATOM      2  C3  UNL d   1      -1.205  -0.390   0.799  0.00  0.00     0.002 A 
ATOM      3  C4  UNL d   1      -1.064  -0.575   2.176  0.00  0.00     0.002 A 
ATOM      4  C5  UNL d   1       0.204  -0.572   2.754  0.00  0.00    -0.004 A 
ATOM      5  C6  UNL d   1       1.333  -0.391   1.957  0.00  0.00     0.002 A 
ATOM      6  C7  UNL d   1       1.194  -0.207   0.580  0.00  0.00     0.002 A 
ENDROOT
BRANCH   1   7
ATOM      7  C1  UNL d   1      -0.229   0.044  -1.489  0.00  0.00     0.055 C 
ATOM      8  C   UNL d   1      -0.364   1.530  -1.789  0.00  0.00     0.019 C 
ENDBRANCH   1   7
TORSDOF 1
ENDMDL
