MODEL 1
REMARK minimizedAffinity -4.89423609
REMARK minimizedRMSD -1
REMARK  1 active torsions:
REMARK  status: ('A' for Active; 'I' for Inactive)
REMARK    1  A    between atoms: C1_2  and  C2_3 
ROOT
ATOM      1  C2  UNL d   1      -0.323   0.081  -0.179  0.00  0.00    -0.077 A 
ATOM      2  C3  UNL d   1       0.932   0.536   0.248  0.00  0.00     0.002 A 
ATOM      3  C4  UNL d   1       1.430   0.164   1.499  0.00  0.00     0.002 A 
ATOM      4  C5  UNL d   1       0.681  -0.666   2.330  0.00  0.00    -0.004 A 
ATOM      5  C6  UNL d   1      -0.570  -1.122   1.915  0.00  0.00     0.002 A 
ATOM      6  C7  UNL d   1      -1.069  -0.751   0.666  0.00  0.00     0.002 A 
ENDROOT
BRANCH   1   7
ATOM      7  C1  UNL d   1      -0.840   0.440  -1.548  0.00  0.00     0.055 C 
ATOM      8  C   UNL d   1      -0.082   1.623  -2.133  0.00  0.00     0.019 C 
ENDBRANCH   1   7
TORSDOF 1
ENDMDL
