MODEL 1
REMARK minimizedAffinity -4.47022438
REMARK minimizedRMSD -1
REMARK  1 active torsions:
REMARK  status: ('A' for Active; 'I' for Inactive)
REMARK    1  A    between atoms: C1_2  and  C2_3 
ROOT
ATOM      1  C2  UNL d   1      -0.052  -0.276   0.047  0.00  0.00    -0.077 A 
ATOM      2  C3  UNL d   1       1.305  -0.372   0.385  0.00  0.00     0.002 A 
ATOM      3  C4  UNL d   1       1.687  -0.653   1.699  0.00  0.00     0.002 A 
ATOM      4  C5  UNL d   1       0.719  -0.843   2.682  0.00  0.00    -0.004 A 
ATOM      5  C6  UNL d   1      -0.633  -0.748   2.356  0.00  0.00     0.002 A 
ATOM      6  C7  UNL d   1      -1.017  -0.466   1.045  0.00  0.00     0.002 A 
ENDROOT
BRANCH   1   7
ATOM      7  C1  UNL d   1      -0.468  -0.023  -1.379  0.00  0.00     0.055 C 
ATOM      8  C   UNL d   1      -0.293   1.442  -1.754  0.00  0.00     0.019 C 
ENDBRANCH   1   7
TORSDOF 1
ENDMDL
