MODEL 1
REMARK minimizedAffinity -4.06164074
REMARK minimizedRMSD -1
REMARK  1 active torsions:
REMARK  status: ('A' for Active; 'I' for Inactive)
REMARK    1  A    between atoms: C1_2  and  C2_3 
ROOT
ATOM      1  C2  UNL d   1      -0.017  -0.168   0.360  0.00  0.00    -0.077 A 
ATOM      2  C3  UNL d   1       1.338  -0.067   0.706  0.00  0.00     0.002 A 
ATOM      3  C4  UNL d   1       1.753  -0.321   2.014  0.00  0.00     0.002 A 
ATOM      4  C5  UNL d   1       0.821  -0.681   2.985  0.00  0.00    -0.004 A 
ATOM      5  C6  UNL d   1      -0.529  -0.782   2.651  0.00  0.00     0.002 A 
ATOM      6  C7  UNL d   1      -0.946  -0.527   1.344  0.00  0.00     0.002 A 
ENDROOT
BRANCH   1   7
ATOM      7  C1  UNL d   1      -0.461   0.058  -1.062  0.00  0.00     0.055 C 
ATOM      8  C   UNL d   1      -0.536   1.542  -1.390  0.00  0.00     0.019 C 
ENDBRANCH   1   7
TORSDOF 1
ENDMDL
