MODEL 1
REMARK minimizedAffinity -5.61386585
REMARK minimizedRMSD -1
REMARK  1 active torsions:
REMARK  status: ('A' for Active; 'I' for Inactive)
REMARK    1  A    between atoms: C1_2  and  C2_3 
ROOT
ATOM      1  C2  UNL d   1       0.242  -0.783   0.294  0.00  0.00    -0.077 A 
ATOM      2  C3  UNL d   1       1.387  -1.500  -0.082  0.00  0.00     0.002 A 
ATOM      3  C4  UNL d   1       2.244  -2.023   0.888  0.00  0.00     0.002 A 
ATOM      4  C5  UNL d   1       1.963  -1.838   2.240  0.00  0.00    -0.004 A 
ATOM      5  C6  UNL d   1       0.829  -1.125   2.625  0.00  0.00     0.002 A 
ATOM      6  C7  UNL d   1      -0.028  -0.601   1.657  0.00  0.00     0.002 A 
ENDROOT
BRANCH   1   7
ATOM      7  C1  UNL d   1      -0.709  -0.261  -0.750  0.00  0.00     0.055 C 
ATOM      8  C   UNL d   1      -0.750   1.260  -0.750  0.00  0.00     0.019 C 
ENDBRANCH   1   7
TORSDOF 1
ENDMDL
