MODEL 1
REMARK minimizedAffinity 9.29055119
REMARK minimizedRMSD -1
REMARK  0 active torsions:
REMARK  status: ('A' for Active; 'I' for Inactive)
ROOT
ATOM      1  C   UNL d   1      -4.886   4.453   2.262  0.00  0.00     0.020 A 
ATOM      2  C1  UNL d   1      -5.997   4.010   1.544  0.00  0.00     0.020 A 
ATOM      3  C2  UNL d   1      -5.853   3.001   0.589  0.00  0.00     0.034 A 
ATOM      4  C3  UNL d   1      -4.597   2.433   0.349  0.00  0.00     0.017 A 
ATOM      5  C4  UNL d   1      -3.483   2.879   1.070  0.00  0.00     0.017 A 
ATOM      6  C5  UNL d   1      -3.633   3.889   2.025  0.00  0.00     0.034 A 
ATOM      7 Cl   UNL d   1      -1.901   2.225   0.829  0.00  0.00    -0.070 Cl
ATOM      8 Cl1  UNL d   1      -4.493   1.190  -0.846  0.00  0.00    -0.070 Cl
ENDROOT
TORSDOF 0
ENDMDL
