MODEL 1
REMARK minimizedAffinity 7.22858667
REMARK minimizedRMSD -1
REMARK  0 active torsions:
REMARK  status: ('A' for Active; 'I' for Inactive)
ROOT
ATOM      1  C   UNL d   1      -3.724   4.229  -5.090  0.00  0.00     0.020 A 
ATOM      2  C1  UNL d   1      -2.623   4.024  -5.922  0.00  0.00     0.020 A 
ATOM      3  C2  UNL d   1      -1.865   2.858  -5.801  0.00  0.00     0.034 A 
ATOM      4  C3  UNL d   1      -2.205   1.893  -4.846  0.00  0.00     0.017 A 
ATOM      5  C4  UNL d   1      -3.309   2.100  -4.012  0.00  0.00     0.017 A 
ATOM      6  C5  UNL d   1      -4.066   3.269  -4.137  0.00  0.00     0.034 A 
ATOM      7 Cl   UNL d   1      -3.791   0.954  -2.810  0.00  0.00    -0.070 Cl
ATOM      8 Cl1  UNL d   1      -1.222   0.474  -4.752  0.00  0.00    -0.070 Cl
ENDROOT
TORSDOF 0
ENDMDL
