MODEL 1
REMARK minimizedAffinity 8.69756985
REMARK minimizedRMSD -1
REMARK  0 active torsions:
REMARK  status: ('A' for Active; 'I' for Inactive)
ROOT
ATOM      1  C   UNL d   1       0.592   2.598   0.159  0.00  0.00     0.020 A 
ATOM      2  C1  UNL d   1      -0.790   2.622  -0.027  0.00  0.00     0.020 A 
ATOM      3  C2  UNL d   1      -1.376   3.645  -0.774  0.00  0.00     0.034 A 
ATOM      4  C3  UNL d   1      -0.580   4.650  -1.338  0.00  0.00     0.017 A 
ATOM      5  C4  UNL d   1       0.806   4.625  -1.150  0.00  0.00     0.017 A 
ATOM      6  C5  UNL d   1       1.388   3.597  -0.401  0.00  0.00     0.034 A 
ATOM      7 Cl   UNL d   1       1.853   5.829  -1.815  0.00  0.00    -0.070 Cl
ATOM      8 Cl1  UNL d   1      -1.372   5.885  -2.250  0.00  0.00    -0.070 Cl
ENDROOT
TORSDOF 0
ENDMDL
