MODEL 1
REMARK minimizedAffinity 11.6813822
REMARK minimizedRMSD -1
REMARK  0 active torsions:
REMARK  status: ('A' for Active; 'I' for Inactive)
ROOT
ATOM      1  C   UNL d   1      -6.000   4.530   1.462  0.00  0.00     0.020 A 
ATOM      2  C1  UNL d   1      -4.925   5.121   2.125  0.00  0.00     0.020 A 
ATOM      3  C2  UNL d   1      -3.633   4.625   1.940  0.00  0.00     0.034 A 
ATOM      4  C3  UNL d   1      -3.412   3.535   1.090  0.00  0.00     0.017 A 
ATOM      5  C4  UNL d   1      -4.492   2.943   0.425  0.00  0.00     0.017 A 
ATOM      6  C5  UNL d   1      -5.784   3.443   0.614  0.00  0.00     0.034 A 
ATOM      7 Cl   UNL d   1      -4.298   1.595  -0.639  0.00  0.00    -0.070 Cl
ATOM      8 Cl1  UNL d   1      -1.788   2.975   0.907  0.00  0.00    -0.070 Cl
ENDROOT
TORSDOF 0
ENDMDL
