MODEL 1
REMARK minimizedAffinity 11.9547844
REMARK minimizedRMSD -1
REMARK  0 active torsions:
REMARK  status: ('A' for Active; 'I' for Inactive)
ROOT
ATOM      1  C   UNL d   1      -4.702   5.131   2.080  0.00  0.00     0.020 A 
ATOM      2  C1  UNL d   1      -5.871   4.543   1.599  0.00  0.00     0.020 A 
ATOM      3  C2  UNL d   1      -5.803   3.361   0.858  0.00  0.00     0.034 A 
ATOM      4  C3  UNL d   1      -4.565   2.763   0.597  0.00  0.00     0.017 A 
ATOM      5  C4  UNL d   1      -3.392   3.355   1.081  0.00  0.00     0.017 A 
ATOM      6  C5  UNL d   1      -3.465   4.538   1.822  0.00  0.00     0.034 A 
ATOM      7 Cl   UNL d   1      -1.828   2.676   0.799  0.00  0.00    -0.070 Cl
ATOM      8 Cl1  UNL d   1      -4.556   1.302  -0.325  0.00  0.00    -0.070 Cl
ENDROOT
TORSDOF 0
ENDMDL
