MODEL 1
REMARK minimizedAffinity 12.7267809
REMARK minimizedRMSD -1
REMARK  0 active torsions:
REMARK  status: ('A' for Active; 'I' for Inactive)
ROOT
ATOM      1  C   UNL d   1      -1.315   4.537  -0.820  0.00  0.00     0.020 A 
ATOM      2  C1  UNL d   1      -1.044   3.750   0.299  0.00  0.00     0.020 A 
ATOM      3  C2  UNL d   1       0.262   3.648   0.781  0.00  0.00     0.034 A 
ATOM      4  C3  UNL d   1       1.303   4.334   0.145  0.00  0.00     0.017 A 
ATOM      5  C4  UNL d   1       1.030   5.124  -0.978  0.00  0.00     0.017 A 
ATOM      6  C5  UNL d   1      -0.280   5.223  -1.457  0.00  0.00     0.034 A 
ATOM      7 Cl   UNL d   1       2.262   6.000  -1.817  0.00  0.00    -0.070 Cl
ATOM      8 Cl1  UNL d   1       2.895   4.163   0.796  0.00  0.00    -0.070 Cl
ENDROOT
TORSDOF 0
ENDMDL
