MODEL 1
REMARK minimizedAffinity -2.82323813
REMARK minimizedRMSD -1
REMARK  1 active torsions:
REMARK  status: ('A' for Active; 'I' for Inactive)
REMARK    1  A    between atoms: C1_2  and  C2_3 
ROOT
ATOM      1  C2  UNL d   1       0.869   0.462   0.108  0.00  0.00    -0.077 A 
ATOM      2  C3  UNL d   1       1.545   0.998   1.213  0.00  0.00     0.002 A 
ATOM      3  C4  UNL d   1       2.793   0.497   1.588  0.00  0.00     0.002 A 
ATOM      4  C5  UNL d   1       3.377  -0.539   0.862  0.00  0.00    -0.004 A 
ATOM      5  C6  UNL d   1       2.711  -1.080  -0.238  0.00  0.00     0.002 A 
ATOM      6  C7  UNL d   1       1.463  -0.581  -0.613  0.00  0.00     0.002 A 
ENDROOT
BRANCH   1   7
ATOM      7  C1  UNL d   1      -0.455   1.035  -0.328  0.00  0.00     0.055 C 
ATOM      8  C   UNL d   1      -1.461  -0.066  -0.632  0.00  0.00     0.019 C 
ENDBRANCH   1   7
TORSDOF 1
ENDMDL
