MODEL 1
REMARK minimizedAffinity -5.30998564
REMARK minimizedRMSD -1
REMARK  1 active torsions:
REMARK  status: ('A' for Active; 'I' for Inactive)
REMARK    1  A    between atoms: C1_2  and  C2_3 
ROOT
ATOM      1  C2  UNL d   1       1.061   0.224   0.505  0.00  0.00    -0.077 A 
ATOM      2  C3  UNL d   1       0.607  -0.979   1.064  0.00  0.00     0.002 A 
ATOM      3  C4  UNL d   1       1.498  -1.838   1.709  0.00  0.00     0.002 A 
ATOM      4  C5  UNL d   1       2.847  -1.501   1.806  0.00  0.00    -0.004 A 
ATOM      5  C6  UNL d   1       3.308  -0.308   1.252  0.00  0.00     0.002 A 
ATOM      6  C7  UNL d   1       2.419   0.552   0.605  0.00  0.00     0.002 A 
ENDROOT
BRANCH   1   7
ATOM      7  C1  UNL d   1       0.092   1.175  -0.148  0.00  0.00     0.055 C 
ATOM      8  C   UNL d   1      -1.269   0.527  -0.351  0.00  0.00     0.019 C 
ENDBRANCH   1   7
TORSDOF 1
ENDMDL
