MODEL 1
REMARK minimizedAffinity -1.67438459
REMARK minimizedRMSD -1
REMARK  1 active torsions:
REMARK  status: ('A' for Active; 'I' for Inactive)
REMARK    1  A    between atoms: C1_2  and  C2_3 
ROOT
ATOM      1  C2  UNL d   1      -0.348   0.060  -0.249  0.00  0.00    -0.077 A 
ATOM      2  C3  UNL d   1       0.407   1.101   0.310  0.00  0.00     0.002 A 
ATOM      3  C4  UNL d   1       1.562   0.822   1.043  0.00  0.00     0.002 A 
ATOM      4  C5  UNL d   1       1.975  -0.497   1.219  0.00  0.00    -0.004 A 
ATOM      5  C6  UNL d   1       1.231  -1.539   0.669  0.00  0.00     0.002 A 
ATOM      6  C7  UNL d   1       0.075  -1.262  -0.063  0.00  0.00     0.002 A 
ENDROOT
BRANCH   1   7
ATOM      7  C1  UNL d   1      -1.567   0.362  -1.081  0.00  0.00     0.055 C 
ATOM      8  C   UNL d   1      -1.602  -0.490  -2.341  0.00  0.00     0.019 C 
ENDBRANCH   1   7
TORSDOF 1
ENDMDL
