MODEL 1
REMARK minimizedAffinity -4.00620699
REMARK minimizedRMSD -1
REMARK  1 active torsions:
REMARK  status: ('A' for Active; 'I' for Inactive)
REMARK    1  A    between atoms: C1_2  and  C2_3 
ROOT
ATOM      1  C2  UNL d   1      -0.273  -0.211  -0.120  0.00  0.00    -0.077 A 
ATOM      2  C3  UNL d   1      -0.497  -1.340   0.682  0.00  0.00     0.002 A 
ATOM      3  C4  UNL d   1       0.564  -2.174   1.038  0.00  0.00     0.002 A 
ATOM      4  C5  UNL d   1       1.855  -1.887   0.602  0.00  0.00    -0.004 A 
ATOM      5  C6  UNL d   1       2.088  -0.768  -0.196  0.00  0.00     0.002 A 
ATOM      6  C7  UNL d   1       1.029   0.066  -0.555  0.00  0.00     0.002 A 
ENDROOT
BRANCH   1   7
ATOM      7  C1  UNL d   1      -1.408   0.718  -0.465  0.00  0.00     0.055 C 
ATOM      8  C   UNL d   1      -2.274   0.144  -1.577  0.00  0.00     0.019 C 
ENDBRANCH   1   7
TORSDOF 1
ENDMDL
