MODEL 1
REMARK minimizedAffinity 7.44162369
REMARK minimizedRMSD -1
REMARK  1 active torsions:
REMARK  status: ('A' for Active; 'I' for Inactive)
REMARK    1  A    between atoms: C1_2  and  C2_3 
ROOT
ATOM      1  C2  UNL d   1       2.530  -5.403   2.071  0.00  0.00    -0.073 A 
ATOM      2  C3  UNL d   1       1.481  -4.492   1.903  0.00  0.00    -0.002 A 
ATOM      3  C4  UNL d   1       0.843  -3.938   3.013  0.00  0.00     0.004 A 
ATOM      4  C5  UNL d   1       1.251  -4.283   4.302  0.00  0.00    -0.004 A 
ATOM      5  C6  UNL d   1       2.305  -5.182   4.491  0.00  0.00    -0.075 A 
ATOM      6  C7  UNL d   1       2.755  -5.565   5.870  0.00  0.00     0.076 C 
ATOM      7  C8  UNL d   1       2.939  -5.736   3.371  0.00  0.00     0.001 A 
ENDROOT
BRANCH   1   8
ATOM      8  C1  UNL d   1       3.227  -5.998   0.875  0.00  0.00     0.053 C 
ATOM      9  C   UNL d   1       2.340  -5.998  -0.360  0.00  0.00     0.018 C 
ENDBRANCH   1   8
TORSDOF 1
ENDMDL
