MODEL 1
REMARK minimizedAffinity 9.59605408
REMARK minimizedRMSD -1
REMARK  1 active torsions:
REMARK  status: ('A' for Active; 'I' for Inactive)
REMARK    1  A    between atoms: C1_2  and  C2_3 
ROOT
ATOM      1  C2  UNL d   1      -2.893   1.762  -1.058  0.00  0.00    -0.073 A 
ATOM      2  C3  UNL d   1      -2.060   1.971   0.047  0.00  0.00    -0.002 A 
ATOM      3  C4  UNL d   1      -2.492   2.757   1.116  0.00  0.00     0.004 A 
ATOM      4  C5  UNL d   1      -3.761   3.335   1.095  0.00  0.00    -0.004 A 
ATOM      5  C6  UNL d   1      -4.613   3.128   0.005  0.00  0.00    -0.075 A 
ATOM      6  C7  UNL d   1      -5.980   3.744  -0.034  0.00  0.00     0.076 C 
ATOM      7  C8  UNL d   1      -4.171   2.340  -1.066  0.00  0.00     0.001 A 
ENDROOT
BRANCH   1   8
ATOM      8  C1  UNL d   1      -2.434   0.909  -2.212  0.00  0.00     0.053 C 
ATOM      9  C   UNL d   1      -3.602   0.312  -2.980  0.00  0.00     0.018 C 
ENDBRANCH   1   8
TORSDOF 1
ENDMDL
