MODEL 1
REMARK minimizedAffinity -1.19262815
REMARK minimizedRMSD -1
REMARK  1 active torsions:
REMARK  status: ('A' for Active; 'I' for Inactive)
REMARK    1  A    between atoms: C1_2  and  C2_3 
ROOT
ATOM      1  C2  UNL d   1       3.801  -3.312  -2.900  0.00  0.00    -0.073 A 
ATOM      2  C3  UNL d   1       3.528  -4.012  -4.081  0.00  0.00    -0.002 A 
ATOM      3  C4  UNL d   1       3.134  -5.349  -4.033  0.00  0.00     0.004 A 
ATOM      4  C5  UNL d   1       3.003  -5.999  -2.805  0.00  0.00    -0.004 A 
ATOM      5  C6  UNL d   1       3.260  -5.313  -1.614  0.00  0.00    -0.075 A 
ATOM      6  C7  UNL d   1       3.126  -5.998  -0.285  0.00  0.00     0.076 C 
ATOM      7  C8  UNL d   1       3.658  -3.971  -1.671  0.00  0.00     0.001 A 
ENDROOT
BRANCH   1   8
ATOM      8  C1  UNL d   1       4.221  -1.866  -2.947  0.00  0.00     0.053 C 
ATOM      9  C   UNL d   1       3.027  -0.929  -3.049  0.00  0.00     0.018 C 
ENDBRANCH   1   8
TORSDOF 1
ENDMDL
