MODEL 1
REMARK minimizedAffinity -2.17063904
REMARK minimizedRMSD -1
REMARK  1 active torsions:
REMARK  status: ('A' for Active; 'I' for Inactive)
REMARK    1  A    between atoms: C1_2  and  C2_3 
ROOT
ATOM      1  C2  UNL d   1       3.079  -5.975  -3.054  0.00  0.00    -0.073 A 
ATOM      2  C3  UNL d   1       1.991  -5.952  -3.934  0.00  0.00    -0.002 A 
ATOM      3  C4  UNL d   1       2.201  -5.935  -5.314  0.00  0.00     0.004 A 
ATOM      4  C5  UNL d   1       3.498  -5.949  -5.827  0.00  0.00    -0.004 A 
ATOM      5  C6  UNL d   1       4.598  -5.985  -4.964  0.00  0.00    -0.075 A 
ATOM      6  C7  UNL d   1       5.999  -5.998  -5.500  0.00  0.00     0.076 C 
ATOM      7  C8  UNL d   1       4.379  -5.999  -3.580  0.00  0.00     0.001 A 
ENDROOT
BRANCH   1   8
ATOM      8  C1  UNL d   1       2.858  -6.000  -1.564  0.00  0.00     0.053 C 
ATOM      9  C   UNL d   1       4.116  -5.631  -0.794  0.00  0.00     0.018 C 
ENDBRANCH   1   8
TORSDOF 1
ENDMDL
