MODEL 1
REMARK minimizedAffinity 4.83919191
REMARK minimizedRMSD -1
REMARK  1 active torsions:
REMARK  status: ('A' for Active; 'I' for Inactive)
REMARK    1  A    between atoms: C1_2  and  C2_3 
ROOT
ATOM      1  C2  UNL d   1       3.497  -5.951  -3.044  0.00  0.00    -0.073 A 
ATOM      2  C3  UNL d   1       2.262  -5.987  -3.703  0.00  0.00    -0.002 A 
ATOM      3  C4  UNL d   1       2.208  -6.000  -5.097  0.00  0.00     0.004 A 
ATOM      4  C5  UNL d   1       3.384  -5.986  -5.846  0.00  0.00    -0.004 A 
ATOM      5  C6  UNL d   1       4.627  -5.962  -5.206  0.00  0.00    -0.075 A 
ATOM      6  C7  UNL d   1       5.902  -5.944  -5.997  0.00  0.00     0.076 C 
ATOM      7  C8  UNL d   1       4.674  -5.946  -3.806  0.00  0.00     0.001 A 
ENDROOT
BRANCH   1   8
ATOM      8  C1  UNL d   1       3.561  -5.943  -1.539  0.00  0.00     0.053 C 
ATOM      9  C   UNL d   1       3.849  -4.556  -0.988  0.00  0.00     0.018 C 
ENDBRANCH   1   8
TORSDOF 1
ENDMDL
