MODEL 1
REMARK minimizedAffinity 4.08913374
REMARK minimizedRMSD -1
REMARK  1 active torsions:
REMARK  status: ('A' for Active; 'I' for Inactive)
REMARK    1  A    between atoms: C1_2  and  C2_3 
ROOT
ATOM      1  C2  UNL d   1       3.953  -5.711  -2.616  0.00  0.00    -0.073 A 
ATOM      2  C3  UNL d   1       5.205  -5.780  -3.236  0.00  0.00    -0.002 A 
ATOM      3  C4  UNL d   1       5.300  -5.926  -4.621  0.00  0.00     0.004 A 
ATOM      4  C5  UNL d   1       4.145  -5.999  -5.399  0.00  0.00    -0.004 A 
ATOM      5  C6  UNL d   1       2.884  -5.920  -4.799  0.00  0.00    -0.075 A 
ATOM      6  C7  UNL d   1       1.632  -5.999  -5.623  0.00  0.00     0.076 C 
ATOM      7  C8  UNL d   1       2.797  -5.776  -3.408  0.00  0.00     0.001 A 
ENDROOT
BRANCH   1   8
ATOM      8  C1  UNL d   1       3.846  -5.546  -1.122  0.00  0.00     0.053 C 
ATOM      9  C   UNL d   1       5.150  -5.882  -0.417  0.00  0.00     0.018 C 
ENDBRANCH   1   8
TORSDOF 1
ENDMDL
