MODEL 1
REMARK minimizedAffinity 6.0371151
REMARK minimizedRMSD -1
REMARK  1 active torsions:
REMARK  status: ('A' for Active; 'I' for Inactive)
REMARK    1  A    between atoms: C1_2  and  C2_3 
ROOT
ATOM      1  C2  UNL d   1       3.614  -3.172   4.230  0.00  0.00    -0.073 A 
ATOM      2  C3  UNL d   1       2.780  -4.292   4.330  0.00  0.00    -0.002 A 
ATOM      3  C4  UNL d   1       1.531  -4.298   3.709  0.00  0.00     0.004 A 
ATOM      4  C5  UNL d   1       1.105  -3.189   2.977  0.00  0.00    -0.004 A 
ATOM      5  C6  UNL d   1       1.929  -2.065   2.856  0.00  0.00    -0.075 A 
ATOM      6  C7  UNL d   1       1.485  -0.864   2.074  0.00  0.00     0.076 C 
ATOM      7  C8  UNL d   1       3.181  -2.066   3.485  0.00  0.00     0.001 A 
ENDROOT
BRANCH   1   8
ATOM      8  C1  UNL d   1       4.967  -3.163   4.894  0.00  0.00     0.053 C 
ATOM      9  C   UNL d   1       5.998  -2.404   4.075  0.00  0.00     0.018 C 
ENDBRANCH   1   8
TORSDOF 1
ENDMDL
