MODEL 1
REMARK minimizedAffinity 2.57403755
REMARK minimizedRMSD -1
REMARK  1 active torsions:
REMARK  status: ('A' for Active; 'I' for Inactive)
REMARK    1  A    between atoms: C1_2  and  C2_3 
ROOT
ATOM      1  C2  UNL d   1       4.492   0.178  -3.329  0.00  0.00    -0.073 A 
ATOM      2  C3  UNL d   1       4.305   1.156  -2.346  0.00  0.00    -0.002 A 
ATOM      3  C4  UNL d   1       4.018   0.787  -1.031  0.00  0.00     0.004 A 
ATOM      4  C5  UNL d   1       3.922  -0.561  -0.685  0.00  0.00    -0.004 A 
ATOM      5  C6  UNL d   1       4.117  -1.553  -1.651  0.00  0.00    -0.075 A 
ATOM      6  C7  UNL d   1       4.016  -3.007  -1.296  0.00  0.00     0.076 C 
ATOM      7  C8  UNL d   1       4.403  -1.174  -2.970  0.00  0.00     0.001 A 
ENDROOT
BRANCH   1   8
ATOM      8  C1  UNL d   1       4.808   0.572  -4.749  0.00  0.00     0.053 C 
ATOM      9  C   UNL d   1       5.878  -0.318  -5.362  0.00  0.00     0.018 C 
ENDBRANCH   1   8
TORSDOF 1
ENDMDL
