MODEL 1
REMARK minimizedAffinity -1.13841176
REMARK minimizedRMSD -1
REMARK  0 active torsions:
REMARK  status: ('A' for Active; 'I' for Inactive)
ROOT
ATOM      1  O1  BZF d   1       1.237  -0.848   0.104  0.00  0.00    -0.204 OA
ATOM      2  C2  BZF d   1       1.105  -1.682   1.197  0.00  0.00     0.174 A 
ATOM      3  C3  BZF d   1      -0.190  -1.999   1.403  0.00  0.00    -0.012 A 
ATOM      4  C3A BZF d   1      -0.902  -1.394   0.319  0.00  0.00    -0.107 A 
ATOM      5  C4  BZF d   1      -2.220  -1.365  -0.038  0.00  0.00     0.055 A 
ATOM      6  C5  BZF d   1      -2.597  -0.623  -1.113  0.00  0.00    -0.016 A 
ATOM      7  C6  BZF d   1      -1.684   0.105  -1.848  0.00  0.00     0.022 A 
ATOM      8  C7  BZF d   1      -0.366   0.103  -1.536  0.00  0.00     0.029 A 
ATOM      9  C7A BZF d   1       0.023  -0.672  -0.470  0.00  0.00     0.058 A 
ENDROOT
TORSDOF 0
ENDMDL
