MODEL 1
REMARK minimizedAffinity -3.86153197
REMARK minimizedRMSD -1
REMARK  0 active torsions:
REMARK  status: ('A' for Active; 'I' for Inactive)
ROOT
ATOM      1  O1  BZF d   1      -2.282  -0.665  -1.677  0.00  0.00    -0.204 OA
ATOM      2  C2  BZF d   1      -1.591   0.463  -2.075  0.00  0.00     0.174 A 
ATOM      3  C3  BZF d   1      -0.443   0.591  -1.378  0.00  0.00    -0.012 A 
ATOM      4  C3A BZF d   1      -0.371  -0.577  -0.555  0.00  0.00    -0.107 A 
ATOM      5  C4  BZF d   1       0.545  -1.033   0.350  0.00  0.00     0.055 A 
ATOM      6  C5  BZF d   1       0.283  -2.175   1.038  0.00  0.00    -0.016 A 
ATOM      7  C6  BZF d   1      -0.887  -2.883   0.850  0.00  0.00     0.022 A 
ATOM      8  C7  BZF d   1      -1.823  -2.473  -0.040  0.00  0.00     0.029 A 
ATOM      9  C7A BZF d   1      -1.545  -1.337  -0.761  0.00  0.00     0.058 A 
ENDROOT
TORSDOF 0
ENDMDL
