MODEL 1
REMARK minimizedAffinity 0.497273088
REMARK minimizedRMSD -1
REMARK  0 active torsions:
REMARK  status: ('A' for Active; 'I' for Inactive)
ROOT
ATOM      1  O1  BZF d   1       1.935   0.777   1.199  0.00  0.00    -0.204 OA
ATOM      2  C2  BZF d   1       2.644   1.880   0.762  0.00  0.00     0.174 A 
ATOM      3  C3  BZF d   1       2.129   2.353  -0.391  0.00  0.00    -0.012 A 
ATOM      4  C3A BZF d   1       0.973   1.549  -0.645  0.00  0.00    -0.107 A 
ATOM      5  C4  BZF d   1       0.033   1.544  -1.635  0.00  0.00     0.055 A 
ATOM      6  C5  BZF d   1      -0.926   0.581  -1.630  0.00  0.00    -0.016 A 
ATOM      7  C6  BZF d   1      -0.971  -0.393  -0.655  0.00  0.00     0.022 A 
ATOM      8  C7  BZF d   1      -0.063  -0.426   0.350  0.00  0.00     0.029 A 
ATOM      9  C7A BZF d   1       0.888   0.565   0.367  0.00  0.00     0.058 A 
ENDROOT
TORSDOF 0
ENDMDL
