MODEL 1
REMARK minimizedAffinity -2.75760627
REMARK minimizedRMSD -1
REMARK  0 active torsions:
REMARK  status: ('A' for Active; 'I' for Inactive)
ROOT
ATOM      1  O1  BZF d   1      -1.208   1.719  -0.540  0.00  0.00    -0.204 OA
ATOM      2  C2  BZF d   1      -1.603   0.500  -1.057  0.00  0.00     0.174 A 
ATOM      3  C3  BZF d   1      -0.600  -0.399  -0.983  0.00  0.00    -0.012 A 
ATOM      4  C3A BZF d   1       0.459   0.275  -0.298  0.00  0.00    -0.107 A 
ATOM      5  C4  BZF d   1       1.713  -0.100   0.092  0.00  0.00     0.055 A 
ATOM      6  C5  BZF d   1       2.525   0.820   0.677  0.00  0.00    -0.016 A 
ATOM      7  C6  BZF d   1       2.119   2.122   0.882  0.00  0.00     0.022 A 
ATOM      8  C7  BZF d   1       0.882   2.539   0.517  0.00  0.00     0.029 A 
ATOM      9  C7A BZF d   1       0.047   1.604  -0.044  0.00  0.00     0.058 A 
ENDROOT
TORSDOF 0
ENDMDL
