MODEL 1
REMARK minimizedAffinity -2.31028247
REMARK minimizedRMSD -1
REMARK  0 active torsions:
REMARK  status: ('A' for Active; 'I' for Inactive)
ROOT
ATOM      1  O1  BZF d   1      -0.991   1.157  -0.037  0.00  0.00    -0.204 OA
ATOM      2  C2  BZF d   1      -1.026   0.200  -1.032  0.00  0.00     0.174 A 
ATOM      3  C3  BZF d   1       0.211  -0.274  -1.284  0.00  0.00    -0.012 A 
ATOM      4  C3A BZF d   1       1.061   0.364  -0.326  0.00  0.00    -0.107 A 
ATOM      5  C4  BZF d   1       2.399   0.289  -0.060  0.00  0.00     0.055 A 
ATOM      6  C5  BZF d   1       2.928   1.098   0.895  0.00  0.00    -0.016 A 
ATOM      7  C6  BZF d   1       2.152   1.995   1.599  0.00  0.00     0.022 A 
ATOM      8  C7  BZF d   1       0.820   2.102   1.374  0.00  0.00     0.029 A 
ATOM      9  C7A BZF d   1       0.276   1.262   0.433  0.00  0.00     0.058 A 
ENDROOT
TORSDOF 0
ENDMDL
