MODEL 1
REMARK minimizedAffinity -3.25513721
REMARK minimizedRMSD -1
REMARK  0 active torsions:
REMARK  status: ('A' for Active; 'I' for Inactive)
ROOT
ATOM      1  O1  BZF d   1      -1.199   1.291  -0.403  0.00  0.00    -0.204 OA
ATOM      2  C2  BZF d   1      -1.367   0.252  -1.297  0.00  0.00     0.174 A 
ATOM      3  C3  BZF d   1      -0.260  -0.517  -1.351  0.00  0.00    -0.012 A 
ATOM      4  C3A BZF d   1       0.623   0.026  -0.365  0.00  0.00    -0.107 A 
ATOM      5  C4  BZF d   1       1.873  -0.316   0.066  0.00  0.00     0.055 A 
ATOM      6  C5  BZF d   1       2.488   0.464   0.994  0.00  0.00    -0.016 A 
ATOM      7  C6  BZF d   1       1.885   1.592   1.509  0.00  0.00     0.022 A 
ATOM      8  C7  BZF d   1       0.643   1.968   1.117  0.00  0.00     0.029 A 
ATOM      9  C7A BZF d   1       0.006   1.165   0.203  0.00  0.00     0.058 A 
ENDROOT
TORSDOF 0
ENDMDL
