MODEL 1
REMARK minimizedAffinity -2.55172729
REMARK minimizedRMSD -1
REMARK  0 active torsions:
REMARK  status: ('A' for Active; 'I' for Inactive)
ROOT
ATOM      1  O1  BZF d   1       1.052   2.050   0.179  0.00  0.00    -0.204 OA
ATOM      2  C2  BZF d   1       2.080   1.163   0.433  0.00  0.00     0.174 A 
ATOM      3  C3  BZF d   1       1.802  -0.053  -0.081  0.00  0.00    -0.012 A 
ATOM      4  C3A BZF d   1       0.561   0.107  -0.775  0.00  0.00    -0.107 A 
ATOM      5  C4  BZF d   1      -0.224  -0.741  -1.503  0.00  0.00     0.055 A 
ATOM      6  C5  BZF d   1      -1.412  -0.290  -1.986  0.00  0.00    -0.016 A 
ATOM      7  C6  BZF d   1      -1.848   0.998  -1.756  0.00  0.00     0.022 A 
ATOM      8  C7  BZF d   1      -1.101   1.877  -1.044  0.00  0.00     0.029 A 
ATOM      9  C7A BZF d   1       0.114   1.435  -0.582  0.00  0.00     0.058 A 
ENDROOT
TORSDOF 0
ENDMDL
