MODEL 1
REMARK minimizedAffinity -2.26846671
REMARK minimizedRMSD -1
REMARK  0 active torsions:
REMARK  status: ('A' for Active; 'I' for Inactive)
ROOT
ATOM      1  O1  BZF d   1      -0.977  -1.683   0.193  0.00  0.00    -0.204 OA
ATOM      2  C2  BZF d   1      -1.974  -1.805  -0.755  0.00  0.00     0.174 A 
ATOM      3  C3  BZF d   1      -1.977  -0.743  -1.586  0.00  0.00    -0.012 A 
ATOM      4  C3A BZF d   1      -0.856   0.051  -1.186  0.00  0.00    -0.107 A 
ATOM      5  C4  BZF d   1      -0.326   1.224  -1.642  0.00  0.00     0.055 A 
ATOM      6  C5  BZF d   1       0.730   1.771  -0.984  0.00  0.00    -0.016 A 
ATOM      7  C6  BZF d   1       1.276   1.176   0.134  0.00  0.00     0.022 A 
ATOM      8  C7  BZF d   1       0.788   0.009   0.621  0.00  0.00     0.029 A 
ATOM      9  C7A BZF d   1      -0.258  -0.563  -0.061  0.00  0.00     0.058 A 
ENDROOT
TORSDOF 0
ENDMDL
