MODEL 1
REMARK minimizedAffinity -2.68884492
REMARK minimizedRMSD -1
REMARK  0 active torsions:
REMARK  status: ('A' for Active; 'I' for Inactive)
ROOT
ATOM      1  O1  BZF d   1       0.100  -2.387   1.251  0.00  0.00    -0.204 OA
ATOM      2  C2  BZF d   1      -0.916  -3.313   1.393  0.00  0.00     0.174 A 
ATOM      3  C3  BZF d   1      -1.972  -2.987   0.621  0.00  0.00    -0.012 A 
ATOM      4  C3A BZF d   1      -1.557  -1.832  -0.116  0.00  0.00    -0.107 A 
ATOM      5  C4  BZF d   1      -2.163  -1.053  -1.060  0.00  0.00     0.055 A 
ATOM      6  C5  BZF d   1      -1.513   0.044  -1.528  0.00  0.00    -0.016 A 
ATOM      7  C6  BZF d   1      -0.259   0.394  -1.071  0.00  0.00     0.022 A 
ATOM      8  C7  BZF d   1       0.384  -0.350  -0.139  0.00  0.00     0.029 A 
ATOM      9  C7A BZF d   1      -0.257  -1.478   0.312  0.00  0.00     0.058 A 
ENDROOT
TORSDOF 0
ENDMDL
