MODEL 1
REMARK minimizedAffinity -2.37275219
REMARK minimizedRMSD -1
REMARK  0 active torsions:
REMARK  status: ('A' for Active; 'I' for Inactive)
ROOT
ATOM      1  O1  BZF d   1       0.347  -1.154   0.829  0.00  0.00    -0.204 OA
ATOM      2  C2  BZF d   1       0.572   0.022   0.139  0.00  0.00     0.174 A 
ATOM      3  C3  BZF d   1      -0.365   0.204  -0.814  0.00  0.00    -0.012 A 
ATOM      4  C3A BZF d   1      -1.281  -0.883  -0.653  0.00  0.00    -0.107 A 
ATOM      5  C4  BZF d   1      -2.431  -1.244  -1.295  0.00  0.00     0.055 A 
ATOM      6  C5  BZF d   1      -3.048  -2.403  -0.943  0.00  0.00    -0.016 A 
ATOM      7  C6  BZF d   1      -2.541  -3.225   0.042  0.00  0.00     0.022 A 
ATOM      8  C7  BZF d   1      -1.406  -2.907   0.710  0.00  0.00     0.029 A 
ATOM      9  C7A BZF d   1      -0.798  -1.720   0.379  0.00  0.00     0.058 A 
ENDROOT
TORSDOF 0
ENDMDL
