MODEL 1
REMARK minimizedAffinity -0.919573963
REMARK minimizedRMSD -1
REMARK  0 active torsions:
REMARK  status: ('A' for Active; 'I' for Inactive)
ROOT
ATOM      1  O1  BZF d   1      -0.644  -2.242   1.515  0.00  0.00    -0.204 OA
ATOM      2  C2  BZF d   1      -1.564  -3.251   1.304  0.00  0.00     0.174 A 
ATOM      3  C3  BZF d   1      -2.368  -2.956   0.262  0.00  0.00    -0.012 A 
ATOM      4  C3A BZF d   1      -1.864  -1.725  -0.265  0.00  0.00    -0.107 A 
ATOM      5  C4  BZF d   1      -2.232  -0.933  -1.315  0.00  0.00     0.055 A 
ATOM      6  C5  BZF d   1      -1.578   0.241  -1.517  0.00  0.00    -0.016 A 
ATOM      7  C6  BZF d   1      -0.557   0.656  -0.687  0.00  0.00     0.022 A 
ATOM      8  C7  BZF d   1      -0.153  -0.099   0.363  0.00  0.00     0.029 A 
ATOM      9  C7A BZF d   1      -0.789  -1.302   0.551  0.00  0.00     0.058 A 
ENDROOT
TORSDOF 0
ENDMDL
