MODEL 1
REMARK minimizedAffinity -1.64812636
REMARK minimizedRMSD -1
REMARK  0 active torsions:
REMARK  status: ('A' for Active; 'I' for Inactive)
ROOT
ATOM      1  O1  BZF d   1      -0.699  -2.682   1.393  0.00  0.00    -0.204 OA
ATOM      2  C2  BZF d   1      -1.733  -3.553   1.108  0.00  0.00     0.174 A 
ATOM      3  C3  BZF d   1      -2.511  -3.065   0.120  0.00  0.00    -0.012 A 
ATOM      4  C3A BZF d   1      -1.873  -1.855  -0.298  0.00  0.00    -0.107 A 
ATOM      5  C4  BZF d   1      -2.160  -0.925  -1.257  0.00  0.00     0.055 A 
ATOM      6  C5  BZF d   1      -1.376   0.180  -1.360  0.00  0.00    -0.016 A 
ATOM      7  C6  BZF d   1      -0.302   0.390  -0.520  0.00  0.00     0.022 A 
ATOM      8  C7  BZF d   1       0.025  -0.507   0.442  0.00  0.00     0.029 A 
ATOM      9  C7A BZF d   1      -0.746  -1.641   0.528  0.00  0.00     0.058 A 
ENDROOT
TORSDOF 0
ENDMDL
