MODEL 1
REMARK minimizedAffinity -0.930544972
REMARK minimizedRMSD -1
REMARK  0 active torsions:
REMARK  status: ('A' for Active; 'I' for Inactive)
ROOT
ATOM      1  O1  BZF d   1       1.141  -0.625   0.470  0.00  0.00    -0.204 OA
ATOM      2  C2  BZF d   1       1.797   0.579   0.300  0.00  0.00     0.174 A 
ATOM      3  C3  BZF d   1       1.037   1.441  -0.406  0.00  0.00    -0.012 A 
ATOM      4  C3A BZF d   1      -0.205   0.763  -0.617  0.00  0.00    -0.107 A 
ATOM      5  C4  BZF d   1      -1.369   1.109  -1.242  0.00  0.00     0.055 A 
ATOM      6  C5  BZF d   1      -2.366   0.191  -1.335  0.00  0.00    -0.016 A 
ATOM      7  C6  BZF d   1      -2.232  -1.082  -0.821  0.00  0.00     0.022 A 
ATOM      8  C7  BZF d   1      -1.098  -1.470  -0.189  0.00  0.00     0.029 A 
ATOM      9  C7A BZF d   1      -0.101  -0.534  -0.063  0.00  0.00     0.058 A 
ENDROOT
TORSDOF 0
ENDMDL
