MODEL 1
REMARK minimizedAffinity -2.90080738
REMARK minimizedRMSD -1
REMARK  0 active torsions:
REMARK  status: ('A' for Active; 'I' for Inactive)
ROOT
ATOM      1  O1  BZF d   1       3.107   1.399   0.038  0.00  0.00    -0.204 OA
ATOM      2  C2  BZF d   1       3.047   2.641   0.639  0.00  0.00     0.174 A 
ATOM      3  C3  BZF d   1       1.770   3.065   0.737  0.00  0.00    -0.012 A 
ATOM      4  C3A BZF d   1       0.976   1.981   0.245  0.00  0.00    -0.107 A 
ATOM      5  C4  BZF d   1      -0.369   1.792   0.103  0.00  0.00     0.055 A 
ATOM      6  C5  BZF d   1      -0.818   0.649  -0.479  0.00  0.00    -0.016 A 
ATOM      7  C6  BZF d   1       0.050  -0.322  -0.935  0.00  0.00     0.022 A 
ATOM      8  C7  BZF d   1       1.392  -0.182  -0.812  0.00  0.00     0.029 A 
ATOM      9  C7A BZF d   1       1.847   0.958  -0.194  0.00  0.00     0.058 A 
ENDROOT
TORSDOF 0
ENDMDL
