MODEL 1
REMARK minimizedAffinity -1.78596473
REMARK minimizedRMSD -1
REMARK  0 active torsions:
REMARK  status: ('A' for Active; 'I' for Inactive)
ROOT
ATOM      1  O1  BZF d   1      -0.538  -2.056   1.637  0.00  0.00    -0.204 OA
ATOM      2  C2  BZF d   1      -1.488  -3.059   1.608  0.00  0.00     0.174 A 
ATOM      3  C3  BZF d   1      -2.315  -2.905   0.554  0.00  0.00    -0.012 A 
ATOM      4  C3A BZF d   1      -1.796  -1.785  -0.170  0.00  0.00    -0.107 A 
ATOM      5  C4  BZF d   1      -2.176  -1.154  -1.320  0.00  0.00     0.055 A 
ATOM      6  C5  BZF d   1      -1.500  -0.044  -1.718  0.00  0.00    -0.016 A 
ATOM      7  C6  BZF d   1      -0.444   0.464  -0.990  0.00  0.00     0.022 A 
ATOM      8  C7  BZF d   1      -0.028  -0.131   0.155  0.00  0.00     0.029 A 
ATOM      9  C7A BZF d   1      -0.688  -1.272   0.542  0.00  0.00     0.058 A 
ENDROOT
TORSDOF 0
ENDMDL
