MODEL 1
REMARK minimizedAffinity -5.04244089
REMARK minimizedRMSD -1
REMARK  0 active torsions:
REMARK  status: ('A' for Active; 'I' for Inactive)
ROOT
ATOM      1  O1  BZF d   1       1.014   3.594   0.559  0.00  0.00    -0.204 OA
ATOM      2  C2  BZF d   1       2.222   3.303   1.163  0.00  0.00     0.174 A 
ATOM      3  C3  BZF d   1       2.430   1.971   1.199  0.00  0.00    -0.012 A 
ATOM      4  C3A BZF d   1       1.323   1.398   0.497  0.00  0.00    -0.107 A 
ATOM      5  C4  BZF d   1       0.972   0.116   0.184  0.00  0.00     0.055 A 
ATOM      6  C5  BZF d   1      -0.209  -0.110  -0.448  0.00  0.00    -0.016 A 
ATOM      7  C6  BZF d   1      -1.066   0.921  -0.776  0.00  0.00     0.022 A 
ATOM      8  C7  BZF d   1      -0.758   2.209  -0.491  0.00  0.00     0.029 A 
ATOM      9  C7A BZF d   1       0.450   2.444   0.118  0.00  0.00     0.058 A 
ENDROOT
TORSDOF 0
ENDMDL
