MODEL 1
REMARK minimizedAffinity -3.90931869
REMARK minimizedRMSD -1
REMARK  0 active torsions:
REMARK  status: ('A' for Active; 'I' for Inactive)
ROOT
ATOM      1  O1  BZF d   1       1.310   3.676   0.431  0.00  0.00    -0.204 OA
ATOM      2  C2  BZF d   1       2.523   3.481   1.063  0.00  0.00     0.174 A 
ATOM      3  C3  BZF d   1       2.754   2.167   1.260  0.00  0.00    -0.012 A 
ATOM      4  C3A BZF d   1       1.657   1.494   0.635  0.00  0.00    -0.107 A 
ATOM      5  C4  BZF d   1       1.329   0.177   0.481  0.00  0.00     0.055 A 
ATOM      6  C5  BZF d   1       0.151  -0.143  -0.116  0.00  0.00    -0.016 A 
ATOM      7  C6  BZF d   1      -0.723   0.825  -0.566  0.00  0.00     0.022 A 
ATOM      8  C7  BZF d   1      -0.438   2.144  -0.439  0.00  0.00     0.029 A 
ATOM      9  C7A BZF d   1       0.766   2.471   0.134  0.00  0.00     0.058 A 
ENDROOT
TORSDOF 0
ENDMDL
