MODEL 1
REMARK minimizedAffinity -1.21067524
REMARK minimizedRMSD -1
REMARK  0 active torsions:
REMARK  status: ('A' for Active; 'I' for Inactive)
ROOT
ATOM      1  O1  BZF d   1       2.932   1.480   0.574  0.00  0.00    -0.204 OA
ATOM      2  C2  BZF d   1       2.644   2.664   1.226  0.00  0.00     0.174 A 
ATOM      3  C3  BZF d   1       1.330   2.953   1.135  0.00  0.00    -0.012 A 
ATOM      4  C3A BZF d   1       0.745   1.837   0.458  0.00  0.00    -0.107 A 
ATOM      5  C4  BZF d   1      -0.532   1.529   0.085  0.00  0.00     0.055 A 
ATOM      6  C5  BZF d   1      -0.757   0.394  -0.628  0.00  0.00    -0.016 A 
ATOM      7  C6  BZF d   1       0.271  -0.452  -0.988  0.00  0.00     0.022 A 
ATOM      8  C7  BZF d   1       1.554  -0.192  -0.637  0.00  0.00     0.029 A 
ATOM      9  C7A BZF d   1       1.780   0.938   0.111  0.00  0.00     0.058 A 
ENDROOT
TORSDOF 0
ENDMDL
