MODEL 1
REMARK minimizedAffinity -3.77913451
REMARK minimizedRMSD -1
REMARK  0 active torsions:
REMARK  status: ('A' for Active; 'I' for Inactive)
ROOT
ATOM      1  C4' PXY d   1       0.528  -0.120  -2.276  0.00  0.00     0.077 C 
ATOM      2  C1' PXY d   1      -0.527  -0.107   3.407  0.00  0.00     0.077 C 
ATOM      3  C1  PXY d   1      -0.262  -0.117   1.914  0.00  0.00    -0.082 A 
ATOM      4  C2  PXY d   1       0.983  -0.046   1.471  0.00  0.00     0.003 A 
ATOM      5  C3  PXY d   1       1.239  -0.021   0.124  0.00  0.00     0.003 A 
ATOM      6  C4  PXY d   1       0.214  -0.123  -0.778  0.00  0.00    -0.082 A 
ATOM      7  C5  PXY d   1      -1.058  -0.206  -0.333  0.00  0.00     0.003 A 
ATOM      8  C6  PXY d   1      -1.300  -0.188   1.037  0.00  0.00     0.003 A 
ENDROOT
TORSDOF 0
ENDMDL
