MODEL 1
REMARK minimizedAffinity -2.87700653
REMARK minimizedRMSD -1
REMARK  0 active torsions:
REMARK  status: ('A' for Active; 'I' for Inactive)
ROOT
ATOM      1  C4' PXY d   1       1.121   0.215  -2.847  0.00  0.00     0.077 C 
ATOM      2  C1' PXY d   1      -0.747   0.289   2.623  0.00  0.00     0.077 C 
ATOM      3  C1  PXY d   1      -0.269   0.268   1.185  0.00  0.00    -0.082 A 
ATOM      4  C2  PXY d   1       0.968  -0.114   0.912  0.00  0.00     0.003 A 
ATOM      5  C3  PXY d   1       1.426  -0.108  -0.381  0.00  0.00     0.003 A 
ATOM      6  C4  PXY d   1       0.593   0.242  -1.410  0.00  0.00    -0.082 A 
ATOM      7  C5  PXY d   1      -0.673   0.623  -1.140  0.00  0.00     0.003 A 
ATOM      8  C6  PXY d   1      -1.106   0.650   0.182  0.00  0.00     0.003 A 
ENDROOT
TORSDOF 0
ENDMDL
