MODEL 1
REMARK minimizedAffinity -1.7934382
REMARK minimizedRMSD -1
REMARK  0 active torsions:
REMARK  status: ('A' for Active; 'I' for Inactive)
ROOT
ATOM      1  C4' PXY d   1       0.776  -0.090  -2.882  0.00  0.00     0.077 C 
ATOM      2  C1' PXY d   1      -0.754   0.328   2.676  0.00  0.00     0.077 C 
ATOM      3  C1  PXY d   1      -0.365   0.220   1.215  0.00  0.00    -0.082 A 
ATOM      4  C2  PXY d   1       0.726  -0.447   0.876  0.00  0.00     0.003 A 
ATOM      5  C3  PXY d   1       1.110  -0.527  -0.438  0.00  0.00     0.003 A 
ATOM      6  C4  PXY d   1       0.340   0.036  -1.420  0.00  0.00    -0.082 A 
ATOM      7  C5  PXY d   1      -0.781   0.710  -1.083  0.00  0.00     0.003 A 
ATOM      8  C6  PXY d   1      -1.131   0.814   0.260  0.00  0.00     0.003 A 
ENDROOT
TORSDOF 0
ENDMDL
