MODEL 1
REMARK minimizedAffinity -4.79129362
REMARK minimizedRMSD -1
REMARK  0 active torsions:
REMARK  status: ('A' for Active; 'I' for Inactive)
ROOT
ATOM      1  C4' PXY d   1      -3.555  -0.002   1.488  0.00  0.00     0.077 C 
ATOM      2  C1' PXY d   1       2.207   0.460   1.569  0.00  0.00     0.077 C 
ATOM      3  C1  PXY d   1       0.696   0.333   1.560  0.00  0.00    -0.082 A 
ATOM      4  C2  PXY d   1       0.048   0.318   0.406  0.00  0.00     0.003 A 
ATOM      5  C3  PXY d   1      -1.320   0.236   0.380  0.00  0.00     0.003 A 
ATOM      6  C4  PXY d   1      -2.029   0.115   1.546  0.00  0.00    -0.082 A 
ATOM      7  C5  PXY d   1      -1.374   0.118   2.726  0.00  0.00     0.003 A 
ATOM      8  C6  PXY d   1       0.012   0.243   2.732  0.00  0.00     0.003 A 
ENDROOT
TORSDOF 0
ENDMDL
