MODEL 1
REMARK minimizedAffinity -4.67808151
REMARK minimizedRMSD -1
REMARK  0 active torsions:
REMARK  status: ('A' for Active; 'I' for Inactive)
ROOT
ATOM      1  C4' PXY d   1       0.223  -1.414  -2.914  0.00  0.00     0.077 C 
ATOM      2  C1' PXY d   1      -0.445   0.759   2.401  0.00  0.00     0.077 C 
ATOM      3  C1  PXY d   1      -0.269   0.201   1.002  0.00  0.00    -0.082 A 
ATOM      4  C2  PXY d   1      -0.689  -1.023   0.729  0.00  0.00     0.003 A 
ATOM      5  C3  PXY d   1      -0.509  -1.555  -0.522  0.00  0.00     0.003 A 
ATOM      6  C4  PXY d   1       0.058  -0.806  -1.518  0.00  0.00    -0.082 A 
ATOM      7  C5  PXY d   1       0.479   0.448  -1.250  0.00  0.00     0.003 A 
ATOM      8  C6  PXY d   1       0.325   0.954   0.037  0.00  0.00     0.003 A 
ENDROOT
TORSDOF 0
ENDMDL
