MODEL 1
REMARK minimizedAffinity -4.03619194
REMARK minimizedRMSD -1
REMARK  0 active torsions:
REMARK  status: ('A' for Active; 'I' for Inactive)
ROOT
ATOM      1  C4' PXY d   1      -3.489  -0.056   1.481  0.00  0.00     0.077 C 
ATOM      2  C1' PXY d   1       2.180   1.013   1.112  0.00  0.00     0.077 C 
ATOM      3  C1  PXY d   1       0.695   0.724   1.218  0.00  0.00    -0.082 A 
ATOM      4  C2  PXY d   1      -0.088   0.931   0.172  0.00  0.00     0.003 A 
ATOM      5  C3  PXY d   1      -1.438   0.706   0.261  0.00  0.00     0.003 A 
ATOM      6  C4  PXY d   1      -1.983   0.213   1.416  0.00  0.00    -0.082 A 
ATOM      7  C5  PXY d   1      -1.189  -0.011   2.484  0.00  0.00     0.003 A 
ATOM      8  C6  PXY d   1       0.172   0.263   2.387  0.00  0.00     0.003 A 
ENDROOT
TORSDOF 0
ENDMDL
