MODEL 1
REMARK minimizedAffinity -3.28691554
REMARK minimizedRMSD -1
REMARK  0 active torsions:
REMARK  status: ('A' for Active; 'I' for Inactive)
ROOT
ATOM      1  C4' PXY d   1       0.494   0.478  -1.568  0.00  0.00     0.077 C 
ATOM      2  C1' PXY d   1      -1.649  -0.746   3.659  0.00  0.00     0.077 C 
ATOM      3  C1  PXY d   1      -1.077  -0.418   2.294  0.00  0.00    -0.082 A 
ATOM      4  C2  PXY d   1      -1.865  -0.446   1.231  0.00  0.00     0.003 A 
ATOM      5  C3  PXY d   1      -1.358  -0.183  -0.015  0.00  0.00     0.003 A 
ATOM      6  C4  PXY d   1      -0.042   0.163  -0.169  0.00  0.00    -0.082 A 
ATOM      7  C5  PXY d   1       0.766   0.204   0.912  0.00  0.00     0.003 A 
ATOM      8  C6  PXY d   1       0.241  -0.106   2.163  0.00  0.00     0.003 A 
ENDROOT
TORSDOF 0
ENDMDL
