MODEL 1
REMARK minimizedAffinity -4.87983799
REMARK minimizedRMSD -1
REMARK  0 active torsions:
REMARK  status: ('A' for Active; 'I' for Inactive)
ROOT
ATOM      1  C4' PXY d   1       0.754   0.503  -0.950  0.00  0.00     0.077 C 
ATOM      2  C1' PXY d   1      -1.873  -0.833   4.022  0.00  0.00     0.077 C 
ATOM      3  C1  PXY d   1      -1.173  -0.481   2.725  0.00  0.00    -0.082 A 
ATOM      4  C2  PXY d   1      -1.881  -0.035   1.699  0.00  0.00     0.003 A 
ATOM      5  C3  PXY d   1      -1.268   0.258   0.508  0.00  0.00     0.003 A 
ATOM      6  C4  PXY d   1       0.091   0.144   0.382  0.00  0.00    -0.082 A 
ATOM      7  C5  PXY d   1       0.821  -0.300   1.427  0.00  0.00     0.003 A 
ATOM      8  C6  PXY d   1       0.175  -0.631   2.614  0.00  0.00     0.003 A 
ENDROOT
TORSDOF 0
ENDMDL
