MODEL 1
REMARK minimizedAffinity -4.34093285
REMARK minimizedRMSD -1
REMARK  0 active torsions:
REMARK  status: ('A' for Active; 'I' for Inactive)
ROOT
ATOM      1  C4' PXY d   1       0.319   0.213  -2.310  0.00  0.00     0.077 C 
ATOM      2  C1' PXY d   1      -0.570  -0.698   3.329  0.00  0.00     0.077 C 
ATOM      3  C1  PXY d   1      -0.326  -0.452   1.853  0.00  0.00    -0.082 A 
ATOM      4  C2  PXY d   1      -1.334  -0.538   1.000  0.00  0.00     0.003 A 
ATOM      5  C3  PXY d   1      -1.125  -0.350  -0.342  0.00  0.00     0.003 A 
ATOM      6  C4  PXY d   1       0.118  -0.018  -0.810  0.00  0.00    -0.082 A 
ATOM      7  C5  PXY d   1       1.149   0.083   0.055  0.00  0.00     0.003 A 
ATOM      8  C6  PXY d   1       0.925  -0.152   1.409  0.00  0.00     0.003 A 
ENDROOT
TORSDOF 0
ENDMDL
