MODEL 1
REMARK minimizedAffinity -2.49320817
REMARK minimizedRMSD -1
REMARK  0 active torsions:
REMARK  status: ('A' for Active; 'I' for Inactive)
ROOT
ATOM      1  C4' PXY d   1       0.193  -0.619  -2.736  0.00  0.00     0.077 C 
ATOM      2  C1' PXY d   1       0.151   1.001   2.813  0.00  0.00     0.077 C 
ATOM      3  C1  PXY d   1       0.149   0.573   1.358  0.00  0.00    -0.082 A 
ATOM      4  C2  PXY d   1       1.279   0.184   0.789  0.00  0.00     0.003 A 
ATOM      5  C3  PXY d   1       1.301  -0.175  -0.534  0.00  0.00     0.003 A 
ATOM      6  C4  PXY d   1       0.146  -0.188  -1.268  0.00  0.00    -0.082 A 
ATOM      7  C5  PXY d   1      -1.013   0.198  -0.692  0.00  0.00     0.003 A 
ATOM      8  C6  PXY d   1      -1.007   0.598   0.641  0.00  0.00     0.003 A 
ENDROOT
TORSDOF 0
ENDMDL
