MODEL 1
REMARK minimizedAffinity -5.06271458
REMARK minimizedRMSD -1
REMARK  0 active torsions:
REMARK  status: ('A' for Active; 'I' for Inactive)
ROOT
ATOM      1  C4' PXY d   1       0.770   0.002  -2.220  0.00  0.00     0.077 C 
ATOM      2  C1' PXY d   1      -0.681  -0.344   3.365  0.00  0.00     0.077 C 
ATOM      3  C1  PXY d   1      -0.310  -0.262   1.897  0.00  0.00    -0.082 A 
ATOM      4  C2  PXY d   1       0.887   0.183   1.549  0.00  0.00     0.003 A 
ATOM      5  C3  PXY d   1       1.228   0.294   0.226  0.00  0.00     0.003 A 
ATOM      6  C4  PXY d   1       0.355  -0.106  -0.750  0.00  0.00    -0.082 A 
ATOM      7  C5  PXY d   1      -0.864  -0.572  -0.403  0.00  0.00     0.003 A 
ATOM      8  C6  PXY d   1      -1.206  -0.637   0.945  0.00  0.00     0.003 A 
ENDROOT
TORSDOF 0
ENDMDL
