MODEL 1
REMARK minimizedAffinity -2.67614913
REMARK minimizedRMSD -1
REMARK  0 active torsions:
REMARK  status: ('A' for Active; 'I' for Inactive)
ROOT
ATOM      1  C4' PXY d   1       1.309  -0.353  -1.345  0.00  0.00     0.077 C 
ATOM      2  C1' PXY d   1      -1.381  -0.579   3.766  0.00  0.00     0.077 C 
ATOM      3  C1  PXY d   1      -0.667  -0.511   2.430  0.00  0.00    -0.082 A 
ATOM      4  C2  PXY d   1      -1.320  -0.824   1.323  0.00  0.00     0.003 A 
ATOM      5  C3  PXY d   1      -0.681  -0.799   0.110  0.00  0.00     0.003 A 
ATOM      6  C4  PXY d   1       0.626  -0.398   0.024  0.00  0.00    -0.082 A 
ATOM      7  C5  PXY d   1       1.295  -0.066   1.148  0.00  0.00     0.003 A 
ATOM      8  C6  PXY d   1       0.640  -0.138   2.374  0.00  0.00     0.003 A 
ENDROOT
TORSDOF 0
ENDMDL
