MODEL 1
REMARK minimizedAffinity -5.29008579
REMARK minimizedRMSD -1
REMARK  0 active torsions:
REMARK  status: ('A' for Active; 'I' for Inactive)
ROOT
ATOM      1  C4' PXY d   1      -1.026  -0.631   3.086  0.00  0.00     0.077 C 
ATOM      2  C1' PXY d   1       1.250   0.280  -2.149  0.00  0.00     0.077 C 
ATOM      3  C1  PXY d   1       0.643   0.049  -0.779  0.00  0.00    -0.082 A 
ATOM      4  C2  PXY d   1       1.423  -0.298   0.232  0.00  0.00     0.003 A 
ATOM      5  C3  PXY d   1       0.886  -0.542   1.470  0.00  0.00     0.003 A 
ATOM      6  C4  PXY d   1      -0.456  -0.378   1.688  0.00  0.00    -0.082 A 
ATOM      7  C5  PXY d   1      -1.256  -0.014   0.664  0.00  0.00     0.003 A 
ATOM      8  C6  PXY d   1      -0.698   0.189  -0.594  0.00  0.00     0.003 A 
ENDROOT
TORSDOF 0
ENDMDL
