MODEL 1
REMARK minimizedAffinity -5.44389629
REMARK minimizedRMSD -1
REMARK  0 active torsions:
REMARK  status: ('A' for Active; 'I' for Inactive)
ROOT
ATOM      1  C4' PXY d   1       0.983   0.292  -1.807  0.00  0.00     0.077 C 
ATOM      2  C1' PXY d   1      -1.426  -0.009   3.439  0.00  0.00     0.077 C 
ATOM      3  C1  PXY d   1      -0.783   0.072   2.069  0.00  0.00    -0.082 A 
ATOM      4  C2  PXY d   1      -1.503   0.461   1.029  0.00  0.00     0.003 A 
ATOM      5  C3  PXY d   1      -0.945   0.509  -0.222  0.00  0.00     0.003 A 
ATOM      6  C4  PXY d   1       0.378   0.205  -0.403  0.00  0.00    -0.082 A 
ATOM      7  C5  PXY d   1       1.122  -0.183   0.654  0.00  0.00     0.003 A 
ATOM      8  C6  PXY d   1       0.526  -0.264   1.909  0.00  0.00     0.003 A 
ENDROOT
TORSDOF 0
ENDMDL
