MODEL 1
REMARK minimizedAffinity -3.14225483
REMARK minimizedRMSD -1
REMARK  0 active torsions:
REMARK  status: ('A' for Active; 'I' for Inactive)
ROOT
ATOM      1  C4' PXY d   1      -0.890  -0.593   2.954  0.00  0.00     0.077 C 
ATOM      2  C1' PXY d   1       0.690   0.467  -2.504  0.00  0.00     0.077 C 
ATOM      3  C1  PXY d   1       0.263   0.191  -1.076  0.00  0.00    -0.082 A 
ATOM      4  C2  PXY d   1       1.136   0.337  -0.093  0.00  0.00     0.003 A 
ATOM      5  C3  PXY d   1       0.776   0.061   1.201  0.00  0.00     0.003 A 
ATOM      6  C4  PXY d   1      -0.506  -0.317   1.498  0.00  0.00    -0.082 A 
ATOM      7  C5  PXY d   1      -1.406  -0.458   0.501  0.00  0.00     0.003 A 
ATOM      8  C6  PXY d   1      -1.009  -0.212  -0.810  0.00  0.00     0.003 A 
ENDROOT
TORSDOF 0
ENDMDL
