MODEL 1
REMARK minimizedAffinity -2.87432909
REMARK minimizedRMSD -1
REMARK  0 active torsions:
REMARK  status: ('A' for Active; 'I' for Inactive)
ROOT
ATOM      1  C4' PXY d   1       2.262   0.213   1.497  0.00  0.00     0.077 C 
ATOM      2  C1' PXY d   1      -3.368   0.693   0.278  0.00  0.00     0.077 C 
ATOM      3  C1  PXY d   1      -1.893   0.573   0.609  0.00  0.00    -0.082 A 
ATOM      4  C2  PXY d   1      -1.014   0.423  -0.368  0.00  0.00     0.003 A 
ATOM      5  C3  PXY d   1       0.320   0.281  -0.084  0.00  0.00     0.003 A 
ATOM      6  C4  PXY d   1       0.764   0.348   1.209  0.00  0.00    -0.082 A 
ATOM      7  C5  PXY d   1      -0.126   0.512   2.210  0.00  0.00     0.003 A 
ATOM      8  C6  PXY d   1      -1.480   0.612   1.904  0.00  0.00     0.003 A 
ENDROOT
TORSDOF 0
ENDMDL
