MODEL 1
REMARK minimizedAffinity -3.90516353
REMARK minimizedRMSD -1
REMARK  0 active torsions:
REMARK  status: ('A' for Active; 'I' for Inactive)
ROOT
ATOM      1  C4' PXY d   1       0.158  -0.179  -2.683  0.00  0.00     0.077 C 
ATOM      2  C1' PXY d   1      -0.211   0.311   3.065  0.00  0.00     0.077 C 
ATOM      3  C1  PXY d   1      -0.125   0.176   1.557  0.00  0.00    -0.082 A 
ATOM      4  C2  PXY d   1       1.045   0.309   0.954  0.00  0.00     0.003 A 
ATOM      5  C3  PXY d   1       1.135   0.221  -0.411  0.00  0.00     0.003 A 
ATOM      6  C4  PXY d   1       0.025  -0.059  -1.162  0.00  0.00    -0.082 A 
ATOM      7  C5  PXY d   1      -1.170  -0.207  -0.554  0.00  0.00     0.003 A 
ATOM      8  C6  PXY d   1      -1.248  -0.073   0.830  0.00  0.00     0.003 A 
ENDROOT
TORSDOF 0
ENDMDL
