MODEL 1
REMARK minimizedAffinity -5.21308184
REMARK minimizedRMSD -1
REMARK  0 active torsions:
REMARK  status: ('A' for Active; 'I' for Inactive)
ROOT
ATOM      1  C4' PXY d   1      -1.075  -0.366   3.059  0.00  0.00     0.077 C 
ATOM      2  C1' PXY d   1       1.168  -0.610  -2.263  0.00  0.00     0.077 C 
ATOM      3  C1  PXY d   1       0.591  -0.551  -0.863  0.00  0.00    -0.082 A 
ATOM      4  C2  PXY d   1      -0.722  -0.548  -0.696  0.00  0.00     0.003 A 
ATOM      5  C3  PXY d   1      -1.261  -0.463   0.562  0.00  0.00     0.003 A 
ATOM      6  C4  PXY d   1      -0.448  -0.434   1.664  0.00  0.00    -0.082 A 
ATOM      7  C5  PXY d   1       0.892  -0.448   1.502  0.00  0.00     0.003 A 
ATOM      8  C6  PXY d   1       1.419  -0.493   0.215  0.00  0.00     0.003 A 
ENDROOT
TORSDOF 0
ENDMDL
