MODEL 1
REMARK minimizedAffinity -0.320367306
REMARK minimizedRMSD -1
REMARK  0 active torsions:
REMARK  status: ('A' for Active; 'I' for Inactive)
ROOT
ATOM      1  C4' PXY d   1       1.025  -0.418  -2.980  0.00  0.00     0.077 C 
ATOM      2  C1' PXY d   1       0.059   0.425   2.657  0.00  0.00     0.077 C 
ATOM      3  C1  PXY d   1       0.300   0.200   1.177  0.00  0.00    -0.082 A 
ATOM      4  C2  PXY d   1       1.527  -0.041   0.743  0.00  0.00     0.003 A 
ATOM      5  C3  PXY d   1       1.767  -0.215  -0.596  0.00  0.00     0.003 A 
ATOM      6  C4  PXY d   1       0.734  -0.195  -1.493  0.00  0.00    -0.082 A 
ATOM      7  C5  PXY d   1      -0.522   0.041  -1.057  0.00  0.00     0.003 A 
ATOM      8  C6  PXY d   1      -0.739   0.256   0.301  0.00  0.00     0.003 A 
ENDROOT
TORSDOF 0
ENDMDL
