MODEL 1
REMARK minimizedAffinity -4.61462259
REMARK minimizedRMSD -1
REMARK  0 active torsions:
REMARK  status: ('A' for Active; 'I' for Inactive)
ROOT
ATOM      1  C4' PXY d   1       0.034   0.349   3.037  0.00  0.00     0.077 C 
ATOM      2  C1' PXY d   1       0.296  -0.459  -2.680  0.00  0.00     0.077 C 
ATOM      3  C1  PXY d   1       0.216  -0.253  -1.181  0.00  0.00    -0.082 A 
ATOM      4  C2  PXY d   1       0.888   0.738  -0.620  0.00  0.00     0.003 A 
ATOM      5  C3  PXY d   1       0.852   0.919   0.739  0.00  0.00     0.003 A 
ATOM      6  C4  PXY d   1       0.078   0.109   1.526  0.00  0.00    -0.082 A 
ATOM      7  C5  PXY d   1      -0.619  -0.898   0.960  0.00  0.00     0.003 A 
ATOM      8  C6  PXY d   1      -0.537  -1.091  -0.416  0.00  0.00     0.003 A 
ENDROOT
TORSDOF 0
ENDMDL
