MODEL 1
REMARK minimizedAffinity -3.69833493
REMARK minimizedRMSD -1
REMARK  0 active torsions:
REMARK  status: ('A' for Active; 'I' for Inactive)
ROOT
ATOM      1  C1  BNZ d   1      -1.891   1.510   1.725  0.00  0.00     0.000 A 
ATOM      2  C2  BNZ d   1      -1.247   1.581   2.932  0.00  0.00     0.000 A 
ATOM      3  C3  BNZ d   1      -1.479   0.650   3.904  0.00  0.00     0.000 A 
ATOM      4  C4  BNZ d   1      -2.383  -0.327   3.684  0.00  0.00     0.000 A 
ATOM      5  C5  BNZ d   1      -3.046  -0.407   2.476  0.00  0.00     0.000 A 
ATOM      6  C6  BNZ d   1      -2.782   0.510   1.485  0.00  0.00     0.000 A 
ENDROOT
TORSDOF 0
ENDMDL
