MODEL 1
REMARK minimizedAffinity -4.0363903
REMARK minimizedRMSD -1
REMARK  0 active torsions:
REMARK  status: ('A' for Active; 'I' for Inactive)
ROOT
ATOM      1  C1  BNZ d   1      -2.268   0.681   2.467  0.00  0.00     0.000 A 
ATOM      2  C2  BNZ d   1      -2.980  -0.230   1.734  0.00  0.00     0.000 A 
ATOM      3  C3  BNZ d   1      -3.847  -1.094   2.342  0.00  0.00     0.000 A 
ATOM      4  C4  BNZ d   1      -3.970  -1.074   3.685  0.00  0.00     0.000 A 
ATOM      5  C5  BNZ d   1      -3.252  -0.167   4.439  0.00  0.00     0.000 A 
ATOM      6  C6  BNZ d   1      -2.409   0.727   3.820  0.00  0.00     0.000 A 
ENDROOT
TORSDOF 0
ENDMDL
