MODEL 1
REMARK minimizedAffinity -3.23489571
REMARK minimizedRMSD -1
REMARK  0 active torsions:
REMARK  status: ('A' for Active; 'I' for Inactive)
ROOT
ATOM      1  C1  BNZ d   1      -3.208  -0.573   4.564  0.00  0.00     0.000 A 
ATOM      2  C2  BNZ d   1      -3.996  -1.575   5.064  0.00  0.00     0.000 A 
ATOM      3  C3  BNZ d   1      -4.703  -2.392   4.228  0.00  0.00     0.000 A 
ATOM      4  C4  BNZ d   1      -4.653  -2.183   2.897  0.00  0.00     0.000 A 
ATOM      5  C5  BNZ d   1      -3.870  -1.171   2.378  0.00  0.00     0.000 A 
ATOM      6  C6  BNZ d   1      -3.129  -0.374   3.220  0.00  0.00     0.000 A 
ENDROOT
TORSDOF 0
ENDMDL
