MODEL 1
REMARK minimizedAffinity -3.48765159
REMARK minimizedRMSD -1
REMARK  0 active torsions:
REMARK  status: ('A' for Active; 'I' for Inactive)
ROOT
ATOM      1  C1  BNZ d   1       2.228   1.114  -1.816  0.00  0.00     0.000 A 
ATOM      2  C2  BNZ d   1       2.659  -0.183  -1.901  0.00  0.00     0.000 A 
ATOM      3  C3  BNZ d   1       1.939  -1.198  -1.336  0.00  0.00     0.000 A 
ATOM      4  C4  BNZ d   1       0.812  -0.912  -0.654  0.00  0.00     0.000 A 
ATOM      5  C5  BNZ d   1       0.369   0.392  -0.551  0.00  0.00     0.000 A 
ATOM      6  C6  BNZ d   1       1.076   1.407  -1.154  0.00  0.00     0.000 A 
ENDROOT
TORSDOF 0
ENDMDL
