MODEL 1
REMARK minimizedAffinity 6.41478968
REMARK minimizedRMSD -1
REMARK  0 active torsions:
REMARK  status: ('A' for Active; 'I' for Inactive)
ROOT
ATOM      1  C1  BNZ d   1       2.732  -1.196  -0.381  0.00  0.00     0.000 A 
ATOM      2  C2  BNZ d   1       2.112  -2.391  -0.633  0.00  0.00     0.000 A 
ATOM      3  C3  BNZ d   1       0.992  -2.447  -1.415  0.00  0.00     0.000 A 
ATOM      4  C4  BNZ d   1       0.472  -1.306  -1.911  0.00  0.00     0.000 A 
ATOM      5  C5  BNZ d   1       1.080  -0.093  -1.658  0.00  0.00     0.000 A 
ATOM      6  C6  BNZ d   1       2.229  -0.044  -0.903  0.00  0.00     0.000 A 
ENDROOT
TORSDOF 0
ENDMDL
