MODEL 1
REMARK minimizedAffinity -4.05077791
REMARK minimizedRMSD -1
REMARK  0 active torsions:
REMARK  status: ('A' for Active; 'I' for Inactive)
ROOT
ATOM      1  C1  BNZ d   1       2.247  -0.326  -1.547  0.00  0.00     0.000 A 
ATOM      2  C2  BNZ d   1       1.740   0.717  -0.820  0.00  0.00     0.000 A 
ATOM      3  C3  BNZ d   1       0.660   0.540  -0.001  0.00  0.00     0.000 A 
ATOM      4  C4  BNZ d   1       0.065  -0.669   0.059  0.00  0.00     0.000 A 
ATOM      5  C5  BNZ d   1       0.559  -1.729  -0.675  0.00  0.00     0.000 A 
ATOM      6  C6  BNZ d   1       1.670  -1.556  -1.468  0.00  0.00     0.000 A 
ENDROOT
TORSDOF 0
ENDMDL
