MODEL 1
REMARK minimizedAffinity -1.60163724
REMARK minimizedRMSD -1
REMARK  0 active torsions:
REMARK  status: ('A' for Active; 'I' for Inactive)
ROOT
ATOM      1  C1  BNZ d   1       1.473  -2.399  -1.334  0.00  0.00     0.000 A 
ATOM      2  C2  BNZ d   1       2.331  -1.352  -1.122  0.00  0.00     0.000 A 
ATOM      3  C3  BNZ d   1       3.207  -1.367  -0.072  0.00  0.00     0.000 A 
ATOM      4  C4  BNZ d   1       3.196  -2.408   0.786  0.00  0.00     0.000 A 
ATOM      5  C5  BNZ d   1       2.331  -3.465   0.591  0.00  0.00     0.000 A 
ATOM      6  C6  BNZ d   1       1.478  -3.465  -0.489  0.00  0.00     0.000 A 
ENDROOT
TORSDOF 0
ENDMDL
