MODEL 1
REMARK minimizedAffinity -4.10398674
REMARK minimizedRMSD -1
REMARK  0 active torsions:
REMARK  status: ('A' for Active; 'I' for Inactive)
ROOT
ATOM      1  C1  BNZ d   1       0.152  -0.479  -0.711  0.00  0.00     0.000 A 
ATOM      2  C2  BNZ d   1      -0.370   0.786  -0.768  0.00  0.00     0.000 A 
ATOM      3  C3  BNZ d   1       0.417   1.879  -0.533  0.00  0.00     0.000 A 
ATOM      4  C4  BNZ d   1       1.713   1.704  -0.203  0.00  0.00     0.000 A 
ATOM      5  C5  BNZ d   1       2.251   0.435  -0.133  0.00  0.00     0.000 A 
ATOM      6  C6  BNZ d   1       1.466  -0.661  -0.408  0.00  0.00     0.000 A 
ENDROOT
TORSDOF 0
ENDMDL
