MODEL 1
REMARK minimizedAffinity -3.04589128
REMARK minimizedRMSD -1
REMARK  0 active torsions:
REMARK  status: ('A' for Active; 'I' for Inactive)
ROOT
ATOM      1  C1  BNZ d   1       0.588   0.460  -2.421  0.00  0.00     0.000 A 
ATOM      2  C2  BNZ d   1       1.062  -0.822  -2.345  0.00  0.00     0.000 A 
ATOM      3  C3  BNZ d   1       0.918  -1.554  -1.199  0.00  0.00     0.000 A 
ATOM      4  C4  BNZ d   1       0.338  -0.990  -0.121  0.00  0.00     0.000 A 
ATOM      5  C5  BNZ d   1      -0.137   0.305  -0.179  0.00  0.00     0.000 A 
ATOM      6  C6  BNZ d   1      -0.025   1.026  -1.346  0.00  0.00     0.000 A 
ENDROOT
TORSDOF 0
ENDMDL
