MODEL 1
REMARK minimizedAffinity -0.0399189964
REMARK minimizedRMSD -1
REMARK  0 active torsions:
REMARK  status: ('A' for Active; 'I' for Inactive)
ROOT
ATOM      1  C1  BNZ d   1      -3.375   1.620   2.858  0.00  0.00     0.000 A 
ATOM      2  C2  BNZ d   1      -2.403   2.576   2.990  0.00  0.00     0.000 A 
ATOM      3  C3  BNZ d   1      -1.678   2.991   1.908  0.00  0.00     0.000 A 
ATOM      4  C4  BNZ d   1      -1.899   2.422   0.705  0.00  0.00     0.000 A 
ATOM      5  C5  BNZ d   1      -2.868   1.451   0.558  0.00  0.00     0.000 A 
ATOM      6  C6  BNZ d   1      -3.622   1.063   1.642  0.00  0.00     0.000 A 
ENDROOT
TORSDOF 0
ENDMDL
