MODEL 1
REMARK minimizedAffinity -1.53050673
REMARK minimizedRMSD -1
REMARK  0 active torsions:
REMARK  status: ('A' for Active; 'I' for Inactive)
ROOT
ATOM      1  C1  BNZ d   1       0.927   0.290  -1.400  0.00  0.00     0.000 A 
ATOM      2  C2  BNZ d   1       1.753  -0.740  -1.764  0.00  0.00     0.000 A 
ATOM      3  C3  BNZ d   1       2.555  -0.637  -2.866  0.00  0.00     0.000 A 
ATOM      4  C4  BNZ d   1       2.502   0.477  -3.624  0.00  0.00     0.000 A 
ATOM      5  C5  BNZ d   1       1.667   1.520  -3.275  0.00  0.00     0.000 A 
ATOM      6  C6  BNZ d   1       0.890   1.429  -2.143  0.00  0.00     0.000 A 
ENDROOT
TORSDOF 0
ENDMDL
