MODEL 1
REMARK minimizedAffinity -3.79142737
REMARK minimizedRMSD -1
REMARK  0 active torsions:
REMARK  status: ('A' for Active; 'I' for Inactive)
ROOT
ATOM      1  C1  BNZ d   1       1.143   0.619  -0.558  0.00  0.00     0.000 A 
ATOM      2  C2  BNZ d   1       0.281  -0.398  -0.243  0.00  0.00     0.000 A 
ATOM      3  C3  BNZ d   1       0.532  -1.679  -0.650  0.00  0.00     0.000 A 
ATOM      4  C4  BNZ d   1       1.621  -1.933  -1.404  0.00  0.00     0.000 A 
ATOM      5  C5  BNZ d   1       2.494  -0.917  -1.738  0.00  0.00     0.000 A 
ATOM      6  C6  BNZ d   1       2.259   0.364  -1.293  0.00  0.00     0.000 A 
ENDROOT
TORSDOF 0
ENDMDL
