MODEL 1
REMARK minimizedAffinity -3.86615181
REMARK minimizedRMSD -1
REMARK  0 active torsions:
REMARK  status: ('A' for Active; 'I' for Inactive)
ROOT
ATOM      1  C1  BNZ d   1       1.215   1.203  -1.582  0.00  0.00     0.000 A 
ATOM      2  C2  BNZ d   1       2.020   0.095  -1.611  0.00  0.00     0.000 A 
ATOM      3  C3  BNZ d   1       1.648  -1.056  -0.975  0.00  0.00     0.000 A 
ATOM      4  C4  BNZ d   1       0.494  -1.086  -0.279  0.00  0.00     0.000 A 
ATOM      5  C5  BNZ d   1      -0.324   0.025  -0.233  0.00  0.00     0.000 A 
ATOM      6  C6  BNZ d   1       0.035   1.171  -0.906  0.00  0.00     0.000 A 
ENDROOT
TORSDOF 0
ENDMDL
