MODEL 1
REMARK minimizedAffinity -1.80802369
REMARK minimizedRMSD -1
REMARK  0 active torsions:
REMARK  status: ('A' for Active; 'I' for Inactive)
ROOT
ATOM      1  C1  BNZ d   1       1.969   0.235  -0.982  0.00  0.00     0.000 A 
ATOM      2  C2  BNZ d   1       2.453  -1.008  -1.291  0.00  0.00     0.000 A 
ATOM      3  C3  BNZ d   1       1.682  -2.123  -1.112  0.00  0.00     0.000 A 
ATOM      4  C4  BNZ d   1       0.446  -1.997  -0.587  0.00  0.00     0.000 A 
ATOM      5  C5  BNZ d   1      -0.052  -0.752  -0.262  0.00  0.00     0.000 A 
ATOM      6  C6  BNZ d   1       0.712   0.372  -0.479  0.00  0.00     0.000 A 
ENDROOT
TORSDOF 0
ENDMDL
