MODEL 1
REMARK minimizedAffinity -0.367882758
REMARK minimizedRMSD -1
REMARK  0 active torsions:
REMARK  status: ('A' for Active; 'I' for Inactive)
ROOT
ATOM      1  C1  BNZ d   1       2.886  -0.599  -1.298  0.00  0.00     0.000 A 
ATOM      2  C2  BNZ d   1       2.251  -1.778  -1.013  0.00  0.00     0.000 A 
ATOM      3  C3  BNZ d   1       0.893  -1.888  -1.132  0.00  0.00     0.000 A 
ATOM      4  C4  BNZ d   1       0.170  -0.810  -1.497  0.00  0.00     0.000 A 
ATOM      5  C5  BNZ d   1       0.795   0.388  -1.779  0.00  0.00     0.000 A 
ATOM      6  C6  BNZ d   1       2.165   0.485  -1.696  0.00  0.00     0.000 A 
ENDROOT
TORSDOF 0
ENDMDL
