MODEL 1
REMARK minimizedAffinity 16.3893261
REMARK minimizedRMSD -1
REMARK  0 active torsions:
REMARK  status: ('A' for Active; 'I' for Inactive)
ROOT
ATOM      1  O1  BZF d   1      -4.189  -2.313  -0.860  0.00  0.00    -0.204 OA
ATOM      2  C2  BZF d   1      -4.803  -1.557   0.120  0.00  0.00     0.174 A 
ATOM      3  C3  BZF d   1      -5.617  -2.323   0.874  0.00  0.00    -0.012 A 
ATOM      4  C3A BZF d   1      -5.434  -3.657   0.390  0.00  0.00    -0.107 A 
ATOM      5  C4  BZF d   1      -5.958  -4.866   0.749  0.00  0.00     0.055 A 
ATOM      6  C5  BZF d   1      -5.628  -5.970   0.027  0.00  0.00    -0.016 A 
ATOM      7  C6  BZF d   1      -4.782  -5.899  -1.060  0.00  0.00     0.022 A 
ATOM      8  C7  BZF d   1      -4.233  -4.723  -1.451  0.00  0.00     0.029 A 
ATOM      9  C7A BZF d   1      -4.539  -3.612  -0.704  0.00  0.00     0.058 A 
ENDROOT
TORSDOF 0
ENDMDL
