MODEL 1
REMARK minimizedAffinity 5.41107178
REMARK minimizedRMSD -1
REMARK  0 active torsions:
REMARK  status: ('A' for Active; 'I' for Inactive)
ROOT
ATOM      1  O1  BZF d   1      -3.275  -5.350  -0.176  0.00  0.00    -0.204 OA
ATOM      2  C2  BZF d   1      -3.750  -5.973  -1.314  0.00  0.00     0.174 A 
ATOM      3  C3  BZF d   1      -4.873  -5.371  -1.756  0.00  0.00    -0.012 A 
ATOM      4  C3A BZF d   1      -5.063  -4.248  -0.890  0.00  0.00    -0.107 A 
ATOM      5  C4  BZF d   1      -6.000  -3.256  -0.831  0.00  0.00     0.055 A 
ATOM      6  C5  BZF d   1      -5.942  -2.352   0.182  0.00  0.00    -0.016 A 
ATOM      7  C6  BZF d   1      -4.966  -2.413   1.155  0.00  0.00     0.022 A 
ATOM      8  C7  BZF d   1      -4.012  -3.376   1.136  0.00  0.00     0.029 A 
ATOM      9  C7A BZF d   1      -4.049  -4.272   0.095  0.00  0.00     0.058 A 
ENDROOT
TORSDOF 0
ENDMDL
