MODEL 1
REMARK minimizedAffinity 17.7282104
REMARK minimizedRMSD -1
REMARK  0 active torsions:
REMARK  status: ('A' for Active; 'I' for Inactive)
ROOT
ATOM      1  O1  BZF d   1      -3.149   1.901   0.531  0.00  0.00    -0.204 OA
ATOM      2  C2  BZF d   1      -4.213   1.037   0.358  0.00  0.00     0.174 A 
ATOM      3  C3  BZF d   1      -3.973  -0.144   0.963  0.00  0.00    -0.012 A 
ATOM      4  C3A BZF d   1      -2.718   0.022   1.629  0.00  0.00    -0.107 A 
ATOM      5  C4  BZF d   1      -1.956  -0.795   2.414  0.00  0.00     0.055 A 
ATOM      6  C5  BZF d   1      -0.746  -0.354   2.848  0.00  0.00    -0.016 A 
ATOM      7  C6  BZF d   1      -0.266   0.895   2.513  0.00  0.00     0.022 A 
ATOM      8  C7  BZF d   1      -0.988   1.743   1.741  0.00  0.00     0.029 A 
ATOM      9  C7A BZF d   1      -2.225   1.313   1.328  0.00  0.00     0.058 A 
ENDROOT
TORSDOF 0
ENDMDL
