MODEL 1
REMARK minimizedAffinity 10.5530691
REMARK minimizedRMSD -1
REMARK  0 active torsions:
REMARK  status: ('A' for Active; 'I' for Inactive)
ROOT
ATOM      1  O1  BZF d   1      -1.320   3.294   2.167  0.00  0.00    -0.204 OA
ATOM      2  C2  BZF d   1      -0.011   3.170   2.591  0.00  0.00     0.174 A 
ATOM      3  C3  BZF d   1       0.356   1.873   2.635  0.00  0.00    -0.012 A 
ATOM      4  C3A BZF d   1      -0.766   1.146   2.124  0.00  0.00    -0.107 A 
ATOM      5  C4  BZF d   1      -1.004  -0.180   1.905  0.00  0.00     0.055 A 
ATOM      6  C5  BZF d   1      -2.231  -0.567   1.465  0.00  0.00    -0.016 A 
ATOM      7  C6  BZF d   1      -3.242   0.344   1.239  0.00  0.00     0.022 A 
ATOM      8  C7  BZF d   1      -3.051   1.671   1.438  0.00  0.00     0.029 A 
ATOM      9  C7A BZF d   1      -1.802   2.068   1.850  0.00  0.00     0.058 A 
ENDROOT
TORSDOF 0
ENDMDL
