MODEL 1
REMARK minimizedAffinity -6.12774134
REMARK minimizedRMSD -1
REMARK  0 active torsions:
REMARK  status: ('A' for Active; 'I' for Inactive)
ROOT
ATOM      1  O1  BZF d   1      -1.601  -0.935  -0.608  0.00  0.00    -0.204 OA
ATOM      2  C2  BZF d   1      -1.029  -0.433  -1.761  0.00  0.00     0.174 A 
ATOM      3  C3  BZF d   1       0.114   0.225  -1.482  0.00  0.00    -0.012 A 
ATOM      4  C3A BZF d   1       0.315   0.050  -0.076  0.00  0.00    -0.107 A 
ATOM      5  C4  BZF d   1       1.288   0.457   0.791  0.00  0.00     0.055 A 
ATOM      6  C5  BZF d   1       1.150   0.182   2.115  0.00  0.00    -0.016 A 
ATOM      7  C6  BZF d   1       0.052  -0.493   2.606  0.00  0.00     0.022 A 
ATOM      8  C7  BZF d   1      -0.937  -0.922   1.784  0.00  0.00     0.029 A 
ATOM      9  C7A BZF d   1      -0.784  -0.674   0.441  0.00  0.00     0.058 A 
ENDROOT
TORSDOF 0
ENDMDL
