MODEL 1
REMARK minimizedAffinity -0.182569116
REMARK minimizedRMSD -1
REMARK  0 active torsions:
REMARK  status: ('A' for Active; 'I' for Inactive)
ROOT
ATOM      1  O1  BZF d   1      -2.228  -0.795  -2.108  0.00  0.00    -0.204 OA
ATOM      2  C2  BZF d   1      -2.448   0.077  -1.059  0.00  0.00     0.174 A 
ATOM      3  C3  BZF d   1      -1.304   0.699  -0.707  0.00  0.00    -0.012 A 
ATOM      4  C3A BZF d   1      -0.327   0.253  -1.652  0.00  0.00    -0.107 A 
ATOM      5  C4  BZF d   1       0.998   0.530  -1.834  0.00  0.00     0.055 A 
ATOM      6  C5  BZF d   1       1.683  -0.130  -2.805  0.00  0.00    -0.016 A 
ATOM      7  C6  BZF d   1       1.077  -1.075  -3.607  0.00  0.00     0.022 A 
ATOM      8  C7  BZF d   1      -0.236  -1.380  -3.467  0.00  0.00     0.029 A 
ATOM      9  C7A BZF d   1      -0.939  -0.691  -2.509  0.00  0.00     0.058 A 
ENDROOT
TORSDOF 0
ENDMDL
