MODEL 1
REMARK minimizedAffinity -4.86602211
REMARK minimizedRMSD -1
REMARK  0 active torsions:
REMARK  status: ('A' for Active; 'I' for Inactive)
ROOT
ATOM      1  O1  BZF d   1      -0.171   0.394  -1.048  0.00  0.00    -0.204 OA
ATOM      2  C2  BZF d   1       1.180   0.521  -0.791  0.00  0.00     0.174 A 
ATOM      3  C3  BZF d   1       1.432   0.377   0.526  0.00  0.00    -0.012 A 
ATOM      4  C3A BZF d   1       0.169   0.053   1.117  0.00  0.00    -0.107 A 
ATOM      5  C4  BZF d   1      -0.226  -0.222   2.395  0.00  0.00     0.055 A 
ATOM      6  C5  BZF d   1      -1.545  -0.426   2.649  0.00  0.00    -0.016 A 
ATOM      7  C6  BZF d   1      -2.496  -0.357   1.651  0.00  0.00     0.022 A 
ATOM      8  C7  BZF d   1      -2.151  -0.091   0.368  0.00  0.00     0.029 A 
ATOM      9  C7A BZF d   1      -0.815   0.082   0.102  0.00  0.00     0.058 A 
ENDROOT
TORSDOF 0
ENDMDL
