MODEL 1
REMARK minimizedAffinity -0.0897334889
REMARK minimizedRMSD -1
REMARK  0 active torsions:
REMARK  status: ('A' for Active; 'I' for Inactive)
ROOT
ATOM      1  O1  BZF d   1      -4.058  -0.002  -2.302  0.00  0.00    -0.204 OA
ATOM      2  C2  BZF d   1      -4.519  -0.916  -3.230  0.00  0.00     0.174 A 
ATOM      3  C3  BZF d   1      -3.556  -1.805  -3.546  0.00  0.00    -0.012 A 
ATOM      4  C3A BZF d   1      -2.450  -1.478  -2.698  0.00  0.00    -0.107 A 
ATOM      5  C4  BZF d   1      -1.205  -2.012  -2.532  0.00  0.00     0.055 A 
ATOM      6  C5  BZF d   1      -0.338  -1.414  -1.673  0.00  0.00    -0.016 A 
ATOM      7  C6  BZF d   1      -0.682  -0.278  -0.969  0.00  0.00     0.022 A 
ATOM      8  C7  BZF d   1      -1.908   0.285  -1.097  0.00  0.00     0.029 A 
ATOM      9  C7A BZF d   1      -2.797  -0.337  -1.939  0.00  0.00     0.058 A 
ENDROOT
TORSDOF 0
ENDMDL
