MODEL 1
REMARK minimizedAffinity -4.71919298
REMARK minimizedRMSD -1
REMARK  0 active torsions:
REMARK  status: ('A' for Active; 'I' for Inactive)
ROOT
ATOM      1  O1  BZF d   1      -4.814  -0.099  -2.609  0.00  0.00    -0.204 OA
ATOM      2  C2  BZF d   1      -5.347  -0.960  -3.548  0.00  0.00     0.174 A 
ATOM      3  C3  BZF d   1      -4.462  -1.925  -3.870  0.00  0.00    -0.012 A 
ATOM      4  C3A BZF d   1      -3.336  -1.703  -3.014  0.00  0.00    -0.107 A 
ATOM      5  C4  BZF d   1      -2.142  -2.344  -2.850  0.00  0.00     0.055 A 
ATOM      6  C5  BZF d   1      -1.231  -1.830  -1.981  0.00  0.00    -0.016 A 
ATOM      7  C6  BZF d   1      -1.480  -0.677  -1.266  0.00  0.00     0.022 A 
ATOM      8  C7  BZF d   1      -2.652  -0.010  -1.392  0.00  0.00     0.029 A 
ATOM      9  C7A BZF d   1      -3.588  -0.544  -2.244  0.00  0.00     0.058 A 
ENDROOT
TORSDOF 0
ENDMDL
