MODEL 1
REMARK minimizedAffinity -4.78525066
REMARK minimizedRMSD -1
REMARK  0 active torsions:
REMARK  status: ('A' for Active; 'I' for Inactive)
ROOT
ATOM      1  O1  BZF d   1      -2.724  -0.604  -2.729  0.00  0.00    -0.204 OA
ATOM      2  C2  BZF d   1      -2.776   0.318  -1.701  0.00  0.00     0.174 A 
ATOM      3  C3  BZF d   1      -1.538   0.601  -1.249  0.00  0.00    -0.012 A 
ATOM      4  C3A BZF d   1      -0.650  -0.123  -2.105  0.00  0.00    -0.107 A 
ATOM      5  C4  BZF d   1       0.710  -0.234  -2.170  0.00  0.00     0.055 A 
ATOM      6  C5  BZF d   1       1.261  -1.081  -3.079  0.00  0.00    -0.016 A 
ATOM      7  C6  BZF d   1       0.484  -1.835  -3.933  0.00  0.00     0.022 A 
ATOM      8  C7  BZF d   1      -0.869  -1.756  -3.910  0.00  0.00     0.029 A 
ATOM      9  C7A BZF d   1      -1.428  -0.876  -3.015  0.00  0.00     0.058 A 
ENDROOT
TORSDOF 0
ENDMDL
