MODEL 1
REMARK minimizedAffinity 3.19817352
REMARK minimizedRMSD -1
REMARK  0 active torsions:
REMARK  status: ('A' for Active; 'I' for Inactive)
ROOT
ATOM      1  O1  BZF d   1      -0.281  -1.047  -0.965  0.00  0.00    -0.204 OA
ATOM      2  C2  BZF d   1      -0.167   0.171  -0.322  0.00  0.00     0.174 A 
ATOM      3  C3  BZF d   1       0.857   0.886  -0.830  0.00  0.00    -0.012 A 
ATOM      4  C3A BZF d   1       1.361   0.103  -1.916  0.00  0.00    -0.107 A 
ATOM      5  C4  BZF d   1       2.368   0.289  -2.820  0.00  0.00     0.055 A 
ATOM      6  C5  BZF d   1       2.650  -0.701  -3.707  0.00  0.00    -0.016 A 
ATOM      7  C6  BZF d   1       1.950  -1.890  -3.715  0.00  0.00     0.022 A 
ATOM      8  C7  BZF d   1       0.940  -2.118  -2.841  0.00  0.00     0.029 A 
ATOM      9  C7A BZF d   1       0.631  -1.107  -1.965  0.00  0.00     0.058 A 
ENDROOT
TORSDOF 0
ENDMDL
