MODEL 1
REMARK minimizedAffinity -4.95487976
REMARK minimizedRMSD -1
REMARK  0 active torsions:
REMARK  status: ('A' for Active; 'I' for Inactive)
ROOT
ATOM      1  O1  BZF d   1       0.782   0.384  -1.244  0.00  0.00    -0.204 OA
ATOM      2  C2  BZF d   1      -0.382  -0.042  -1.853  0.00  0.00     0.174 A 
ATOM      3  C3  BZF d   1      -1.292  -0.420  -0.932  0.00  0.00    -0.012 A 
ATOM      4  C3A BZF d   1      -0.690  -0.131   0.333  0.00  0.00    -0.107 A 
ATOM      5  C4  BZF d   1      -1.108  -0.271   1.626  0.00  0.00     0.055 A 
ATOM      6  C5  BZF d   1      -0.250   0.038   2.634  0.00  0.00    -0.016 A 
ATOM      7  C6  BZF d   1       1.032   0.483   2.386  0.00  0.00     0.022 A 
ATOM      8  C7  BZF d   1       1.490   0.642   1.121  0.00  0.00     0.029 A 
ATOM      9  C7A BZF d   1       0.614   0.363   0.100  0.00  0.00     0.058 A 
ENDROOT
TORSDOF 0
ENDMDL
