MODEL 1
REMARK minimizedAffinity -6.46201706
REMARK minimizedRMSD -1
REMARK  0 active torsions:
REMARK  status: ('A' for Active; 'I' for Inactive)
ROOT
ATOM      1  O1  BZF d   1       0.360   0.327   0.807  0.00  0.00    -0.204 OA
ATOM      2  C2  BZF d   1       0.408  -0.121   2.113  0.00  0.00     0.174 A 
ATOM      3  C3  BZF d   1      -0.797  -0.583   2.505  0.00  0.00    -0.012 A 
ATOM      4  C3A BZF d   1      -1.628  -0.500   1.344  0.00  0.00    -0.107 A 
ATOM      5  C4  BZF d   1      -2.930  -0.827   1.096  0.00  0.00     0.055 A 
ATOM      6  C5  BZF d   1      -3.459  -0.552  -0.126  0.00  0.00    -0.016 A 
ATOM      7  C6  BZF d   1      -2.717   0.052  -1.119  0.00  0.00     0.022 A 
ATOM      8  C7  BZF d   1      -1.420   0.391  -0.922  0.00  0.00     0.029 A 
ATOM      9  C7A BZF d   1      -0.873   0.085   0.301  0.00  0.00     0.058 A 
ENDROOT
TORSDOF 0
ENDMDL
