MODEL 1
REMARK minimizedAffinity -1.46387088
REMARK minimizedRMSD -1
REMARK  0 active torsions:
REMARK  status: ('A' for Active; 'I' for Inactive)
ROOT
ATOM      1  O1  BZF d   1      -1.450   0.273   2.399  0.00  0.00    -0.204 OA
ATOM      2  C2  BZF d   1      -0.560   0.218   3.455  0.00  0.00     0.174 A 
ATOM      3  C3  BZF d   1       0.713   0.280   3.011  0.00  0.00    -0.012 A 
ATOM      4  C3A BZF d   1       0.609   0.472   1.597  0.00  0.00    -0.107 A 
ATOM      5  C4  BZF d   1       1.531   0.624   0.601  0.00  0.00     0.055 A 
ATOM      6  C5  BZF d   1       1.103   0.719  -0.686  0.00  0.00    -0.016 A 
ATOM      7  C6  BZF d   1      -0.237   0.660  -1.011  0.00  0.00     0.022 A 
ATOM      8  C7  BZF d   1      -1.188   0.516  -0.057  0.00  0.00     0.029 A 
ATOM      9  C7A BZF d   1      -0.760   0.453   1.247  0.00  0.00     0.058 A 
ENDROOT
TORSDOF 0
ENDMDL
