MODEL 1
REMARK minimizedAffinity -4.58812904
REMARK minimizedRMSD -1
REMARK  0 active torsions:
REMARK  status: ('A' for Active; 'I' for Inactive)
ROOT
ATOM      1  O1  BZF d   1       0.003   0.387  -1.100  0.00  0.00    -0.204 OA
ATOM      2  C2  BZF d   1      -1.210  -0.099  -1.548  0.00  0.00     0.174 A 
ATOM      3  C3  BZF d   1      -2.023  -0.383  -0.510  0.00  0.00    -0.012 A 
ATOM      4  C3A BZF d   1      -1.305   0.032   0.656  0.00  0.00    -0.107 A 
ATOM      5  C4  BZF d   1      -1.596   0.023   1.990  0.00  0.00     0.055 A 
ATOM      6  C5  BZF d   1      -0.649   0.432   2.875  0.00  0.00    -0.016 A 
ATOM      7  C6  BZF d   1       0.599   0.850   2.461  0.00  0.00     0.022 A 
ATOM      8  C7  BZF d   1       0.932   0.882   1.148  0.00  0.00     0.029 A 
ATOM      9  C7A BZF d   1      -0.035   0.501   0.249  0.00  0.00     0.058 A 
ENDROOT
TORSDOF 0
ENDMDL
