MODEL 1
REMARK minimizedAffinity -5.7765379
REMARK minimizedRMSD -1
REMARK  0 active torsions:
REMARK  status: ('A' for Active; 'I' for Inactive)
ROOT
ATOM      1  O1  BZF d   1      -2.123  -0.488   1.881  0.00  0.00    -0.204 OA
ATOM      2  C2  BZF d   1      -1.293  -0.490   2.985  0.00  0.00     0.174 A 
ATOM      3  C3  BZF d   1      -0.036  -0.145   2.638  0.00  0.00    -0.012 A 
ATOM      4  C3A BZF d   1      -0.104   0.175   1.245  0.00  0.00    -0.107 A 
ATOM      5  C4  BZF d   1       0.819   0.601   0.334  0.00  0.00     0.055 A 
ATOM      6  C5  BZF d   1       0.445   0.752  -0.964  0.00  0.00    -0.016 A 
ATOM      7  C6  BZF d   1      -0.840   0.481  -1.385  0.00  0.00     0.022 A 
ATOM      8  C7  BZF d   1      -1.792   0.061  -0.517  0.00  0.00     0.029 A 
ATOM      9  C7A BZF d   1      -1.425  -0.061   0.801  0.00  0.00     0.058 A 
ENDROOT
TORSDOF 0
ENDMDL
