MODEL 1
REMARK minimizedAffinity 8.04569626
REMARK minimizedRMSD -1
REMARK  1 active torsions:
REMARK  status: ('A' for Active; 'I' for Inactive)
REMARK    1  A    between atoms: N_2  and  C1_3 
ROOT
ATOM      1  C1  UNL d   1      -3.130  -4.386  -4.237  0.00  0.00     0.143 A 
ATOM      2  C2  UNL d   1      -3.784  -5.259  -5.113  0.00  0.00    -0.057 A 
ATOM      3  C3  UNL d   1      -4.768  -4.799  -5.997  0.00  0.00     0.033 A 
ATOM      4  C4  UNL d   1      -5.136  -3.458  -6.000  0.00  0.00    -0.042 A 
ATOM      5  C5  UNL d   1      -4.517  -2.577  -5.120  0.00  0.00     0.033 A 
ATOM      6  C6  UNL d   1      -3.531  -3.041  -4.244  0.00  0.00    -0.057 A 
ENDROOT
BRANCH   1   7
ATOM      7  N   UNL d   1      -2.215  -4.800  -3.266  0.00  0.00    -0.732 N 
ATOM      8  C   UNL d   1      -2.643  -5.612  -2.147  0.00  0.00     0.284 C 
ATOM      9  H3  UNL d   1      -1.324  -5.083  -3.667  0.00  0.00     0.395 HD
ENDBRANCH   1   7
TORSDOF 1
ENDMDL
