MODEL 1
REMARK minimizedAffinity 6.03870058
REMARK minimizedRMSD -1
REMARK  1 active torsions:
REMARK  status: ('A' for Active; 'I' for Inactive)
REMARK    1  A    between atoms: N_2  and  C1_3 
ROOT
ATOM      1  C1  UNL d   1      -4.927  -1.106   2.593  0.00  0.00     0.143 A 
ATOM      2  C2  UNL d   1      -4.216  -1.510   3.728  0.00  0.00    -0.057 A 
ATOM      3  C3  UNL d   1      -3.106  -0.789   4.185  0.00  0.00     0.033 A 
ATOM      4  C4  UNL d   1      -2.668   0.336   3.495  0.00  0.00    -0.042 A 
ATOM      5  C5  UNL d   1      -3.344   0.742   2.349  0.00  0.00     0.033 A 
ATOM      6  C6  UNL d   1      -4.456   0.022   1.902  0.00  0.00    -0.057 A 
ENDROOT
BRANCH   1   7
ATOM      7  N   UNL d   1      -5.978  -1.835   2.032  0.00  0.00    -0.732 N 
ATOM      8  C   UNL d   1      -5.984  -3.281   2.090  0.00  0.00     0.284 C 
ATOM      9  H3  UNL d   1      -6.884  -1.408   2.208  0.00  0.00     0.395 HD
ENDBRANCH   1   7
TORSDOF 1
ENDMDL
