MODEL 1
REMARK minimizedAffinity 10.357379
REMARK minimizedRMSD -1
REMARK  1 active torsions:
REMARK  status: ('A' for Active; 'I' for Inactive)
REMARK    1  A    between atoms: N_2  and  C1_3 
ROOT
ATOM      1  C1  UNL d   1      -0.444   1.978   3.756  0.00  0.00     0.143 A 
ATOM      2  C2  UNL d   1      -0.663   2.808   4.861  0.00  0.00    -0.057 A 
ATOM      3  C3  UNL d   1       0.198   2.789   5.965  0.00  0.00     0.033 A 
ATOM      4  C4  UNL d   1       1.281   1.917   5.996  0.00  0.00    -0.042 A 
ATOM      5  C5  UNL d   1       1.504   1.065   4.920  0.00  0.00     0.033 A 
ATOM      6  C6  UNL d   1       0.644   1.093   3.817  0.00  0.00    -0.057 A 
ENDROOT
BRANCH   1   7
ATOM      7  N   UNL d   1      -1.319   1.879   2.672  0.00  0.00    -0.732 N 
ATOM      8  C   UNL d   1      -2.600   1.221   2.816  0.00  0.00     0.284 C 
ATOM      9  H3  UNL d   1      -1.350   2.732   2.118  0.00  0.00     0.395 HD
ENDBRANCH   1   7
TORSDOF 1
ENDMDL
