MODEL 1
REMARK minimizedAffinity 9.75070095
REMARK minimizedRMSD -1
REMARK  1 active torsions:
REMARK  status: ('A' for Active; 'I' for Inactive)
REMARK    1  A    between atoms: N_2  and  C1_3 
ROOT
ATOM      1  C1  UNL d   1      -1.385  -2.054  -3.176  0.00  0.00     0.143 A 
ATOM      2  C2  UNL d   1      -0.585  -3.083  -2.667  0.00  0.00    -0.057 A 
ATOM      3  C3  UNL d   1      -1.052  -4.402  -2.605  0.00  0.00     0.033 A 
ATOM      4  C4  UNL d   1      -2.341  -4.711  -3.025  0.00  0.00    -0.042 A 
ATOM      5  C5  UNL d   1      -3.163  -3.700  -3.511  0.00  0.00     0.033 A 
ATOM      6  C6  UNL d   1      -2.689  -2.386  -3.576  0.00  0.00    -0.057 A 
ENDROOT
BRANCH   1   7
ATOM      7  N   UNL d   1      -1.015  -0.707  -3.172  0.00  0.00    -0.732 N 
ATOM      8  C   UNL d   1      -2.021   0.334  -3.154  0.00  0.00     0.284 C 
ATOM      9  H3  UNL d   1      -0.218  -0.525  -2.567  0.00  0.00     0.395 HD
ENDBRANCH   1   7
TORSDOF 1
ENDMDL
