MODEL 1
REMARK minimizedAffinity 6.34555149
REMARK minimizedRMSD -1
REMARK  1 active torsions:
REMARK  status: ('A' for Active; 'I' for Inactive)
REMARK    1  A    between atoms: N_2  and  C1_3 
ROOT
ATOM      1  C1  UNL d   1      -3.779  -3.940  -4.435  0.00  0.00     0.143 A 
ATOM      2  C2  UNL d   1      -3.751  -4.896  -3.414  0.00  0.00    -0.057 A 
ATOM      3  C3  UNL d   1      -2.564  -5.202  -2.738  0.00  0.00     0.033 A 
ATOM      4  C4  UNL d   1      -1.374  -4.576  -3.092  0.00  0.00    -0.042 A 
ATOM      5  C5  UNL d   1      -1.372  -3.641  -4.120  0.00  0.00     0.033 A 
ATOM      6  C6  UNL d   1      -2.562  -3.334  -4.787  0.00  0.00    -0.057 A 
ENDROOT
BRANCH   1   7
ATOM      7  N   UNL d   1      -4.907  -3.663  -5.211  0.00  0.00    -0.732 N 
ATOM      8  C   UNL d   1      -5.546  -4.707  -5.981  0.00  0.00     0.284 C 
ATOM      9  H3  UNL d   1      -5.556  -3.035  -4.742  0.00  0.00     0.395 HD
ENDBRANCH   1   7
TORSDOF 1
ENDMDL
