MODEL 1
REMARK minimizedAffinity 3.59084058
REMARK minimizedRMSD -1
REMARK  1 active torsions:
REMARK  status: ('A' for Active; 'I' for Inactive)
REMARK    1  A    between atoms: N_2  and  C1_3 
ROOT
ATOM      1  C1  UNL d   1       3.607  -4.942  -1.115  0.00  0.00     0.143 A 
ATOM      2  C2  UNL d   1       3.743  -3.637  -0.630  0.00  0.00    -0.057 A 
ATOM      3  C3  UNL d   1       2.936  -2.597  -1.106  0.00  0.00     0.033 A 
ATOM      4  C4  UNL d   1       1.995  -2.839  -2.101  0.00  0.00    -0.042 A 
ATOM      5  C5  UNL d   1       1.859  -4.123  -2.617  0.00  0.00     0.033 A 
ATOM      6  C6  UNL d   1       2.663  -5.159  -2.132  0.00  0.00    -0.057 A 
ENDROOT
BRANCH   1   7
ATOM      7  N   UNL d   1       4.445  -5.999  -0.753  0.00  0.00    -0.732 N 
ATOM      8  C   UNL d   1       5.842  -5.995  -1.132  0.00  0.00     0.284 C 
ATOM      9  H3  UNL d   1       4.273  -6.324   0.196  0.00  0.00     0.395 HD
ENDBRANCH   1   7
TORSDOF 1
ENDMDL
