MODEL 1
REMARK minimizedAffinity 8.4089241
REMARK minimizedRMSD -1
REMARK  1 active torsions:
REMARK  status: ('A' for Active; 'I' for Inactive)
REMARK    1  A    between atoms: N_2  and  C1_3 
ROOT
ATOM      1  C1  UNL d   1      -1.814   3.969  -5.714  0.00  0.00     0.143 A 
ATOM      2  C2  UNL d   1      -1.914   5.364  -5.747  0.00  0.00    -0.057 A 
ATOM      3  C3  UNL d   1      -3.156   5.999  -5.874  0.00  0.00     0.033 A 
ATOM      4  C4  UNL d   1      -4.319   5.248  -6.000  0.00  0.00    -0.042 A 
ATOM      5  C5  UNL d   1      -4.240   3.860  -5.995  0.00  0.00     0.033 A 
ATOM      6  C6  UNL d   1      -2.998   3.231  -5.861  0.00  0.00    -0.057 A 
ENDROOT
BRANCH   1   7
ATOM      7  N   UNL d   1      -0.600   3.277  -5.689  0.00  0.00    -0.732 N 
ATOM      8  C   UNL d   1      -0.141   2.637  -4.475  0.00  0.00     0.284 C 
ATOM      9  H3  UNL d   1      -0.449   2.727  -6.532  0.00  0.00     0.395 HD
ENDBRANCH   1   7
TORSDOF 1
ENDMDL
