MODEL 1
REMARK minimizedAffinity 10.5622358
REMARK minimizedRMSD -1
REMARK  1 active torsions:
REMARK  status: ('A' for Active; 'I' for Inactive)
REMARK    1  A    between atoms: N_2  and  C1_3 
ROOT
ATOM      1  C1  UNL d   1      -1.220   5.156  -4.103  0.00  0.00     0.143 A 
ATOM      2  C2  UNL d   1      -1.533   3.793  -4.143  0.00  0.00    -0.057 A 
ATOM      3  C3  UNL d   1      -2.428   3.281  -5.090  0.00  0.00     0.033 A 
ATOM      4  C4  UNL d   1      -3.050   4.131  -5.999  0.00  0.00    -0.042 A 
ATOM      5  C5  UNL d   1      -2.772   5.493  -5.962  0.00  0.00     0.033 A 
ATOM      6  C6  UNL d   1      -1.873   5.997  -5.017  0.00  0.00    -0.057 A 
ENDROOT
BRANCH   1   7
ATOM      7  N   UNL d   1      -0.414   5.741  -3.123  0.00  0.00    -0.732 N 
ATOM      8  C   UNL d   1       0.444   4.925  -2.291  0.00  0.00     0.284 C 
ATOM      9  H3  UNL d   1       0.015   6.608  -3.438  0.00  0.00     0.395 HD
ENDBRANCH   1   7
TORSDOF 1
ENDMDL
