MODEL 1
REMARK minimizedAffinity 18.5266457
REMARK minimizedRMSD -1
REMARK  1 active torsions:
REMARK  status: ('A' for Active; 'I' for Inactive)
REMARK    1  A    between atoms: N_2  and  C1_3 
ROOT
ATOM      1  C1  UNL d   1      -2.208  -4.900  -2.150  0.00  0.00     0.143 A 
ATOM      2  C2  UNL d   1      -3.182  -4.248  -2.915  0.00  0.00    -0.057 A 
ATOM      3  C3  UNL d   1      -2.846  -3.193  -3.772  0.00  0.00     0.033 A 
ATOM      4  C4  UNL d   1      -1.530  -2.751  -3.858  0.00  0.00    -0.042 A 
ATOM      5  C5  UNL d   1      -0.550  -3.367  -3.088  0.00  0.00     0.033 A 
ATOM      6  C6  UNL d   1      -0.890  -4.425  -2.238  0.00  0.00    -0.057 A 
ENDROOT
BRANCH   1   7
ATOM      7  N   UNL d   1      -2.495  -5.889  -1.206  0.00  0.00    -0.732 N 
ATOM      8  C   UNL d   1      -3.095  -5.544   0.065  0.00  0.00     0.284 C 
ATOM      9  H3  UNL d   1      -2.874  -6.732  -1.630  0.00  0.00     0.395 HD
ENDBRANCH   1   7
TORSDOF 1
ENDMDL
