MODEL 1
REMARK minimizedAffinity 16.5793304
REMARK minimizedRMSD -1
REMARK  1 active torsions:
REMARK  status: ('A' for Active; 'I' for Inactive)
REMARK    1  A    between atoms: N_2  and  C1_3 
ROOT
ATOM      1  C1  UNL d   1      -2.686  -3.634  -3.722  0.00  0.00     0.143 A 
ATOM      2  C2  UNL d   1      -3.012  -4.709  -2.888  0.00  0.00    -0.057 A 
ATOM      3  C3  UNL d   1      -2.066  -5.271  -2.024  0.00  0.00     0.033 A 
ATOM      4  C4  UNL d   1      -0.763  -4.785  -1.998  0.00  0.00    -0.042 A 
ATOM      5  C5  UNL d   1      -0.409  -3.733  -2.836  0.00  0.00     0.033 A 
ATOM      6  C6  UNL d   1      -1.361  -3.172  -3.693  0.00  0.00    -0.057 A 
ENDROOT
BRANCH   1   7
ATOM      7  N   UNL d   1      -3.555  -3.096  -4.674  0.00  0.00    -0.732 N 
ATOM      8  C   UNL d   1      -4.788  -3.773  -5.012  0.00  0.00     0.284 C 
ATOM      9  H3  UNL d   1      -3.644  -2.085  -4.592  0.00  0.00     0.395 HD
ENDBRANCH   1   7
TORSDOF 1
ENDMDL
