MODEL 1
REMARK minimizedAffinity 11.1443653
REMARK minimizedRMSD -1
REMARK  1 active torsions:
REMARK  status: ('A' for Active; 'I' for Inactive)
REMARK    1  A    between atoms: N_2  and  C1_3 
ROOT
ATOM      1  C1  UNL d   1      -2.438   0.336   2.764  0.00  0.00     0.143 A 
ATOM      2  C2  UNL d   1      -1.995   1.605   2.376  0.00  0.00    -0.057 A 
ATOM      3  C3  UNL d   1      -0.638   1.947   2.427  0.00  0.00     0.033 A 
ATOM      4  C4  UNL d   1       0.299   1.032   2.896  0.00  0.00    -0.042 A 
ATOM      5  C5  UNL d   1      -0.122  -0.226   3.311  0.00  0.00     0.033 A 
ATOM      6  C6  UNL d   1      -1.478  -0.564   3.251  0.00  0.00    -0.057 A 
ENDROOT
BRANCH   1   7
ATOM      7  N   UNL d   1      -3.784  -0.031   2.829  0.00  0.00    -0.732 N 
ATOM      8  C   UNL d   1      -4.163  -1.418   2.999  0.00  0.00     0.284 C 
ATOM      9  H3  UNL d   1      -4.339   0.621   3.378  0.00  0.00     0.395 HD
ENDBRANCH   1   7
TORSDOF 1
ENDMDL
