MODEL 1
REMARK minimizedAffinity 10.46838
REMARK minimizedRMSD -1
REMARK  1 active torsions:
REMARK  status: ('A' for Active; 'I' for Inactive)
REMARK    1  A    between atoms: N_2  and  C1_3 
ROOT
ATOM      1  C1  UNL d   1      -4.058  -0.560   1.852  0.00  0.00     0.143 A 
ATOM      2  C2  UNL d   1      -2.745  -0.703   1.391  0.00  0.00    -0.057 A 
ATOM      3  C3  UNL d   1      -1.694   0.032   1.953  0.00  0.00     0.033 A 
ATOM      4  C4  UNL d   1      -1.944   0.947   2.971  0.00  0.00    -0.042 A 
ATOM      5  C5  UNL d   1      -3.246   1.123   3.428  0.00  0.00     0.033 A 
ATOM      6  C6  UNL d   1      -4.289   0.382   2.867  0.00  0.00    -0.057 A 
ENDROOT
BRANCH   1   7
ATOM      7  N   UNL d   1      -5.160  -1.190   1.268  0.00  0.00    -0.732 N 
ATOM      8  C   UNL d   1      -5.719  -2.390   1.852  0.00  0.00     0.284 C 
ATOM      9  H3  UNL d   1      -5.856  -0.526   0.937  0.00  0.00     0.395 HD
ENDBRANCH   1   7
TORSDOF 1
ENDMDL
