MODEL 1
REMARK minimizedAffinity 11.7635574
REMARK minimizedRMSD -1
REMARK  1 active torsions:
REMARK  status: ('A' for Active; 'I' for Inactive)
REMARK    1  A    between atoms: N_2  and  C1_3 
ROOT
ATOM      1  C1  UNL d   1      -2.832   1.663   5.408  0.00  0.00     0.143 A 
ATOM      2  C2  UNL d   1      -3.756   2.532   6.000  0.00  0.00    -0.057 A 
ATOM      3  C3  UNL d   1      -4.913   2.933   5.322  0.00  0.00     0.033 A 
ATOM      4  C4  UNL d   1      -5.154   2.494   4.024  0.00  0.00    -0.042 A 
ATOM      5  C5  UNL d   1      -4.237   1.650   3.407  0.00  0.00     0.033 A 
ATOM      6  C6  UNL d   1      -3.087   1.248   4.091  0.00  0.00    -0.057 A 
ENDROOT
BRANCH   1   7
ATOM      7  N   UNL d   1      -1.615   1.306   5.993  0.00  0.00    -0.732 N 
ATOM      8  C   UNL d   1      -0.502   2.231   6.000  0.00  0.00     0.284 C 
ATOM      9  H3  UNL d   1      -1.737   0.796   6.864  0.00  0.00     0.395 HD
ENDBRANCH   1   7
TORSDOF 1
ENDMDL
