MODEL 1
REMARK minimizedAffinity 14.9623432
REMARK minimizedRMSD -1
REMARK  1 active torsions:
REMARK  status: ('A' for Active; 'I' for Inactive)
REMARK    1  A    between atoms: N_2  and  C1_3 
ROOT
ATOM      1  C1  UNL d   1      -3.554  -1.619   2.252  0.00  0.00     0.143 A 
ATOM      2  C2  UNL d   1      -3.030  -0.377   1.879  0.00  0.00    -0.057 A 
ATOM      3  C3  UNL d   1      -1.657  -0.113   1.961  0.00  0.00     0.033 A 
ATOM      4  C4  UNL d   1      -0.785  -1.082   2.447  0.00  0.00    -0.042 A 
ATOM      5  C5  UNL d   1      -1.286  -2.315   2.847  0.00  0.00     0.033 A 
ATOM      6  C6  UNL d   1      -2.657  -2.574   2.756  0.00  0.00    -0.057 A 
ENDROOT
BRANCH   1   7
ATOM      7  N   UNL d   1      -4.920  -1.909   2.287  0.00  0.00    -0.732 N 
ATOM      8  C   UNL d   1      -5.502  -2.832   1.337  0.00  0.00     0.284 C 
ATOM      9  H3  UNL d   1      -5.271  -2.012   3.236  0.00  0.00     0.395 HD
ENDBRANCH   1   7
TORSDOF 1
ENDMDL
