MODEL 1
REMARK minimizedAffinity 6.19887447
REMARK minimizedRMSD -1
REMARK  1 active torsions:
REMARK  status: ('A' for Active; 'I' for Inactive)
REMARK    1  A    between atoms: N_2  and  C1_3 
ROOT
ATOM      1  C1  UNL d   1      -3.800   1.579   3.976  0.00  0.00     0.143 A 
ATOM      2  C2  UNL d   1      -4.170   0.744   5.036  0.00  0.00    -0.057 A 
ATOM      3  C3  UNL d   1      -3.238   0.338   6.000  0.00  0.00     0.033 A 
ATOM      4  C4  UNL d   1      -1.910   0.739   5.904  0.00  0.00    -0.042 A 
ATOM      5  C5  UNL d   1      -1.515   1.549   4.845  0.00  0.00     0.033 A 
ATOM      6  C6  UNL d   1      -2.451   1.956   3.889  0.00  0.00    -0.057 A 
ENDROOT
BRANCH   1   7
ATOM      7  N   UNL d   1      -4.657   1.936   2.933  0.00  0.00    -0.732 N 
ATOM      8  C   UNL d   1      -4.176   1.991   1.569  0.00  0.00     0.284 C 
ATOM      9  H3  UNL d   1      -5.582   1.523   3.031  0.00  0.00     0.395 HD
ENDBRANCH   1   7
TORSDOF 1
ENDMDL
