MODEL 1
REMARK minimizedAffinity 3.89810038
REMARK minimizedRMSD -1
REMARK  1 active torsions:
REMARK  status: ('A' for Active; 'I' for Inactive)
REMARK    1  A    between atoms: N_2  and  C1_3 
ROOT
ATOM      1  C1  UNL d   1       1.559   4.526  -1.421  0.00  0.00     0.143 A 
ATOM      2  C2  UNL d   1       1.402   3.473  -2.329  0.00  0.00    -0.057 A 
ATOM      3  C3  UNL d   1       1.005   2.200  -1.903  0.00  0.00     0.033 A 
ATOM      4  C4  UNL d   1       0.784   1.949  -0.553  0.00  0.00    -0.042 A 
ATOM      5  C5  UNL d   1       0.957   2.974   0.370  0.00  0.00     0.033 A 
ATOM      6  C6  UNL d   1       1.348   4.245  -0.062  0.00  0.00    -0.057 A 
ENDROOT
BRANCH   1   7
ATOM      7  N   UNL d   1       2.047   5.787  -1.770  0.00  0.00    -0.732 N 
ATOM      8  C   UNL d   1       3.464   5.999  -1.974  0.00  0.00     0.284 C 
ATOM      9  H3  UNL d   1       1.454   6.259  -2.449  0.00  0.00     0.395 HD
ENDBRANCH   1   7
TORSDOF 1
ENDMDL
