MODEL 1
REMARK minimizedAffinity 14.104353
REMARK minimizedRMSD -1
REMARK  0 active torsions:
REMARK  status: ('A' for Active; 'I' for Inactive)
ROOT
ATOM      1  C2' OXE d   1       0.352   1.393   5.994  0.00  0.00     0.078 C 
ATOM      2  C1' OXE d   1      -0.080   1.178   3.229  0.00  0.00     0.078 C 
ATOM      3  C1  OXE d   1       0.528  -0.005   3.940  0.00  0.00    -0.078 A 
ATOM      4  C2  OXE d   1       0.779   0.126   5.284  0.00  0.00    -0.078 A 
ATOM      5  C3  OXE d   1       1.288  -0.954   5.999  0.00  0.00     0.003 A 
ATOM      6  C4  OXE d   1       1.689  -2.119   5.334  0.00  0.00    -0.002 A 
ATOM      7  C5  OXE d   1       1.479  -2.258   3.958  0.00  0.00    -0.002 A 
ATOM      8  C6  OXE d   1       0.862  -1.229   3.255  0.00  0.00     0.003 A 
ENDROOT
TORSDOF 0
ENDMDL
