MODEL 1
REMARK minimizedAffinity 4.62170696
REMARK minimizedRMSD -1
REMARK  0 active torsions:
REMARK  status: ('A' for Active; 'I' for Inactive)
ROOT
ATOM      1  C2' OXE d   1       1.005   0.402  -5.999  0.00  0.00     0.078 C 
ATOM      2  C1' OXE d   1      -0.878  -1.679  -5.925  0.00  0.00     0.078 C 
ATOM      3  C1  OXE d   1      -1.041  -0.547  -4.942  0.00  0.00    -0.078 A 
ATOM      4  C2  OXE d   1      -0.089   0.443  -4.954  0.00  0.00    -0.078 A 
ATOM      5  C3  OXE d   1      -0.222   1.538  -4.105  0.00  0.00     0.003 A 
ATOM      6  C4  OXE d   1      -1.231   1.564  -3.134  0.00  0.00    -0.002 A 
ATOM      7  C5  OXE d   1      -2.188   0.546  -3.078  0.00  0.00    -0.002 A 
ATOM      8  C6  OXE d   1      -2.133  -0.493  -4.001  0.00  0.00     0.003 A 
ENDROOT
TORSDOF 0
ENDMDL
