MODEL 1
REMARK minimizedAffinity -2.90241194
REMARK minimizedRMSD -1
REMARK  0 active torsions:
REMARK  status: ('A' for Active; 'I' for Inactive)
ROOT
ATOM      1  C2' OXE d   1       1.582  -2.265  -1.832  0.00  0.00     0.078 C 
ATOM      2  C1' OXE d   1      -0.297  -4.123  -2.779  0.00  0.00     0.078 C 
ATOM      3  C1  OXE d   1      -0.268  -2.761  -3.425  0.00  0.00    -0.078 A 
ATOM      4  C2  OXE d   1       0.623  -1.842  -2.924  0.00  0.00    -0.078 A 
ATOM      5  C3  OXE d   1       0.729  -0.589  -3.520  0.00  0.00     0.003 A 
ATOM      6  C4  OXE d   1      -0.169  -0.202  -4.522  0.00  0.00    -0.002 A 
ATOM      7  C5  OXE d   1      -1.111  -1.109  -5.019  0.00  0.00    -0.002 A 
ATOM      8  C6  OXE d   1      -1.145  -2.403  -4.512  0.00  0.00     0.003 A 
ENDROOT
TORSDOF 0
ENDMDL
