MODEL 1
REMARK minimizedAffinity 7.6626339
REMARK minimizedRMSD -1
REMARK  0 active torsions:
REMARK  status: ('A' for Active; 'I' for Inactive)
ROOT
ATOM      1  C2' OXE d   1       0.622  -0.759   2.611  0.00  0.00     0.078 C 
ATOM      2  C1' OXE d   1      -0.263  -2.985   4.074  0.00  0.00     0.078 C 
ATOM      3  C1  OXE d   1       1.009  -2.309   4.522  0.00  0.00    -0.078 A 
ATOM      4  C2  OXE d   1       1.459  -1.249   3.773  0.00  0.00    -0.078 A 
ATOM      5  C3  OXE d   1       2.597  -0.555   4.174  0.00  0.00     0.003 A 
ATOM      6  C4  OXE d   1       3.372  -1.021   5.243  0.00  0.00    -0.002 A 
ATOM      7  C5  OXE d   1       2.952  -2.123   5.996  0.00  0.00    -0.002 A 
ATOM      8  C6  OXE d   1       1.753  -2.751   5.676  0.00  0.00     0.003 A 
ENDROOT
TORSDOF 0
ENDMDL
