MODEL 1
REMARK minimizedAffinity -2.33240652
REMARK minimizedRMSD -1
REMARK  0 active torsions:
REMARK  status: ('A' for Active; 'I' for Inactive)
ROOT
ATOM      1  C2' OXE d   1      -0.811   0.034  -4.186  0.00  0.00     0.078 C 
ATOM      2  C1' OXE d   1      -1.846  -1.359  -1.980  0.00  0.00     0.078 C 
ATOM      3  C1  OXE d   1      -0.355  -1.406  -2.205  0.00  0.00    -0.078 A 
ATOM      4  C2  OXE d   1       0.137  -0.761  -3.314  0.00  0.00    -0.078 A 
ATOM      5  C3  OXE d   1       1.510  -0.727  -3.539  0.00  0.00     0.003 A 
ATOM      6  C4  OXE d   1       2.379  -1.473  -2.733  0.00  0.00    -0.002 A 
ATOM      7  C5  OXE d   1       1.894  -2.170  -1.622  0.00  0.00    -0.002 A 
ATOM      8  C6  OXE d   1       0.538  -2.112  -1.320  0.00  0.00     0.003 A 
ENDROOT
TORSDOF 0
ENDMDL
