MODEL 1
REMARK minimizedAffinity 3.91346598
REMARK minimizedRMSD -1
REMARK  0 active torsions:
REMARK  status: ('A' for Active; 'I' for Inactive)
ROOT
ATOM      1  C2' OXE d   1      -2.020  -1.512   2.157  0.00  0.00     0.078 C 
ATOM      2  C1' OXE d   1      -0.364   0.754   2.238  0.00  0.00     0.078 C 
ATOM      3  C1  OXE d   1       0.129  -0.502   2.913  0.00  0.00    -0.078 A 
ATOM      4  C2  OXE d   1      -0.708  -1.591   2.909  0.00  0.00    -0.078 A 
ATOM      5  C3  OXE d   1      -0.280  -2.791   3.470  0.00  0.00     0.003 A 
ATOM      6  C4  OXE d   1       0.929  -2.854   4.172  0.00  0.00    -0.002 A 
ATOM      7  C5  OXE d   1       1.779  -1.744   4.222  0.00  0.00    -0.002 A 
ATOM      8  C6  OXE d   1       1.414  -0.575   3.563  0.00  0.00     0.003 A 
ENDROOT
TORSDOF 0
ENDMDL
