MODEL 1
REMARK minimizedAffinity 10.0576715
REMARK minimizedRMSD -1
REMARK  0 active torsions:
REMARK  status: ('A' for Active; 'I' for Inactive)
ROOT
ATOM      1  C2' OXE d   1      -0.563   1.907   2.074  0.00  0.00     0.078 C 
ATOM      2  C1' OXE d   1       0.719  -0.432   2.949  0.00  0.00     0.078 C 
ATOM      3  C1  OXE d   1      -0.688  -0.557   2.420  0.00  0.00    -0.078 A 
ATOM      4  C2  OXE d   1      -1.324   0.599   2.038  0.00  0.00    -0.078 A 
ATOM      5  C3  OXE d   1      -2.603   0.534   1.491  0.00  0.00     0.003 A 
ATOM      6  C4  OXE d   1      -3.304  -0.678   1.471  0.00  0.00    -0.002 A 
ATOM      7  C5  OXE d   1      -2.688  -1.861   1.892  0.00  0.00    -0.002 A 
ATOM      8  C6  OXE d   1      -1.369  -1.825   2.329  0.00  0.00     0.003 A 
ENDROOT
TORSDOF 0
ENDMDL
