MODEL 1
REMARK minimizedAffinity 6.93551826
REMARK minimizedRMSD -1
REMARK  0 active torsions:
REMARK  status: ('A' for Active; 'I' for Inactive)
ROOT
ATOM      1  C2' OXE d   1       3.531   0.025   1.313  0.00  0.00     0.078 C 
ATOM      2  C1' OXE d   1       1.188  -0.727   2.665  0.00  0.00     0.078 C 
ATOM      3  C1  OXE d   1       1.245   0.659   2.073  0.00  0.00    -0.078 A 
ATOM      4  C2  OXE d   1       2.413   1.035   1.454  0.00  0.00    -0.078 A 
ATOM      5  C3  OXE d   1       2.499   2.283   0.843  0.00  0.00     0.003 A 
ATOM      6  C4  OXE d   1       1.464   3.215   0.987  0.00  0.00    -0.002 A 
ATOM      7  C5  OXE d   1       0.281   2.867   1.648  0.00  0.00    -0.002 A 
ATOM      8  C6  OXE d   1       0.140   1.581   2.159  0.00  0.00     0.003 A 
ENDROOT
TORSDOF 0
ENDMDL
