MODEL 1
REMARK minimizedAffinity 3.27320695
REMARK minimizedRMSD -1
REMARK  0 active torsions:
REMARK  status: ('A' for Active; 'I' for Inactive)
ROOT
ATOM      1  C2' OXE d   1       1.601  -2.396  -1.521  0.00  0.00     0.078 C 
ATOM      2  C1' OXE d   1      -1.129  -3.010  -1.301  0.00  0.00     0.078 C 
ATOM      3  C1  OXE d   1      -0.251  -3.970  -2.064  0.00  0.00    -0.078 A 
ATOM      4  C2  OXE d   1       1.075  -3.638  -2.206  0.00  0.00    -0.078 A 
ATOM      5  C3  OXE d   1       1.940  -4.516  -2.854  0.00  0.00     0.003 A 
ATOM      6  C4  OXE d   1       1.443  -5.658  -3.494  0.00  0.00    -0.002 A 
ATOM      7  C5  OXE d   1       0.088  -5.994  -3.395  0.00  0.00    -0.002 A 
ATOM      8  C6  OXE d   1      -0.762  -5.185  -2.649  0.00  0.00     0.003 A 
ENDROOT
TORSDOF 0
ENDMDL
