MODEL 1
REMARK minimizedAffinity 5.41367817
REMARK minimizedRMSD -1
REMARK  0 active torsions:
REMARK  status: ('A' for Active; 'I' for Inactive)
ROOT
ATOM      1  C   UNL d   1      -3.441  -0.393  -3.412  0.00  0.00     0.078 C 
ATOM      2  C1  UNL d   1      -2.887  -1.562  -2.652  0.00  0.00    -0.077 A 
ATOM      3  C2  UNL d   1      -2.778  -1.528  -1.257  0.00  0.00    -0.001 A 
ATOM      4  C3  UNL d   1      -2.251  -2.619  -0.564  0.00  0.00     0.003 A 
ATOM      5  C4  UNL d   1      -1.828  -3.751  -1.258  0.00  0.00    -0.005 A 
ATOM      6  C5  UNL d   1      -1.931  -3.793  -2.647  0.00  0.00     0.003 A 
ATOM      7  C6  UNL d   1      -2.457  -2.703  -3.341  0.00  0.00    -0.001 A 
ENDROOT
TORSDOF 0
ENDMDL
