MODEL 1
REMARK minimizedAffinity 4.511724
REMARK minimizedRMSD -1
REMARK  0 active torsions:
REMARK  status: ('A' for Active; 'I' for Inactive)
ROOT
ATOM      1  C   UNL d   1      -3.899  -0.277  -1.173  0.00  0.00     0.078 C 
ATOM      2  C1  UNL d   1      -2.731  -0.014  -0.270  0.00  0.00    -0.077 A 
ATOM      3  C2  UNL d   1      -2.278  -0.992   0.624  0.00  0.00    -0.001 A 
ATOM      4  C3  UNL d   1      -1.195  -0.730   1.466  0.00  0.00     0.003 A 
ATOM      5  C4  UNL d   1      -0.558   0.508   1.423  0.00  0.00    -0.005 A 
ATOM      6  C5  UNL d   1      -1.004   1.488   0.538  0.00  0.00     0.003 A 
ATOM      7  C6  UNL d   1      -2.086   1.228  -0.305  0.00  0.00    -0.001 A 
ENDROOT
TORSDOF 0
ENDMDL
