MODEL 1
REMARK minimizedAffinity 9.30369663
REMARK minimizedRMSD -1
REMARK  0 active torsions:
REMARK  status: ('A' for Active; 'I' for Inactive)
ROOT
ATOM      1  C   UNL d   1      -1.120   1.846   0.379  0.00  0.00     0.078 C 
ATOM      2  C1  UNL d   1      -0.729   3.293   0.353  0.00  0.00    -0.077 A 
ATOM      3  C2  UNL d   1      -1.463   4.252   1.062  0.00  0.00    -0.001 A 
ATOM      4  C3  UNL d   1      -1.093   5.597   1.022  0.00  0.00     0.003 A 
ATOM      5  C4  UNL d   1       0.013   5.996   0.272  0.00  0.00    -0.005 A 
ATOM      6  C5  UNL d   1       0.748   5.049  -0.438  0.00  0.00     0.003 A 
ATOM      7  C6  UNL d   1       0.379   3.704  -0.399  0.00  0.00    -0.001 A 
ENDROOT
TORSDOF 0
ENDMDL
