MODEL 1
REMARK minimizedAffinity 0.516530454
REMARK minimizedRMSD -1
REMARK  0 active torsions:
REMARK  status: ('A' for Active; 'I' for Inactive)
ROOT
ATOM      1  C   UNL d   1       0.425  -4.690  -2.602  0.00  0.00     0.078 C 
ATOM      2  C1  UNL d   1      -0.775  -4.423  -1.744  0.00  0.00    -0.077 A 
ATOM      3  C2  UNL d   1      -1.267  -3.123  -1.577  0.00  0.00    -0.001 A 
ATOM      4  C3  UNL d   1      -2.379  -2.888  -0.767  0.00  0.00     0.003 A 
ATOM      5  C4  UNL d   1      -3.008  -3.948  -0.116  0.00  0.00    -0.005 A 
ATOM      6  C5  UNL d   1      -2.524  -5.245  -0.275  0.00  0.00     0.003 A 
ATOM      7  C6  UNL d   1      -1.412  -5.482  -1.084  0.00  0.00    -0.001 A 
ENDROOT
TORSDOF 0
ENDMDL
