MODEL 1
REMARK minimizedAffinity -0.380576491
REMARK minimizedRMSD -1
REMARK  0 active torsions:
REMARK  status: ('A' for Active; 'I' for Inactive)
ROOT
ATOM      1  C   UNL d   1      -4.041  -0.968  -0.856  0.00  0.00     0.078 C 
ATOM      2  C1  UNL d   1      -2.860  -0.546  -0.034  0.00  0.00    -0.077 A 
ATOM      3  C2  UNL d   1      -2.084  -1.489   0.650  0.00  0.00    -0.001 A 
ATOM      4  C3  UNL d   1      -0.993  -1.082   1.419  0.00  0.00     0.003 A 
ATOM      5  C4  UNL d   1      -0.669   0.270   1.513  0.00  0.00    -0.005 A 
ATOM      6  C5  UNL d   1      -1.437   1.217   0.837  0.00  0.00     0.003 A 
ATOM      7  C6  UNL d   1      -2.529   0.811   0.068  0.00  0.00    -0.001 A 
ENDROOT
TORSDOF 0
ENDMDL
