MODEL 1
REMARK minimizedAffinity -1.25234425
REMARK minimizedRMSD -1
REMARK  0 active torsions:
REMARK  status: ('A' for Active; 'I' for Inactive)
ROOT
ATOM      1  C   UNL d   1       5.982   2.753  -4.208  0.00  0.00     0.078 C 
ATOM      2  C1  UNL d   1       5.315   3.341  -3.000  0.00  0.00    -0.077 A 
ATOM      3  C2  UNL d   1       4.005   2.987  -2.655  0.00  0.00    -0.001 A 
ATOM      4  C3  UNL d   1       3.393   3.550  -1.534  0.00  0.00     0.003 A 
ATOM      5  C4  UNL d   1       4.084   4.472  -0.750  0.00  0.00    -0.005 A 
ATOM      6  C5  UNL d   1       5.387   4.832  -1.086  0.00  0.00     0.003 A 
ATOM      7  C6  UNL d   1       6.000   4.270  -2.207  0.00  0.00    -0.001 A 
ENDROOT
TORSDOF 0
ENDMDL
