MODEL 1
REMARK minimizedAffinity 1.60919344
REMARK minimizedRMSD -1
REMARK  0 active torsions:
REMARK  status: ('A' for Active; 'I' for Inactive)
ROOT
ATOM      1  C   UNL d   1       2.953   2.609   3.786  0.00  0.00     0.078 C 
ATOM      2  C1  UNL d   1       2.563   1.179   3.558  0.00  0.00    -0.077 A 
ATOM      3  C2  UNL d   1       2.140   0.369   4.620  0.00  0.00    -0.001 A 
ATOM      4  C3  UNL d   1       1.789  -0.963   4.395  0.00  0.00     0.003 A 
ATOM      5  C4  UNL d   1       1.860  -1.498   3.111  0.00  0.00    -0.005 A 
ATOM      6  C5  UNL d   1       2.283  -0.701   2.049  0.00  0.00     0.003 A 
ATOM      7  C6  UNL d   1       2.634   0.631   2.271  0.00  0.00    -0.001 A 
ENDROOT
TORSDOF 0
ENDMDL
