MODEL 1
REMARK minimizedAffinity 0.419472873
REMARK minimizedRMSD -1
REMARK  0 active torsions:
REMARK  status: ('A' for Active; 'I' for Inactive)
ROOT
ATOM      1  C   UNL d   1       1.465  -2.830   3.560  0.00  0.00     0.078 C 
ATOM      2  C1  UNL d   1       1.261  -1.715   2.578  0.00  0.00    -0.077 A 
ATOM      3  C2  UNL d   1       0.442  -1.883   1.455  0.00  0.00    -0.001 A 
ATOM      4  C3  UNL d   1       0.269  -0.840   0.545  0.00  0.00     0.003 A 
ATOM      5  C4  UNL d   1       0.913   0.380   0.747  0.00  0.00    -0.005 A 
ATOM      6  C5  UNL d   1       1.732   0.556   1.861  0.00  0.00     0.003 A 
ATOM      7  C6  UNL d   1       1.906  -0.487   2.772  0.00  0.00    -0.001 A 
ENDROOT
TORSDOF 0
ENDMDL
