MODEL 1
REMARK minimizedAffinity -1.54652822
REMARK minimizedRMSD -1
REMARK  1 active torsions:
REMARK  status: ('A' for Active; 'I' for Inactive)
REMARK    1  A    between atoms: N_2  and  C1_3 
ROOT
ATOM      1  C1  UNL d   1       0.247  -0.346   0.123  0.00  0.00     0.143 A 
ATOM      2  C2  UNL d   1      -0.049  -1.138   1.238  0.00  0.00    -0.057 A 
ATOM      3  C3  UNL d   1      -0.771  -0.624   2.323  0.00  0.00     0.033 A 
ATOM      4  C4  UNL d   1      -1.186   0.704   2.323  0.00  0.00    -0.042 A 
ATOM      5  C5  UNL d   1      -0.882   1.516   1.236  0.00  0.00     0.033 A 
ATOM      6  C6  UNL d   1      -0.166   0.995   0.154  0.00  0.00    -0.057 A 
ENDROOT
BRANCH   1   7
ATOM      7  N   UNL d   1       1.045  -0.770  -0.942  0.00  0.00    -0.732 N 
ATOM      8  C   UNL d   1       0.588  -1.811  -1.837  0.00  0.00     0.284 C 
ATOM      9  H3  UNL d   1       1.513   0.004  -1.408  0.00  0.00     0.395 HD
ENDBRANCH   1   7
TORSDOF 1
ENDMDL
