MODEL 1
REMARK minimizedAffinity -5.61646795
REMARK minimizedRMSD -1
REMARK  1 active torsions:
REMARK  status: ('A' for Active; 'I' for Inactive)
REMARK    1  A    between atoms: N_2  and  C1_3 
ROOT
ATOM      1  C1  UNL d   1      -0.334   0.941   0.060  0.00  0.00     0.143 A 
ATOM      2  C2  UNL d   1      -1.300   0.897   1.071  0.00  0.00    -0.057 A 
ATOM      3  C3  UNL d   1      -2.230   1.931   1.233  0.00  0.00     0.033 A 
ATOM      4  C4  UNL d   1      -2.191   3.045   0.401  0.00  0.00    -0.042 A 
ATOM      5  C5  UNL d   1      -1.224   3.122  -0.595  0.00  0.00     0.033 A 
ATOM      6  C6  UNL d   1      -0.302   2.083  -0.755  0.00  0.00    -0.057 A 
ENDROOT
BRANCH   1   7
ATOM      7  N   UNL d   1       0.680  -0.009  -0.089  0.00  0.00    -0.732 N 
ATOM      8  C   UNL d   1       0.600  -1.015  -1.126  0.00  0.00     0.284 C 
ATOM      9  H3  UNL d   1       1.608   0.391   0.032  0.00  0.00     0.395 HD
ENDBRANCH   1   7
TORSDOF 1
ENDMDL
