MODEL 1
REMARK minimizedAffinity -5.39735126
REMARK minimizedRMSD -1
REMARK  1 active torsions:
REMARK  status: ('A' for Active; 'I' for Inactive)
REMARK    1  A    between atoms: N_2  and  C1_3 
ROOT
ATOM      1  C1  UNL d   1      -0.456   1.772  -0.624  0.00  0.00     0.143 A 
ATOM      2  C2  UNL d   1      -0.778   0.849   0.377  0.00  0.00    -0.057 A 
ATOM      3  C3  UNL d   1      -1.655   1.182   1.417  0.00  0.00     0.033 A 
ATOM      4  C4  UNL d   1      -2.204   2.457   1.490  0.00  0.00    -0.042 A 
ATOM      5  C5  UNL d   1      -1.879   3.399   0.520  0.00  0.00     0.033 A 
ATOM      6  C6  UNL d   1      -1.008   3.059  -0.519  0.00  0.00    -0.057 A 
ENDROOT
BRANCH   1   7
ATOM      7  N   UNL d   1       0.485   1.534  -1.628  0.00  0.00    -0.732 N 
ATOM      8  C   UNL d   1       0.829   0.181  -2.010  0.00  0.00     0.284 C 
ATOM      9  H3  UNL d   1       0.387   2.175  -2.412  0.00  0.00     0.395 HD
ENDBRANCH   1   7
TORSDOF 1
ENDMDL
