MODEL 1
REMARK minimizedAffinity -5.12701082
REMARK minimizedRMSD -1
REMARK  1 active torsions:
REMARK  status: ('A' for Active; 'I' for Inactive)
REMARK    1  A    between atoms: N_2  and  C1_3 
ROOT
ATOM      1  C1  UNL d   1      -1.969   2.222   1.165  0.00  0.00     0.143 A 
ATOM      2  C2  UNL d   1      -1.225   2.985   0.259  0.00  0.00    -0.057 A 
ATOM      3  C3  UNL d   1      -0.467   2.377  -0.750  0.00  0.00     0.033 A 
ATOM      4  C4  UNL d   1      -0.419   0.991  -0.853  0.00  0.00    -0.042 A 
ATOM      5  C5  UNL d   1      -1.131   0.213   0.052  0.00  0.00     0.033 A 
ATOM      6  C6  UNL d   1      -1.891   0.825   1.054  0.00  0.00    -0.057 A 
ENDROOT
BRANCH   1   7
ATOM      7  N   UNL d   1      -2.663   2.763   2.251  0.00  0.00    -0.732 N 
ATOM      8  C   UNL d   1      -2.097   3.852   3.018  0.00  0.00     0.284 C 
ATOM      9  H3  UNL d   1      -3.659   2.857   2.067  0.00  0.00     0.395 HD
ENDBRANCH   1   7
TORSDOF 1
ENDMDL
