MODEL 1
REMARK minimizedAffinity -5.55357885
REMARK minimizedRMSD -1
REMARK  1 active torsions:
REMARK  status: ('A' for Active; 'I' for Inactive)
REMARK    1  A    between atoms: N_2  and  C1_3 
ROOT
ATOM      1  C1  UNL d   1      -0.598   1.453   0.805  0.00  0.00     0.143 A 
ATOM      2  C2  UNL d   1      -0.239   2.207  -0.317  0.00  0.00    -0.057 A 
ATOM      3  C3  UNL d   1      -0.930   3.376  -0.657  0.00  0.00     0.033 A 
ATOM      4  C4  UNL d   1      -2.014   3.798   0.106  0.00  0.00    -0.042 A 
ATOM      5  C5  UNL d   1      -2.404   3.050   1.211  0.00  0.00     0.033 A 
ATOM      6  C6  UNL d   1      -1.706   1.887   1.550  0.00  0.00    -0.057 A 
ENDROOT
BRANCH   1   7
ATOM      7  N   UNL d   1      -0.013   0.229   1.139  0.00  0.00    -0.732 N 
ATOM      8  C   UNL d   1       0.942  -0.398   0.251  0.00  0.00     0.284 C 
ATOM      9  H3  UNL d   1       0.237   0.174   2.124  0.00  0.00     0.395 HD
ENDBRANCH   1   7
TORSDOF 1
ENDMDL
