MODEL 1
REMARK minimizedAffinity -2.65863371
REMARK minimizedRMSD -1
REMARK  1 active torsions:
REMARK  status: ('A' for Active; 'I' for Inactive)
REMARK    1  A    between atoms: N_2  and  C1_3 
ROOT
ATOM      1  C1  UNL d   1      -1.474   2.270   1.352  0.00  0.00     0.143 A 
ATOM      2  C2  UNL d   1      -1.237   0.900   1.199  0.00  0.00    -0.057 A 
ATOM      3  C3  UNL d   1      -0.372   0.419   0.209  0.00  0.00     0.033 A 
ATOM      4  C4  UNL d   1       0.251   1.301  -0.668  0.00  0.00    -0.042 A 
ATOM      5  C5  UNL d   1       0.010   2.665  -0.551  0.00  0.00     0.033 A 
ATOM      6  C6  UNL d   1      -0.849   3.140   0.445  0.00  0.00    -0.057 A 
ENDROOT
BRANCH   1   7
ATOM      7  N   UNL d   1      -2.398   2.804   2.253  0.00  0.00    -0.732 N 
ATOM      8  C   UNL d   1      -2.463   4.231   2.485  0.00  0.00     0.284 C 
ATOM      9  H3  UNL d   1      -3.307   2.351   2.191  0.00  0.00     0.395 HD
ENDBRANCH   1   7
TORSDOF 1
ENDMDL
