MODEL 1
REMARK minimizedAffinity -5.00448561
REMARK minimizedRMSD -1
REMARK  1 active torsions:
REMARK  status: ('A' for Active; 'I' for Inactive)
REMARK    1  A    between atoms: N_2  and  C1_3 
ROOT
ATOM      1  C1  UNL d   1      -0.820   1.498   0.179  0.00  0.00     0.143 A 
ATOM      2  C2  UNL d   1      -0.328   2.678  -0.389  0.00  0.00    -0.057 A 
ATOM      3  C3  UNL d   1      -0.869   3.925  -0.055  0.00  0.00     0.033 A 
ATOM      4  C4  UNL d   1      -1.936   4.012   0.834  0.00  0.00    -0.042 A 
ATOM      5  C5  UNL d   1      -2.458   2.850   1.391  0.00  0.00     0.033 A 
ATOM      6  C6  UNL d   1      -1.908   1.608   1.059  0.00  0.00    -0.057 A 
ENDROOT
BRANCH   1   7
ATOM      7  N   UNL d   1      -0.390   0.220  -0.187  0.00  0.00    -0.732 N 
ATOM      8  C   UNL d   1       0.060  -0.721   0.816  0.00  0.00     0.284 C 
ATOM      9  H3  UNL d   1      -0.970  -0.192  -0.914  0.00  0.00     0.395 HD
ENDBRANCH   1   7
TORSDOF 1
ENDMDL
