MODEL 1
REMARK minimizedAffinity -4.99214745
REMARK minimizedRMSD -1
REMARK  1 active torsions:
REMARK  status: ('A' for Active; 'I' for Inactive)
REMARK    1  A    between atoms: N_2  and  C1_3 
ROOT
ATOM      1  C1  UNL d   1       0.554   0.285  -1.558  0.00  0.00     0.143 A 
ATOM      2  C2  UNL d   1       0.912  -0.795  -0.742  0.00  0.00    -0.057 A 
ATOM      3  C3  UNL d   1       0.987  -2.096  -1.252  0.00  0.00     0.033 A 
ATOM      4  C4  UNL d   1       0.675  -2.347  -2.584  0.00  0.00    -0.042 A 
ATOM      5  C5  UNL d   1       0.292  -1.294  -3.407  0.00  0.00     0.033 A 
ATOM      6  C6  UNL d   1       0.226   0.005  -2.894  0.00  0.00    -0.057 A 
ENDROOT
BRANCH   1   7
ATOM      7  N   UNL d   1       0.366   1.586  -1.087  0.00  0.00    -0.732 N 
ATOM      8  C   UNL d   1       0.512   2.720  -1.975  0.00  0.00     0.284 C 
ATOM      9  H3  UNL d   1      -0.421   1.658  -0.447  0.00  0.00     0.395 HD
ENDBRANCH   1   7
TORSDOF 1
ENDMDL
