MODEL 1
REMARK minimizedAffinity -4.31750917
REMARK minimizedRMSD -1
REMARK  1 active torsions:
REMARK  status: ('A' for Active; 'I' for Inactive)
REMARK    1  A    between atoms: N_2  and  C1_3 
ROOT
ATOM      1  C1  UNL d   1      -0.721   0.306   0.403  0.00  0.00     0.143 A 
ATOM      2  C2  UNL d   1      -1.124   0.692   1.686  0.00  0.00    -0.057 A 
ATOM      3  C3  UNL d   1      -1.892   1.845   1.889  0.00  0.00     0.033 A 
ATOM      4  C4  UNL d   1      -2.247   2.650   0.811  0.00  0.00    -0.042 A 
ATOM      5  C5  UNL d   1      -1.836   2.299  -0.470  0.00  0.00     0.033 A 
ATOM      6  C6  UNL d   1      -1.074   1.143  -0.666  0.00  0.00    -0.057 A 
ENDROOT
BRANCH   1   7
ATOM      7  N   UNL d   1       0.127  -0.775   0.148  0.00  0.00    -0.732 N 
ATOM      8  C   UNL d   1       0.461  -1.144  -1.211  0.00  0.00     0.284 C 
ATOM      9  H3  UNL d   1       0.911  -0.815   0.794  0.00  0.00     0.395 HD
ENDBRANCH   1   7
TORSDOF 1
ENDMDL
