MODEL 1
REMARK minimizedAffinity -5.49582481
REMARK minimizedRMSD -1
REMARK  1 active torsions:
REMARK  status: ('A' for Active; 'I' for Inactive)
REMARK    1  A    between atoms: N_2  and  C1_3 
ROOT
ATOM      1  C1  UNL d   1      -0.616   1.199   0.148  0.00  0.00     0.143 A 
ATOM      2  C2  UNL d   1      -0.157   2.206  -0.709  0.00  0.00    -0.057 A 
ATOM      3  C3  UNL d   1      -0.594   3.529  -0.574  0.00  0.00     0.033 A 
ATOM      4  C4  UNL d   1      -1.524   3.865   0.404  0.00  0.00    -0.042 A 
ATOM      5  C5  UNL d   1      -2.013   2.876   1.251  0.00  0.00     0.033 A 
ATOM      6  C6  UNL d   1      -1.567   1.558   1.116  0.00  0.00    -0.057 A 
ENDROOT
BRANCH   1   7
ATOM      7  N   UNL d   1      -0.294  -0.152   0.002  0.00  0.00    -0.732 N 
ATOM      8  C   UNL d   1       1.086  -0.574  -0.108  0.00  0.00     0.284 C 
ATOM      9  H3  UNL d   1      -0.867  -0.753   0.590  0.00  0.00     0.395 HD
ENDBRANCH   1   7
TORSDOF 1
ENDMDL
