MODEL 1
REMARK minimizedAffinity -3.90769792
REMARK minimizedRMSD -1
REMARK  1 active torsions:
REMARK  status: ('A' for Active; 'I' for Inactive)
REMARK    1  A    between atoms: N_2  and  C1_3 
ROOT
ATOM      1  C1  UNL d   1      -0.906   2.242   0.497  0.00  0.00     0.143 A 
ATOM      2  C2  UNL d   1      -0.105   1.394  -0.276  0.00  0.00    -0.057 A 
ATOM      3  C3  UNL d   1      -0.017   0.025   0.004  0.00  0.00     0.033 A 
ATOM      4  C4  UNL d   1      -0.708  -0.517   1.082  0.00  0.00    -0.042 A 
ATOM      5  C5  UNL d   1      -1.490   0.311   1.879  0.00  0.00     0.033 A 
ATOM      6  C6  UNL d   1      -1.579   1.677   1.591  0.00  0.00    -0.057 A 
ENDROOT
BRANCH   1   7
ATOM      7  N   UNL d   1      -0.957   3.628   0.330  0.00  0.00    -0.732 N 
ATOM      8  C   UNL d   1      -0.002   4.304  -0.520  0.00  0.00     0.284 C 
ATOM      9  H3  UNL d   1      -1.910   3.973   0.241  0.00  0.00     0.395 HD
ENDBRANCH   1   7
TORSDOF 1
ENDMDL
