MODEL 1
REMARK minimizedAffinity -4.25274515
REMARK minimizedRMSD -1
REMARK  1 active torsions:
REMARK  status: ('A' for Active; 'I' for Inactive)
REMARK    1  A    between atoms: N_2  and  C1_3 
ROOT
ATOM      1  C1  UNL d   1       0.568   0.412   0.025  0.00  0.00     0.143 A 
ATOM      2  C2  UNL d   1      -0.072   0.247   1.258  0.00  0.00    -0.057 A 
ATOM      3  C3  UNL d   1      -0.764   1.303   1.864  0.00  0.00     0.033 A 
ATOM      4  C4  UNL d   1      -0.805   2.554   1.258  0.00  0.00    -0.042 A 
ATOM      5  C5  UNL d   1      -0.155   2.748   0.044  0.00  0.00     0.033 A 
ATOM      6  C6  UNL d   1       0.529   1.688  -0.559  0.00  0.00    -0.057 A 
ENDROOT
BRANCH   1   7
ATOM      7  N   UNL d   1       1.355  -0.570  -0.581  0.00  0.00    -0.732 N 
ATOM      8  C   UNL d   1       0.744  -1.730  -1.195  0.00  0.00     0.284 C 
ATOM      9  H3  UNL d   1       2.127  -0.176  -1.113  0.00  0.00     0.395 HD
ENDBRANCH   1   7
TORSDOF 1
ENDMDL
