MODEL 1
REMARK minimizedAffinity -0.624192476
REMARK minimizedRMSD -1
REMARK  0 active torsions:
REMARK  status: ('A' for Active; 'I' for Inactive)
ROOT
ATOM      1  O1  BZF d   1       2.221  -1.347  -0.689  0.00  0.00    -0.204 OA
ATOM      2  C2  BZF d   1       2.802  -2.383   0.015  0.00  0.00     0.174 A 
ATOM      3  C3  BZF d   1       2.278  -2.473   1.254  0.00  0.00    -0.012 A 
ATOM      4  C3A BZF d   1       1.244  -1.486   1.297  0.00  0.00    -0.107 A 
ATOM      5  C4  BZF d   1       0.351  -1.102   2.257  0.00  0.00     0.055 A 
ATOM      6  C5  BZF d   1      -0.478  -0.055   2.008  0.00  0.00    -0.016 A 
ATOM      7  C6  BZF d   1      -0.439   0.634   0.814  0.00  0.00     0.022 A 
ATOM      8  C7  BZF d   1       0.426   0.287  -0.171  0.00  0.00     0.029 A 
ATOM      9  C7A BZF d   1       1.243  -0.791   0.066  0.00  0.00     0.058 A 
ENDROOT
TORSDOF 0
ENDMDL
