MODEL 1
REMARK minimizedAffinity -0.555879653
REMARK minimizedRMSD -1
REMARK  0 active torsions:
REMARK  status: ('A' for Active; 'I' for Inactive)
ROOT
ATOM      1  O1  BZF d   1       1.697  -1.027  -1.231  0.00  0.00    -0.204 OA
ATOM      2  C2  BZF d   1       0.894  -0.092  -1.856  0.00  0.00     0.174 A 
ATOM      3  C3  BZF d   1      -0.036   0.385  -1.004  0.00  0.00    -0.012 A 
ATOM      4  C3A BZF d   1       0.258  -0.226   0.256  0.00  0.00    -0.107 A 
ATOM      5  C4  BZF d   1      -0.304  -0.137   1.497  0.00  0.00     0.055 A 
ATOM      6  C5  BZF d   1       0.176  -0.921   2.498  0.00  0.00    -0.016 A 
ATOM      7  C6  BZF d   1       1.212  -1.808   2.291  0.00  0.00     0.022 A 
ATOM      8  C7  BZF d   1       1.806  -1.928   1.079  0.00  0.00     0.029 A 
ATOM      9  C7A BZF d   1       1.344  -1.113   0.074  0.00  0.00     0.058 A 
ENDROOT
TORSDOF 0
ENDMDL
