MODEL 1
REMARK minimizedAffinity -3.25711656
REMARK minimizedRMSD -1
REMARK  0 active torsions:
REMARK  status: ('A' for Active; 'I' for Inactive)
ROOT
ATOM      1  O1  BZF d   1       0.452  -0.703  -1.289  0.00  0.00    -0.204 OA
ATOM      2  C2  BZF d   1      -0.731  -0.030  -1.053  0.00  0.00     0.174 A 
ATOM      3  C3  BZF d   1      -1.078  -0.115   0.248  0.00  0.00    -0.012 A 
ATOM      4  C3A BZF d   1       0.000  -0.810   0.881  0.00  0.00    -0.107 A 
ATOM      5  C4  BZF d   1       0.246  -1.187   2.170  0.00  0.00     0.055 A 
ATOM      6  C5  BZF d   1       1.359  -1.918   2.444  0.00  0.00    -0.016 A 
ATOM      7  C6  BZF d   1       2.242  -2.294   1.453  0.00  0.00     0.022 A 
ATOM      8  C7  BZF d   1       2.043  -1.939   0.160  0.00  0.00     0.029 A 
ATOM      9  C7A BZF d   1       0.937  -1.173  -0.114  0.00  0.00     0.058 A 
ENDROOT
TORSDOF 0
ENDMDL
