MODEL 1
REMARK minimizedAffinity -6.1882143
REMARK minimizedRMSD -1
REMARK  0 active torsions:
REMARK  status: ('A' for Active; 'I' for Inactive)
ROOT
ATOM      1  O1  BZF d   1       0.358  -0.896  -0.224  0.00  0.00    -0.204 OA
ATOM      2  C2  BZF d   1      -0.799  -0.205   0.080  0.00  0.00     0.174 A 
ATOM      3  C3  BZF d   1      -0.859   0.070   1.399  0.00  0.00    -0.012 A 
ATOM      4  C3A BZF d   1       0.378  -0.403   1.939  0.00  0.00    -0.107 A 
ATOM      5  C4  BZF d   1       0.916  -0.402   3.194  0.00  0.00     0.055 A 
ATOM      6  C5  BZF d   1       2.114  -1.009   3.400  0.00  0.00    -0.016 A 
ATOM      7  C6  BZF d   1       2.799  -1.630   2.376  0.00  0.00     0.022 A 
ATOM      8  C7  BZF d   1       2.308  -1.653   1.113  0.00  0.00     0.029 A 
ATOM      9  C7A BZF d   1       1.112  -1.012   0.895  0.00  0.00     0.058 A 
ENDROOT
TORSDOF 0
ENDMDL
