MODEL 1
REMARK minimizedAffinity -5.18064213
REMARK minimizedRMSD -1
REMARK  0 active torsions:
REMARK  status: ('A' for Active; 'I' for Inactive)
ROOT
ATOM      1  O1  BZF d   1       0.393  -0.497  -0.901  0.00  0.00    -0.204 OA
ATOM      2  C2  BZF d   1      -0.975  -0.310  -0.859  0.00  0.00     0.174 A 
ATOM      3  C3  BZF d   1      -1.408  -0.226   0.415  0.00  0.00    -0.012 A 
ATOM      4  C3A BZF d   1      -0.225  -0.277   1.218  0.00  0.00    -0.107 A 
ATOM      5  C4  BZF d   1      -0.000  -0.222   2.564  0.00  0.00     0.055 A 
ATOM      6  C5  BZF d   1       1.268  -0.373   3.029  0.00  0.00    -0.016 A 
ATOM      7  C6  BZF d   1       2.333  -0.586   2.178  0.00  0.00     0.022 A 
ATOM      8  C7  BZF d   1       2.160  -0.643   0.835  0.00  0.00     0.029 A 
ATOM      9  C7A BZF d   1       0.885  -0.458   0.360  0.00  0.00     0.058 A 
ENDROOT
TORSDOF 0
ENDMDL
