MODEL 1
REMARK minimizedAffinity -5.14177942
REMARK minimizedRMSD -1
REMARK  1 active torsions:
REMARK  status: ('A' for Active; 'I' for Inactive)
REMARK    1  A    between atoms: N_2  and  C1_3 
ROOT
ATOM      1  C1  UNL d   1      -1.607  -1.177   1.279  0.00  0.00     0.143 A 
ATOM      2  C2  UNL d   1      -0.875  -0.374   0.398  0.00  0.00    -0.057 A 
ATOM      3  C3  UNL d   1       0.404  -0.749  -0.033  0.00  0.00     0.033 A 
ATOM      4  C4  UNL d   1       0.986  -1.923   0.434  0.00  0.00    -0.042 A 
ATOM      5  C5  UNL d   1       0.286  -2.724   1.330  0.00  0.00     0.033 A 
ATOM      6  C6  UNL d   1      -0.993  -2.348   1.751  0.00  0.00    -0.057 A 
ENDROOT
BRANCH   1   7
ATOM      7  N   UNL d   1      -2.842  -0.811   1.821  0.00  0.00    -0.732 N 
ATOM      8  C   UNL d   1      -3.113   0.566   2.175  0.00  0.00     0.284 C 
ATOM      9  H3  UNL d   1      -3.620  -1.285   1.369  0.00  0.00     0.395 HD
ENDBRANCH   1   7
TORSDOF 1
ENDMDL
