MODEL 1
REMARK minimizedAffinity -4.48129845
REMARK minimizedRMSD -1
REMARK  1 active torsions:
REMARK  status: ('A' for Active; 'I' for Inactive)
REMARK    1  A    between atoms: N_2  and  C1_3 
ROOT
ATOM      1  C1  UNL d   1       0.257  -0.337   0.265  0.00  0.00     0.143 A 
ATOM      2  C2  UNL d   1       0.894  -1.550   0.545  0.00  0.00    -0.057 A 
ATOM      3  C3  UNL d   1       0.193  -2.625   1.105  0.00  0.00     0.033 A 
ATOM      4  C4  UNL d   1      -1.155  -2.495   1.423  0.00  0.00    -0.042 A 
ATOM      5  C5  UNL d   1      -1.802  -1.289   1.176  0.00  0.00     0.033 A 
ATOM      6  C6  UNL d   1      -1.098  -0.222   0.610  0.00  0.00    -0.057 A 
ENDROOT
BRANCH   1   7
ATOM      7  N   UNL d   1       0.922   0.801  -0.200  0.00  0.00    -0.732 N 
ATOM      8  C   UNL d   1       0.678   1.303  -1.536  0.00  0.00     0.284 C 
ATOM      9  H3  UNL d   1       0.994   1.526   0.510  0.00  0.00     0.395 HD
ENDBRANCH   1   7
TORSDOF 1
ENDMDL
