MODEL 1
REMARK minimizedAffinity -2.27400231
REMARK minimizedRMSD -1
REMARK  1 active torsions:
REMARK  status: ('A' for Active; 'I' for Inactive)
REMARK    1  A    between atoms: N_2  and  C1_3 
ROOT
ATOM      1  C1  UNL d   1      -0.314   0.159   0.010  0.00  0.00     0.143 A 
ATOM      2  C2  UNL d   1      -1.123   1.108   0.644  0.00  0.00    -0.057 A 
ATOM      3  C3  UNL d   1      -2.379   0.764   1.158  0.00  0.00     0.033 A 
ATOM      4  C4  UNL d   1      -2.862  -0.534   1.020  0.00  0.00    -0.042 A 
ATOM      5  C5  UNL d   1      -2.085  -1.487   0.372  0.00  0.00     0.033 A 
ATOM      6  C6  UNL d   1      -0.829  -1.139  -0.134  0.00  0.00    -0.057 A 
ENDROOT
BRANCH   1   7
ATOM      7  N   UNL d   1       0.902   0.462  -0.609  0.00  0.00    -0.732 N 
ATOM      8  C   UNL d   1       0.929   1.124  -1.895  0.00  0.00     0.284 C 
ATOM      9  H3  UNL d   1       1.598   0.805   0.050  0.00  0.00     0.395 HD
ENDBRANCH   1   7
TORSDOF 1
ENDMDL
