MODEL 1
REMARK minimizedAffinity -1.70872593
REMARK minimizedRMSD -1
REMARK  1 active torsions:
REMARK  status: ('A' for Active; 'I' for Inactive)
REMARK    1  A    between atoms: N_2  and  C1_3 
ROOT
ATOM      1  C1  UNL d   1      -0.070  -0.229   0.548  0.00  0.00     0.143 A 
ATOM      2  C2  UNL d   1      -1.244  -0.082  -0.198  0.00  0.00    -0.057 A 
ATOM      3  C3  UNL d   1      -2.314  -0.973  -0.052  0.00  0.00     0.033 A 
ATOM      4  C4  UNL d   1      -2.217  -2.048   0.825  0.00  0.00    -0.042 A 
ATOM      5  C5  UNL d   1      -1.050  -2.228   1.559  0.00  0.00     0.033 A 
ATOM      6  C6  UNL d   1       0.013  -1.331   1.414  0.00  0.00    -0.057 A 
ENDROOT
BRANCH   1   7
ATOM      7  N   UNL d   1       1.066   0.566   0.376  0.00  0.00    -0.732 N 
ATOM      8  C   UNL d   1       1.459   1.016  -0.942  0.00  0.00     0.284 C 
ATOM      9  H3  UNL d   1       1.159   1.273   1.102  0.00  0.00     0.395 HD
ENDBRANCH   1   7
TORSDOF 1
ENDMDL
