MODEL 1
REMARK minimizedAffinity -1.81455588
REMARK minimizedRMSD -1
REMARK  1 active torsions:
REMARK  status: ('A' for Active; 'I' for Inactive)
REMARK    1  A    between atoms: N_2  and  C1_3 
ROOT
ATOM      1  C1  UNL d   1       0.259  -0.927   0.376  0.00  0.00     0.143 A 
ATOM      2  C2  UNL d   1       0.901  -1.714   1.339  0.00  0.00    -0.057 A 
ATOM      3  C3  UNL d   1       0.222  -2.737   2.011  0.00  0.00     0.033 A 
ATOM      4  C4  UNL d   1      -1.124  -2.974   1.752  0.00  0.00    -0.042 A 
ATOM      5  C5  UNL d   1      -1.789  -2.188   0.817  0.00  0.00     0.033 A 
ATOM      6  C6  UNL d   1      -1.103  -1.172   0.144  0.00  0.00    -0.057 A 
ENDROOT
BRANCH   1   7
ATOM      7  N   UNL d   1       0.853   0.169  -0.255  0.00  0.00    -0.732 N 
ATOM      8  C   UNL d   1       0.178   1.448  -0.299  0.00  0.00     0.284 C 
ATOM      9  H3  UNL d   1       1.851   0.231  -0.066  0.00  0.00     0.395 HD
ENDBRANCH   1   7
TORSDOF 1
ENDMDL
