MODEL 1
REMARK minimizedAffinity -3.87550569
REMARK minimizedRMSD -1
REMARK  1 active torsions:
REMARK  status: ('A' for Active; 'I' for Inactive)
REMARK    1  A    between atoms: N_2  and  C1_3 
ROOT
ATOM      1  C1  UNL d   1       0.395   1.588  -0.343  0.00  0.00     0.143 A 
ATOM      2  C2  UNL d   1      -0.729   2.200   0.223  0.00  0.00    -0.057 A 
ATOM      3  C3  UNL d   1      -1.774   1.442   0.764  0.00  0.00     0.033 A 
ATOM      4  C4  UNL d   1      -1.727   0.052   0.723  0.00  0.00    -0.042 A 
ATOM      5  C5  UNL d   1      -0.632  -0.578   0.143  0.00  0.00     0.033 A 
ATOM      6  C6  UNL d   1       0.412   0.185  -0.390  0.00  0.00    -0.057 A 
ENDROOT
BRANCH   1   7
ATOM      7  N   UNL d   1       1.420   2.285  -0.986  0.00  0.00    -0.732 N 
ATOM      8  C   UNL d   1       1.284   2.687  -2.369  0.00  0.00     0.284 C 
ATOM      9  H3  UNL d   1       1.844   2.991  -0.387  0.00  0.00     0.395 HD
ENDBRANCH   1   7
TORSDOF 1
ENDMDL
