MODEL 1
REMARK minimizedAffinity -4.07199049
REMARK minimizedRMSD -1
REMARK  1 active torsions:
REMARK  status: ('A' for Active; 'I' for Inactive)
REMARK    1  A    between atoms: N_2  and  C1_3 
ROOT
ATOM      1  C1  UNL d   1       0.233   0.483   0.023  0.00  0.00     0.143 A 
ATOM      2  C2  UNL d   1      -1.043   0.015   0.353  0.00  0.00    -0.057 A 
ATOM      3  C3  UNL d   1      -1.263  -1.330   0.673  0.00  0.00     0.033 A 
ATOM      4  C4  UNL d   1      -0.212  -2.240   0.639  0.00  0.00    -0.042 A 
ATOM      5  C5  UNL d   1       1.060  -1.802   0.289  0.00  0.00     0.033 A 
ATOM      6  C6  UNL d   1       1.275  -0.456  -0.023  0.00  0.00    -0.057 A 
ENDROOT
BRANCH   1   7
ATOM      7  N   UNL d   1       0.498   1.788  -0.400  0.00  0.00    -0.732 N 
ATOM      8  C   UNL d   1       0.925   2.051  -1.757  0.00  0.00     0.284 C 
ATOM      9  H3  UNL d   1      -0.179   2.458  -0.040  0.00  0.00     0.395 HD
ENDBRANCH   1   7
TORSDOF 1
ENDMDL
