MODEL 1
REMARK minimizedAffinity -3.66557026
REMARK minimizedRMSD -1
REMARK  1 active torsions:
REMARK  status: ('A' for Active; 'I' for Inactive)
REMARK    1  A    between atoms: N_2  and  C1_3 
ROOT
ATOM      1  C1  UNL d   1      -0.035   0.668  -0.439  0.00  0.00     0.143 A 
ATOM      2  C2  UNL d   1       0.350  -0.659  -0.219  0.00  0.00    -0.057 A 
ATOM      3  C3  UNL d   1      -0.440  -1.528   0.544  0.00  0.00     0.033 A 
ATOM      4  C4  UNL d   1      -1.619  -1.075   1.126  0.00  0.00    -0.042 A 
ATOM      5  C5  UNL d   1      -2.009   0.247   0.941  0.00  0.00     0.033 A 
ATOM      6  C6  UNL d   1      -1.220   1.107   0.173  0.00  0.00    -0.057 A 
ENDROOT
BRANCH   1   7
ATOM      7  N   UNL d   1       0.755   1.607  -1.105  0.00  0.00    -0.732 N 
ATOM      8  C   UNL d   1       0.401   2.060  -2.434  0.00  0.00     0.284 C 
ATOM      9  H3  UNL d   1       1.083   2.347  -0.488  0.00  0.00     0.395 HD
ENDBRANCH   1   7
TORSDOF 1
ENDMDL
