MODEL 1
REMARK minimizedAffinity -3.44802022
REMARK minimizedRMSD -1
REMARK  1 active torsions:
REMARK  status: ('A' for Active; 'I' for Inactive)
REMARK    1  A    between atoms: N_2  and  C1_3 
ROOT
ATOM      1  C1  UNL d   1       0.211  -0.991   0.375  0.00  0.00     0.143 A 
ATOM      2  C2  UNL d   1       0.749  -2.125   0.992  0.00  0.00    -0.057 A 
ATOM      3  C3  UNL d   1      -0.010  -2.896   1.882  0.00  0.00     0.033 A 
ATOM      4  C4  UNL d   1      -1.315  -2.528   2.193  0.00  0.00    -0.042 A 
ATOM      5  C5  UNL d   1      -1.861  -1.390   1.611  0.00  0.00     0.033 A 
ATOM      6  C6  UNL d   1      -1.101  -0.628   0.718  0.00  0.00    -0.057 A 
ENDROOT
BRANCH   1   7
ATOM      7  N   UNL d   1       0.946  -0.128  -0.441  0.00  0.00    -0.732 N 
ATOM      8  C   UNL d   1       0.417   1.168  -0.809  0.00  0.00     0.284 C 
ATOM      9  H3  UNL d   1       1.936  -0.121  -0.208  0.00  0.00     0.395 HD
ENDBRANCH   1   7
TORSDOF 1
ENDMDL
