MODEL 1
REMARK minimizedAffinity -1.26293182
REMARK minimizedRMSD -1
REMARK  1 active torsions:
REMARK  status: ('A' for Active; 'I' for Inactive)
REMARK    1  A    between atoms: N_2  and  C1_3 
ROOT
ATOM      1  C1  UNL d   1       0.604   0.009  -0.040  0.00  0.00     0.143 A 
ATOM      2  C2  UNL d   1       1.687  -0.871  -0.146  0.00  0.00    -0.057 A 
ATOM      3  C3  UNL d   1       1.615  -2.175   0.357  0.00  0.00     0.033 A 
ATOM      4  C4  UNL d   1       0.465  -2.615   1.004  0.00  0.00    -0.042 A 
ATOM      5  C5  UNL d   1      -0.615  -1.750   1.143  0.00  0.00     0.033 A 
ATOM      6  C6  UNL d   1      -0.539  -0.451   0.632  0.00  0.00    -0.057 A 
ENDROOT
BRANCH   1   7
ATOM      7  N   UNL d   1       0.649   1.349  -0.432  0.00  0.00    -0.732 N 
ATOM      8  C   UNL d   1       0.961   1.707  -1.799  0.00  0.00     0.284 C 
ATOM      9  H3  UNL d   1      -0.099   1.900  -0.019  0.00  0.00     0.395 HD
ENDBRANCH   1   7
TORSDOF 1
ENDMDL
