MODEL 1
REMARK minimizedAffinity -4.11238003
REMARK minimizedRMSD -1
REMARK  1 active torsions:
REMARK  status: ('A' for Active; 'I' for Inactive)
REMARK    1  A    between atoms: N_2  and  C1_3 
ROOT
ATOM      1  C1  UNL d   1       0.081   0.259   0.563  0.00  0.00     0.143 A 
ATOM      2  C2  UNL d   1      -1.098   0.727   1.153  0.00  0.00    -0.057 A 
ATOM      3  C3  UNL d   1      -1.889  -0.105   1.954  0.00  0.00     0.033 A 
ATOM      4  C4  UNL d   1      -1.529  -1.434   2.155  0.00  0.00    -0.042 A 
ATOM      5  C5  UNL d   1      -0.375  -1.928   1.558  0.00  0.00     0.033 A 
ATOM      6  C6  UNL d   1       0.415  -1.089   0.765  0.00  0.00    -0.057 A 
ENDROOT
BRANCH   1   7
ATOM      7  N   UNL d   1       0.858   1.009  -0.323  0.00  0.00    -0.732 N 
ATOM      8  C   UNL d   1       0.510   1.086  -1.725  0.00  0.00     0.284 C 
ATOM      9  H3  UNL d   1       1.162   1.893   0.079  0.00  0.00     0.395 HD
ENDBRANCH   1   7
TORSDOF 1
ENDMDL
