MODEL 1
REMARK minimizedAffinity -2.78726935
REMARK minimizedRMSD -1
REMARK  1 active torsions:
REMARK  status: ('A' for Active; 'I' for Inactive)
REMARK    1  A    between atoms: N_2  and  C1_3 
ROOT
ATOM      1  C1  UNL d   1      -0.459   0.842  -0.990  0.00  0.00     0.143 A 
ATOM      2  C2  UNL d   1      -1.111   1.024  -2.214  0.00  0.00    -0.057 A 
ATOM      3  C3  UNL d   1      -0.472   1.650  -3.291  0.00  0.00     0.033 A 
ATOM      4  C4  UNL d   1       0.825   2.132  -3.153  0.00  0.00    -0.042 A 
ATOM      5  C5  UNL d   1       1.484   1.984  -1.938  0.00  0.00     0.033 A 
ATOM      6  C6  UNL d   1       0.843   1.352  -0.868  0.00  0.00    -0.057 A 
ENDROOT
BRANCH   1   7
ATOM      7  N   UNL d   1      -1.074   0.316   0.149  0.00  0.00    -0.732 N 
ATOM      8  C   UNL d   1      -0.894  -1.074   0.509  0.00  0.00     0.284 C 
ATOM      9  H3  UNL d   1      -1.043   0.957   0.938  0.00  0.00     0.395 HD
ENDBRANCH   1   7
TORSDOF 1
ENDMDL
