MODEL 1
REMARK minimizedAffinity -3.70332718
REMARK minimizedRMSD -1
REMARK  1 active torsions:
REMARK  status: ('A' for Active; 'I' for Inactive)
REMARK    1  A    between atoms: N_2  and  C1_3 
ROOT
ATOM      1  C1  UNL d   1       0.352   0.663  -0.011  0.00  0.00     0.143 A 
ATOM      2  C2  UNL d   1       1.281  -0.319   0.347  0.00  0.00    -0.057 A 
ATOM      3  C3  UNL d   1       0.872  -1.606   0.716  0.00  0.00     0.033 A 
ATOM      4  C4  UNL d   1      -0.481  -1.926   0.761  0.00  0.00    -0.042 A 
ATOM      5  C5  UNL d   1      -1.424  -0.959   0.433  0.00  0.00     0.033 A 
ATOM      6  C6  UNL d   1      -1.008   0.323   0.059  0.00  0.00    -0.057 A 
ENDROOT
BRANCH   1   7
ATOM      7  N   UNL d   1       0.690   1.989  -0.291  0.00  0.00    -0.732 N 
ATOM      8  C   UNL d   1       0.799   2.449  -1.659  0.00  0.00     0.284 C 
ATOM      9  H3  UNL d   1       0.230   2.648   0.333  0.00  0.00     0.395 HD
ENDBRANCH   1   7
TORSDOF 1
ENDMDL
