MODEL 1
REMARK minimizedAffinity 9.63049698
REMARK minimizedRMSD -1
REMARK  2 active torsions:
REMARK  status: ('A' for Active; 'I' for Inactive)
REMARK    1  A    between atoms: C1_2  and  C2_3 
REMARK    2  A    between atoms: C2_3  and  C3_4 
ROOT
ATOM      1  C3  UNL d   1      -4.997   4.580   3.571  0.00  0.00    -0.075 A 
ATOM      2  C4  UNL d   1      -3.820   5.306   3.803  0.00  0.00     0.002 A 
ATOM      3  C5  UNL d   1      -3.639   5.998   5.001  0.00  0.00     0.002 A 
ATOM      4  C6  UNL d   1      -4.633   5.980   5.977  0.00  0.00    -0.004 A 
ATOM      5  C7  UNL d   1      -5.814   5.275   5.750  0.00  0.00     0.002 A 
ATOM      6  C8  UNL d   1      -5.996   4.578   4.554  0.00  0.00     0.002 A 
ENDROOT
BRANCH   1   7
ATOM      7  C2  UNL d   1      -5.187   3.805   2.289  0.00  0.00     0.056 C 
BRANCH   7   8
ATOM      8  C1  UNL d   1      -4.366   2.514   2.213  0.00  0.00     0.007 C 
ATOM      9  C   UNL d   1      -4.100   2.054   0.786  0.00  0.00     0.009 C 
ENDBRANCH   7   8
ENDBRANCH   1   7
TORSDOF 2
ENDMDL
