MODEL 1
REMARK minimizedAffinity 1.94613481
REMARK minimizedRMSD -1
REMARK  2 active torsions:
REMARK  status: ('A' for Active; 'I' for Inactive)
REMARK    1  A    between atoms: C1_2  and  C2_3 
REMARK    2  A    between atoms: C2_3  and  C3_4 
ROOT
ATOM      1  C3  UNL d   1      -5.040   4.168   3.397  0.00  0.00    -0.075 A 
ATOM      2  C4  UNL d   1      -6.000   4.167   4.419  0.00  0.00     0.002 A 
ATOM      3  C5  UNL d   1      -5.916   5.082   5.469  0.00  0.00     0.002 A 
ATOM      4  C6  UNL d   1      -4.869   5.999   5.516  0.00  0.00    -0.004 A 
ATOM      5  C7  UNL d   1      -3.900   5.998   4.515  0.00  0.00     0.002 A 
ATOM      6  C8  UNL d   1      -3.984   5.087   3.460  0.00  0.00     0.002 A 
ENDROOT
BRANCH   1   7
ATOM      7  C2  UNL d   1      -5.141   3.200   2.242  0.00  0.00     0.056 C 
BRANCH   7   8
ATOM      8  C1  UNL d   1      -3.828   2.483   1.912  0.00  0.00     0.007 C 
ATOM      9  C   UNL d   1      -4.031   1.173   1.162  0.00  0.00     0.009 C 
ENDBRANCH   7   8
ENDBRANCH   1   7
TORSDOF 2
ENDMDL
