MODEL 1
REMARK minimizedAffinity 5.66729355
REMARK minimizedRMSD -1
REMARK  2 active torsions:
REMARK  status: ('A' for Active; 'I' for Inactive)
REMARK    1  A    between atoms: C1_2  and  C2_3 
REMARK    2  A    between atoms: C2_3  and  C3_4 
ROOT
ATOM      1  C3  UNL d   1      -5.523   4.653   3.358  0.00  0.00    -0.075 A 
ATOM      2  C4  UNL d   1      -5.999   3.872   4.421  0.00  0.00     0.002 A 
ATOM      3  C5  UNL d   1      -5.627   4.163   5.734  0.00  0.00     0.002 A 
ATOM      4  C6  UNL d   1      -4.770   5.228   6.000  0.00  0.00    -0.004 A 
ATOM      5  C7  UNL d   1      -4.278   6.000   4.949  0.00  0.00     0.002 A 
ATOM      6  C8  UNL d   1      -4.651   5.714   3.635  0.00  0.00     0.002 A 
ENDROOT
BRANCH   1   7
ATOM      7  C2  UNL d   1      -5.944   4.362   1.937  0.00  0.00     0.056 C 
BRANCH   7   8
ATOM      8  C1  UNL d   1      -5.792   5.553   0.985  0.00  0.00     0.007 C 
ATOM      9  C   UNL d   1      -4.816   5.290  -0.154  0.00  0.00     0.009 C 
ENDBRANCH   7   8
ENDBRANCH   1   7
TORSDOF 2
ENDMDL
