MODEL 1
REMARK minimizedAffinity 6.01385117
REMARK minimizedRMSD -1
REMARK  2 active torsions:
REMARK  status: ('A' for Active; 'I' for Inactive)
REMARK    1  A    between atoms: C1_2  and  C2_3 
REMARK    2  A    between atoms: C2_3  and  C3_4 
ROOT
ATOM      1  C3  UNL d   1      -5.189   4.217   3.502  0.00  0.00    -0.075 A 
ATOM      2  C4  UNL d   1      -6.000   4.209   4.646  0.00  0.00     0.002 A 
ATOM      3  C5  UNL d   1      -5.753   5.094   5.695  0.00  0.00     0.002 A 
ATOM      4  C6  UNL d   1      -4.689   5.990   5.619  0.00  0.00    -0.004 A 
ATOM      5  C7  UNL d   1      -3.867   5.996   4.494  0.00  0.00     0.002 A 
ATOM      6  C8  UNL d   1      -4.115   5.114   3.440  0.00  0.00     0.002 A 
ENDROOT
BRANCH   1   7
ATOM      7  C2  UNL d   1      -5.469   3.281   2.350  0.00  0.00     0.056 C 
BRANCH   7   8
ATOM      8  C1  UNL d   1      -4.210   2.711   1.689  0.00  0.00     0.007 C 
ATOM      9  C   UNL d   1      -4.492   1.512   0.793  0.00  0.00     0.009 C 
ENDBRANCH   7   8
ENDBRANCH   1   7
TORSDOF 2
ENDMDL
