MODEL 1
REMARK minimizedAffinity 8.37304115
REMARK minimizedRMSD -1
REMARK  2 active torsions:
REMARK  status: ('A' for Active; 'I' for Inactive)
REMARK    1  A    between atoms: C1_2  and  C2_3 
REMARK    2  A    between atoms: C2_3  and  C3_4 
ROOT
ATOM      1  C3  UNL d   1      -4.899   4.497   3.036  0.00  0.00    -0.075 A 
ATOM      2  C4  UNL d   1      -3.769   5.260   3.366  0.00  0.00     0.002 A 
ATOM      3  C5  UNL d   1      -3.735   6.000   4.549  0.00  0.00     0.002 A 
ATOM      4  C6  UNL d   1      -4.831   5.995   5.408  0.00  0.00    -0.004 A 
ATOM      5  C7  UNL d   1      -5.965   5.254   5.082  0.00  0.00     0.002 A 
ATOM      6  C8  UNL d   1      -6.000   4.509   3.902  0.00  0.00     0.002 A 
ENDROOT
BRANCH   1   7
ATOM      7  C2  UNL d   1      -4.930   3.671   1.772  0.00  0.00     0.056 C 
BRANCH   7   8
ATOM      8  C1  UNL d   1      -4.389   2.247   1.944  0.00  0.00     0.007 C 
ATOM      9  C   UNL d   1      -4.114   1.546   0.621  0.00  0.00     0.009 C 
ENDBRANCH   7   8
ENDBRANCH   1   7
TORSDOF 2
ENDMDL
