MODEL 1
REMARK minimizedAffinity 9.34004211
REMARK minimizedRMSD -1
REMARK  2 active torsions:
REMARK  status: ('A' for Active; 'I' for Inactive)
REMARK    1  A    between atoms: C1_2  and  C2_3 
REMARK    2  A    between atoms: C2_3  and  C3_4 
ROOT
ATOM      1  C3  UNL d   1       2.510  -0.123  -1.325  0.00  0.00    -0.075 A 
ATOM      2  C4  UNL d   1       3.464   0.701  -1.939  0.00  0.00     0.002 A 
ATOM      3  C5  UNL d   1       4.233   1.583  -1.180  0.00  0.00     0.002 A 
ATOM      4  C6  UNL d   1       4.052   1.660   0.199  0.00  0.00    -0.004 A 
ATOM      5  C7  UNL d   1       3.095   0.858   0.818  0.00  0.00     0.002 A 
ATOM      6  C8  UNL d   1       2.328  -0.029   0.061  0.00  0.00     0.002 A 
ENDROOT
BRANCH   1   7
ATOM      7  C2  UNL d   1       1.696  -1.101  -2.137  0.00  0.00     0.056 C 
BRANCH   7   8
ATOM      8  C1  UNL d   1       2.313  -2.501  -2.231  0.00  0.00     0.007 C 
ATOM      9  C   UNL d   1       1.584  -3.536  -1.384  0.00  0.00     0.009 C 
ENDBRANCH   7   8
ENDBRANCH   1   7
TORSDOF 2
ENDMDL
