MODEL 1
REMARK minimizedAffinity 6.13355303
REMARK minimizedRMSD -1
REMARK  2 active torsions:
REMARK  status: ('A' for Active; 'I' for Inactive)
REMARK    1  A    between atoms: C1_2  and  C2_3 
REMARK    2  A    between atoms: C2_3  and  C3_4 
ROOT
ATOM      1  C3  UNL d   1      -4.885   4.509   3.228  0.00  0.00    -0.075 A 
ATOM      2  C4  UNL d   1      -6.000   4.499   4.079  0.00  0.00     0.002 A 
ATOM      3  C5  UNL d   1      -5.995   5.240   5.261  0.00  0.00     0.002 A 
ATOM      4  C6  UNL d   1      -4.876   5.992   5.611  0.00  0.00    -0.004 A 
ATOM      5  C7  UNL d   1      -3.757   5.996   4.781  0.00  0.00     0.002 A 
ATOM      6  C8  UNL d   1      -3.760   5.259   3.596  0.00  0.00     0.002 A 
ENDROOT
BRANCH   1   7
ATOM      7  C2  UNL d   1      -4.895   3.733   1.933  0.00  0.00     0.056 C 
BRANCH   7   8
ATOM      8  C1  UNL d   1      -3.855   2.609   1.872  0.00  0.00     0.007 C 
ATOM      9  C   UNL d   1      -4.128   1.598   0.766  0.00  0.00     0.009 C 
ENDBRANCH   7   8
ENDBRANCH   1   7
TORSDOF 2
ENDMDL
