MODEL 1
REMARK minimizedAffinity 7.05070066
REMARK minimizedRMSD -1
REMARK  2 active torsions:
REMARK  status: ('A' for Active; 'I' for Inactive)
REMARK    1  A    between atoms: C1_2  and  C2_3 
REMARK    2  A    between atoms: C2_3  and  C3_4 
ROOT
ATOM      1  C3  UNL d   1      -4.965   4.230   3.513  0.00  0.00    -0.075 A 
ATOM      2  C4  UNL d   1      -4.153   5.332   3.818  0.00  0.00     0.002 A 
ATOM      3  C5  UNL d   1      -4.255   5.966   5.057  0.00  0.00     0.002 A 
ATOM      4  C6  UNL d   1      -5.176   5.515   6.000  0.00  0.00    -0.004 A 
ATOM      5  C7  UNL d   1      -5.999   4.432   5.701  0.00  0.00     0.002 A 
ATOM      6  C8  UNL d   1      -5.896   3.792   4.465  0.00  0.00     0.002 A 
ENDROOT
BRANCH   1   7
ATOM      7  C2  UNL d   1      -4.839   3.521   2.186  0.00  0.00     0.056 C 
BRANCH   7   8
ATOM      8  C1  UNL d   1      -4.480   2.036   2.304  0.00  0.00     0.007 C 
ATOM      9  C   UNL d   1      -4.208   1.375   0.960  0.00  0.00     0.009 C 
ENDBRANCH   7   8
ENDBRANCH   1   7
TORSDOF 2
ENDMDL
