MODEL 1
REMARK minimizedAffinity -4.35494995
REMARK minimizedRMSD -1
REMARK  0 active torsions:
REMARK  status: ('A' for Active; 'I' for Inactive)
ROOT
ATOM      1  C   UNL d   1       0.527  -2.052   1.969  0.00  0.00     0.124 A 
ATOM      2  C1  UNL d   1       1.134  -1.895   0.731  0.00  0.00     0.062 A 
ATOM      3  C2  UNL d   1       0.666  -0.934  -0.161  0.00  0.00     0.162 A 
ATOM      4  C3  UNL d   1      -0.414  -0.121   0.182  0.00  0.00    -0.034 A 
ATOM      5  C4  UNL d   1      -1.020  -0.285   1.429  0.00  0.00     0.162 A 
ATOM      6  C5  UNL d   1      -0.549  -1.247   2.317  0.00  0.00     0.062 A 
ATOM      7  F   UNL d   1      -1.137  -1.397   3.513  0.00  0.00    -0.097 F 
ATOM      8  F1  UNL d   1      -2.060   0.479   1.792  0.00  0.00    -0.096 F 
ATOM      9  I   UNL d   1      -1.115   1.317  -1.148  0.00  0.00    -0.060 I 
ATOM     10  F2  UNL d   1       1.272  -0.805  -1.351  0.00  0.00    -0.096 F 
ATOM     11  F3  UNL d   1       2.172  -2.672   0.392  0.00  0.00    -0.097 F 
ATOM     12  F4  UNL d   1       0.977  -2.978   2.825  0.00  0.00    -0.092 F 
ENDROOT
TORSDOF 0
ENDMDL
