MODEL 1
REMARK minimizedAffinity 1.16321945
REMARK minimizedRMSD -1
REMARK  0 active torsions:
REMARK  status: ('A' for Active; 'I' for Inactive)
ROOT
ATOM      1  C   UNL d   1      -1.013   2.710  -3.384  0.00  0.00     0.124 A 
ATOM      2  C1  UNL d   1      -2.114   1.888  -3.185  0.00  0.00     0.062 A 
ATOM      3  C2  UNL d   1      -2.251   1.177  -1.997  0.00  0.00     0.162 A 
ATOM      4  C3  UNL d   1      -1.285   1.285  -0.996  0.00  0.00    -0.034 A 
ATOM      5  C4  UNL d   1      -0.180   2.113  -1.203  0.00  0.00     0.162 A 
ATOM      6  C5  UNL d   1      -0.047   2.821  -2.393  0.00  0.00     0.062 A 
ATOM      7  F   UNL d   1       1.017   3.615  -2.583  0.00  0.00    -0.097 F 
ATOM      8  F1  UNL d   1       0.767   2.239  -0.262  0.00  0.00    -0.096 F 
ATOM      9  I   UNL d   1      -1.487   0.223   0.782  0.00  0.00    -0.060 I 
ATOM     10  F2  UNL d   1      -3.325   0.391  -1.832  0.00  0.00    -0.096 F 
ATOM     11  F3  UNL d   1      -3.047   1.779  -4.141  0.00  0.00    -0.097 F 
ATOM     12  F4  UNL d   1      -0.883   3.393  -4.528  0.00  0.00    -0.092 F 
ENDROOT
TORSDOF 0
ENDMDL
