MODEL 1
REMARK minimizedAffinity 0.339384407
REMARK minimizedRMSD -1
REMARK  0 active torsions:
REMARK  status: ('A' for Active; 'I' for Inactive)
ROOT
ATOM      1  C   UNL d   1       0.956  -2.165   1.362  0.00  0.00     0.124 A 
ATOM      2  C1  UNL d   1       1.825  -1.521   0.491  0.00  0.00     0.062 A 
ATOM      3  C2  UNL d   1       1.390  -0.425  -0.248  0.00  0.00     0.162 A 
ATOM      4  C3  UNL d   1       0.079   0.036  -0.119  0.00  0.00    -0.034 A 
ATOM      5  C4  UNL d   1      -0.788  -0.618   0.758  0.00  0.00     0.162 A 
ATOM      6  C5  UNL d   1      -0.349  -1.713   1.494  0.00  0.00     0.062 A 
ATOM      7  F   UNL d   1      -1.189  -2.334   2.335  0.00  0.00    -0.097 F 
ATOM      8  F1  UNL d   1      -2.055  -0.201   0.906  0.00  0.00    -0.096 F 
ATOM      9  I   UNL d   1      -0.575   1.675  -1.222  0.00  0.00    -0.060 I 
ATOM     10  F2  UNL d   1       2.251   0.178  -1.082  0.00  0.00    -0.096 F 
ATOM     11  F3  UNL d   1       3.086  -1.957   0.360  0.00  0.00    -0.097 F 
ATOM     12  F4  UNL d   1       1.377  -3.220   2.071  0.00  0.00    -0.092 F 
ENDROOT
TORSDOF 0
ENDMDL
