MODEL 1
REMARK minimizedAffinity -2.50029349
REMARK minimizedRMSD -1
REMARK  0 active torsions:
REMARK  status: ('A' for Active; 'I' for Inactive)
ROOT
ATOM      1  C   UNL d   1       0.195   0.660  -0.049  0.00  0.00     0.124 A 
ATOM      2  C1  UNL d   1      -0.687   0.070   0.845  0.00  0.00     0.062 A 
ATOM      3  C2  UNL d   1      -0.369  -1.146   1.444  0.00  0.00     0.162 A 
ATOM      4  C3  UNL d   1       0.838  -1.780   1.151  0.00  0.00    -0.034 A 
ATOM      5  C4  UNL d   1       1.720  -1.181   0.249  0.00  0.00     0.162 A 
ATOM      6  C5  UNL d   1       1.397   0.034  -0.346  0.00  0.00     0.062 A 
ATOM      7  F   UNL d   1       2.251   0.602  -1.210  0.00  0.00    -0.097 F 
ATOM      8  F1  UNL d   1       2.889  -1.763  -0.055  0.00  0.00    -0.096 F 
ATOM      9  I   UNL d   1       1.318  -3.598   2.044  0.00  0.00    -0.060 I 
ATOM     10  F2  UNL d   1      -1.241  -1.693   2.305  0.00  0.00    -0.096 F 
ATOM     11  F3  UNL d   1      -1.850   0.672   1.134  0.00  0.00    -0.097 F 
ATOM     12  F4  UNL d   1      -0.114   1.829  -0.624  0.00  0.00    -0.092 F 
ENDROOT
TORSDOF 0
ENDMDL
