MODEL 1
REMARK minimizedAffinity -5.2088623
REMARK minimizedRMSD -1
REMARK  0 active torsions:
REMARK  status: ('A' for Active; 'I' for Inactive)
ROOT
ATOM      1  C   UNL d   1       0.815  -2.517   2.267  0.00  0.00     0.124 A 
ATOM      2  C1  UNL d   1       1.365  -2.090   1.066  0.00  0.00     0.062 A 
ATOM      3  C2  UNL d   1       0.770  -1.053   0.354  0.00  0.00     0.162 A 
ATOM      4  C3  UNL d   1      -0.381  -0.434   0.840  0.00  0.00    -0.034 A 
ATOM      5  C4  UNL d   1      -0.929  -0.870   2.048  0.00  0.00     0.162 A 
ATOM      6  C5  UNL d   1      -0.331  -1.907   2.757  0.00  0.00     0.062 A 
ATOM      7  F   UNL d   1      -0.864  -2.318   3.917  0.00  0.00    -0.097 F 
ATOM      8  F1  UNL d   1      -2.036  -0.297   2.545  0.00  0.00    -0.096 F 
ATOM      9  I   UNL d   1      -1.274   1.117  -0.223  0.00  0.00    -0.060 I 
ATOM     10  F2  UNL d   1       1.323  -0.661  -0.804  0.00  0.00    -0.096 F 
ATOM     11  F3  UNL d   1       2.472  -2.679   0.591  0.00  0.00    -0.097 F 
ATOM     12  F4  UNL d   1       1.389  -3.516   2.951  0.00  0.00    -0.092 F 
ENDROOT
TORSDOF 0
ENDMDL
