MODEL 1
REMARK minimizedAffinity -1.94922054
REMARK minimizedRMSD -1
REMARK  0 active torsions:
REMARK  status: ('A' for Active; 'I' for Inactive)
ROOT
ATOM      1  C   UNL d   1       0.487  -1.684   1.361  0.00  0.00     0.124 A 
ATOM      2  C1  UNL d   1      -0.744  -1.053   1.472  0.00  0.00     0.062 A 
ATOM      3  C2  UNL d   1      -1.077  -0.012   0.609  0.00  0.00     0.162 A 
ATOM      4  C3  UNL d   1      -0.178   0.402  -0.374  0.00  0.00    -0.034 A 
ATOM      5  C4  UNL d   1       1.058  -0.237  -0.479  0.00  0.00     0.162 A 
ATOM      6  C5  UNL d   1       1.387  -1.276   0.386  0.00  0.00     0.062 A 
ATOM      7  F   UNL d   1       2.576  -1.886   0.277  0.00  0.00    -0.097 F 
ATOM      8  F1  UNL d   1       1.946   0.136  -1.413  0.00  0.00    -0.096 F 
ATOM      9  I   UNL d   1      -0.673   1.957  -1.665  0.00  0.00    -0.060 I 
ATOM     10  F2  UNL d   1      -2.273   0.580   0.740  0.00  0.00    -0.096 F 
ATOM     11  F3  UNL d   1      -1.614  -1.444   2.414  0.00  0.00    -0.097 F 
ATOM     12  F4  UNL d   1       0.806  -2.684   2.193  0.00  0.00    -0.092 F 
ENDROOT
TORSDOF 0
ENDMDL
