MODEL 1
REMARK minimizedAffinity -0.627736747
REMARK minimizedRMSD -1
REMARK  0 active torsions:
REMARK  status: ('A' for Active; 'I' for Inactive)
ROOT
ATOM      1  C   UNL d   1       1.288  -0.833  -0.964  0.00  0.00     0.124 A 
ATOM      2  C1  UNL d   1       0.569  -1.283  -2.063  0.00  0.00     0.062 A 
ATOM      3  C2  UNL d   1      -0.597  -0.631  -2.451  0.00  0.00     0.162 A 
ATOM      4  C3  UNL d   1      -1.053   0.479  -1.740  0.00  0.00    -0.034 A 
ATOM      5  C4  UNL d   1      -0.326   0.926  -0.636  0.00  0.00     0.162 A 
ATOM      6  C5  UNL d   1       0.840   0.270  -0.251  0.00  0.00     0.062 A 
ATOM      7  F   UNL d   1       1.532   0.707   0.811  0.00  0.00    -0.097 F 
ATOM      8  F1  UNL d   1      -0.735   1.990   0.070  0.00  0.00    -0.096 F 
ATOM      9  I   UNL d   1      -2.797   1.457  -2.318  0.00  0.00    -0.060 I 
ATOM     10  F2  UNL d   1      -1.271  -1.087  -3.517  0.00  0.00    -0.096 F 
ATOM     11  F3  UNL d   1       1.000  -2.349  -2.752  0.00  0.00    -0.097 F 
ATOM     12  F4  UNL d   1       2.409  -1.463  -0.592  0.00  0.00    -0.092 F 
ENDROOT
TORSDOF 0
ENDMDL
