MODEL 1
REMARK minimizedAffinity 0.15053609
REMARK minimizedRMSD -1
REMARK  0 active torsions:
REMARK  status: ('A' for Active; 'I' for Inactive)
ROOT
ATOM      1  C   UNL d   1       0.967  -1.701   1.223  0.00  0.00     0.124 A 
ATOM      2  C1  UNL d   1      -0.414  -1.583   1.145  0.00  0.00     0.062 A 
ATOM      3  C2  UNL d   1      -0.989  -0.582   0.367  0.00  0.00     0.162 A 
ATOM      4  C3  UNL d   1      -0.183   0.309  -0.340  0.00  0.00    -0.034 A 
ATOM      5  C4  UNL d   1       1.205   0.186  -0.256  0.00  0.00     0.162 A 
ATOM      6  C5  UNL d   1       1.775  -0.816   0.523  0.00  0.00     0.062 A 
ATOM      7  F   UNL d   1       3.109  -0.928   0.597  0.00  0.00    -0.097 F 
ATOM      8  F1  UNL d   1       2.010   1.026  -0.923  0.00  0.00    -0.096 F 
ATOM      9  I   UNL d   1      -1.038   1.807  -1.505  0.00  0.00    -0.060 I 
ATOM     10  F2  UNL d   1      -2.326  -0.493   0.310  0.00  0.00    -0.096 F 
ATOM     11  F3  UNL d   1      -1.197  -2.436   1.821  0.00  0.00    -0.097 F 
ATOM     12  F4  UNL d   1       1.517  -2.664   1.973  0.00  0.00    -0.092 F 
ENDROOT
TORSDOF 0
ENDMDL
