MODEL 1
REMARK minimizedAffinity -0.699594676
REMARK minimizedRMSD -1
REMARK  0 active torsions:
REMARK  status: ('A' for Active; 'I' for Inactive)
ROOT
ATOM      1  C   UNL d   1       0.304  -2.352   1.412  0.00  0.00     0.124 A 
ATOM      2  C1  UNL d   1       1.280  -1.911   0.530  0.00  0.00     0.062 A 
ATOM      3  C2  UNL d   1       1.149  -0.677  -0.100  0.00  0.00     0.162 A 
ATOM      4  C3  UNL d   1       0.037   0.127   0.151  0.00  0.00    -0.034 A 
ATOM      5  C4  UNL d   1      -0.941  -0.324   1.039  0.00  0.00     0.162 A 
ATOM      6  C5  UNL d   1      -0.806  -1.558   1.666  0.00  0.00     0.062 A 
ATOM      7  F   UNL d   1      -1.751  -1.982   2.518  0.00  0.00    -0.097 F 
ATOM      8  F1  UNL d   1      -2.023   0.424   1.303  0.00  0.00    -0.096 F 
ATOM      9  I   UNL d   1      -0.162   1.973  -0.789  0.00  0.00    -0.060 I 
ATOM     10  F2  UNL d   1       2.109  -0.277  -0.948  0.00  0.00    -0.096 F 
ATOM     11  F3  UNL d   1       2.353  -2.677   0.283  0.00  0.00    -0.097 F 
ATOM     12  F4  UNL d   1       0.432  -3.540   2.016  0.00  0.00    -0.092 F 
ENDROOT
TORSDOF 0
ENDMDL
