MODEL 1
REMARK minimizedAffinity -1.84611952
REMARK minimizedRMSD -1
REMARK  0 active torsions:
REMARK  status: ('A' for Active; 'I' for Inactive)
ROOT
ATOM      1  C   UNL d   1      -0.663  -0.954   0.995  0.00  0.00     0.124 A 
ATOM      2  C1  UNL d   1      -0.881   0.331   0.518  0.00  0.00     0.062 A 
ATOM      3  C2  UNL d   1       0.165   1.055  -0.047  0.00  0.00     0.162 A 
ATOM      4  C3  UNL d   1       1.439   0.495  -0.140  0.00  0.00    -0.034 A 
ATOM      5  C4  UNL d   1       1.651  -0.798   0.343  0.00  0.00     0.162 A 
ATOM      6  C5  UNL d   1       0.602  -1.517   0.908  0.00  0.00     0.062 A 
ATOM      7  F   UNL d   1       0.815  -2.758   1.368  0.00  0.00    -0.097 F 
ATOM      8  F1  UNL d   1       2.863  -1.367   0.271  0.00  0.00    -0.096 F 
ATOM      9  I   UNL d   1       3.006   1.573  -0.984  0.00  0.00    -0.060 I 
ATOM     10  F2  UNL d   1      -0.074   2.295  -0.500  0.00  0.00    -0.096 F 
ATOM     11  F3  UNL d   1      -2.102   0.878   0.602  0.00  0.00    -0.097 F 
ATOM     12  F4  UNL d   1      -1.671  -1.647   1.540  0.00  0.00    -0.092 F 
ENDROOT
TORSDOF 0
ENDMDL
