MODEL 1
REMARK minimizedAffinity -2.46866846
REMARK minimizedRMSD -1
REMARK  0 active torsions:
REMARK  status: ('A' for Active; 'I' for Inactive)
ROOT
ATOM      1  C   UNL d   1       0.066   1.204  -0.297  0.00  0.00     0.124 A 
ATOM      2  C1  UNL d   1      -0.802   0.559   0.574  0.00  0.00     0.062 A 
ATOM      3  C2  UNL d   1      -0.421  -0.630   1.188  0.00  0.00     0.162 A 
ATOM      4  C3  UNL d   1       0.835  -1.183   0.934  0.00  0.00    -0.034 A 
ATOM      5  C4  UNL d   1       1.701  -0.529   0.056  0.00  0.00     0.162 A 
ATOM      6  C5  UNL d   1       1.316   0.660  -0.555  0.00  0.00     0.062 A 
ATOM      7  F   UNL d   1       2.155   1.282  -1.396  0.00  0.00    -0.097 F 
ATOM      8  F1  UNL d   1       2.915  -1.032  -0.211  0.00  0.00    -0.096 F 
ATOM      9  I   UNL d   1       1.408  -2.961   1.850  0.00  0.00    -0.060 I 
ATOM     10  F2  UNL d   1      -1.279  -1.232   2.025  0.00  0.00    -0.096 F 
ATOM     11  F3  UNL d   1      -2.010   1.083   0.824  0.00  0.00    -0.097 F 
ATOM     12  F4  UNL d   1      -0.304   2.348  -0.887  0.00  0.00    -0.092 F 
ENDROOT
TORSDOF 0
ENDMDL
