MODEL 1
REMARK minimizedAffinity 1.68804801
REMARK minimizedRMSD -1
REMARK  0 active torsions:
REMARK  status: ('A' for Active; 'I' for Inactive)
ROOT
ATOM      1  C   UNL d   1       1.371  -0.336   0.160  0.00  0.00     0.124 A 
ATOM      2  C1  UNL d   1       0.368  -1.276  -0.035  0.00  0.00     0.062 A 
ATOM      3  C2  UNL d   1      -0.823  -0.911  -0.655  0.00  0.00     0.162 A 
ATOM      4  C3  UNL d   1      -1.019   0.402  -1.085  0.00  0.00    -0.034 A 
ATOM      5  C4  UNL d   1      -0.007   1.342  -0.884  0.00  0.00     0.162 A 
ATOM      6  C5  UNL d   1       1.182   0.971  -0.264  0.00  0.00     0.062 A 
ATOM      7  F   UNL d   1       2.150   1.881  -0.076  0.00  0.00    -0.097 F 
ATOM      8  F1  UNL d   1      -0.162   2.612  -1.285  0.00  0.00    -0.096 F 
ATOM      9  I   UNL d   1      -2.799   0.953  -2.012  0.00  0.00    -0.060 I 
ATOM     10  F2  UNL d   1      -1.775  -1.840  -0.830  0.00  0.00    -0.096 F 
ATOM     11  F3  UNL d   1       0.547  -2.540   0.375  0.00  0.00    -0.097 F 
ATOM     12  F4  UNL d   1       2.516  -0.691   0.758  0.00  0.00    -0.092 F 
ENDROOT
TORSDOF 0
ENDMDL
