MODEL 1
REMARK minimizedAffinity -1.93933976
REMARK minimizedRMSD -1
REMARK  0 active torsions:
REMARK  status: ('A' for Active; 'I' for Inactive)
ROOT
ATOM      1  C   UNL d   1      -0.632  -0.982   0.965  0.00  0.00     0.124 A 
ATOM      2  C1  UNL d   1       0.651  -1.513   0.978  0.00  0.00     0.062 A 
ATOM      3  C2  UNL d   1       1.697  -0.830   0.364  0.00  0.00     0.162 A 
ATOM      4  C3  UNL d   1       1.465   0.392  -0.267  0.00  0.00    -0.034 A 
ATOM      5  C4  UNL d   1       0.172   0.919  -0.276  0.00  0.00     0.162 A 
ATOM      6  C5  UNL d   1      -0.870   0.232   0.339  0.00  0.00     0.062 A 
ATOM      7  F   UNL d   1      -2.108   0.747   0.325  0.00  0.00    -0.097 F 
ATOM      8  F1  UNL d   1      -0.086   2.091  -0.874  0.00  0.00    -0.096 F 
ATOM      9  I   UNL d   1       3.026   1.416  -1.186  0.00  0.00    -0.060 I 
ATOM     10  F2  UNL d   1       2.926  -1.367   0.392  0.00  0.00    -0.096 F 
ATOM     11  F3  UNL d   1       0.883  -2.687   1.582  0.00  0.00    -0.097 F 
ATOM     12  F4  UNL d   1      -1.637  -1.642   1.556  0.00  0.00    -0.092 F 
ENDROOT
TORSDOF 0
ENDMDL
