MODEL 1
REMARK minimizedAffinity -1.88008177
REMARK minimizedRMSD -1
REMARK  0 active torsions:
REMARK  status: ('A' for Active; 'I' for Inactive)
ROOT
ATOM      1  C   UNL d   1       0.678  -1.726   1.086  0.00  0.00     0.124 A 
ATOM      2  C1  UNL d   1      -0.588  -1.171   1.213  0.00  0.00     0.062 A 
ATOM      3  C2  UNL d   1      -0.913  -0.003   0.530  0.00  0.00     0.162 A 
ATOM      4  C3  UNL d   1       0.030   0.618  -0.289  0.00  0.00    -0.034 A 
ATOM      5  C4  UNL d   1       1.302   0.055  -0.412  0.00  0.00     0.162 A 
ATOM      6  C5  UNL d   1       1.621  -1.113   0.273  0.00  0.00     0.062 A 
ATOM      7  F   UNL d   1       2.845  -1.647   0.148  0.00  0.00    -0.097 F 
ATOM      8  F1  UNL d   1       2.232   0.626  -1.191  0.00  0.00    -0.096 F 
ATOM      9  I   UNL d   1      -0.451   2.365  -1.313  0.00  0.00    -0.060 I 
ATOM     10  F2  UNL d   1      -2.143   0.511   0.672  0.00  0.00    -0.096 F 
ATOM     11  F3  UNL d   1      -1.501  -1.761   1.998  0.00  0.00    -0.097 F 
ATOM     12  F4  UNL d   1       0.988  -2.849   1.745  0.00  0.00    -0.092 F 
ENDROOT
TORSDOF 0
ENDMDL
