MODEL 1
REMARK minimizedAffinity -4.64003372
REMARK minimizedRMSD -1
REMARK  0 active torsions:
REMARK  status: ('A' for Active; 'I' for Inactive)
ROOT
ATOM      1  C   UNL d   1       0.479  -0.812  -1.407  0.00  0.00     0.077 C 
ATOM      2  C1  UNL d   1      -0.096  -0.166  -0.181  0.00  0.00    -0.074 A 
ATOM      3  C2  UNL d   1      -0.014  -0.792   1.067  0.00  0.00    -0.005 A 
ATOM      4  C3  UNL d   1      -0.544  -0.175   2.200  0.00  0.00     0.006 A 
ATOM      5  C4  UNL d   1      -1.160   1.073   2.096  0.00  0.00    -0.005 A 
ATOM      6  C5  UNL d   1      -1.251   1.714   0.857  0.00  0.00    -0.074 A 
ATOM      7  C6  UNL d   1      -1.902   3.060   0.730  0.00  0.00     0.077 C 
ATOM      8  C7  UNL d   1      -0.710   1.091  -0.276  0.00  0.00    -0.001 A 
ENDROOT
TORSDOF 0
ENDMDL
