MODEL 1
REMARK minimizedAffinity -3.06213975
REMARK minimizedRMSD -1
REMARK  0 active torsions:
REMARK  status: ('A' for Active; 'I' for Inactive)
ROOT
ATOM      1  C   UNL d   1       1.129  -5.340  -0.560  0.00  0.00     0.077 C 
ATOM      2  C1  UNL d   1       0.809  -3.986  -1.121  0.00  0.00    -0.074 A 
ATOM      3  C2  UNL d   1       0.476  -3.827  -2.470  0.00  0.00    -0.005 A 
ATOM      4  C3  UNL d   1       0.172  -2.563  -2.974  0.00  0.00     0.006 A 
ATOM      5  C4  UNL d   1       0.196  -1.447  -2.137  0.00  0.00    -0.005 A 
ATOM      6  C5  UNL d   1       0.526  -1.587  -0.785  0.00  0.00    -0.074 A 
ATOM      7  C6  UNL d   1       0.547  -0.400   0.131  0.00  0.00     0.077 C 
ATOM      8  C7  UNL d   1       0.824  -2.862  -0.284  0.00  0.00    -0.001 A 
ENDROOT
TORSDOF 0
ENDMDL
