MODEL 1
REMARK minimizedAffinity -2.67155123
REMARK minimizedRMSD -1
REMARK  0 active torsions:
REMARK  status: ('A' for Active; 'I' for Inactive)
ROOT
ATOM      1  C   UNL d   1       0.952  -0.018  -2.080  0.00  0.00     0.077 C 
ATOM      2  C1  UNL d   1       0.287   0.009  -0.736  0.00  0.00    -0.074 A 
ATOM      3  C2  UNL d   1       0.578  -0.960   0.230  0.00  0.00    -0.005 A 
ATOM      4  C3  UNL d   1      -0.041  -0.917   1.479  0.00  0.00     0.006 A 
ATOM      5  C4  UNL d   1      -0.956   0.095   1.775  0.00  0.00    -0.005 A 
ATOM      6  C5  UNL d   1      -1.259   1.073   0.822  0.00  0.00    -0.074 A 
ATOM      7  C6  UNL d   1      -2.233   2.172   1.127  0.00  0.00     0.077 C 
ATOM      8  C7  UNL d   1      -0.628   1.026  -0.428  0.00  0.00    -0.001 A 
ENDROOT
TORSDOF 0
ENDMDL
