MODEL 1
REMARK minimizedAffinity -0.53191036
REMARK minimizedRMSD -1
REMARK  0 active torsions:
REMARK  status: ('A' for Active; 'I' for Inactive)
ROOT
ATOM      1  C   UNL d   1       0.176   2.267  -1.462  0.00  0.00     0.077 C 
ATOM      2  C1  UNL d   1       0.115   0.927  -0.789  0.00  0.00    -0.074 A 
ATOM      3  C2  UNL d   1      -0.496   0.777   0.459  0.00  0.00    -0.005 A 
ATOM      4  C3  UNL d   1      -0.553  -0.477   1.068  0.00  0.00     0.006 A 
ATOM      5  C4  UNL d   1      -0.001  -1.591   0.436  0.00  0.00    -0.005 A 
ATOM      6  C5  UNL d   1       0.614  -1.460  -0.814  0.00  0.00    -0.074 A 
ATOM      7  C6  UNL d   1       1.204  -2.649  -1.512  0.00  0.00     0.077 C 
ATOM      8  C7  UNL d   1       0.661  -0.198  -1.422  0.00  0.00    -0.001 A 
ENDROOT
TORSDOF 0
ENDMDL
