MODEL 1
REMARK minimizedAffinity -3.92540121
REMARK minimizedRMSD -1
REMARK  0 active torsions:
REMARK  status: ('A' for Active; 'I' for Inactive)
ROOT
ATOM      1  C   UNL d   1      -2.357   2.674   1.121  0.00  0.00     0.077 C 
ATOM      2  C1  UNL d   1      -1.428   1.498   1.169  0.00  0.00    -0.074 A 
ATOM      3  C2  UNL d   1      -1.079   0.907   2.388  0.00  0.00    -0.005 A 
ATOM      4  C3  UNL d   1      -0.222  -0.192   2.417  0.00  0.00     0.006 A 
ATOM      5  C4  UNL d   1       0.295  -0.712   1.229  0.00  0.00    -0.005 A 
ATOM      6  C5  UNL d   1      -0.044  -0.136   0.001  0.00  0.00    -0.074 A 
ATOM      7  C6  UNL d   1       0.494  -0.688  -1.286  0.00  0.00     0.077 C 
ATOM      8  C7  UNL d   1      -0.912   0.965  -0.020  0.00  0.00    -0.001 A 
ENDROOT
TORSDOF 0
ENDMDL
