MODEL 1
REMARK minimizedAffinity -4.25554943
REMARK minimizedRMSD -1
REMARK  0 active torsions:
REMARK  status: ('A' for Active; 'I' for Inactive)
ROOT
ATOM      1  C   UNL d   1       0.980  -0.934  -1.043  0.00  0.00     0.077 C 
ATOM      2  C1  UNL d   1       0.095  -0.416   0.051  0.00  0.00    -0.074 A 
ATOM      3  C2  UNL d   1       0.025  -1.065   1.287  0.00  0.00    -0.005 A 
ATOM      4  C3  UNL d   1      -0.795  -0.565   2.299  0.00  0.00     0.006 A 
ATOM      5  C4  UNL d   1      -1.553   0.587   2.083  0.00  0.00    -0.005 A 
ATOM      6  C5  UNL d   1      -1.496   1.250   0.853  0.00  0.00    -0.074 A 
ATOM      7  C6  UNL d   1      -2.296   2.495   0.609  0.00  0.00     0.077 C 
ATOM      8  C7  UNL d   1      -0.663   0.745  -0.155  0.00  0.00    -0.001 A 
ENDROOT
TORSDOF 0
ENDMDL
