MODEL 1
REMARK minimizedAffinity -3.53612757
REMARK minimizedRMSD -1
REMARK  0 active torsions:
REMARK  status: ('A' for Active; 'I' for Inactive)
ROOT
ATOM      1  C   UNL d   1      -2.350   1.933   0.810  0.00  0.00     0.077 C 
ATOM      2  C1  UNL d   1      -1.227   0.998   0.474  0.00  0.00    -0.074 A 
ATOM      3  C2  UNL d   1      -0.307   0.599   1.449  0.00  0.00    -0.005 A 
ATOM      4  C3  UNL d   1       0.726  -0.279   1.123  0.00  0.00     0.006 A 
ATOM      5  C4  UNL d   1       0.850  -0.767  -0.178  0.00  0.00    -0.005 A 
ATOM      6  C5  UNL d   1      -0.061  -0.380  -1.166  0.00  0.00    -0.074 A 
ATOM      7  C6  UNL d   1       0.052  -0.903  -2.567  0.00  0.00     0.077 C 
ATOM      8  C7  UNL d   1      -1.101   0.497  -0.829  0.00  0.00    -0.001 A 
ENDROOT
TORSDOF 0
ENDMDL
