MODEL 1
REMARK minimizedAffinity -3.96212888
REMARK minimizedRMSD -1
REMARK  0 active torsions:
REMARK  status: ('A' for Active; 'I' for Inactive)
ROOT
ATOM      1  C   UNL d   1       0.044  -0.808   0.855  0.00  0.00     0.077 C 
ATOM      2  C1  UNL d   1      -0.409   0.620   0.785  0.00  0.00    -0.074 A 
ATOM      3  C2  UNL d   1      -1.038   1.228   1.876  0.00  0.00    -0.005 A 
ATOM      4  C3  UNL d   1      -1.446   2.560   1.800  0.00  0.00     0.006 A 
ATOM      5  C4  UNL d   1      -1.229   3.296   0.634  0.00  0.00    -0.005 A 
ATOM      6  C5  UNL d   1      -0.601   2.704  -0.466  0.00  0.00    -0.074 A 
ATOM      7  C6  UNL d   1      -0.351   3.484  -1.723  0.00  0.00     0.077 C 
ATOM      8  C7  UNL d   1      -0.188   1.368  -0.380  0.00  0.00    -0.001 A 
ENDROOT
TORSDOF 0
ENDMDL
