MODEL 1
REMARK minimizedAffinity -5.41319227
REMARK minimizedRMSD -1
REMARK  0 active torsions:
REMARK  status: ('A' for Active; 'I' for Inactive)
ROOT
ATOM      1  C   UNL d   1       0.828  -0.470  -0.950  0.00  0.00     0.077 C 
ATOM      2  C1  UNL d   1      -0.053  -0.256   0.244  0.00  0.00    -0.074 A 
ATOM      3  C2  UNL d   1       0.016  -1.109   1.350  0.00  0.00    -0.005 A 
ATOM      4  C3  UNL d   1      -0.803  -0.892   2.458  0.00  0.00     0.006 A 
ATOM      5  C4  UNL d   1      -1.697   0.179   2.472  0.00  0.00    -0.005 A 
ATOM      6  C5  UNL d   1      -1.780   1.043   1.375  0.00  0.00    -0.074 A 
ATOM      7  C6  UNL d   1      -2.729   2.204   1.377  0.00  0.00     0.077 C 
ATOM      8  C7  UNL d   1      -0.948   0.822   0.268  0.00  0.00    -0.001 A 
ENDROOT
TORSDOF 0
ENDMDL
