MODEL 1
REMARK minimizedAffinity -3.17565966
REMARK minimizedRMSD -1
REMARK  0 active torsions:
REMARK  status: ('A' for Active; 'I' for Inactive)
ROOT
ATOM      1  C   UNL d   1       1.172  -1.979  -0.715  0.00  0.00     0.077 C 
ATOM      2  C1  UNL d   1       0.662  -0.571  -0.801  0.00  0.00    -0.074 A 
ATOM      3  C2  UNL d   1       1.107   0.294  -1.805  0.00  0.00    -0.005 A 
ATOM      4  C3  UNL d   1       0.617   1.598  -1.878  0.00  0.00     0.006 A 
ATOM      5  C4  UNL d   1      -0.322   2.049  -0.949  0.00  0.00    -0.005 A 
ATOM      6  C5  UNL d   1      -0.779   1.197   0.061  0.00  0.00    -0.074 A 
ATOM      7  C6  UNL d   1      -1.796   1.662   1.062  0.00  0.00     0.077 C 
ATOM      8  C7  UNL d   1      -0.287  -0.114   0.124  0.00  0.00    -0.001 A 
ENDROOT
TORSDOF 0
ENDMDL
