MODEL 1
REMARK minimizedAffinity -3.23429036
REMARK minimizedRMSD -1
REMARK  0 active torsions:
REMARK  status: ('A' for Active; 'I' for Inactive)
ROOT
ATOM      1  C   UNL d   1       0.434  -1.008   1.891  0.00  0.00     0.077 C 
ATOM      2  C1  UNL d   1      -0.458   0.069   1.347  0.00  0.00    -0.074 A 
ATOM      3  C2  UNL d   1      -1.603   0.472   2.041  0.00  0.00    -0.005 A 
ATOM      4  C3  UNL d   1      -2.418   1.481   1.527  0.00  0.00     0.006 A 
ATOM      5  C4  UNL d   1      -2.096   2.096   0.316  0.00  0.00    -0.005 A 
ATOM      6  C5  UNL d   1      -0.955   1.706  -0.391  0.00  0.00    -0.074 A 
ATOM      7  C6  UNL d   1      -0.589   2.363  -1.689  0.00  0.00     0.077 C 
ATOM      8  C7  UNL d   1      -0.137   0.696   0.135  0.00  0.00    -0.001 A 
ENDROOT
TORSDOF 0
ENDMDL
