MODEL 1
REMARK minimizedAffinity -2.46093702
REMARK minimizedRMSD -1
REMARK  0 active torsions:
REMARK  status: ('A' for Active; 'I' for Inactive)
ROOT
ATOM      1  C   UNL d   1       0.811  -1.914  -0.322  0.00  0.00     0.077 C 
ATOM      2  C1  UNL d   1       0.272  -0.515  -0.267  0.00  0.00    -0.074 A 
ATOM      3  C2  UNL d   1       0.700   0.456  -1.179  0.00  0.00    -0.005 A 
ATOM      4  C3  UNL d   1       0.183   1.751  -1.121  0.00  0.00     0.006 A 
ATOM      5  C4  UNL d   1      -0.764   2.087  -0.154  0.00  0.00    -0.005 A 
ATOM      6  C5  UNL d   1      -1.205   1.129   0.765  0.00  0.00    -0.074 A 
ATOM      7  C6  UNL d   1      -2.230   1.471   1.805  0.00  0.00     0.077 C 
ATOM      8  C7  UNL d   1      -0.686  -0.171   0.697  0.00  0.00    -0.001 A 
ENDROOT
TORSDOF 0
ENDMDL
