MODEL 1
REMARK minimizedAffinity -2.88120985
REMARK minimizedRMSD -1
REMARK  0 active torsions:
REMARK  status: ('A' for Active; 'I' for Inactive)
ROOT
ATOM      1  C   UNL d   1      -0.745   3.372   0.382  0.00  0.00     0.077 C 
ATOM      2  C1  UNL d   1      -0.584   1.932   0.768  0.00  0.00    -0.074 A 
ATOM      3  C2  UNL d   1      -1.188   1.425   1.923  0.00  0.00    -0.005 A 
ATOM      4  C3  UNL d   1      -1.036   0.081   2.264  0.00  0.00     0.006 A 
ATOM      5  C4  UNL d   1      -0.280  -0.768   1.455  0.00  0.00    -0.005 A 
ATOM      6  C5  UNL d   1       0.331  -0.279   0.296  0.00  0.00    -0.074 A 
ATOM      7  C6  UNL d   1       1.139  -1.180  -0.590  0.00  0.00     0.077 C 
ATOM      8  C7  UNL d   1       0.168   1.071  -0.044  0.00  0.00    -0.001 A 
ENDROOT
TORSDOF 0
ENDMDL
