MODEL 1
REMARK minimizedAffinity -2.89795399
REMARK minimizedRMSD -1
REMARK  0 active torsions:
REMARK  status: ('A' for Active; 'I' for Inactive)
ROOT
ATOM      1  C   UNL d   1       1.398   1.841  -1.605  0.00  0.00     0.077 C 
ATOM      2  C1  UNL d   1       0.479   1.440  -0.490  0.00  0.00    -0.074 A 
ATOM      3  C2  UNL d   1       0.585   0.183   0.113  0.00  0.00    -0.005 A 
ATOM      4  C3  UNL d   1      -0.271  -0.172   1.155  0.00  0.00     0.006 A 
ATOM      5  C4  UNL d   1      -1.241   0.725   1.604  0.00  0.00    -0.005 A 
ATOM      6  C5  UNL d   1      -1.362   1.987   1.014  0.00  0.00    -0.074 A 
ATOM      7  C6  UNL d   1      -2.392   2.966   1.492  0.00  0.00     0.077 C 
ATOM      8  C7  UNL d   1      -0.493   2.339  -0.028  0.00  0.00    -0.001 A 
ENDROOT
TORSDOF 0
ENDMDL
