MODEL 1
REMARK minimizedAffinity -5.16124773
REMARK minimizedRMSD -1
REMARK  0 active torsions:
REMARK  status: ('A' for Active; 'I' for Inactive)
ROOT
ATOM      1  C   UNL d   1       1.150  -0.973  -0.927  0.00  0.00     0.077 C 
ATOM      2  C1  UNL d   1       0.423  -0.247   0.165  0.00  0.00    -0.074 A 
ATOM      3  C2  UNL d   1       0.407  -0.745   1.472  0.00  0.00    -0.005 A 
ATOM      4  C3  UNL d   1      -0.266  -0.053   2.480  0.00  0.00     0.006 A 
ATOM      5  C4  UNL d   1      -0.927   1.141   2.191  0.00  0.00    -0.005 A 
ATOM      6  C5  UNL d   1      -0.920   1.655   0.891  0.00  0.00    -0.074 A 
ATOM      7  C6  UNL d   1      -1.618   2.943   0.566  0.00  0.00     0.077 C 
ATOM      8  C7  UNL d   1      -0.237   0.958  -0.115  0.00  0.00    -0.001 A 
ENDROOT
TORSDOF 0
ENDMDL
