MODEL 1
REMARK minimizedAffinity -3.70456839
REMARK minimizedRMSD -1
REMARK  0 active torsions:
REMARK  status: ('A' for Active; 'I' for Inactive)
ROOT
ATOM      1  C   UNL d   1      -2.548   1.986   1.098  0.00  0.00     0.077 C 
ATOM      2  C1  UNL d   1      -1.370   1.057   1.074  0.00  0.00    -0.074 A 
ATOM      3  C2  UNL d   1      -0.982   0.359   2.223  0.00  0.00    -0.005 A 
ATOM      4  C3  UNL d   1       0.109  -0.508   2.183  0.00  0.00     0.006 A 
ATOM      5  C4  UNL d   1       0.822  -0.687   0.997  0.00  0.00    -0.005 A 
ATOM      6  C5  UNL d   1       0.448   0.001  -0.161  0.00  0.00    -0.074 A 
ATOM      7  C6  UNL d   1       1.197  -0.186  -1.447  0.00  0.00     0.077 C 
ATOM      8  C7  UNL d   1      -0.654   0.867  -0.115  0.00  0.00    -0.001 A 
ENDROOT
TORSDOF 0
ENDMDL
