MODEL 1
REMARK minimizedAffinity -5.51461315
REMARK minimizedRMSD -1
REMARK  0 active torsions:
REMARK  status: ('A' for Active; 'I' for Inactive)
ROOT
ATOM      1  C   UNL d   1      -1.028   3.364   0.351  0.00  0.00     0.077 C 
ATOM      2  C1  UNL d   1      -0.974   1.906   0.703  0.00  0.00    -0.074 A 
ATOM      3  C2  UNL d   1      -1.607   1.420   1.852  0.00  0.00    -0.005 A 
ATOM      4  C3  UNL d   1      -1.556   0.061   2.161  0.00  0.00     0.006 A 
ATOM      5  C4  UNL d   1      -0.874  -0.824   1.326  0.00  0.00    -0.005 A 
ATOM      6  C5  UNL d   1      -0.236  -0.357   0.172  0.00  0.00    -0.074 A 
ATOM      7  C6  UNL d   1       0.494  -1.296  -0.741  0.00  0.00     0.077 C 
ATOM      8  C7  UNL d   1      -0.297   1.009  -0.135  0.00  0.00    -0.001 A 
ENDROOT
TORSDOF 0
ENDMDL
