MODEL 1
REMARK minimizedAffinity -0.608819962
REMARK minimizedRMSD -1
REMARK  0 active torsions:
REMARK  status: ('A' for Active; 'I' for Inactive)
ROOT
ATOM      1  C   UNL d   1       1.223  -2.270  -1.563  0.00  0.00     0.077 C 
ATOM      2  C1  UNL d   1       0.480  -1.189  -0.836  0.00  0.00    -0.074 A 
ATOM      3  C2  UNL d   1      -0.038  -1.409   0.444  0.00  0.00    -0.005 A 
ATOM      4  C3  UNL d   1      -0.719  -0.390   1.111  0.00  0.00     0.006 A 
ATOM      5  C4  UNL d   1      -0.887   0.856   0.507  0.00  0.00    -0.005 A 
ATOM      6  C5  UNL d   1      -0.375   1.094  -0.773  0.00  0.00    -0.074 A 
ATOM      7  C6  UNL d   1      -0.538   2.431  -1.433  0.00  0.00     0.077 C 
ATOM      8  C7  UNL d   1       0.314   0.068  -1.434  0.00  0.00    -0.001 A 
ENDROOT
TORSDOF 0
ENDMDL
