MODEL 1
REMARK minimizedAffinity 1.42687809
REMARK minimizedRMSD -1
REMARK  0 active torsions:
REMARK  status: ('A' for Active; 'I' for Inactive)
ROOT
ATOM      1  C2' OXE d   1      -0.464   1.609  -0.775  0.00  0.00     0.078 C 
ATOM      2  C1' OXE d   1      -2.594   0.435   0.627  0.00  0.00     0.078 C 
ATOM      3  C1  OXE d   1      -2.759   1.859   0.161  0.00  0.00    -0.078 A 
ATOM      4  C2  OXE d   1      -1.694   2.441  -0.484  0.00  0.00    -0.078 A 
ATOM      5  C3  OXE d   1      -1.813   3.735  -0.983  0.00  0.00     0.003 A 
ATOM      6  C4  OXE d   1      -2.950   4.502  -0.700  0.00  0.00    -0.002 A 
ATOM      7  C5  OXE d   1      -4.031   3.942  -0.011  0.00  0.00    -0.002 A 
ATOM      8  C6  OXE d   1      -3.969   2.611   0.388  0.00  0.00     0.003 A 
ENDROOT
TORSDOF 0
ENDMDL
