MODEL 1
REMARK minimizedAffinity -2.41953707
REMARK minimizedRMSD -1
REMARK  0 active torsions:
REMARK  status: ('A' for Active; 'I' for Inactive)
ROOT
ATOM      1  C2' OXE d   1      -2.673  -1.147   3.528  0.00  0.00     0.078 C 
ATOM      2  C1' OXE d   1      -2.072  -2.061   0.942  0.00  0.00     0.078 C 
ATOM      3  C1  OXE d   1      -2.186  -0.572   1.154  0.00  0.00    -0.078 A 
ATOM      4  C2  OXE d   1      -2.526  -0.136   2.412  0.00  0.00    -0.078 A 
ATOM      5  C3  OXE d   1      -2.591   1.230   2.674  0.00  0.00     0.003 A 
ATOM      6  C4  OXE d   1      -2.464   2.158   1.634  0.00  0.00    -0.002 A 
ATOM      7  C5  OXE d   1      -2.157   1.734   0.337  0.00  0.00    -0.002 A 
ATOM      8  C6  OXE d   1      -1.973   0.378   0.089  0.00  0.00     0.003 A 
ENDROOT
TORSDOF 0
ENDMDL
