MODEL 1
REMARK minimizedAffinity -3.15557051
REMARK minimizedRMSD -1
REMARK  0 active torsions:
REMARK  status: ('A' for Active; 'I' for Inactive)
ROOT
ATOM      1  C2' OXE d   1      -4.758  -1.041   2.911  0.00  0.00     0.078 C 
ATOM      2  C1' OXE d   1      -2.981   0.673   4.247  0.00  0.00     0.078 C 
ATOM      3  C1  OXE d   1      -3.034   0.749   2.741  0.00  0.00    -0.078 A 
ATOM      4  C2  OXE d   1      -3.872  -0.126   2.093  0.00  0.00    -0.078 A 
ATOM      5  C3  OXE d   1      -3.999  -0.061   0.709  0.00  0.00     0.003 A 
ATOM      6  C4  OXE d   1      -3.169   0.781  -0.041  0.00  0.00    -0.002 A 
ATOM      7  C5  OXE d   1      -2.280   1.652   0.597  0.00  0.00    -0.002 A 
ATOM      8  C6  OXE d   1      -2.231   1.679   1.987  0.00  0.00     0.003 A 
ENDROOT
TORSDOF 0
ENDMDL
