MODEL 1
REMARK minimizedAffinity 0.473088324
REMARK minimizedRMSD -1
REMARK  0 active torsions:
REMARK  status: ('A' for Active; 'I' for Inactive)
ROOT
ATOM      1  C2' OXE d   1      -4.704   0.229  -0.841  0.00  0.00     0.078 C 
ATOM      2  C1' OXE d   1      -2.636  -0.408   0.948  0.00  0.00     0.078 C 
ATOM      3  C1  OXE d   1      -2.888   1.050   0.654  0.00  0.00    -0.078 A 
ATOM      4  C2  OXE d   1      -3.871   1.350  -0.259  0.00  0.00    -0.078 A 
ATOM      5  C3  OXE d   1      -4.180   2.681  -0.525  0.00  0.00     0.003 A 
ATOM      6  C4  OXE d   1      -3.398   3.712   0.010  0.00  0.00    -0.002 A 
ATOM      7  C5  OXE d   1      -2.367   3.426   0.911  0.00  0.00    -0.002 A 
ATOM      8  C6  OXE d   1      -2.127   2.105   1.275  0.00  0.00     0.003 A 
ENDROOT
TORSDOF 0
ENDMDL
