MODEL 1
REMARK minimizedAffinity 9.11820507
REMARK minimizedRMSD -1
REMARK  0 active torsions:
REMARK  status: ('A' for Active; 'I' for Inactive)
ROOT
ATOM      1  C2' OXE d   1      -3.237  -0.871   0.318  0.00  0.00     0.078 C 
ATOM      2  C1' OXE d   1      -5.464  -1.415   1.938  0.00  0.00     0.078 C 
ATOM      3  C1  OXE d   1      -4.165  -1.066   2.621  0.00  0.00    -0.078 A 
ATOM      4  C2  OXE d   1      -3.069  -0.848   1.822  0.00  0.00    -0.078 A 
ATOM      5  C3  OXE d   1      -1.860  -0.470   2.399  0.00  0.00     0.003 A 
ATOM      6  C4  OXE d   1      -1.711  -0.460   3.791  0.00  0.00    -0.002 A 
ATOM      7  C5  OXE d   1      -2.805  -0.719   4.624  0.00  0.00    -0.002 A 
ATOM      8  C6  OXE d   1      -4.046  -0.981   4.056  0.00  0.00     0.003 A 
ENDROOT
TORSDOF 0
ENDMDL
