MODEL 1
REMARK minimizedAffinity 1.3247155
REMARK minimizedRMSD -1
REMARK  0 active torsions:
REMARK  status: ('A' for Active; 'I' for Inactive)
ROOT
ATOM      1  C2' OXE d   1      -2.704   0.101   1.229  0.00  0.00     0.078 C 
ATOM      2  C1' OXE d   1      -4.680   0.607  -0.700  0.00  0.00     0.078 C 
ATOM      3  C1  OXE d   1      -3.981   1.792  -0.082  0.00  0.00    -0.078 A 
ATOM      4  C2  OXE d   1      -3.048   1.536   0.895  0.00  0.00    -0.078 A 
ATOM      5  C3  OXE d   1      -2.334   2.590   1.458  0.00  0.00     0.003 A 
ATOM      6  C4  OXE d   1      -2.665   3.915   1.151  0.00  0.00    -0.002 A 
ATOM      7  C5  OXE d   1      -3.640   4.199   0.188  0.00  0.00    -0.002 A 
ATOM      8  C6  OXE d   1      -4.275   3.150  -0.467  0.00  0.00     0.003 A 
ENDROOT
TORSDOF 0
ENDMDL
