MODEL 1
REMARK minimizedAffinity -1.52331877
REMARK minimizedRMSD -1
REMARK  0 active torsions:
REMARK  status: ('A' for Active; 'I' for Inactive)
ROOT
ATOM      1  C2' OXE d   1       2.454  -2.020   1.035  0.00  0.00     0.078 C 
ATOM      2  C1' OXE d   1       0.670  -1.570  -1.084  0.00  0.00     0.078 C 
ATOM      3  C1  OXE d   1       0.418  -2.761  -0.194  0.00  0.00    -0.078 A 
ATOM      4  C2  OXE d   1       1.323  -3.001   0.812  0.00  0.00    -0.078 A 
ATOM      5  C3  OXE d   1       1.108  -4.054   1.696  0.00  0.00     0.003 A 
ATOM      6  C4  OXE d   1       0.065  -4.962   1.477  0.00  0.00    -0.002 A 
ATOM      7  C5  OXE d   1      -0.845  -4.759   0.434  0.00  0.00    -0.002 A 
ATOM      8  C6  OXE d   1      -0.707  -3.643  -0.383  0.00  0.00     0.003 A 
ENDROOT
TORSDOF 0
ENDMDL
