MODEL 1
REMARK minimizedAffinity 2.81984925
REMARK minimizedRMSD -1
REMARK  0 active torsions:
REMARK  status: ('A' for Active; 'I' for Inactive)
ROOT
ATOM      1  C2' OXE d   1       5.995   2.757   4.760  0.00  0.00     0.078 C 
ATOM      2  C1' OXE d   1       4.487   1.660   2.661  0.00  0.00     0.078 C 
ATOM      3  C1  OXE d   1       4.879   0.749   3.797  0.00  0.00    -0.078 A 
ATOM      4  C2  OXE d   1       5.656   1.282   4.797  0.00  0.00    -0.078 A 
ATOM      5  C3  OXE d   1       5.999   0.500   5.895  0.00  0.00     0.003 A 
ATOM      6  C4  OXE d   1       5.690  -0.866   5.917  0.00  0.00    -0.002 A 
ATOM      7  C5  OXE d   1       4.933  -1.439   4.890  0.00  0.00    -0.002 A 
ATOM      8  C6  OXE d   1       4.484  -0.637   3.846  0.00  0.00     0.003 A 
ENDROOT
TORSDOF 0
ENDMDL
