MODEL 1
REMARK minimizedAffinity 7.89055014
REMARK minimizedRMSD -1
REMARK  0 active torsions:
REMARK  status: ('A' for Active; 'I' for Inactive)
ROOT
ATOM      1  C2' OXE d   1       5.317   3.783   3.765  0.00  0.00     0.078 C 
ATOM      2  C1' OXE d   1       3.746   2.625   1.747  0.00  0.00     0.078 C 
ATOM      3  C1  OXE d   1       4.511   1.701   2.660  0.00  0.00    -0.078 A 
ATOM      4  C2  OXE d   1       5.314   2.277   3.615  0.00  0.00    -0.078 A 
ATOM      5  C3  OXE d   1       6.000   1.470   4.518  0.00  0.00     0.003 A 
ATOM      6  C4  OXE d   1       6.000   0.078   4.366  0.00  0.00    -0.002 A 
ATOM      7  C5  OXE d   1       5.220  -0.528   3.376  0.00  0.00    -0.002 A 
ATOM      8  C6  OXE d   1       4.438   0.265   2.543  0.00  0.00     0.003 A 
ENDROOT
TORSDOF 0
ENDMDL
