MODEL 1
REMARK minimizedAffinity 5.18365622
REMARK minimizedRMSD -1
REMARK  0 active torsions:
REMARK  status: ('A' for Active; 'I' for Inactive)
ROOT
ATOM      1  C2' OXE d   1       5.575   3.731   4.465  0.00  0.00     0.078 C 
ATOM      2  C1' OXE d   1       4.499   2.383   2.250  0.00  0.00     0.078 C 
ATOM      3  C1  OXE d   1       5.002   1.552   3.403  0.00  0.00    -0.078 A 
ATOM      4  C2  OXE d   1       5.569   2.218   4.463  0.00  0.00    -0.078 A 
ATOM      5  C3  OXE d   1       5.999   1.502   5.576  0.00  0.00     0.003 A 
ATOM      6  C4  OXE d   1       6.000   0.102   5.562  0.00  0.00    -0.002 A 
ATOM      7  C5  OXE d   1       5.462  -0.597   4.476  0.00  0.00    -0.002 A 
ATOM      8  C6  OXE d   1       4.922   0.112   3.410  0.00  0.00     0.003 A 
ENDROOT
TORSDOF 0
ENDMDL
