MODEL 1
REMARK minimizedAffinity 11.4026041
REMARK minimizedRMSD -1
REMARK  0 active torsions:
REMARK  status: ('A' for Active; 'I' for Inactive)
ROOT
ATOM      1  C2' OXE d   1       3.680   2.743   1.531  0.00  0.00     0.078 C 
ATOM      2  C1' OXE d   1       5.087   4.375   3.330  0.00  0.00     0.078 C 
ATOM      3  C1  OXE d   1       5.191   2.880   3.507  0.00  0.00    -0.078 A 
ATOM      4  C2  OXE d   1       4.461   2.090   2.651  0.00  0.00    -0.078 A 
ATOM      5  C3  OXE d   1       4.564   0.705   2.736  0.00  0.00     0.003 A 
ATOM      6  C4  OXE d   1       5.281   0.110   3.780  0.00  0.00    -0.002 A 
ATOM      7  C5  OXE d   1       5.999   0.896   4.687  0.00  0.00    -0.002 A 
ATOM      8  C6  OXE d   1       5.999   2.279   4.539  0.00  0.00     0.003 A 
ENDROOT
TORSDOF 0
ENDMDL
