MODEL 1
REMARK minimizedAffinity 2.12254524
REMARK minimizedRMSD -1
REMARK  0 active torsions:
REMARK  status: ('A' for Active; 'I' for Inactive)
ROOT
ATOM      1  C2' OXE d   1       3.256  -0.603   3.056  0.00  0.00     0.078 C 
ATOM      2  C1' OXE d   1       3.205   1.981   1.959  0.00  0.00     0.078 C 
ATOM      3  C1  OXE d   1       4.208   1.699   3.051  0.00  0.00    -0.078 A 
ATOM      4  C2  OXE d   1       4.194   0.446   3.614  0.00  0.00    -0.078 A 
ATOM      5  C3  OXE d   1       5.134   0.117   4.586  0.00  0.00     0.003 A 
ATOM      6  C4  OXE d   1       5.991   1.096   5.104  0.00  0.00    -0.002 A 
ATOM      7  C5  OXE d   1       5.994   2.390   4.572  0.00  0.00    -0.002 A 
ATOM      8  C6  OXE d   1       5.140   2.695   3.518  0.00  0.00     0.003 A 
ENDROOT
TORSDOF 0
ENDMDL
