MODEL 1
REMARK minimizedAffinity 2.49774957
REMARK minimizedRMSD -1
REMARK  0 active torsions:
REMARK  status: ('A' for Active; 'I' for Inactive)
ROOT
ATOM      1  C2' OXE d   1      -3.382   1.014  -0.014  0.00  0.00     0.078 C 
ATOM      2  C1' OXE d   1      -0.907   2.124  -0.738  0.00  0.00     0.078 C 
ATOM      3  C1  OXE d   1      -1.961   3.052  -0.186  0.00  0.00    -0.078 A 
ATOM      4  C2  OXE d   1      -3.184   2.508   0.122  0.00  0.00    -0.078 A 
ATOM      5  C3  OXE d   1      -4.173   3.310   0.685  0.00  0.00     0.003 A 
ATOM      6  C4  OXE d   1      -3.986   4.693   0.797  0.00  0.00    -0.002 A 
ATOM      7  C5  OXE d   1      -2.761   5.274   0.452  0.00  0.00    -0.002 A 
ATOM      8  C6  OXE d   1      -1.726   4.463  -0.000  0.00  0.00     0.003 A 
ENDROOT
TORSDOF 0
ENDMDL
