MODEL 1
REMARK minimizedAffinity 1.93934619
REMARK minimizedRMSD -1
REMARK  0 active torsions:
REMARK  status: ('A' for Active; 'I' for Inactive)
ROOT
ATOM      1  C2' OXE d   1      -3.055   2.189   0.698  0.00  0.00     0.078 C 
ATOM      2  C1' OXE d   1      -3.917  -0.400   0.039  0.00  0.00     0.078 C 
ATOM      3  C1  OXE d   1      -3.595  -0.112   1.484  0.00  0.00    -0.078 A 
ATOM      4  C2  OXE d   1      -3.129   1.144   1.790  0.00  0.00    -0.078 A 
ATOM      5  C3  OXE d   1      -2.869   1.479   3.116  0.00  0.00     0.003 A 
ATOM      6  C4  OXE d   1      -2.931   0.504   4.119  0.00  0.00    -0.002 A 
ATOM      7  C5  OXE d   1      -3.364  -0.793   3.822  0.00  0.00    -0.002 A 
ATOM      8  C6  OXE d   1      -3.740  -1.105   2.520  0.00  0.00     0.003 A 
ENDROOT
TORSDOF 0
ENDMDL
