MODEL 1
REMARK minimizedAffinity -0.871114671
REMARK minimizedRMSD -1
REMARK  0 active torsions:
REMARK  status: ('A' for Active; 'I' for Inactive)
ROOT
ATOM      1  C2' OXE d   1       3.362  -2.514   4.487  0.00  0.00     0.078 C 
ATOM      2  C1' OXE d   1       2.601  -1.596   1.946  0.00  0.00     0.078 C 
ATOM      3  C1  OXE d   1       3.493  -0.708   2.777  0.00  0.00    -0.078 A 
ATOM      4  C2  OXE d   1       3.823  -1.144   4.037  0.00  0.00    -0.078 A 
ATOM      5  C3  OXE d   1       4.687  -0.389   4.824  0.00  0.00     0.003 A 
ATOM      6  C4  OXE d   1       5.101   0.881   4.405  0.00  0.00    -0.002 A 
ATOM      7  C5  OXE d   1       4.745   1.362   3.140  0.00  0.00    -0.002 A 
ATOM      8  C6  OXE d   1       3.978   0.563   2.299  0.00  0.00     0.003 A 
ENDROOT
TORSDOF 0
ENDMDL
