MODEL 1
REMARK minimizedAffinity -0.130295828
REMARK minimizedRMSD -1
REMARK  0 active torsions:
REMARK  status: ('A' for Active; 'I' for Inactive)
ROOT
ATOM      1  C2' OXE d   1      -4.009  -0.532  -0.089  0.00  0.00     0.078 C 
ATOM      2  C1' OXE d   1      -2.907   0.061   2.424  0.00  0.00     0.078 C 
ATOM      3  C1  OXE d   1      -3.069   1.194   1.442  0.00  0.00    -0.078 A 
ATOM      4  C2  OXE d   1      -3.565   0.887   0.198  0.00  0.00    -0.078 A 
ATOM      5  C3  OXE d   1      -3.786   1.903  -0.727  0.00  0.00     0.003 A 
ATOM      6  C4  OXE d   1      -3.363   3.210  -0.458  0.00  0.00    -0.002 A 
ATOM      7  C5  OXE d   1      -2.819   3.538   0.788  0.00  0.00    -0.002 A 
ATOM      8  C6  OXE d   1      -2.704   2.552   1.762  0.00  0.00     0.003 A 
ENDROOT
TORSDOF 0
ENDMDL
