MODEL 1
REMARK minimizedAffinity 1.2553879
REMARK minimizedRMSD -1
REMARK  0 active torsions:
REMARK  status: ('A' for Active; 'I' for Inactive)
ROOT
ATOM      1  C2' OXE d   1       0.085  -1.734  -2.550  0.00  0.00     0.078 C 
ATOM      2  C1' OXE d   1       2.646  -2.627  -1.825  0.00  0.00     0.078 C 
ATOM      3  C1  OXE d   1       1.486  -3.027  -0.947  0.00  0.00    -0.078 A 
ATOM      4  C2  OXE d   1       0.244  -2.547  -1.283  0.00  0.00    -0.078 A 
ATOM      5  C3  OXE d   1      -0.868  -2.930  -0.539  0.00  0.00     0.003 A 
ATOM      6  C4  OXE d   1      -0.712  -3.673   0.637  0.00  0.00    -0.002 A 
ATOM      7  C5  OXE d   1       0.551  -4.139   1.020  0.00  0.00    -0.002 A 
ATOM      8  C6  OXE d   1       1.652  -3.861   0.217  0.00  0.00     0.003 A 
ENDROOT
TORSDOF 0
ENDMDL
