MODEL 1
REMARK minimizedAffinity 1.98945367
REMARK minimizedRMSD -1
REMARK  1 active torsions:
REMARK  status: ('A' for Active; 'I' for Inactive)
REMARK    1  A    between atoms: C1_2  and  C2_3 
ROOT
ATOM      1  C2  UNL d   1      -5.245   2.659  -1.838  0.00  0.00    -0.081 A 
ATOM      2  C3  UNL d   1      -3.899   3.041  -1.792  0.00  0.00     0.006 A 
ATOM      3  C4  UNL d   1      -3.218   3.379  -2.965  0.00  0.00     0.002 A 
ATOM      4  C5  UNL d   1      -3.874   3.348  -4.200  0.00  0.00    -0.080 A 
ATOM      5  C6  UNL d   1      -3.163   3.737  -5.462  0.00  0.00     0.076 C 
ATOM      6  C7  UNL d   1      -5.214   2.949  -4.248  0.00  0.00     0.002 A 
ATOM      7  C8  UNL d   1      -5.895   2.611  -3.076  0.00  0.00     0.006 A 
ENDROOT
BRANCH   1   8
ATOM      8  C1  UNL d   1      -6.000   2.357  -0.569  0.00  0.00     0.054 C 
ATOM      9  C   UNL d   1      -5.160   2.668   0.662  0.00  0.00     0.018 C 
ENDBRANCH   1   8
TORSDOF 1
ENDMDL
