MODEL 1
REMARK minimizedAffinity 6.02071238
REMARK minimizedRMSD -1
REMARK  1 active torsions:
REMARK  status: ('A' for Active; 'I' for Inactive)
REMARK    1  A    between atoms: C1_2  and  C2_3 
ROOT
ATOM      1  C2  UNL d   1       3.198  -0.985  -1.923  0.00  0.00    -0.081 A 
ATOM      2  C3  UNL d   1       2.850   0.311  -1.523  0.00  0.00     0.006 A 
ATOM      3  C4  UNL d   1       1.893   0.511  -0.524  0.00  0.00     0.002 A 
ATOM      4  C5  UNL d   1       1.276  -0.581   0.095  0.00  0.00    -0.080 A 
ATOM      5  C6  UNL d   1       0.270  -0.381   1.190  0.00  0.00     0.076 C 
ATOM      6  C7  UNL d   1       1.610  -1.875  -0.317  0.00  0.00     0.002 A 
ATOM      7  C8  UNL d   1       2.566  -2.075  -1.316  0.00  0.00     0.006 A 
ENDROOT
BRANCH   1   8
ATOM      8  C1  UNL d   1       4.275  -1.205  -2.954  0.00  0.00     0.054 C 
ATOM      9  C   UNL d   1       5.192   0.005  -3.063  0.00  0.00     0.018 C 
ENDBRANCH   1   8
TORSDOF 1
ENDMDL
