MODEL 1
REMARK minimizedAffinity 4.67618036
REMARK minimizedRMSD -1
REMARK  1 active torsions:
REMARK  status: ('A' for Active; 'I' for Inactive)
REMARK    1  A    between atoms: C1_2  and  C2_3 
ROOT
ATOM      1  C2  UNL d   1       3.338  -1.126  -1.112  0.00  0.00    -0.081 A 
ATOM      2  C3  UNL d   1       2.708  -2.312  -1.511  0.00  0.00     0.006 A 
ATOM      3  C4  UNL d   1       1.756  -2.919  -0.689  0.00  0.00     0.002 A 
ATOM      4  C5  UNL d   1       1.411  -2.347   0.540  0.00  0.00    -0.080 A 
ATOM      5  C6  UNL d   1       0.368  -2.973   1.418  0.00  0.00     0.076 C 
ATOM      6  C7  UNL d   1       2.052  -1.173   0.947  0.00  0.00     0.002 A 
ATOM      7  C8  UNL d   1       3.005  -0.565   0.126  0.00  0.00     0.006 A 
ENDROOT
BRANCH   1   8
ATOM      8  C1  UNL d   1       4.318  -0.434  -2.024  0.00  0.00     0.054 C 
ATOM      9  C   UNL d   1       4.080   1.069  -2.054  0.00  0.00     0.018 C 
ENDBRANCH   1   8
TORSDOF 1
ENDMDL
