MODEL 1
REMARK minimizedAffinity -0.36527282
REMARK minimizedRMSD -1
REMARK  1 active torsions:
REMARK  status: ('A' for Active; 'I' for Inactive)
REMARK    1  A    between atoms: C1_2  and  C2_3 
ROOT
ATOM      1  C2  UNL d   1       1.554  -0.158   0.152  0.00  0.00    -0.081 A 
ATOM      2  C3  UNL d   1       2.118  -1.404  -0.146  0.00  0.00     0.006 A 
ATOM      3  C4  UNL d   1       3.151  -1.508  -1.081  0.00  0.00     0.002 A 
ATOM      4  C5  UNL d   1       3.640  -0.368  -1.728  0.00  0.00    -0.080 A 
ATOM      5  C6  UNL d   1       4.768  -0.462  -2.712  0.00  0.00     0.076 C 
ATOM      6  C7  UNL d   1       3.064   0.875  -1.443  0.00  0.00     0.002 A 
ATOM      7  C8  UNL d   1       2.032   0.979  -0.508  0.00  0.00     0.006 A 
ENDROOT
BRANCH   1   8
ATOM      8  C1  UNL d   1       0.485  -0.034   1.208  0.00  0.00     0.054 C 
ATOM      9  C   UNL d   1      -0.148  -1.383   1.516  0.00  0.00     0.018 C 
ENDBRANCH   1   8
TORSDOF 1
ENDMDL
