MODEL 1
REMARK minimizedAffinity 8.99512959
REMARK minimizedRMSD -1
REMARK  1 active torsions:
REMARK  status: ('A' for Active; 'I' for Inactive)
REMARK    1  A    between atoms: C1_2  and  C2_3 
ROOT
ATOM      1  C2  UNL d   1       1.644  -0.875   0.127  0.00  0.00    -0.081 A 
ATOM      2  C3  UNL d   1       1.969   0.040  -0.882  0.00  0.00     0.006 A 
ATOM      3  C4  UNL d   1       2.038   1.407  -0.602  0.00  0.00     0.002 A 
ATOM      4  C5  UNL d   1       1.790   1.880   0.691  0.00  0.00    -0.080 A 
ATOM      5  C6  UNL d   1       1.890   3.342   1.012  0.00  0.00     0.076 C 
ATOM      6  C7  UNL d   1       1.448   0.967   1.695  0.00  0.00     0.002 A 
ATOM      7  C8  UNL d   1       1.379  -0.399   1.415  0.00  0.00     0.006 A 
ENDROOT
BRANCH   1   8
ATOM      8  C1  UNL d   1       1.633  -2.356  -0.157  0.00  0.00     0.054 C 
ATOM      9  C   UNL d   1       2.572  -2.707  -1.302  0.00  0.00     0.018 C 
ENDBRANCH   1   8
TORSDOF 1
ENDMDL
