MODEL 1
REMARK minimizedAffinity -2.07436347
REMARK minimizedRMSD -1
REMARK  1 active torsions:
REMARK  status: ('A' for Active; 'I' for Inactive)
REMARK    1  A    between atoms: C1_2  and  C2_3 
ROOT
ATOM      1  C2  UNL d   1       1.413  -0.304  -0.033  0.00  0.00    -0.081 A 
ATOM      2  C3  UNL d   1       1.976  -1.529  -0.408  0.00  0.00     0.006 A 
ATOM      3  C4  UNL d   1       3.011  -1.576  -1.345  0.00  0.00     0.002 A 
ATOM      4  C5  UNL d   1       3.504  -0.398  -1.917  0.00  0.00    -0.080 A 
ATOM      5  C6  UNL d   1       4.635  -0.431  -2.902  0.00  0.00     0.076 C 
ATOM      6  C7  UNL d   1       2.929   0.825  -1.555  0.00  0.00     0.002 A 
ATOM      7  C8  UNL d   1       1.894   0.872  -0.619  0.00  0.00     0.006 A 
ENDROOT
BRANCH   1   8
ATOM      8  C1  UNL d   1       0.341  -0.245   1.026  0.00  0.00     0.054 C 
ATOM      9  C   UNL d   1       0.054  -1.625   1.599  0.00  0.00     0.018 C 
ENDBRANCH   1   8
TORSDOF 1
ENDMDL
