MODEL 1
REMARK minimizedAffinity -2.41501045
REMARK minimizedRMSD -1
REMARK  1 active torsions:
REMARK  status: ('A' for Active; 'I' for Inactive)
REMARK    1  A    between atoms: C1_2  and  C2_3 
ROOT
ATOM      1  C2  UNL d   1       1.216  -0.850   0.061  0.00  0.00    -0.081 A 
ATOM      2  C3  UNL d   1       1.469   0.426  -0.456  0.00  0.00     0.006 A 
ATOM      3  C4  UNL d   1       2.552   0.641  -1.313  0.00  0.00     0.002 A 
ATOM      4  C5  UNL d   1       3.393  -0.417  -1.672  0.00  0.00    -0.080 A 
ATOM      5  C6  UNL d   1       4.541  -0.206  -2.615  0.00  0.00     0.076 C 
ATOM      6  C7  UNL d   1       3.150  -1.689  -1.142  0.00  0.00     0.002 A 
ATOM      7  C8  UNL d   1       2.068  -1.904  -0.285  0.00  0.00     0.006 A 
ENDROOT
BRANCH   1   8
ATOM      8  C1  UNL d   1       0.011  -1.098   0.933  0.00  0.00     0.054 C 
ATOM      9  C   UNL d   1      -0.001  -0.168   2.137  0.00  0.00     0.018 C 
ENDBRANCH   1   8
TORSDOF 1
ENDMDL
