MODEL 1
REMARK minimizedAffinity 6.4690876
REMARK minimizedRMSD -1
REMARK  1 active torsions:
REMARK  status: ('A' for Active; 'I' for Inactive)
REMARK    1  A    between atoms: C1_2  and  C2_3 
ROOT
ATOM      1  C2  UNL d   1      -1.214   4.315  -2.895  0.00  0.00    -0.081 A 
ATOM      2  C3  UNL d   1      -2.253   3.513  -3.381  0.00  0.00     0.006 A 
ATOM      3  C4  UNL d   1      -1.981   2.259  -3.933  0.00  0.00     0.002 A 
ATOM      4  C5  UNL d   1      -0.668   1.783  -4.002  0.00  0.00    -0.080 A 
ATOM      5  C6  UNL d   1      -0.365   0.427  -4.565  0.00  0.00     0.076 C 
ATOM      6  C7  UNL d   1       0.373   2.592  -3.533  0.00  0.00     0.002 A 
ATOM      7  C8  UNL d   1       0.102   3.846  -2.981  0.00  0.00     0.006 A 
ENDROOT
BRANCH   1   8
ATOM      8  C1  UNL d   1      -1.510   5.640  -2.240  0.00  0.00     0.054 C 
ATOM      9  C   UNL d   1      -0.447   5.998  -1.211  0.00  0.00     0.018 C 
ENDBRANCH   1   8
TORSDOF 1
ENDMDL
