MODEL 1
REMARK minimizedAffinity -1.25741088
REMARK minimizedRMSD -1
REMARK  1 active torsions:
REMARK  status: ('A' for Active; 'I' for Inactive)
REMARK    1  A    between atoms: C1_2  and  C2_3 
ROOT
ATOM      1  C2  UNL d   1       1.473  -0.209   0.071  0.00  0.00    -0.081 A 
ATOM      2  C3  UNL d   1       1.936  -1.434  -0.425  0.00  0.00     0.006 A 
ATOM      3  C4  UNL d   1       2.943  -1.470  -1.392  0.00  0.00     0.002 A 
ATOM      4  C5  UNL d   1       3.508  -0.285  -1.874  0.00  0.00    -0.080 A 
ATOM      5  C6  UNL d   1       4.611  -0.312  -2.890  0.00  0.00     0.076 C 
ATOM      6  C7  UNL d   1       3.033   0.939  -1.391  0.00  0.00     0.002 A 
ATOM      7  C8  UNL d   1       2.026   0.977  -0.424  0.00  0.00     0.006 A 
ENDROOT
BRANCH   1   8
ATOM      8  C1  UNL d   1       0.433  -0.168   1.162  0.00  0.00     0.054 C 
ATOM      9  C   UNL d   1      -0.152  -1.549   1.421  0.00  0.00     0.018 C 
ENDBRANCH   1   8
TORSDOF 1
ENDMDL
