MODEL 1
REMARK minimizedAffinity 10.6164684
REMARK minimizedRMSD -1
REMARK  1 active torsions:
REMARK  status: ('A' for Active; 'I' for Inactive)
REMARK    1  A    between atoms: C1_2  and  C2_3 
ROOT
ATOM      1  C2  UNL d   1      -3.341  -4.945  -2.359  0.00  0.00    -0.076 A 
ATOM      2  C3  UNL d   1      -2.440  -5.992  -2.621  0.00  0.00     0.004 A 
ATOM      3  C4  UNL d   1      -1.249  -5.759  -3.306  0.00  0.00    -0.003 A 
ATOM      4  C5  UNL d   1      -0.939  -4.475  -3.741  0.00  0.00     0.000 A 
ATOM      5  C6  UNL d   1      -1.813  -3.421  -3.475  0.00  0.00     0.000 A 
ATOM      6  C7  UNL d   1      -3.010  -3.636  -2.770  0.00  0.00    -0.073 A 
ATOM      7  C8  UNL d   1      -3.918  -2.464  -2.516  0.00  0.00     0.078 C 
ENDROOT
BRANCH   1   8
ATOM      8  C1  UNL d   1      -4.630  -5.262  -1.635  0.00  0.00     0.053 C 
ATOM      9  C   UNL d   1      -5.745  -5.672  -2.584  0.00  0.00     0.018 C 
ENDBRANCH   1   8
TORSDOF 1
ENDMDL
