MODEL 1
REMARK minimizedAffinity 13.5167685
REMARK minimizedRMSD -1
REMARK  1 active torsions:
REMARK  status: ('A' for Active; 'I' for Inactive)
REMARK    1  A    between atoms: C1_2  and  C2_3 
ROOT
ATOM      1  C2  UNL d   1      -4.692  -3.606  -3.282  0.00  0.00    -0.076 A 
ATOM      2  C3  UNL d   1      -3.550  -2.787  -3.246  0.00  0.00     0.004 A 
ATOM      3  C4  UNL d   1      -2.325  -3.283  -2.804  0.00  0.00    -0.003 A 
ATOM      4  C5  UNL d   1      -2.221  -4.607  -2.391  0.00  0.00     0.000 A 
ATOM      5  C6  UNL d   1      -3.340  -5.438  -2.436  0.00  0.00     0.000 A 
ATOM      6  C7  UNL d   1      -4.579  -4.958  -2.894  0.00  0.00    -0.073 A 
ATOM      7  C8  UNL d   1      -5.753  -5.898  -2.916  0.00  0.00     0.078 C 
ENDROOT
BRANCH   1   8
ATOM      8  C1  UNL d   1      -6.000  -3.005  -3.745  0.00  0.00     0.053 C 
ATOM      9  C   UNL d   1      -5.987  -2.652  -5.224  0.00  0.00     0.018 C 
ENDBRANCH   1   8
TORSDOF 1
ENDMDL
