MODEL 1
REMARK minimizedAffinity 12.4819231
REMARK minimizedRMSD -1
REMARK  1 active torsions:
REMARK  status: ('A' for Active; 'I' for Inactive)
REMARK    1  A    between atoms: C1_2  and  C2_3 
ROOT
ATOM      1  C2  UNL d   1      -3.241  -3.559  -3.259  0.00  0.00    -0.076 A 
ATOM      2  C3  UNL d   1      -2.404  -2.667  -3.952  0.00  0.00     0.004 A 
ATOM      3  C4  UNL d   1      -1.112  -3.036  -4.321  0.00  0.00    -0.003 A 
ATOM      4  C5  UNL d   1      -0.635  -4.303  -4.005  0.00  0.00     0.000 A 
ATOM      5  C6  UNL d   1      -1.458  -5.207  -3.333  0.00  0.00     0.000 A 
ATOM      6  C7  UNL d   1      -2.769  -4.857  -2.968  0.00  0.00    -0.073 A 
ATOM      7  C8  UNL d   1      -3.610  -5.869  -2.239  0.00  0.00     0.078 C 
ENDROOT
BRANCH   1   8
ATOM      8  C1  UNL d   1      -4.623  -3.094  -2.860  0.00  0.00     0.053 C 
ATOM      9  C   UNL d   1      -5.655  -3.329  -3.952  0.00  0.00     0.018 C 
ENDBRANCH   1   8
TORSDOF 1
ENDMDL
