MODEL 1
REMARK minimizedAffinity 7.40117836
REMARK minimizedRMSD -1
REMARK  1 active torsions:
REMARK  status: ('A' for Active; 'I' for Inactive)
REMARK    1  A    between atoms: C1_2  and  C2_3 
ROOT
ATOM      1  C2  UNL d   1       3.447   0.996   0.746  0.00  0.00    -0.076 A 
ATOM      2  C3  UNL d   1       3.996  -0.021   1.547  0.00  0.00     0.004 A 
ATOM      3  C4  UNL d   1       5.262  -0.539   1.279  0.00  0.00    -0.003 A 
ATOM      4  C5  UNL d   1       6.000  -0.048   0.208  0.00  0.00     0.000 A 
ATOM      5  C6  UNL d   1       5.478   0.973  -0.586  0.00  0.00     0.000 A 
ATOM      6  C7  UNL d   1       4.210   1.518  -0.320  0.00  0.00    -0.073 A 
ATOM      7  C8  UNL d   1       3.694   2.614  -1.212  0.00  0.00     0.078 C 
ENDROOT
BRANCH   1   8
ATOM      8  C1  UNL d   1       2.058   1.500   1.068  0.00  0.00     0.053 C 
ATOM      9  C   UNL d   1       1.222   0.471   1.812  0.00  0.00     0.018 C 
ENDBRANCH   1   8
TORSDOF 1
ENDMDL
