MODEL 1
REMARK minimizedAffinity 12.8559189
REMARK minimizedRMSD -1
REMARK  1 active torsions:
REMARK  status: ('A' for Active; 'I' for Inactive)
REMARK    1  A    between atoms: C1_2  and  C2_3 
ROOT
ATOM      1  C2  UNL d   1      -3.912  -3.804  -2.629  0.00  0.00    -0.076 A 
ATOM      2  C3  UNL d   1      -3.462  -4.802  -1.747  0.00  0.00     0.004 A 
ATOM      3  C4  UNL d   1      -4.270  -5.891  -1.423  0.00  0.00    -0.003 A 
ATOM      4  C5  UNL d   1      -5.541  -5.999  -1.975  0.00  0.00     0.000 A 
ATOM      5  C6  UNL d   1      -5.997  -5.028  -2.865  0.00  0.00     0.000 A 
ATOM      6  C7  UNL d   1      -5.189  -3.933  -3.216  0.00  0.00    -0.073 A 
ATOM      7  C8  UNL d   1      -5.734  -2.911  -4.176  0.00  0.00     0.078 C 
ENDROOT
BRANCH   1   8
ATOM      8  C1  UNL d   1      -3.002  -2.633  -2.922  0.00  0.00     0.053 C 
ATOM      9  C   UNL d   1      -2.303  -2.111  -1.676  0.00  0.00     0.018 C 
ENDBRANCH   1   8
TORSDOF 1
ENDMDL
