MODEL 1
REMARK minimizedAffinity 11.8718653
REMARK minimizedRMSD -1
REMARK  1 active torsions:
REMARK  status: ('A' for Active; 'I' for Inactive)
REMARK    1  A    between atoms: C1_2  and  C2_3 
ROOT
ATOM      1  C2  UNL d   1       3.088   0.264   0.502  0.00  0.00    -0.076 A 
ATOM      2  C3  UNL d   1       3.909   0.862  -0.470  0.00  0.00     0.004 A 
ATOM      3  C4  UNL d   1       3.481   1.983  -1.179  0.00  0.00    -0.003 A 
ATOM      4  C5  UNL d   1       2.226   2.524  -0.927  0.00  0.00     0.000 A 
ATOM      5  C6  UNL d   1       1.405   1.954   0.045  0.00  0.00     0.000 A 
ATOM      6  C7  UNL d   1       1.828   0.834   0.781  0.00  0.00    -0.073 A 
ATOM      7  C8  UNL d   1       0.900   0.256   1.814  0.00  0.00     0.078 C 
ENDROOT
BRANCH   1   8
ATOM      8  C1  UNL d   1       3.595  -0.967   1.220  0.00  0.00     0.053 C 
ATOM      9  C   UNL d   1       5.019  -0.800   1.728  0.00  0.00     0.018 C 
ENDBRANCH   1   8
TORSDOF 1
ENDMDL
