MODEL 1
REMARK minimizedAffinity 16.7440605
REMARK minimizedRMSD -1
REMARK  1 active torsions:
REMARK  status: ('A' for Active; 'I' for Inactive)
REMARK    1  A    between atoms: C1_2  and  C2_3 
ROOT
ATOM      1  C2  UNL d   1      -5.082   4.173   3.637  0.00  0.00    -0.076 A 
ATOM      2  C3  UNL d   1      -5.991   5.231   3.809  0.00  0.00     0.004 A 
ATOM      3  C4  UNL d   1      -5.986   5.999   4.972  0.00  0.00    -0.003 A 
ATOM      4  C5  UNL d   1      -5.071   5.722   5.982  0.00  0.00     0.000 A 
ATOM      5  C6  UNL d   1      -4.151   4.686   5.821  0.00  0.00     0.000 A 
ATOM      6  C7  UNL d   1      -4.132   3.913   4.647  0.00  0.00    -0.073 A 
ATOM      7  C8  UNL d   1      -3.122   2.804   4.530  0.00  0.00     0.078 C 
ENDROOT
BRANCH   1   8
ATOM      8  C1  UNL d   1      -5.153   3.357   2.366  0.00  0.00     0.053 C 
ATOM      9  C   UNL d   1      -5.912   4.070   1.257  0.00  0.00     0.018 C 
ENDBRANCH   1   8
TORSDOF 1
ENDMDL
