MODEL 1
REMARK minimizedAffinity 13.1116209
REMARK minimizedRMSD -1
REMARK  1 active torsions:
REMARK  status: ('A' for Active; 'I' for Inactive)
REMARK    1  A    between atoms: C1_2  and  C2_3 
ROOT
ATOM      1  C2  UNL d   1      -3.605  -3.795  -3.010  0.00  0.00    -0.076 A 
ATOM      2  C3  UNL d   1      -3.186  -4.907  -2.259  0.00  0.00     0.004 A 
ATOM      3  C4  UNL d   1      -4.028  -6.000  -2.064  0.00  0.00    -0.003 A 
ATOM      4  C5  UNL d   1      -5.303  -6.000  -2.618  0.00  0.00     0.000 A 
ATOM      5  C6  UNL d   1      -5.730  -4.913  -3.381  0.00  0.00     0.000 A 
ATOM      6  C7  UNL d   1      -4.887  -3.810  -3.601  0.00  0.00    -0.073 A 
ATOM      7  C8  UNL d   1      -5.401  -2.663  -4.426  0.00  0.00     0.078 C 
ENDROOT
BRANCH   1   8
ATOM      8  C1  UNL d   1      -2.659  -2.626  -3.165  0.00  0.00     0.053 C 
ATOM      9  C   UNL d   1      -2.239  -2.035  -1.828  0.00  0.00     0.018 C 
ENDBRANCH   1   8
TORSDOF 1
ENDMDL
