MODEL 1
REMARK minimizedAffinity 21.4949322
REMARK minimizedRMSD -1
REMARK  1 active torsions:
REMARK  status: ('A' for Active; 'I' for Inactive)
REMARK    1  A    between atoms: C1_2  and  C2_3 
ROOT
ATOM      1  C2  UNL d   1      -3.914  -3.768  -2.628  0.00  0.00    -0.076 A 
ATOM      2  C3  UNL d   1      -3.531  -4.892  -1.876  0.00  0.00     0.004 A 
ATOM      3  C4  UNL d   1      -4.370  -5.999  -1.762  0.00  0.00    -0.003 A 
ATOM      4  C5  UNL d   1      -5.606  -6.000  -2.399  0.00  0.00     0.000 A 
ATOM      5  C6  UNL d   1      -5.995  -4.900  -3.163  0.00  0.00     0.000 A 
ATOM      6  C7  UNL d   1      -5.154  -3.783  -3.302  0.00  0.00    -0.073 A 
ATOM      7  C8  UNL d   1      -5.627  -2.622  -4.134  0.00  0.00     0.078 C 
ENDROOT
BRANCH   1   8
ATOM      8  C1  UNL d   1      -2.974  -2.585  -2.693  0.00  0.00     0.053 C 
ATOM      9  C   UNL d   1      -2.373  -2.243  -1.339  0.00  0.00     0.018 C 
ENDBRANCH   1   8
TORSDOF 1
ENDMDL
