MODEL 1
REMARK minimizedAffinity 18.6717434
REMARK minimizedRMSD -1
REMARK  1 active torsions:
REMARK  status: ('A' for Active; 'I' for Inactive)
REMARK    1  A    between atoms: C1_2  and  C2_3 
ROOT
ATOM      1  C2  UNL d   1       3.652   1.029   0.720  0.00  0.00    -0.076 A 
ATOM      2  C3  UNL d   1       4.136  -0.058   1.469  0.00  0.00     0.004 A 
ATOM      3  C4  UNL d   1       5.301  -0.726   1.094  0.00  0.00    -0.003 A 
ATOM      4  C5  UNL d   1       6.000  -0.317  -0.036  0.00  0.00     0.000 A 
ATOM      5  C6  UNL d   1       5.543   0.770  -0.781  0.00  0.00     0.000 A 
ATOM      6  C7  UNL d   1       4.380   1.464  -0.407  0.00  0.00    -0.073 A 
ATOM      7  C8  UNL d   1       3.930   2.626  -1.250  0.00  0.00     0.078 C 
ENDROOT
BRANCH   1   8
ATOM      8  C1  UNL d   1       2.369   1.697   1.160  0.00  0.00     0.053 C 
ATOM      9  C   UNL d   1       1.687   0.956   2.300  0.00  0.00     0.018 C 
ENDBRANCH   1   8
TORSDOF 1
ENDMDL
