MODEL 1
REMARK minimizedAffinity 21.4042301
REMARK minimizedRMSD -1
REMARK  1 active torsions:
REMARK  status: ('A' for Active; 'I' for Inactive)
REMARK    1  A    between atoms: C1_2  and  C2_3 
ROOT
ATOM      1  C2  UNL d   1      -3.827  -3.826  -2.612  0.00  0.00    -0.076 A 
ATOM      2  C3  UNL d   1      -3.460  -4.947  -1.848  0.00  0.00     0.004 A 
ATOM      3  C4  UNL d   1      -4.350  -6.000  -1.644  0.00  0.00    -0.003 A 
ATOM      4  C5  UNL d   1      -5.624  -5.948  -2.200  0.00  0.00     0.000 A 
ATOM      5  C6  UNL d   1      -6.000  -4.851  -2.975  0.00  0.00     0.000 A 
ATOM      6  C7  UNL d   1      -5.108  -3.789  -3.204  0.00  0.00    -0.073 A 
ATOM      7  C8  UNL d   1      -5.568  -2.628  -4.043  0.00  0.00     0.078 C 
ENDROOT
BRANCH   1   8
ATOM      8  C1  UNL d   1      -2.829  -2.703  -2.777  0.00  0.00     0.053 C 
ATOM      9  C   UNL d   1      -2.241  -2.246  -1.450  0.00  0.00     0.018 C 
ENDBRANCH   1   8
TORSDOF 1
ENDMDL
