MODEL 1
REMARK minimizedAffinity -6.91363955
REMARK minimizedRMSD -1
REMARK  1 active torsions:
REMARK  status: ('A' for Active; 'I' for Inactive)
REMARK    1  A    between atoms: C1_2  and  C2_3 
ROOT
ATOM      1  C2  UNL d   1       0.109  -0.306   0.909  0.00  0.00    -0.076 A 
ATOM      2  C3  UNL d   1      -1.216   0.153   0.813  0.00  0.00     0.004 A 
ATOM      3  C4  UNL d   1      -1.817   0.836   1.870  0.00  0.00    -0.003 A 
ATOM      4  C5  UNL d   1      -1.101   1.072   3.038  0.00  0.00     0.000 A 
ATOM      5  C6  UNL d   1       0.220   0.640   3.143  0.00  0.00     0.000 A 
ATOM      6  C7  UNL d   1       0.846  -0.036   2.082  0.00  0.00    -0.073 A 
ATOM      7  C8  UNL d   1       2.272  -0.485   2.252  0.00  0.00     0.078 C 
ENDROOT
BRANCH   1   8
ATOM      8  C1  UNL d   1       0.699  -1.065  -0.258  0.00  0.00     0.053 C 
ATOM      9  C   UNL d   1       0.330  -0.450  -1.600  0.00  0.00     0.018 C 
ENDBRANCH   1   8
TORSDOF 1
ENDMDL
