MODEL 1
REMARK minimizedAffinity -5.06032705
REMARK minimizedRMSD -1
REMARK  1 active torsions:
REMARK  status: ('A' for Active; 'I' for Inactive)
REMARK    1  A    between atoms: C1_2  and  C2_3 
ROOT
ATOM      1  C2  UNL d   1       0.027  -0.091   0.988  0.00  0.00    -0.076 A 
ATOM      2  C3  UNL d   1      -0.944   0.776   1.518  0.00  0.00     0.004 A 
ATOM      3  C4  UNL d   1      -0.754   1.399   2.750  0.00  0.00    -0.003 A 
ATOM      4  C5  UNL d   1       0.411   1.165   3.473  0.00  0.00     0.000 A 
ATOM      5  C6  UNL d   1       1.392   0.321   2.955  0.00  0.00     0.000 A 
ATOM      6  C7  UNL d   1       1.224  -0.302   1.706  0.00  0.00    -0.073 A 
ATOM      7  C8  UNL d   1       2.312  -1.208   1.198  0.00  0.00     0.078 C 
ENDROOT
BRANCH   1   8
ATOM      8  C1  UNL d   1      -0.246  -0.760  -0.341  0.00  0.00     0.053 C 
ATOM      9  C   UNL d   1      -1.733  -0.932  -0.611  0.00  0.00     0.018 C 
ENDBRANCH   1   8
TORSDOF 1
ENDMDL
