MODEL 1
REMARK minimizedAffinity -4.89675903
REMARK minimizedRMSD -1
REMARK  1 active torsions:
REMARK  status: ('A' for Active; 'I' for Inactive)
REMARK    1  A    between atoms: C1_2  and  C2_3 
ROOT
ATOM      1  C2  UNL d   1       0.372  -0.355   0.192  0.00  0.00    -0.076 A 
ATOM      2  C3  UNL d   1       1.463  -0.126   1.048  0.00  0.00     0.004 A 
ATOM      3  C4  UNL d   1       1.299   0.557   2.252  0.00  0.00    -0.003 A 
ATOM      4  C5  UNL d   1       0.040   1.021   2.620  0.00  0.00     0.000 A 
ATOM      5  C6  UNL d   1      -1.056   0.788   1.790  0.00  0.00     0.000 A 
ATOM      6  C7  UNL d   1      -0.911   0.087   0.581  0.00  0.00    -0.073 A 
ATOM      7  C8  UNL d   1      -2.126  -0.132  -0.278  0.00  0.00     0.078 C 
ENDROOT
BRANCH   1   8
ATOM      8  C1  UNL d   1       0.616  -1.077  -1.114  0.00  0.00     0.053 C 
ATOM      9  C   UNL d   1       0.930  -0.125  -2.257  0.00  0.00     0.018 C 
ENDBRANCH   1   8
TORSDOF 1
ENDMDL
