MODEL 1
REMARK minimizedAffinity -5.98223448
REMARK minimizedRMSD -1
REMARK  1 active torsions:
REMARK  status: ('A' for Active; 'I' for Inactive)
REMARK    1  A    between atoms: C1_2  and  C2_3 
ROOT
ATOM      1  C2  UNL d   1       0.530   0.327   1.159  0.00  0.00    -0.076 A 
ATOM      2  C3  UNL d   1      -0.753   0.887   1.287  0.00  0.00     0.004 A 
ATOM      3  C4  UNL d   1      -1.291   1.170   2.541  0.00  0.00    -0.003 A 
ATOM      4  C5  UNL d   1      -0.554   0.899   3.689  0.00  0.00     0.000 A 
ATOM      5  C6  UNL d   1       0.728   0.360   3.580  0.00  0.00     0.000 A 
ATOM      6  C7  UNL d   1       1.291   0.083   2.323  0.00  0.00    -0.073 A 
ATOM      7  C8  UNL d   1       2.675  -0.503   2.265  0.00  0.00     0.078 C 
ENDROOT
BRANCH   1   8
ATOM      8  C1  UNL d   1       1.050   0.016  -0.226  0.00  0.00     0.053 C 
ATOM      9  C   UNL d   1      -0.064  -0.323  -1.204  0.00  0.00     0.018 C 
ENDBRANCH   1   8
TORSDOF 1
ENDMDL
