MODEL 1
REMARK minimizedAffinity -4.02761841
REMARK minimizedRMSD -1
REMARK  1 active torsions:
REMARK  status: ('A' for Active; 'I' for Inactive)
REMARK    1  A    between atoms: C1_2  and  C2_3 
ROOT
ATOM      1  C2  UNL d   1       0.619  -1.140  -1.426  0.00  0.00    -0.076 A 
ATOM      2  C3  UNL d   1       1.905  -1.709  -1.402  0.00  0.00     0.004 A 
ATOM      3  C4  UNL d   1       2.588  -1.888  -0.200  0.00  0.00    -0.003 A 
ATOM      4  C5  UNL d   1       1.996  -1.502   0.997  0.00  0.00     0.000 A 
ATOM      5  C6  UNL d   1       0.714  -0.953   0.994  0.00  0.00     0.000 A 
ATOM      6  C7  UNL d   1       0.006  -0.780  -0.207  0.00  0.00    -0.073 A 
ATOM      7  C8  UNL d   1      -1.371  -0.177  -0.152  0.00  0.00     0.078 C 
ENDROOT
BRANCH   1   8
ATOM      8  C1  UNL d   1      -0.062  -0.945  -2.761  0.00  0.00     0.053 C 
ATOM      9  C   UNL d   1       0.518   0.222  -3.546  0.00  0.00     0.018 C 
ENDBRANCH   1   8
TORSDOF 1
ENDMDL
