MODEL 1
REMARK minimizedAffinity -5.27162266
REMARK minimizedRMSD -1
REMARK  1 active torsions:
REMARK  status: ('A' for Active; 'I' for Inactive)
REMARK    1  A    between atoms: C1_2  and  C2_3 
ROOT
ATOM      1  C2  UNL d   1       0.082  -0.448   0.313  0.00  0.00    -0.076 A 
ATOM      2  C3  UNL d   1       0.972   0.305   1.098  0.00  0.00     0.004 A 
ATOM      3  C4  UNL d   1       0.514   1.059   2.178  0.00  0.00    -0.003 A 
ATOM      4  C5  UNL d   1      -0.841   1.071   2.490  0.00  0.00     0.000 A 
ATOM      5  C6  UNL d   1      -1.735   0.316   1.733  0.00  0.00     0.000 A 
ATOM      6  C7  UNL d   1      -1.289  -0.463   0.651  0.00  0.00    -0.073 A 
ATOM      7  C8  UNL d   1      -2.298  -1.253  -0.135  0.00  0.00     0.078 C 
ENDROOT
BRANCH   1   8
ATOM      8  C1  UNL d   1       0.632  -1.225  -0.862  0.00  0.00     0.053 C 
ATOM      9  C   UNL d   1       0.733  -0.380  -2.123  0.00  0.00     0.018 C 
ENDBRANCH   1   8
TORSDOF 1
ENDMDL
