MODEL 1
REMARK minimizedAffinity -3.95223308
REMARK minimizedRMSD -1
REMARK  1 active torsions:
REMARK  status: ('A' for Active; 'I' for Inactive)
REMARK    1  A    between atoms: C1_2  and  C2_3 
ROOT
ATOM      1  C2  UNL d   1      -0.133  -0.705  -0.115  0.00  0.00    -0.076 A 
ATOM      2  C3  UNL d   1       0.606   0.400   0.343  0.00  0.00     0.004 A 
ATOM      3  C4  UNL d   1       0.116   1.220   1.357  0.00  0.00    -0.003 A 
ATOM      4  C5  UNL d   1      -1.121   0.949   1.931  0.00  0.00     0.000 A 
ATOM      5  C6  UNL d   1      -1.860  -0.153   1.501  0.00  0.00     0.000 A 
ATOM      6  C7  UNL d   1      -1.373  -1.000   0.491  0.00  0.00    -0.073 A 
ATOM      7  C8  UNL d   1      -2.214  -2.170   0.062  0.00  0.00     0.078 C 
ENDROOT
BRANCH   1   8
ATOM      8  C1  UNL d   1       0.438  -1.543  -1.237  0.00  0.00     0.053 C 
ATOM      9  C   UNL d   1       0.462  -0.801  -2.564  0.00  0.00     0.018 C 
ENDBRANCH   1   8
TORSDOF 1
ENDMDL
