MODEL 1
REMARK minimizedAffinity -0.0704556555
REMARK minimizedRMSD -1
REMARK  1 active torsions:
REMARK  status: ('A' for Active; 'I' for Inactive)
REMARK    1  A    between atoms: C3_4  and  O_7 
ROOT
ATOM      1  C   UNL d   1      -1.240  -1.490   0.683  0.00  0.00    -0.033 A 
ATOM      2  C1  UNL d   1       0.101  -1.825   0.876  0.00  0.00     0.039 A 
ATOM      3  C2  UNL d   1       0.790  -2.547  -0.101  0.00  0.00    -0.080 A 
ATOM      4  C3  UNL d   1       0.127  -2.924  -1.266  0.00  0.00     0.150 A 
ATOM      5  C4  UNL d   1      -1.208  -2.590  -1.466  0.00  0.00    -0.007 A 
ATOM      6  C5  UNL d   1      -1.895  -1.871  -0.489  0.00  0.00     0.039 A 
ENDROOT
BRANCH   4   7
ATOM      7  O   UNL d   1       0.756  -3.633  -2.246  0.00  0.00    -0.526 OA
ATOM      8  H5  UNL d   1       1.665  -3.817  -1.957  0.00  0.00     0.418 HD
ENDBRANCH   4   7
TORSDOF 1
ENDMDL
