MODEL 1
REMARK minimizedAffinity 2.45625544
REMARK minimizedRMSD -1
REMARK  1 active torsions:
REMARK  status: ('A' for Active; 'I' for Inactive)
REMARK    1  A    between atoms: C3_4  and  O_7 
ROOT
ATOM      1  C   UNL d   1       1.095  -2.263   2.580  0.00  0.00    -0.033 A 
ATOM      2  C1  UNL d   1       2.203  -1.416   2.649  0.00  0.00     0.039 A 
ATOM      3  C2  UNL d   1       3.327  -1.793   3.385  0.00  0.00    -0.080 A 
ATOM      4  C3  UNL d   1       3.333  -3.019   4.045  0.00  0.00     0.150 A 
ATOM      5  C4  UNL d   1       2.234  -3.870   3.977  0.00  0.00    -0.007 A 
ATOM      6  C5  UNL d   1       1.111  -3.491   3.243  0.00  0.00     0.039 A 
ENDROOT
BRANCH   4   7
ATOM      7  O   UNL d   1       4.406  -3.429   4.779  0.00  0.00    -0.526 OA
ATOM      8  H5  UNL d   1       5.078  -2.727   4.760  0.00  0.00     0.418 HD
ENDBRANCH   4   7
TORSDOF 1
ENDMDL
