MODEL 1
REMARK minimizedAffinity 0.657646954
REMARK minimizedRMSD -1
REMARK  1 active torsions:
REMARK  status: ('A' for Active; 'I' for Inactive)
REMARK    1  A    between atoms: C3_4  and  O_7 
ROOT
ATOM      1  C   UNL d   1       1.562  -3.007   3.904  0.00  0.00    -0.033 A 
ATOM      2  C1  UNL d   1       2.243  -4.036   4.558  0.00  0.00     0.039 A 
ATOM      3  C2  UNL d   1       3.617  -3.931   4.786  0.00  0.00    -0.080 A 
ATOM      4  C3  UNL d   1       4.296  -2.795   4.357  0.00  0.00     0.150 A 
ATOM      5  C4  UNL d   1       3.623  -1.764   3.709  0.00  0.00    -0.007 A 
ATOM      6  C5  UNL d   1       2.252  -1.871   3.481  0.00  0.00     0.039 A 
ENDROOT
BRANCH   4   7
ATOM      7  O   UNL d   1       5.638  -2.650   4.553  0.00  0.00    -0.526 OA
ATOM      8  H5  UNL d   1       5.974  -3.452   4.987  0.00  0.00     0.418 HD
ENDBRANCH   4   7
TORSDOF 1
ENDMDL
