MODEL 1
REMARK minimizedAffinity -2.20520639
REMARK minimizedRMSD -1
REMARK  1 active torsions:
REMARK  status: ('A' for Active; 'I' for Inactive)
REMARK    1  A    between atoms: C3_4  and  O_7 
ROOT
ATOM      1  C   UNL d   1       2.258   1.096   1.266  0.00  0.00    -0.033 A 
ATOM      2  C1  UNL d   1       1.220   0.367   0.683  0.00  0.00     0.039 A 
ATOM      3  C2  UNL d   1       0.687  -0.743   1.341  0.00  0.00    -0.080 A 
ATOM      4  C3  UNL d   1       1.201  -1.113   2.581  0.00  0.00     0.150 A 
ATOM      5  C4  UNL d   1       2.233  -0.390   3.170  0.00  0.00    -0.007 A 
ATOM      6  C5  UNL d   1       2.764   0.718   2.511  0.00  0.00     0.039 A 
ENDROOT
BRANCH   4   7
ATOM      7  O   UNL d   1       0.717  -2.192   3.259  0.00  0.00    -0.526 OA
ATOM      8  H5  UNL d   1       0.027  -2.612   2.718  0.00  0.00     0.418 HD
ENDBRANCH   4   7
TORSDOF 1
ENDMDL
