MODEL 1
REMARK minimizedAffinity 0.443232536
REMARK minimizedRMSD -1
REMARK  1 active torsions:
REMARK  status: ('A' for Active; 'I' for Inactive)
REMARK    1  A    between atoms: C3_4  and  O_7 
ROOT
ATOM      1  C   UNL d   1       2.413   1.941   0.801  0.00  0.00    -0.033 A 
ATOM      2  C1  UNL d   1       1.227   1.978   0.066  0.00  0.00     0.039 A 
ATOM      3  C2  UNL d   1       0.424   0.839  -0.023  0.00  0.00    -0.080 A 
ATOM      4  C3  UNL d   1       0.817  -0.327   0.627  0.00  0.00     0.150 A 
ATOM      5  C4  UNL d   1       1.996  -0.370   1.364  0.00  0.00    -0.007 A 
ATOM      6  C5  UNL d   1       2.797   0.768   1.451  0.00  0.00     0.039 A 
ENDROOT
BRANCH   4   7
ATOM      7  O   UNL d   1       0.069  -1.465   0.564  0.00  0.00    -0.526 OA
ATOM      8  H5  UNL d   1      -0.702  -1.295  -0.003  0.00  0.00     0.418 HD
ENDBRANCH   4   7
TORSDOF 1
ENDMDL
