MODEL 1
REMARK minimizedAffinity 1.60256457
REMARK minimizedRMSD -1
REMARK  1 active torsions:
REMARK  status: ('A' for Active; 'I' for Inactive)
REMARK    1  A    between atoms: C3_4  and  O_7 
ROOT
ATOM      1  C   UNL d   1       0.845  -4.450  -0.789  0.00  0.00    -0.033 A 
ATOM      2  C1  UNL d   1       1.197  -5.172   0.353  0.00  0.00     0.039 A 
ATOM      3  C2  UNL d   1       1.085  -4.585   1.615  0.00  0.00    -0.080 A 
ATOM      4  C3  UNL d   1       0.620  -3.277   1.720  0.00  0.00     0.150 A 
ATOM      5  C4  UNL d   1       0.264  -2.553   0.587  0.00  0.00    -0.007 A 
ATOM      6  C5  UNL d   1       0.377  -3.141  -0.672  0.00  0.00     0.039 A 
ENDROOT
BRANCH   4   7
ATOM      7  O   UNL d   1       0.498  -2.659   2.930  0.00  0.00    -0.526 OA
ATOM      8  H5  UNL d   1       0.807  -3.270   3.620  0.00  0.00     0.418 HD
ENDBRANCH   4   7
TORSDOF 1
ENDMDL
