MODEL 1
REMARK minimizedAffinity -1.10252774
REMARK minimizedRMSD -1
REMARK  1 active torsions:
REMARK  status: ('A' for Active; 'I' for Inactive)
REMARK    1  A    between atoms: C3_4  and  O_7 
ROOT
ATOM      1  C   UNL d   1       1.855   1.148   0.750  0.00  0.00    -0.033 A 
ATOM      2  C1  UNL d   1       0.896   0.170   0.479  0.00  0.00     0.039 A 
ATOM      3  C2  UNL d   1       0.660  -0.853   1.399  0.00  0.00    -0.080 A 
ATOM      4  C3  UNL d   1       1.388  -0.885   2.586  0.00  0.00     0.150 A 
ATOM      5  C4  UNL d   1       2.342   0.088   2.864  0.00  0.00    -0.007 A 
ATOM      6  C5  UNL d   1       2.577   1.108   1.943  0.00  0.00     0.039 A 
ENDROOT
BRANCH   4   7
ATOM      7  O   UNL d   1       1.196  -1.867   3.512  0.00  0.00    -0.526 OA
ATOM      8  H5  UNL d   1       0.527  -2.485   3.172  0.00  0.00     0.418 HD
ENDBRANCH   4   7
TORSDOF 1
ENDMDL
