MODEL 1
REMARK minimizedAffinity -2.73908639
REMARK minimizedRMSD -1
REMARK  1 active torsions:
REMARK  status: ('A' for Active; 'I' for Inactive)
REMARK    1  A    between atoms: C3_4  and  O_7 
ROOT
ATOM      1  C   UNL d   1       2.580  -0.437   5.132  0.00  0.00    -0.033 A 
ATOM      2  C1  UNL d   1       2.820   0.938   5.084  0.00  0.00     0.039 A 
ATOM      3  C2  UNL d   1       2.906   1.591   3.853  0.00  0.00    -0.080 A 
ATOM      4  C3  UNL d   1       2.750   0.859   2.679  0.00  0.00     0.150 A 
ATOM      5  C4  UNL d   1       2.506  -0.509   2.719  0.00  0.00    -0.007 A 
ATOM      6  C5  UNL d   1       2.422  -1.160   3.949  0.00  0.00     0.039 A 
ENDROOT
BRANCH   4   7
ATOM      7  O   UNL d   1       2.830   1.452   1.454  0.00  0.00    -0.526 OA
ATOM      8  H5  UNL d   1       3.030   2.395   1.581  0.00  0.00     0.418 HD
ENDBRANCH   4   7
TORSDOF 1
ENDMDL
