MODEL 1
REMARK minimizedAffinity 0.441764295
REMARK minimizedRMSD -1
REMARK  1 active torsions:
REMARK  status: ('A' for Active; 'I' for Inactive)
REMARK    1  A    between atoms: C3_4  and  O_7 
ROOT
ATOM      1  C   UNL d   1      -0.657   1.806   0.313  0.00  0.00    -0.033 A 
ATOM      2  C1  UNL d   1      -0.331   0.509   0.712  0.00  0.00     0.039 A 
ATOM      3  C2  UNL d   1       1.007   0.121   0.805  0.00  0.00    -0.080 A 
ATOM      4  C3  UNL d   1       2.008   1.040   0.498  0.00  0.00     0.150 A 
ATOM      5  C4  UNL d   1       1.689   2.335   0.103  0.00  0.00    -0.007 A 
ATOM      6  C5  UNL d   1       0.353   2.720   0.010  0.00  0.00     0.039 A 
ENDROOT
BRANCH   4   7
ATOM      7  O   UNL d   1       3.328   0.706   0.570  0.00  0.00    -0.526 OA
ATOM      8  H5  UNL d   1       3.395  -0.228   0.828  0.00  0.00     0.418 HD
ENDBRANCH   4   7
TORSDOF 1
ENDMDL
