MODEL 1
REMARK minimizedAffinity -0.342602491
REMARK minimizedRMSD -1
REMARK  1 active torsions:
REMARK  status: ('A' for Active; 'I' for Inactive)
REMARK    1  A    between atoms: C3_4  and  O_7 
ROOT
ATOM      1  C   UNL d   1       2.255   0.252   2.550  0.00  0.00    -0.033 A 
ATOM      2  C1  UNL d   1       2.568  -0.180   3.840  0.00  0.00     0.039 A 
ATOM      3  C2  UNL d   1       2.019  -1.366   4.333  0.00  0.00    -0.080 A 
ATOM      4  C3  UNL d   1       1.160  -2.108   3.527  0.00  0.00     0.150 A 
ATOM      5  C4  UNL d   1       0.847  -1.685   2.240  0.00  0.00    -0.007 A 
ATOM      6  C5  UNL d   1       1.396  -0.501   1.749  0.00  0.00     0.039 A 
ENDROOT
BRANCH   4   7
ATOM      7  O   UNL d   1       0.596  -3.269   3.966  0.00  0.00    -0.526 OA
ATOM      8  H5  UNL d   1       0.880  -3.421   4.883  0.00  0.00     0.418 HD
ENDBRANCH   4   7
TORSDOF 1
ENDMDL
