MODEL 1
REMARK minimizedAffinity 14.0136213
REMARK minimizedRMSD -1
REMARK  0 active torsions:
REMARK  status: ('A' for Active; 'I' for Inactive)
ROOT
ATOM      1  O1  BZF d   1      -2.258   2.110  -0.151  0.00  0.00    -0.204 OA
ATOM      2  C2  BZF d   1      -2.800   2.237  -1.415  0.00  0.00     0.174 A 
ATOM      3  C3  BZF d   1      -1.942   2.868  -2.242  0.00  0.00    -0.012 A 
ATOM      4  C3A BZF d   1      -0.755   3.072  -1.469  0.00  0.00    -0.107 A 
ATOM      5  C4  BZF d   1       0.458   3.636  -1.743  0.00  0.00     0.055 A 
ATOM      6  C5  BZF d   1       1.376   3.744  -0.747  0.00  0.00    -0.016 A 
ATOM      7  C6  BZF d   1       1.112   3.305   0.534  0.00  0.00     0.022 A 
ATOM      8  C7  BZF d   1      -0.075   2.734   0.853  0.00  0.00     0.029 A 
ATOM      9  C7A BZF d   1      -0.993   2.594  -0.160  0.00  0.00     0.058 A 
ENDROOT
TORSDOF 0
ENDMDL
