MODEL 1
REMARK minimizedAffinity 17.8763752
REMARK minimizedRMSD -1
REMARK  0 active torsions:
REMARK  status: ('A' for Active; 'I' for Inactive)
ROOT
ATOM      1  O1  BZF d   1       0.687  -3.567  -0.252  0.00  0.00    -0.204 OA
ATOM      2  C2  BZF d   1       0.928  -4.578  -1.162  0.00  0.00     0.174 A 
ATOM      3  C3  BZF d   1       2.180  -4.488  -1.657  0.00  0.00    -0.012 A 
ATOM      4  C3A BZF d   1       2.788  -3.404  -0.948  0.00  0.00    -0.107 A 
ATOM      5  C4  BZF d   1       4.030  -2.839  -0.984  0.00  0.00     0.055 A 
ATOM      6  C5  BZF d   1       4.281  -1.746  -0.216  0.00  0.00    -0.016 A 
ATOM      7  C6  BZF d   1       3.313  -1.191   0.595  0.00  0.00     0.022 A 
ATOM      8  C7  BZF d   1       2.067  -1.720   0.667  0.00  0.00     0.029 A 
ATOM      9  C7A BZF d   1       1.820  -2.843  -0.083  0.00  0.00     0.058 A 
ENDROOT
TORSDOF 0
ENDMDL
