MODEL 1
REMARK minimizedAffinity 10.313098
REMARK minimizedRMSD -1
REMARK  0 active torsions:
REMARK  status: ('A' for Active; 'I' for Inactive)
ROOT
ATOM      1  O1  BZF d   1       1.782   3.218  -0.319  0.00  0.00    -0.204 OA
ATOM      2  C2  BZF d   1       1.092   3.637  -1.439  0.00  0.00     0.174 A 
ATOM      3  C3  BZF d   1      -0.236   3.462  -1.277  0.00  0.00    -0.012 A 
ATOM      4  C3A BZF d   1      -0.391   2.984   0.063  0.00  0.00    -0.107 A 
ATOM      5  C4  BZF d   1      -1.476   2.642   0.818  0.00  0.00     0.055 A 
ATOM      6  C5  BZF d   1      -1.282   2.142   2.066  0.00  0.00    -0.016 A 
ATOM      7  C6  BZF d   1      -0.017   1.967   2.589  0.00  0.00     0.022 A 
ATOM      8  C7  BZF d   1       1.090   2.297   1.880  0.00  0.00     0.029 A 
ATOM      9  C7A BZF d   1       0.895   2.833   0.631  0.00  0.00     0.058 A 
ENDROOT
TORSDOF 0
ENDMDL
