MODEL 1
REMARK minimizedAffinity 11.7084274
REMARK minimizedRMSD -1
REMARK  0 active torsions:
REMARK  status: ('A' for Active; 'I' for Inactive)
ROOT
ATOM      1  O1  BZF d   1       2.475   3.894   0.085  0.00  0.00    -0.204 OA
ATOM      2  C2  BZF d   1       2.166   4.206  -1.225  0.00  0.00     0.174 A 
ATOM      3  C3  BZF d   1       0.944   3.737  -1.552  0.00  0.00    -0.012 A 
ATOM      4  C3A BZF d   1       0.422   3.172  -0.346  0.00  0.00    -0.107 A 
ATOM      5  C4  BZF d   1      -0.759   2.564  -0.028  0.00  0.00     0.055 A 
ATOM      6  C5  BZF d   1      -0.927   2.060   1.222  0.00  0.00    -0.016 A 
ATOM      7  C6  BZF d   1       0.066   2.141   2.177  0.00  0.00     0.022 A 
ATOM      8  C7  BZF d   1       1.252   2.739   1.910  0.00  0.00     0.029 A 
ATOM      9  C7A BZF d   1       1.412   3.279   0.658  0.00  0.00     0.058 A 
ENDROOT
TORSDOF 0
ENDMDL
