MODEL 1
REMARK minimizedAffinity 14.6203852
REMARK minimizedRMSD -1
REMARK  0 active torsions:
REMARK  status: ('A' for Active; 'I' for Inactive)
ROOT
ATOM      1  O1  BZF d   1       1.471   4.121  -0.903  0.00  0.00    -0.204 OA
ATOM      2  C2  BZF d   1       0.406   4.553  -1.669  0.00  0.00     0.174 A 
ATOM      3  C3  BZF d   1      -0.662   3.747  -1.502  0.00  0.00    -0.012 A 
ATOM      4  C3A BZF d   1      -0.268   2.803  -0.502  0.00  0.00    -0.107 A 
ATOM      5  C4  BZF d   1      -0.903   1.756   0.103  0.00  0.00     0.055 A 
ATOM      6  C5  BZF d   1      -0.214   0.986   0.985  0.00  0.00    -0.016 A 
ATOM      7  C6  BZF d   1       1.111   1.230   1.282  0.00  0.00     0.022 A 
ATOM      8  C7  BZF d   1       1.782   2.260   0.710  0.00  0.00     0.029 A 
ATOM      9  C7A BZF d   1       1.079   3.060  -0.157  0.00  0.00     0.058 A 
ENDROOT
TORSDOF 0
ENDMDL
