MODEL 1
REMARK minimizedAffinity 24.0102577
REMARK minimizedRMSD -1
REMARK  0 active torsions:
REMARK  status: ('A' for Active; 'I' for Inactive)
ROOT
ATOM      1  O1  BZF d   1       0.442  -3.724  -1.277  0.00  0.00    -0.204 OA
ATOM      2  C2  BZF d   1       0.846  -4.984  -1.673  0.00  0.00     0.174 A 
ATOM      3  C3  BZF d   1       2.158  -5.167  -1.420  0.00  0.00    -0.012 A 
ATOM      4  C3A BZF d   1       2.580  -3.979  -0.744  0.00  0.00    -0.107 A 
ATOM      5  C4  BZF d   1       3.774  -3.569  -0.222  0.00  0.00     0.055 A 
ATOM      6  C5  BZF d   1       3.870  -2.321   0.307  0.00  0.00    -0.016 A 
ATOM      7  C6  BZF d   1       2.796  -1.456   0.326  0.00  0.00     0.022 A 
ATOM      8  C7  BZF d   1       1.590  -1.819  -0.175  0.00  0.00     0.029 A 
ATOM      9  C7A BZF d   1       1.481  -3.092  -0.681  0.00  0.00     0.058 A 
ENDROOT
TORSDOF 0
ENDMDL
