MODEL 1
REMARK minimizedAffinity 14.6375551
REMARK minimizedRMSD -1
REMARK  0 active torsions:
REMARK  status: ('A' for Active; 'I' for Inactive)
ROOT
ATOM      1  O1  BZF d   1       0.693   2.718   0.978  0.00  0.00    -0.204 OA
ATOM      2  C2  BZF d   1      -0.480   2.443   1.655  0.00  0.00     0.174 A 
ATOM      3  C3  BZF d   1      -1.551   2.837   0.937  0.00  0.00    -0.012 A 
ATOM      4  C3A BZF d   1      -1.018   3.310  -0.304  0.00  0.00    -0.107 A 
ATOM      5  C4  BZF d   1      -1.586   3.819  -1.437  0.00  0.00     0.055 A 
ATOM      6  C5  BZF d   1      -0.781   4.255  -2.441  0.00  0.00    -0.016 A 
ATOM      7  C6  BZF d   1       0.594   4.204  -2.344  0.00  0.00     0.022 A 
ATOM      8  C7  BZF d   1       1.203   3.703  -1.242  0.00  0.00     0.029 A 
ATOM      9  C7A BZF d   1       0.392   3.231  -0.239  0.00  0.00     0.058 A 
ENDROOT
TORSDOF 0
ENDMDL
