MODEL 1
REMARK minimizedAffinity 6.23019648
REMARK minimizedRMSD -1
REMARK  0 active torsions:
REMARK  status: ('A' for Active; 'I' for Inactive)
ROOT
ATOM      1  O1  BZF d   1       1.271   2.184  -1.198  0.00  0.00    -0.204 OA
ATOM      2  C2  BZF d   1       0.386   3.215  -0.950  0.00  0.00     0.174 A 
ATOM      3  C3  BZF d   1      -0.871   2.745  -0.814  0.00  0.00    -0.012 A 
ATOM      4  C3A BZF d   1      -0.751   1.321  -0.896  0.00  0.00    -0.107 A 
ATOM      5  C4  BZF d   1      -1.650   0.297  -0.815  0.00  0.00     0.055 A 
ATOM      6  C5  BZF d   1      -1.220  -0.977  -1.010  0.00  0.00    -0.016 A 
ATOM      7  C6  BZF d   1       0.100  -1.262  -1.291  0.00  0.00     0.022 A 
ATOM      8  C7  BZF d   1       1.030  -0.280  -1.376  0.00  0.00     0.029 A 
ATOM      9  C7A BZF d   1       0.605   1.005  -1.147  0.00  0.00     0.058 A 
ENDROOT
TORSDOF 0
ENDMDL
