MODEL 1
REMARK minimizedAffinity 14.7519817
REMARK minimizedRMSD -1
REMARK  0 active torsions:
REMARK  status: ('A' for Active; 'I' for Inactive)
ROOT
ATOM      1  O1  BZF d   1      -1.954  -0.067  -0.797  0.00  0.00    -0.204 OA
ATOM      2  C2  BZF d   1      -3.257   0.392  -0.783  0.00  0.00     0.174 A 
ATOM      3  C3  BZF d   1      -3.311   1.663  -0.335  0.00  0.00    -0.012 A 
ATOM      4  C3A BZF d   1      -1.948   2.051  -0.139  0.00  0.00    -0.107 A 
ATOM      5  C4  BZF d   1      -1.352   3.206   0.280  0.00  0.00     0.055 A 
ATOM      6  C5  BZF d   1      -0.002   3.235   0.433  0.00  0.00    -0.016 A 
ATOM      7  C6  BZF d   1       0.781   2.128   0.181  0.00  0.00     0.022 A 
ATOM      8  C7  BZF d   1       0.235   0.961  -0.241  0.00  0.00     0.029 A 
ATOM      9  C7A BZF d   1      -1.125   0.939  -0.428  0.00  0.00     0.058 A 
ENDROOT
TORSDOF 0
ENDMDL
