MODEL 1
REMARK minimizedAffinity 5.83229828
REMARK minimizedRMSD -1
REMARK  0 active torsions:
REMARK  status: ('A' for Active; 'I' for Inactive)
ROOT
ATOM      1  O1  BZF d   1       1.080   2.938  -0.541  0.00  0.00    -0.204 OA
ATOM      2  C2  BZF d   1       0.184   3.108  -1.578  0.00  0.00     0.174 A 
ATOM      3  C3  BZF d   1      -1.086   3.002  -1.134  0.00  0.00    -0.012 A 
ATOM      4  C3A BZF d   1      -0.977   2.843   0.283  0.00  0.00    -0.107 A 
ATOM      5  C4  BZF d   1      -1.895   2.703   1.285  0.00  0.00     0.055 A 
ATOM      6  C5  BZF d   1      -1.459   2.495   2.556  0.00  0.00    -0.016 A 
ATOM      7  C6  BZF d   1      -0.115   2.416   2.858  0.00  0.00     0.022 A 
ATOM      8  C7  BZF d   1       0.832   2.553   1.899  0.00  0.00     0.029 A 
ATOM      9  C7A BZF d   1       0.395   2.797   0.620  0.00  0.00     0.058 A 
ENDROOT
TORSDOF 0
ENDMDL
