MODEL 1
REMARK minimizedAffinity -3.93435192
REMARK minimizedRMSD -1
REMARK  0 active torsions:
REMARK  status: ('A' for Active; 'I' for Inactive)
ROOT
ATOM      1  C   UNL d   1      -1.622  -0.318  -0.464  0.00  0.00     0.078 C 
ATOM      2  C1  UNL d   1      -0.192  -0.083  -0.077  0.00  0.00    -0.077 A 
ATOM      3  C2  UNL d   1       0.274   1.205   0.213  0.00  0.00    -0.001 A 
ATOM      4  C3  UNL d   1       1.609   1.411   0.563  0.00  0.00     0.003 A 
ATOM      5  C4  UNL d   1       2.490   0.333   0.626  0.00  0.00    -0.005 A 
ATOM      6  C5  UNL d   1       2.036  -0.953   0.337  0.00  0.00     0.003 A 
ATOM      7  C6  UNL d   1       0.701  -1.160  -0.013  0.00  0.00    -0.001 A 
ENDROOT
TORSDOF 0
ENDMDL
