MODEL 1
REMARK minimizedAffinity -4.47896338
REMARK minimizedRMSD -1
REMARK  0 active torsions:
REMARK  status: ('A' for Active; 'I' for Inactive)
ROOT
ATOM      1  C   UNL d   1       4.029  -1.098   1.174  0.00  0.00     0.078 C 
ATOM      2  C1  UNL d   1       2.924  -0.319   0.525  0.00  0.00    -0.077 A 
ATOM      3  C2  UNL d   1       3.011   0.075  -0.816  0.00  0.00    -0.001 A 
ATOM      4  C3  UNL d   1       1.979   0.808  -1.405  0.00  0.00     0.003 A 
ATOM      5  C4  UNL d   1       0.853   1.153  -0.660  0.00  0.00    -0.005 A 
ATOM      6  C5  UNL d   1       0.758   0.767   0.675  0.00  0.00     0.003 A 
ATOM      7  C6  UNL d   1       1.789   0.034   1.266  0.00  0.00    -0.001 A 
ENDROOT
TORSDOF 0
ENDMDL
