MODEL 1
REMARK minimizedAffinity 5.54310703
REMARK minimizedRMSD -1
REMARK  0 active torsions:
REMARK  status: ('A' for Active; 'I' for Inactive)
ROOT
ATOM      1  C   UNL d   1       1.747   2.211  -1.696  0.00  0.00     0.078 C 
ATOM      2  C1  UNL d   1       1.693   1.670  -0.299  0.00  0.00    -0.077 A 
ATOM      3  C2  UNL d   1       2.864   1.455   0.438  0.00  0.00    -0.001 A 
ATOM      4  C3  UNL d   1       2.799   0.942   1.734  0.00  0.00     0.003 A 
ATOM      5  C4  UNL d   1       1.565   0.637   2.305  0.00  0.00    -0.005 A 
ATOM      6  C5  UNL d   1       0.394   0.845   1.579  0.00  0.00     0.003 A 
ATOM      7  C6  UNL d   1       0.457   1.359   0.282  0.00  0.00    -0.001 A 
ENDROOT
TORSDOF 0
ENDMDL
