MODEL 1
REMARK minimizedAffinity -4.54424191
REMARK minimizedRMSD -1
REMARK  0 active torsions:
REMARK  status: ('A' for Active; 'I' for Inactive)
ROOT
ATOM      1  C   UNL d   1       0.751   1.128  -0.473  0.00  0.00     0.078 C 
ATOM      2  C1  UNL d   1       1.283   0.043   0.415  0.00  0.00    -0.077 A 
ATOM      3  C2  UNL d   1       0.505  -1.078   0.729  0.00  0.00    -0.001 A 
ATOM      4  C3  UNL d   1       1.010  -2.076   1.565  0.00  0.00     0.003 A 
ATOM      5  C4  UNL d   1       2.293  -1.962   2.095  0.00  0.00    -0.005 A 
ATOM      6  C5  UNL d   1       3.074  -0.849   1.790  0.00  0.00     0.003 A 
ATOM      7  C6  UNL d   1       2.571   0.150   0.954  0.00  0.00    -0.001 A 
ENDROOT
TORSDOF 0
ENDMDL
