MODEL 1
REMARK minimizedAffinity -5.0737834
REMARK minimizedRMSD -1
REMARK  0 active torsions:
REMARK  status: ('A' for Active; 'I' for Inactive)
ROOT
ATOM      1  C   UNL d   1      -1.381  -0.596  -3.892  0.00  0.00     0.078 C 
ATOM      2  C1  UNL d   1      -0.859  -0.153  -2.558  0.00  0.00    -0.077 A 
ATOM      3  C2  UNL d   1       0.496   0.149  -2.378  0.00  0.00    -0.001 A 
ATOM      4  C3  UNL d   1       0.970   0.551  -1.128  0.00  0.00     0.003 A 
ATOM      5  C4  UNL d   1       0.096   0.653  -0.048  0.00  0.00    -0.005 A 
ATOM      6  C5  UNL d   1      -1.254   0.352  -0.217  0.00  0.00     0.003 A 
ATOM      7  C6  UNL d   1      -1.730  -0.050  -1.466  0.00  0.00    -0.001 A 
ENDROOT
TORSDOF 0
ENDMDL
