MODEL 1
REMARK minimizedAffinity -4.48035431
REMARK minimizedRMSD -1
REMARK  0 active torsions:
REMARK  status: ('A' for Active; 'I' for Inactive)
ROOT
ATOM      1  C   UNL d   1       0.611   0.176   0.081  0.00  0.00     0.078 C 
ATOM      2  C1  UNL d   1      -0.552   0.123  -0.865  0.00  0.00    -0.077 A 
ATOM      3  C2  UNL d   1      -1.864   0.014  -0.390  0.00  0.00    -0.001 A 
ATOM      4  C3  UNL d   1      -2.936  -0.044  -1.282  0.00  0.00     0.003 A 
ATOM      5  C4  UNL d   1      -2.706   0.005  -2.656  0.00  0.00    -0.005 A 
ATOM      6  C5  UNL d   1      -1.403   0.112  -3.138  0.00  0.00     0.003 A 
ATOM      7  C6  UNL d   1      -0.330   0.170  -2.247  0.00  0.00    -0.001 A 
ENDROOT
TORSDOF 0
ENDMDL
