MODEL 1
REMARK minimizedAffinity -3.9604454
REMARK minimizedRMSD -1
REMARK  0 active torsions:
REMARK  status: ('A' for Active; 'I' for Inactive)
ROOT
ATOM      1  C   UNL d   1      -2.503  -0.027  -3.789  0.00  0.00     0.078 C 
ATOM      2  C1  UNL d   1      -1.818   0.089  -2.460  0.00  0.00    -0.077 A 
ATOM      3  C2  UNL d   1      -2.479  -0.256  -1.275  0.00  0.00    -0.001 A 
ATOM      4  C3  UNL d   1      -1.832  -0.134  -0.045  0.00  0.00     0.003 A 
ATOM      5  C4  UNL d   1      -0.521   0.334   0.013  0.00  0.00    -0.005 A 
ATOM      6  C5  UNL d   1       0.145   0.682  -1.161  0.00  0.00     0.003 A 
ATOM      7  C6  UNL d   1      -0.501   0.560  -2.392  0.00  0.00    -0.001 A 
ENDROOT
TORSDOF 0
ENDMDL
