MODEL 1
REMARK minimizedAffinity 29.5088196
REMARK minimizedRMSD -1
REMARK  0 active torsions:
REMARK  status: ('A' for Active; 'I' for Inactive)
ROOT
ATOM      1  C   UNL d   1       0.553  -1.189  -2.096  0.00  0.00     0.124 A 
ATOM      2  C1  UNL d   1       0.934  -2.518  -1.973  0.00  0.00     0.062 A 
ATOM      3  C2  UNL d   1      -0.019  -3.529  -2.043  0.00  0.00     0.162 A 
ATOM      4  C3  UNL d   1      -1.364  -3.216  -2.239  0.00  0.00    -0.034 A 
ATOM      5  C4  UNL d   1      -1.741  -1.877  -2.360  0.00  0.00     0.162 A 
ATOM      6  C5  UNL d   1      -0.784  -0.870  -2.290  0.00  0.00     0.062 A 
ATOM      7  F   UNL d   1      -1.155   0.413  -2.409  0.00  0.00    -0.097 F 
ATOM      8  F1  UNL d   1      -3.025  -1.541  -2.549  0.00  0.00    -0.096 F 
ATOM      9  I   UNL d   1      -2.793  -4.726  -2.344  0.00  0.00    -0.060 I 
ATOM     10  F2  UNL d   1       0.378  -4.805  -1.921  0.00  0.00    -0.096 F 
ATOM     11  F3  UNL d   1       2.225  -2.828  -1.785  0.00  0.00    -0.097 F 
ATOM     12  F4  UNL d   1       1.472  -0.217  -2.027  0.00  0.00    -0.092 F 
ENDROOT
TORSDOF 0
ENDMDL
