MODEL 1
REMARK minimizedAffinity 12.0428486
REMARK minimizedRMSD -1
REMARK  0 active torsions:
REMARK  status: ('A' for Active; 'I' for Inactive)
ROOT
ATOM      1  C   UNL d   1       3.517  -0.222  -2.866  0.00  0.00     0.124 A 
ATOM      2  C1  UNL d   1       3.046  -1.486  -2.539  0.00  0.00     0.062 A 
ATOM      3  C2  UNL d   1       2.575  -1.747  -1.255  0.00  0.00     0.162 A 
ATOM      4  C3  UNL d   1       2.572  -0.741  -0.289  0.00  0.00    -0.034 A 
ATOM      5  C4  UNL d   1       3.049   0.527  -0.625  0.00  0.00     0.162 A 
ATOM      6  C5  UNL d   1       3.518   0.783  -1.909  0.00  0.00     0.062 A 
ATOM      7  F   UNL d   1       3.973   2.005  -2.223  0.00  0.00    -0.097 F 
ATOM      8  F1  UNL d   1       3.060   1.517   0.280  0.00  0.00    -0.096 F 
ATOM      9  I   UNL d   1       1.870  -1.127   1.632  0.00  0.00    -0.060 I 
ATOM     10  F2  UNL d   1       2.126  -2.977  -0.967  0.00  0.00    -0.096 F 
ATOM     11  F3  UNL d   1       3.045  -2.459  -3.461  0.00  0.00    -0.097 F 
ATOM     12  F4  UNL d   1       3.970   0.026  -4.102  0.00  0.00    -0.092 F 
ENDROOT
TORSDOF 0
ENDMDL
