MODEL 1
REMARK minimizedAffinity 24.232687
REMARK minimizedRMSD -1
REMARK  0 active torsions:
REMARK  status: ('A' for Active; 'I' for Inactive)
ROOT
ATOM      1  C   UNL d   1       5.268   4.033   1.455  0.00  0.00     0.124 A 
ATOM      2  C1  UNL d   1       4.512   3.329   2.383  0.00  0.00     0.062 A 
ATOM      3  C2  UNL d   1       3.750   2.236   1.980  0.00  0.00     0.162 A 
ATOM      4  C3  UNL d   1       3.739   1.840   0.643  0.00  0.00    -0.034 A 
ATOM      5  C4  UNL d   1       4.501   2.553  -0.284  0.00  0.00     0.162 A 
ATOM      6  C5  UNL d   1       5.261   3.645   0.123  0.00  0.00     0.062 A 
ATOM      7  F   UNL d   1       5.990   4.323  -0.775  0.00  0.00    -0.097 F 
ATOM      8  F1  UNL d   1       4.513   2.199  -1.578  0.00  0.00    -0.096 F 
ATOM      9  I   UNL d   1       2.600   0.207   0.037  0.00  0.00    -0.060 I 
ATOM     10  F2  UNL d   1       3.029   1.575   2.898  0.00  0.00    -0.096 F 
ATOM     11  F3  UNL d   1       4.516   3.703   3.671  0.00  0.00    -0.097 F 
ATOM     12  F4  UNL d   1       6.000   5.084   1.845  0.00  0.00    -0.092 F 
ENDROOT
TORSDOF 0
ENDMDL
