MODEL 1
REMARK minimizedAffinity 16.8967743
REMARK minimizedRMSD -1
REMARK  0 active torsions:
REMARK  status: ('A' for Active; 'I' for Inactive)
ROOT
ATOM      1  C   UNL d   1       4.239   2.545  -0.074  0.00  0.00     0.124 A 
ATOM      2  C1  UNL d   1       4.552   2.345  -1.411  0.00  0.00     0.062 A 
ATOM      3  C2  UNL d   1       3.961   1.304  -2.121  0.00  0.00     0.162 A 
ATOM      4  C3  UNL d   1       3.050   0.454  -1.495  0.00  0.00    -0.034 A 
ATOM      5  C4  UNL d   1       2.740   0.660  -0.149  0.00  0.00     0.162 A 
ATOM      6  C5  UNL d   1       3.334   1.702   0.556  0.00  0.00     0.062 A 
ATOM      7  F   UNL d   1       3.030   1.893   1.848  0.00  0.00    -0.097 F 
ATOM      8  F1  UNL d   1       1.868  -0.138   0.484  0.00  0.00    -0.096 F 
ATOM      9  I   UNL d   1       2.164  -1.104  -2.553  0.00  0.00    -0.060 I 
ATOM     10  F2  UNL d   1       4.283   1.135  -3.412  0.00  0.00    -0.096 F 
ATOM     11  F3  UNL d   1       5.428   3.157  -2.021  0.00  0.00    -0.097 F 
ATOM     12  F4  UNL d   1       4.810   3.547   0.607  0.00  0.00    -0.092 F 
ENDROOT
TORSDOF 0
ENDMDL
