MODEL 1
REMARK minimizedAffinity 15.2979002
REMARK minimizedRMSD -1
REMARK  0 active torsions:
REMARK  status: ('A' for Active; 'I' for Inactive)
ROOT
ATOM      1  C   UNL d   1       2.959   0.261   1.370  0.00  0.00     0.124 A 
ATOM      2  C1  UNL d   1       3.016  -1.111   1.170  0.00  0.00     0.062 A 
ATOM      3  C2  UNL d   1       2.469  -1.674   0.020  0.00  0.00     0.162 A 
ATOM      4  C3  UNL d   1       1.861  -0.864  -0.939  0.00  0.00    -0.034 A 
ATOM      5  C4  UNL d   1       1.807   0.515  -0.730  0.00  0.00     0.162 A 
ATOM      6  C5  UNL d   1       2.355   1.073   0.421  0.00  0.00     0.062 A 
ATOM      7  F   UNL d   1       2.300   2.399   0.613  0.00  0.00    -0.097 F 
ATOM      8  F1  UNL d   1       1.230   1.324  -1.632  0.00  0.00    -0.096 F 
ATOM      9  I   UNL d   1       1.042  -1.701  -2.659  0.00  0.00    -0.060 I 
ATOM     10  F2  UNL d   1       2.538  -3.003  -0.148  0.00  0.00    -0.096 F 
ATOM     11  F3  UNL d   1       3.598  -1.898   2.086  0.00  0.00    -0.097 F 
ATOM     12  F4  UNL d   1       3.486   0.799   2.478  0.00  0.00    -0.092 F 
ENDROOT
TORSDOF 0
ENDMDL
