MODEL 1
REMARK minimizedAffinity 24.7077961
REMARK minimizedRMSD -1
REMARK  0 active torsions:
REMARK  status: ('A' for Active; 'I' for Inactive)
ROOT
ATOM      1  C   UNL d   1       3.508  -0.244   0.998  0.00  0.00     0.124 A 
ATOM      2  C1  UNL d   1       3.010   0.711   0.123  0.00  0.00     0.062 A 
ATOM      3  C2  UNL d   1       2.122   0.343  -0.883  0.00  0.00     0.162 A 
ATOM      4  C3  UNL d   1       1.725  -0.988  -1.020  0.00  0.00    -0.034 A 
ATOM      5  C4  UNL d   1       2.232  -1.943  -0.137  0.00  0.00     0.162 A 
ATOM      6  C5  UNL d   1       3.119  -1.570   0.868  0.00  0.00     0.062 A 
ATOM      7  F   UNL d   1       3.600  -2.494   1.712  0.00  0.00    -0.097 F 
ATOM      8  F1  UNL d   1       1.872  -3.231  -0.239  0.00  0.00    -0.096 F 
ATOM      9  I   UNL d   1       0.398  -1.543  -2.523  0.00  0.00    -0.060 I 
ATOM     10  F2  UNL d   1       1.656   1.286  -1.715  0.00  0.00    -0.096 F 
ATOM     11  F3  UNL d   1       3.385   1.992   0.247  0.00  0.00    -0.097 F 
ATOM     12  F4  UNL d   1       4.363   0.113   1.965  0.00  0.00    -0.092 F 
ENDROOT
TORSDOF 0
ENDMDL
