MODEL 1
REMARK minimizedAffinity 16.4196339
REMARK minimizedRMSD -1
REMARK  0 active torsions:
REMARK  status: ('A' for Active; 'I' for Inactive)
ROOT
ATOM      1  C   UNL d   1      -2.755  -0.328  -4.858  0.00  0.00     0.124 A 
ATOM      2  C1  UNL d   1      -2.031  -0.309  -3.674  0.00  0.00     0.062 A 
ATOM      3  C2  UNL d   1      -2.642   0.083  -2.486  0.00  0.00     0.162 A 
ATOM      4  C3  UNL d   1      -3.985   0.459  -2.476  0.00  0.00    -0.034 A 
ATOM      5  C4  UNL d   1      -4.706   0.439  -3.671  0.00  0.00     0.162 A 
ATOM      6  C5  UNL d   1      -4.091   0.046  -4.856  0.00  0.00     0.062 A 
ATOM      7  F   UNL d   1      -4.793   0.029  -5.999  0.00  0.00    -0.097 F 
ATOM      8  F1  UNL d   1      -5.999   0.794  -3.697  0.00  0.00    -0.096 F 
ATOM      9  I   UNL d   1      -4.902   1.046  -0.702  0.00  0.00    -0.060 I 
ATOM     10  F2  UNL d   1      -1.918   0.092  -1.357  0.00  0.00    -0.096 F 
ATOM     11  F3  UNL d   1      -0.739  -0.669  -3.674  0.00  0.00    -0.097 F 
ATOM     12  F4  UNL d   1      -2.165  -0.704  -6.000  0.00  0.00    -0.092 F 
ENDROOT
TORSDOF 0
ENDMDL
