MODEL 1
REMARK minimizedAffinity 26.7072372
REMARK minimizedRMSD -1
REMARK  0 active torsions:
REMARK  status: ('A' for Active; 'I' for Inactive)
ROOT
ATOM      1  C   UNL d   1       2.710   1.597   0.326  0.00  0.00     0.124 A 
ATOM      2  C1  UNL d   1       3.180   1.788  -0.966  0.00  0.00     0.062 A 
ATOM      3  C2  UNL d   1       3.171   0.735  -1.876  0.00  0.00     0.162 A 
ATOM      4  C3  UNL d   1       2.690  -0.518  -1.498  0.00  0.00    -0.034 A 
ATOM      5  C4  UNL d   1       2.220  -0.703  -0.197  0.00  0.00     0.162 A 
ATOM      6  C5  UNL d   1       2.230   0.353   0.709  0.00  0.00     0.062 A 
ATOM      7  F   UNL d   1       1.776   0.167   1.957  0.00  0.00    -0.097 F 
ATOM      8  F1  UNL d   1       1.750  -1.895   0.200  0.00  0.00    -0.096 F 
ATOM      9  I   UNL d   1       2.676  -2.095  -2.856  0.00  0.00    -0.060 I 
ATOM     10  F2  UNL d   1       3.632   0.948  -3.118  0.00  0.00    -0.096 F 
ATOM     11  F3  UNL d   1       3.644   2.989  -1.338  0.00  0.00    -0.097 F 
ATOM     12  F4  UNL d   1       2.720   2.612   1.200  0.00  0.00    -0.092 F 
ENDROOT
TORSDOF 0
ENDMDL
