MODEL 1
REMARK minimizedAffinity 1.93607473
REMARK minimizedRMSD -1
REMARK  0 active torsions:
REMARK  status: ('A' for Active; 'I' for Inactive)
ROOT
ATOM      1  C   UNL d   1      -5.286  -2.680   5.463  0.00  0.00     0.077 C 
ATOM      2  C1  UNL d   1      -5.312  -1.595   4.428  0.00  0.00    -0.074 A 
ATOM      3  C2  UNL d   1      -5.981  -0.390   4.666  0.00  0.00    -0.005 A 
ATOM      4  C3  UNL d   1      -5.988   0.614   3.697  0.00  0.00     0.006 A 
ATOM      5  C4  UNL d   1      -5.328   0.423   2.482  0.00  0.00    -0.005 A 
ATOM      6  C5  UNL d   1      -4.653  -0.775   2.227  0.00  0.00    -0.074 A 
ATOM      7  C6  UNL d   1      -3.931  -0.993   0.931  0.00  0.00     0.077 C 
ATOM      8  C7  UNL d   1      -4.644  -1.776   3.208  0.00  0.00    -0.001 A 
ENDROOT
TORSDOF 0
ENDMDL
