MODEL 1
REMARK minimizedAffinity 11.0469809
REMARK minimizedRMSD -1
REMARK  0 active torsions:
REMARK  status: ('A' for Active; 'I' for Inactive)
ROOT
ATOM      1  C   UNL d   1      -3.745  -5.921  -5.172  0.00  0.00     0.077 C 
ATOM      2  C1  UNL d   1      -2.498  -5.093  -5.080  0.00  0.00    -0.074 A 
ATOM      3  C2  UNL d   1      -2.248  -4.067  -5.997  0.00  0.00    -0.005 A 
ATOM      4  C3  UNL d   1      -1.088  -3.299  -5.893  0.00  0.00     0.006 A 
ATOM      5  C4  UNL d   1      -0.169  -3.549  -4.873  0.00  0.00    -0.005 A 
ATOM      6  C5  UNL d   1      -0.403  -4.570  -3.947  0.00  0.00    -0.074 A 
ATOM      7  C6  UNL d   1       0.570  -4.845  -2.839  0.00  0.00     0.077 C 
ATOM      8  C7  UNL d   1      -1.574  -5.333  -4.054  0.00  0.00    -0.001 A 
ENDROOT
TORSDOF 0
ENDMDL
