MODEL 1
REMARK minimizedAffinity 6.3203311
REMARK minimizedRMSD -1
REMARK  0 active torsions:
REMARK  status: ('A' for Active; 'I' for Inactive)
ROOT
ATOM      1  C   UNL d   1       0.058   4.857  -4.148  0.00  0.00     0.077 C 
ATOM      2  C1  UNL d   1      -0.291   4.866  -2.690  0.00  0.00    -0.074 A 
ATOM      3  C2  UNL d   1      -0.865   5.995  -2.095  0.00  0.00    -0.005 A 
ATOM      4  C3  UNL d   1      -1.193   5.985  -0.739  0.00  0.00     0.006 A 
ATOM      5  C4  UNL d   1      -0.952   4.848   0.034  0.00  0.00    -0.005 A 
ATOM      6  C5  UNL d   1      -0.380   3.710  -0.544  0.00  0.00    -0.074 A 
ATOM      7  C6  UNL d   1      -0.123   2.477   0.270  0.00  0.00     0.077 C 
ATOM      8  C7  UNL d   1      -0.059   3.725  -1.908  0.00  0.00    -0.001 A 
ENDROOT
TORSDOF 0
ENDMDL
