MODEL 1
REMARK minimizedAffinity 0.916368902
REMARK minimizedRMSD -1
REMARK  0 active torsions:
REMARK  status: ('A' for Active; 'I' for Inactive)
ROOT
ATOM      1  C   UNL d   1      -5.925  -4.377   6.000  0.00  0.00     0.077 C 
ATOM      2  C1  UNL d   1      -5.945  -3.058   5.286  0.00  0.00    -0.074 A 
ATOM      3  C2  UNL d   1      -5.990  -1.856   6.000  0.00  0.00    -0.005 A 
ATOM      4  C3  UNL d   1      -5.998  -0.636   5.323  0.00  0.00     0.006 A 
ATOM      5  C4  UNL d   1      -5.962  -0.607   3.928  0.00  0.00    -0.005 A 
ATOM      6  C5  UNL d   1      -5.916  -1.799   3.198  0.00  0.00    -0.074 A 
ATOM      7  C6  UNL d   1      -5.867  -1.784   1.699  0.00  0.00     0.077 C 
ATOM      8  C7  UNL d   1      -5.901  -3.020   3.886  0.00  0.00    -0.001 A 
ENDROOT
TORSDOF 0
ENDMDL
