MODEL 1
REMARK minimizedAffinity -2.14719105
REMARK minimizedRMSD -1
REMARK  0 active torsions:
REMARK  status: ('A' for Active; 'I' for Inactive)
ROOT
ATOM      1  C   UNL d   1      -1.536  -2.377  -5.999  0.00  0.00     0.077 C 
ATOM      2  C1  UNL d   1      -2.329  -3.636  -5.817  0.00  0.00    -0.074 A 
ATOM      3  C2  UNL d   1      -1.703  -4.836  -5.465  0.00  0.00    -0.005 A 
ATOM      4  C3  UNL d   1      -2.456  -5.998  -5.290  0.00  0.00     0.006 A 
ATOM      5  C4  UNL d   1      -3.840  -5.971  -5.465  0.00  0.00    -0.005 A 
ATOM      6  C5  UNL d   1      -4.484  -4.780  -5.817  0.00  0.00    -0.074 A 
ATOM      7  C6  UNL d   1      -5.972  -4.732  -5.999  0.00  0.00     0.077 C 
ATOM      8  C7  UNL d   1      -3.721  -3.616  -5.984  0.00  0.00    -0.001 A 
ENDROOT
TORSDOF 0
ENDMDL
