MODEL 1
REMARK minimizedAffinity 0.0942235216
REMARK minimizedRMSD -1
REMARK  0 active torsions:
REMARK  status: ('A' for Active; 'I' for Inactive)
ROOT
ATOM      1  C   UNL d   1      -4.795  -5.022  -6.000  0.00  0.00     0.077 C 
ATOM      2  C1  UNL d   1      -3.327  -4.904  -5.714  0.00  0.00    -0.074 A 
ATOM      3  C2  UNL d   1      -2.603  -5.991  -5.214  0.00  0.00    -0.005 A 
ATOM      4  C3  UNL d   1      -1.237  -5.870  -4.962  0.00  0.00     0.006 A 
ATOM      5  C4  UNL d   1      -0.581  -4.663  -5.208  0.00  0.00    -0.005 A 
ATOM      6  C5  UNL d   1      -1.289  -3.565  -5.710  0.00  0.00    -0.074 A 
ATOM      7  C6  UNL d   1      -0.598  -2.264  -5.989  0.00  0.00     0.077 C 
ATOM      8  C7  UNL d   1      -2.660  -3.697  -5.967  0.00  0.00    -0.001 A 
ENDROOT
TORSDOF 0
ENDMDL
