MODEL 1
REMARK minimizedAffinity 5.57182741
REMARK minimizedRMSD -1
REMARK  0 active torsions:
REMARK  status: ('A' for Active; 'I' for Inactive)
ROOT
ATOM      1  C   UNL d   1      -0.116   1.901  -0.398  0.00  0.00     0.077 C 
ATOM      2  C1  UNL d   1      -0.543   3.291  -0.764  0.00  0.00    -0.074 A 
ATOM      3  C2  UNL d   1      -0.050   3.915  -1.915  0.00  0.00    -0.005 A 
ATOM      4  C3  UNL d   1      -0.464   5.205  -2.248  0.00  0.00     0.006 A 
ATOM      5  C4  UNL d   1      -1.374   5.883  -1.435  0.00  0.00    -0.005 A 
ATOM      6  C5  UNL d   1      -1.878   5.274  -0.281  0.00  0.00    -0.074 A 
ATOM      7  C6  UNL d   1      -2.864   5.985   0.598  0.00  0.00     0.077 C 
ATOM      8  C7  UNL d   1      -1.463   3.976   0.043  0.00  0.00    -0.001 A 
ENDROOT
TORSDOF 0
ENDMDL
