MODEL 1
REMARK minimizedAffinity 8.4961071
REMARK minimizedRMSD -1
REMARK  0 active torsions:
REMARK  status: ('A' for Active; 'I' for Inactive)
ROOT
ATOM      1  C   UNL d   1      -1.194   3.846  -4.254  0.00  0.00     0.077 C 
ATOM      2  C1  UNL d   1      -0.911   4.220  -2.830  0.00  0.00    -0.074 A 
ATOM      3  C2  UNL d   1      -1.167   5.513  -2.361  0.00  0.00    -0.005 A 
ATOM      4  C3  UNL d   1      -0.907   5.843  -1.031  0.00  0.00     0.006 A 
ATOM      5  C4  UNL d   1      -0.390   4.886  -0.158  0.00  0.00    -0.005 A 
ATOM      6  C5  UNL d   1      -0.128   3.588  -0.608  0.00  0.00    -0.074 A 
ATOM      7  C6  UNL d   1       0.419   2.544   0.320  0.00  0.00     0.077 C 
ATOM      8  C7  UNL d   1      -0.398   3.262  -1.944  0.00  0.00    -0.001 A 
ENDROOT
TORSDOF 0
ENDMDL
