MODEL 1
REMARK minimizedAffinity -2.79567099
REMARK minimizedRMSD -1
REMARK  0 active torsions:
REMARK  status: ('A' for Active; 'I' for Inactive)
ROOT
ATOM      1  C   UNL d   1      -5.850  -3.031  -6.000  0.00  0.00     0.077 C 
ATOM      2  C1  UNL d   1      -4.604  -3.855  -5.867  0.00  0.00    -0.074 A 
ATOM      3  C2  UNL d   1      -4.675  -5.233  -5.641  0.00  0.00    -0.005 A 
ATOM      4  C3  UNL d   1      -3.507  -5.988  -5.529  0.00  0.00     0.006 A 
ATOM      5  C4  UNL d   1      -2.260  -5.374  -5.641  0.00  0.00    -0.005 A 
ATOM      6  C5  UNL d   1      -2.169  -3.997  -5.867  0.00  0.00    -0.074 A 
ATOM      7  C6  UNL d   1      -0.836  -3.322  -6.000  0.00  0.00     0.077 C 
ATOM      8  C7  UNL d   1      -3.347  -3.246  -5.986  0.00  0.00    -0.001 A 
ENDROOT
TORSDOF 0
ENDMDL
