MODEL 1
REMARK minimizedAffinity 9.73809624
REMARK minimizedRMSD -1
REMARK  0 active torsions:
REMARK  status: ('A' for Active; 'I' for Inactive)
ROOT
ATOM      1  C   UNL d   1      -5.399   5.984   3.729  0.00  0.00     0.023 A 
ATOM      2  C1  UNL d   1      -5.812   5.952   5.061  0.00  0.00     0.003 A 
ATOM      3  C2  UNL d   1      -5.984   4.729   5.711  0.00  0.00     0.048 A 
ATOM      4  C3  UNL d   1      -5.741   3.540   5.023  0.00  0.00     0.023 A 
ATOM      5  C4  UNL d   1      -5.327   3.567   3.690  0.00  0.00     0.048 A 
ATOM      6  C5  UNL d   1      -5.157   4.793   3.045  0.00  0.00     0.003 A 
ATOM      7  I   UNL d   1      -5.997   1.717   5.988  0.00  0.00    -0.146 I 
ENDROOT
TORSDOF 0
ENDMDL
