MODEL 1
REMARK minimizedAffinity 1.84818327
REMARK minimizedRMSD -1
REMARK  0 active torsions:
REMARK  status: ('A' for Active; 'I' for Inactive)
ROOT
ATOM      1  C   UNL d   1       5.978   5.874   5.215  0.00  0.00     0.023 A 
ATOM      2  C1  UNL d   1       5.658   5.999   3.863  0.00  0.00     0.003 A 
ATOM      3  C2  UNL d   1       4.690   5.170   3.293  0.00  0.00     0.048 A 
ATOM      4  C3  UNL d   1       4.044   4.217   4.082  0.00  0.00     0.023 A 
ATOM      5  C4  UNL d   1       4.360   4.089   5.435  0.00  0.00     0.048 A 
ATOM      6  C5  UNL d   1       5.330   4.920   6.000  0.00  0.00     0.003 A 
ATOM      7  I   UNL d   1       2.603   2.982   3.236  0.00  0.00    -0.146 I 
ENDROOT
TORSDOF 0
ENDMDL
