MODEL 1
REMARK minimizedAffinity 9.61034203
REMARK minimizedRMSD -1
REMARK  0 active torsions:
REMARK  status: ('A' for Active; 'I' for Inactive)
ROOT
ATOM      1  C   UNL d   1       4.490   2.374   0.325  0.00  0.00     0.023 A 
ATOM      2  C1  UNL d   1       5.197   1.328  -0.270  0.00  0.00     0.003 A 
ATOM      3  C2  UNL d   1       4.595   0.079  -0.431  0.00  0.00     0.048 A 
ATOM      4  C3  UNL d   1       3.284  -0.118   0.004  0.00  0.00     0.023 A 
ATOM      5  C4  UNL d   1       2.573   0.926   0.598  0.00  0.00     0.048 A 
ATOM      6  C5  UNL d   1       3.180   2.173   0.758  0.00  0.00     0.003 A 
ATOM      7  I   UNL d   1       2.385  -1.976  -0.235  0.00  0.00    -0.146 I 
ENDROOT
TORSDOF 0
ENDMDL
