MODEL 1
REMARK minimizedAffinity 9.88064861
REMARK minimizedRMSD -1
REMARK  0 active torsions:
REMARK  status: ('A' for Active; 'I' for Inactive)
ROOT
ATOM      1  C   UNL d   1       1.099   1.009   4.357  0.00  0.00     0.023 A 
ATOM      2  C1  UNL d   1       1.963   0.583   5.365  0.00  0.00     0.003 A 
ATOM      3  C2  UNL d   1       2.071  -0.776   5.667  0.00  0.00     0.048 A 
ATOM      4  C3  UNL d   1       1.312  -1.704   4.955  0.00  0.00     0.023 A 
ATOM      5  C4  UNL d   1       0.446  -1.283   3.945  0.00  0.00     0.048 A 
ATOM      6  C5  UNL d   1       0.341   0.077   3.647  0.00  0.00     0.003 A 
ATOM      7  I   UNL d   1       1.470  -3.728   5.402  0.00  0.00    -0.146 I 
ENDROOT
TORSDOF 0
ENDMDL
