MODEL 1
REMARK minimizedAffinity 7.84866762
REMARK minimizedRMSD -1
REMARK  0 active torsions:
REMARK  status: ('A' for Active; 'I' for Inactive)
ROOT
ATOM      1  C   UNL d   1       4.807   0.432  -1.354  0.00  0.00     0.023 A 
ATOM      2  C1  UNL d   1       3.904   0.639  -0.312  0.00  0.00     0.003 A 
ATOM      3  C2  UNL d   1       2.956  -0.338  -0.003  0.00  0.00     0.048 A 
ATOM      4  C3  UNL d   1       2.917  -1.521  -0.740  0.00  0.00     0.023 A 
ATOM      5  C4  UNL d   1       3.820  -1.733  -1.783  0.00  0.00     0.048 A 
ATOM      6  C5  UNL d   1       4.765  -0.753  -2.089  0.00  0.00     0.003 A 
ATOM      7  I   UNL d   1       1.507  -2.978  -0.282  0.00  0.00    -0.146 I 
ENDROOT
TORSDOF 0
ENDMDL
