MODEL 1
REMARK minimizedAffinity 7.99977875
REMARK minimizedRMSD -1
REMARK  0 active torsions:
REMARK  status: ('A' for Active; 'I' for Inactive)
ROOT
ATOM      1  C   UNL d   1       4.113   1.874  -0.010  0.00  0.00     0.023 A 
ATOM      2  C1  UNL d   1       2.745   1.656   0.153  0.00  0.00     0.003 A 
ATOM      3  C2  UNL d   1       2.229   0.361   0.075  0.00  0.00     0.048 A 
ATOM      4  C3  UNL d   1       3.087  -0.712  -0.167  0.00  0.00     0.023 A 
ATOM      5  C4  UNL d   1       4.456  -0.498  -0.330  0.00  0.00     0.048 A 
ATOM      6  C5  UNL d   1       4.968   0.798  -0.252  0.00  0.00     0.003 A 
ATOM      7  I   UNL d   1       2.321  -2.640  -0.284  0.00  0.00    -0.146 I 
ENDROOT
TORSDOF 0
ENDMDL
