MODEL 1
REMARK minimizedAffinity 2.05523849
REMARK minimizedRMSD -1
REMARK  0 active torsions:
REMARK  status: ('A' for Active; 'I' for Inactive)
ROOT
ATOM      1  C   UNL d   1      -0.096  -3.387  -0.955  0.00  0.00     0.023 A 
ATOM      2  C1  UNL d   1       1.046  -3.551  -0.171  0.00  0.00     0.003 A 
ATOM      3  C2  UNL d   1       1.971  -2.511  -0.058  0.00  0.00     0.048 A 
ATOM      4  C3  UNL d   1       1.748  -1.310  -0.730  0.00  0.00     0.023 A 
ATOM      5  C4  UNL d   1       0.606  -1.141  -1.515  0.00  0.00     0.048 A 
ATOM      6  C5  UNL d   1      -0.316  -2.184  -1.626  0.00  0.00     0.003 A 
ATOM      7  I   UNL d   1       3.124   0.239  -0.562  0.00  0.00    -0.146 I 
ENDROOT
TORSDOF 0
ENDMDL
