MODEL 1
REMARK minimizedAffinity 8.25660419
REMARK minimizedRMSD -1
REMARK  0 active torsions:
REMARK  status: ('A' for Active; 'I' for Inactive)
ROOT
ATOM      1  C   UNL d   1      -4.901   5.961   4.213  0.00  0.00     0.023 A 
ATOM      2  C1  UNL d   1      -4.576   4.813   3.490  0.00  0.00     0.003 A 
ATOM      3  C2  UNL d   1      -4.890   3.552   4.001  0.00  0.00     0.048 A 
ATOM      4  C3  UNL d   1      -5.530   3.446   5.235  0.00  0.00     0.023 A 
ATOM      5  C4  UNL d   1      -5.858   4.591   5.962  0.00  0.00     0.048 A 
ATOM      6  C5  UNL d   1      -5.541   5.850   5.448  0.00  0.00     0.003 A 
ATOM      7  I   UNL d   1      -5.999   1.570   5.997  0.00  0.00    -0.146 I 
ENDROOT
TORSDOF 0
ENDMDL
