MODEL 1
REMARK minimizedAffinity 13.0963335
REMARK minimizedRMSD -1
REMARK  0 active torsions:
REMARK  status: ('A' for Active; 'I' for Inactive)
ROOT
ATOM      1  C   UNL d   1       5.578   4.502  -1.371  0.00  0.00     0.023 A 
ATOM      2  C1  UNL d   1       4.236   4.787  -1.116  0.00  0.00     0.003 A 
ATOM      3  C2  UNL d   1       3.314   3.748  -0.976  0.00  0.00     0.048 A 
ATOM      4  C3  UNL d   1       3.741   2.425  -1.092  0.00  0.00     0.023 A 
ATOM      5  C4  UNL d   1       5.082   2.135  -1.347  0.00  0.00     0.048 A 
ATOM      6  C5  UNL d   1       6.000   3.177  -1.487  0.00  0.00     0.003 A 
ATOM      7  I   UNL d   1       2.371   0.876  -0.884  0.00  0.00    -0.146 I 
ENDROOT
TORSDOF 0
ENDMDL
