MODEL 1
REMARK minimizedAffinity -0.315193653
REMARK minimizedRMSD -1
REMARK  0 active torsions:
REMARK  status: ('A' for Active; 'I' for Inactive)
ROOT
ATOM      1  C   UNL d   1       2.829   2.318   0.841  0.00  0.00     0.124 A 
ATOM      2  C1  UNL d   1       1.701   2.167   1.636  0.00  0.00     0.062 A 
ATOM      3  C2  UNL d   1       0.584   1.498   1.145  0.00  0.00     0.162 A 
ATOM      4  C3  UNL d   1       0.588   0.975  -0.148  0.00  0.00    -0.034 A 
ATOM      5  C4  UNL d   1       1.726   1.131  -0.942  0.00  0.00     0.162 A 
ATOM      6  C5  UNL d   1       2.841   1.800  -0.446  0.00  0.00     0.062 A 
ATOM      7  F   UNL d   1       3.929   1.945  -1.216  0.00  0.00    -0.097 F 
ATOM      8  F1  UNL d   1       1.764   0.640  -2.189  0.00  0.00    -0.096 F 
ATOM      9  I   UNL d   1      -1.081  -0.025  -0.886  0.00  0.00    -0.060 I 
ATOM     10  F2  UNL d   1      -0.492   1.367   1.935  0.00  0.00    -0.096 F 
ATOM     11  F3  UNL d   1       1.688   2.666   2.880  0.00  0.00    -0.097 F 
ATOM     12  F4  UNL d   1       3.903   2.962   1.316  0.00  0.00    -0.092 F 
ENDROOT
TORSDOF 0
ENDMDL
