MODEL 1
REMARK minimizedAffinity 3.92317677
REMARK minimizedRMSD -1
REMARK  0 active torsions:
REMARK  status: ('A' for Active; 'I' for Inactive)
ROOT
ATOM      1  C   UNL d   1      -1.435  -0.786  -0.757  0.00  0.00     0.124 A 
ATOM      2  C1  UNL d   1      -1.318   0.437  -1.402  0.00  0.00     0.062 A 
ATOM      3  C2  UNL d   1      -0.255   1.286  -1.106  0.00  0.00     0.162 A 
ATOM      4  C3  UNL d   1       0.701   0.914  -0.161  0.00  0.00    -0.034 A 
ATOM      5  C4  UNL d   1       0.577  -0.318   0.484  0.00  0.00     0.162 A 
ATOM      6  C5  UNL d   1      -0.488  -1.163   0.185  0.00  0.00     0.062 A 
ATOM      7  F   UNL d   1      -0.599  -2.344   0.809  0.00  0.00    -0.097 F 
ATOM      8  F1  UNL d   1       1.478  -0.707   1.398  0.00  0.00    -0.096 F 
ATOM      9  I   UNL d   1       2.292   2.180   0.283  0.00  0.00    -0.060 I 
ATOM     10  F2  UNL d   1      -0.167   2.462  -1.745  0.00  0.00    -0.096 F 
ATOM     11  F3  UNL d   1      -2.232   0.804  -2.311  0.00  0.00    -0.097 F 
ATOM     12  F4  UNL d   1      -2.459  -1.600  -1.042  0.00  0.00    -0.092 F 
ENDROOT
TORSDOF 0
ENDMDL
