MODEL 1
REMARK minimizedAffinity -0.406399846
REMARK minimizedRMSD -1
REMARK  0 active torsions:
REMARK  status: ('A' for Active; 'I' for Inactive)
ROOT
ATOM      1  C   UNL d   1      -1.666  -1.981  -0.401  0.00  0.00     0.124 A 
ATOM      2  C1  UNL d   1      -1.641  -0.774  -1.086  0.00  0.00     0.062 A 
ATOM      3  C2  UNL d   1      -0.608   0.133  -0.868  0.00  0.00     0.162 A 
ATOM      4  C3  UNL d   1       0.410  -0.164   0.039  0.00  0.00    -0.034 A 
ATOM      5  C4  UNL d   1       0.377  -1.379   0.724  0.00  0.00     0.162 A 
ATOM      6  C5  UNL d   1      -0.657  -2.282   0.503  0.00  0.00     0.062 A 
ATOM      7  F   UNL d   1      -0.680  -3.448   1.165  0.00  0.00    -0.097 F 
ATOM      8  F1  UNL d   1       1.339  -1.697   1.603  0.00  0.00    -0.096 F 
ATOM      9  I   UNL d   1       1.956   1.190   0.368  0.00  0.00    -0.060 I 
ATOM     10  F2  UNL d   1      -0.609   1.292  -1.544  0.00  0.00    -0.096 F 
ATOM     11  F3  UNL d   1      -2.614  -0.480  -1.960  0.00  0.00    -0.097 F 
ATOM     12  F4  UNL d   1      -2.662  -2.851  -0.613  0.00  0.00    -0.092 F 
ENDROOT
TORSDOF 0
ENDMDL
