MODEL 1
REMARK minimizedAffinity -0.685736179
REMARK minimizedRMSD -1
REMARK  0 active torsions:
REMARK  status: ('A' for Active; 'I' for Inactive)
ROOT
ATOM      1  C   UNL d   1      -1.761  -1.518   0.047  0.00  0.00     0.124 A 
ATOM      2  C1  UNL d   1      -1.833  -0.340  -0.683  0.00  0.00     0.062 A 
ATOM      3  C2  UNL d   1      -0.749   0.532  -0.715  0.00  0.00     0.162 A 
ATOM      4  C3  UNL d   1       0.419   0.228  -0.015  0.00  0.00    -0.034 A 
ATOM      5  C4  UNL d   1       0.485  -0.959   0.717  0.00  0.00     0.162 A 
ATOM      6  C5  UNL d   1      -0.602  -1.827   0.746  0.00  0.00     0.062 A 
ATOM      7  F   UNL d   1      -0.530  -2.965   1.452  0.00  0.00    -0.097 F 
ATOM      8  F1  UNL d   1       1.593  -1.282   1.401  0.00  0.00    -0.096 F 
ATOM      9  I   UNL d   1       2.043   1.528  -0.061  0.00  0.00    -0.060 I 
ATOM     10  F2  UNL d   1      -0.847   1.663  -1.428  0.00  0.00    -0.096 F 
ATOM     11  F3  UNL d   1      -2.952  -0.039  -1.358  0.00  0.00    -0.097 F 
ATOM     12  F4  UNL d   1      -2.806  -2.355   0.077  0.00  0.00    -0.092 F 
ENDROOT
TORSDOF 0
ENDMDL
