MODEL 1
REMARK minimizedAffinity 3.16562319
REMARK minimizedRMSD -1
REMARK  0 active torsions:
REMARK  status: ('A' for Active; 'I' for Inactive)
ROOT
ATOM      1  C   UNL d   1       2.638   1.754   1.416  0.00  0.00     0.124 A 
ATOM      2  C1  UNL d   1       1.352   2.054   1.845  0.00  0.00     0.062 A 
ATOM      3  C2  UNL d   1       0.253   1.461   1.230  0.00  0.00     0.162 A 
ATOM      4  C3  UNL d   1       0.435   0.562   0.179  0.00  0.00    -0.034 A 
ATOM      5  C4  UNL d   1       1.731   0.266  -0.247  0.00  0.00     0.162 A 
ATOM      6  C5  UNL d   1       2.826   0.861   0.371  0.00  0.00     0.062 A 
ATOM      7  F   UNL d   1       4.067   0.570  -0.045  0.00  0.00    -0.097 F 
ATOM      8  F1  UNL d   1       1.942  -0.594  -1.255  0.00  0.00    -0.096 F 
ATOM      9  I   UNL d   1      -1.206  -0.326  -0.743  0.00  0.00    -0.060 I 
ATOM     10  F2  UNL d   1      -0.978   1.769   1.665  0.00  0.00    -0.096 F 
ATOM     11  F3  UNL d   1       1.168   2.917   2.854  0.00  0.00    -0.097 F 
ATOM     12  F4  UNL d   1       3.694   2.327   2.009  0.00  0.00    -0.092 F 
ENDROOT
TORSDOF 0
ENDMDL
