MODEL 1
REMARK minimizedAffinity -1.30661595
REMARK minimizedRMSD -1
REMARK  0 active torsions:
REMARK  status: ('A' for Active; 'I' for Inactive)
ROOT
ATOM      1  C   UNL d   1      -1.446  -1.622  -0.134  0.00  0.00     0.124 A 
ATOM      2  C1  UNL d   1      -1.306  -0.523  -0.970  0.00  0.00     0.062 A 
ATOM      3  C2  UNL d   1      -0.198   0.311  -0.851  0.00  0.00     0.162 A 
ATOM      4  C3  UNL d   1       0.780   0.049   0.108  0.00  0.00    -0.034 A 
ATOM      5  C4  UNL d   1       0.633  -1.058   0.945  0.00  0.00     0.162 A 
ATOM      6  C5  UNL d   1      -0.476  -1.889   0.823  0.00  0.00     0.062 A 
ATOM      7  F   UNL d   1      -0.609  -2.950   1.631  0.00  0.00    -0.097 F 
ATOM      8  F1  UNL d   1       1.555  -1.340   1.878  0.00  0.00    -0.096 F 
ATOM      9  I   UNL d   1       2.439   1.293   0.289  0.00  0.00    -0.060 I 
ATOM     10  F2  UNL d   1      -0.090   1.366  -1.672  0.00  0.00    -0.096 F 
ATOM     11  F3  UNL d   1      -2.242  -0.262  -1.894  0.00  0.00    -0.097 F 
ATOM     12  F4  UNL d   1      -2.513  -2.422  -0.250  0.00  0.00    -0.092 F 
ENDROOT
TORSDOF 0
ENDMDL
