MODEL 1
REMARK minimizedAffinity 0.411433697
REMARK minimizedRMSD -1
REMARK  0 active torsions:
REMARK  status: ('A' for Active; 'I' for Inactive)
ROOT
ATOM      1  C   UNL d   1      -1.897  -1.625  -0.103  0.00  0.00     0.124 A 
ATOM      2  C1  UNL d   1      -1.819  -0.500  -0.913  0.00  0.00     0.062 A 
ATOM      3  C2  UNL d   1      -0.715   0.344  -0.834  0.00  0.00     0.162 A 
ATOM      4  C3  UNL d   1       0.321   0.066   0.057  0.00  0.00    -0.034 A 
ATOM      5  C4  UNL d   1       0.235  -1.067   0.869  0.00  0.00     0.162 A 
ATOM      6  C5  UNL d   1      -0.871  -1.907   0.787  0.00  0.00     0.062 A 
ATOM      7  F   UNL d   1      -0.945  -2.993   1.570  0.00  0.00    -0.097 F 
ATOM      8  F1  UNL d   1       1.213  -1.363   1.738  0.00  0.00    -0.096 F 
ATOM      9  I   UNL d   1       1.973   1.325   0.178  0.00  0.00    -0.060 I 
ATOM     10  F2  UNL d   1      -0.666   1.423  -1.629  0.00  0.00    -0.096 F 
ATOM     11  F3  UNL d   1      -2.810  -0.225  -1.774  0.00  0.00    -0.097 F 
ATOM     12  F4  UNL d   1      -2.961  -2.435  -0.181  0.00  0.00    -0.092 F 
ENDROOT
TORSDOF 0
ENDMDL
