MODEL 1
REMARK minimizedAffinity 0.275401622
REMARK minimizedRMSD -1
REMARK  0 active torsions:
REMARK  status: ('A' for Active; 'I' for Inactive)
ROOT
ATOM      1  C   UNL d   1      -1.919  -1.908  -0.131  0.00  0.00     0.124 A 
ATOM      2  C1  UNL d   1      -0.867  -2.245   0.709  0.00  0.00     0.062 A 
ATOM      3  C2  UNL d   1       0.250  -1.419   0.797  0.00  0.00     0.162 A 
ATOM      4  C3  UNL d   1       0.321  -0.247   0.043  0.00  0.00    -0.034 A 
ATOM      5  C4  UNL d   1      -0.741   0.084  -0.801  0.00  0.00     0.162 A 
ATOM      6  C5  UNL d   1      -1.856  -0.745  -0.885  0.00  0.00     0.062 A 
ATOM      7  F   UNL d   1      -2.872  -0.418  -1.697  0.00  0.00    -0.097 F 
ATOM      8  F1  UNL d   1      -0.707   1.203  -1.540  0.00  0.00    -0.096 F 
ATOM      9  I   UNL d   1       1.989   0.990   0.171  0.00  0.00    -0.060 I 
ATOM     10  F2  UNL d   1       1.253  -1.769   1.617  0.00  0.00    -0.096 F 
ATOM     11  F3  UNL d   1      -0.925  -3.368   1.438  0.00  0.00    -0.097 F 
ATOM     12  F4  UNL d   1      -2.992  -2.705  -0.214  0.00  0.00    -0.092 F 
ENDROOT
TORSDOF 0
ENDMDL
