MODEL 1
REMARK minimizedAffinity -2.63904929
REMARK minimizedRMSD -1
REMARK  0 active torsions:
REMARK  status: ('A' for Active; 'I' for Inactive)
ROOT
ATOM      1  C   UNL d   1      -2.078  -2.556  -0.126  0.00  0.00     0.124 A 
ATOM      2  C1  UNL d   1      -1.106  -2.760   0.844  0.00  0.00     0.062 A 
ATOM      3  C2  UNL d   1      -0.067  -1.846   0.996  0.00  0.00     0.162 A 
ATOM      4  C3  UNL d   1       0.004  -0.719   0.178  0.00  0.00    -0.034 A 
ATOM      5  C4  UNL d   1      -0.977  -0.521  -0.795  0.00  0.00     0.162 A 
ATOM      6  C5  UNL d   1      -2.013  -1.438  -0.944  0.00  0.00     0.062 A 
ATOM      7  F   UNL d   1      -2.951  -1.239  -1.881  0.00  0.00    -0.097 F 
ATOM      8  F1  UNL d   1      -0.939   0.552  -1.599  0.00  0.00    -0.096 F 
ATOM      9  I   UNL d   1       1.555   0.651   0.403  0.00  0.00    -0.060 I 
ATOM     10  F2  UNL d   1       0.858  -2.068   1.941  0.00  0.00    -0.096 F 
ATOM     11  F3  UNL d   1      -1.166  -3.841   1.635  0.00  0.00    -0.097 F 
ATOM     12  F4  UNL d   1      -3.075  -3.438  -0.272  0.00  0.00    -0.092 F 
ENDROOT
TORSDOF 0
ENDMDL
