MODEL 1
REMARK minimizedAffinity 0.640744507
REMARK minimizedRMSD -1
REMARK  0 active torsions:
REMARK  status: ('A' for Active; 'I' for Inactive)
ROOT
ATOM      1  C   UNL d   1      -1.823  -1.423  -0.236  0.00  0.00     0.124 A 
ATOM      2  C1  UNL d   1      -1.822  -0.198  -0.889  0.00  0.00     0.062 A 
ATOM      3  C2  UNL d   1      -0.721   0.648  -0.787  0.00  0.00     0.162 A 
ATOM      4  C3  UNL d   1       0.388   0.271  -0.030  0.00  0.00    -0.034 A 
ATOM      5  C4  UNL d   1       0.379  -0.962   0.624  0.00  0.00     0.162 A 
ATOM      6  C5  UNL d   1      -0.723  -1.804   0.519  0.00  0.00     0.062 A 
ATOM      7  F   UNL d   1      -0.723  -2.987   1.151  0.00  0.00    -0.097 F 
ATOM      8  F1  UNL d   1       1.429  -1.355   1.360  0.00  0.00    -0.096 F 
ATOM      9  I   UNL d   1       2.036   1.534   0.124  0.00  0.00    -0.060 I 
ATOM     10  F2  UNL d   1      -0.747   1.826  -1.428  0.00  0.00    -0.096 F 
ATOM     11  F3  UNL d   1      -2.884   0.173  -1.618  0.00  0.00    -0.097 F 
ATOM     12  F4  UNL d   1      -2.884  -2.235  -0.335  0.00  0.00    -0.092 F 
ENDROOT
TORSDOF 0
ENDMDL
