MODEL 1
REMARK minimizedAffinity 1.56453979
REMARK minimizedRMSD -1
REMARK  0 active torsions:
REMARK  status: ('A' for Active; 'I' for Inactive)
ROOT
ATOM      1  C   UNL d   1      -2.036  -2.019  -0.166  0.00  0.00     0.124 A 
ATOM      2  C1  UNL d   1      -1.906  -0.920  -1.004  0.00  0.00     0.062 A 
ATOM      3  C2  UNL d   1      -0.854  -0.027  -0.829  0.00  0.00     0.162 A 
ATOM      4  C3  UNL d   1       0.078  -0.228   0.189  0.00  0.00    -0.034 A 
ATOM      5  C4  UNL d   1      -0.059  -1.335   1.029  0.00  0.00     0.162 A 
ATOM      6  C5  UNL d   1      -1.113  -2.225   0.849  0.00  0.00     0.062 A 
ATOM      7  F   UNL d   1      -1.237  -3.286   1.660  0.00  0.00    -0.097 F 
ATOM      8  F1  UNL d   1       0.819  -1.558   2.018  0.00  0.00    -0.096 F 
ATOM      9  I   UNL d   1       1.653   1.106   0.455  0.00  0.00    -0.060 I 
ATOM     10  F2  UNL d   1      -0.753   1.026  -1.654  0.00  0.00    -0.096 F 
ATOM     11  F3  UNL d   1      -2.797  -0.719  -1.986  0.00  0.00    -0.097 F 
ATOM     12  F4  UNL d   1      -3.050  -2.877  -0.336  0.00  0.00    -0.092 F 
ENDROOT
TORSDOF 0
ENDMDL
