MODEL 1
REMARK minimizedAffinity -3.13599515
REMARK minimizedRMSD -1
REMARK  0 active torsions:
REMARK  status: ('A' for Active; 'I' for Inactive)
ROOT
ATOM      1  C   UNL d   1      -1.149   0.743  -0.758  0.00  0.00     0.124 A 
ATOM      2  C1  UNL d   1      -0.830   2.082  -0.579  0.00  0.00     0.062 A 
ATOM      3  C2  UNL d   1       0.356   2.441   0.055  0.00  0.00     0.162 A 
ATOM      4  C3  UNL d   1       1.233   1.459   0.514  0.00  0.00    -0.034 A 
ATOM      5  C4  UNL d   1       0.905   0.114   0.331  0.00  0.00     0.162 A 
ATOM      6  C5  UNL d   1      -0.281  -0.239  -0.302  0.00  0.00     0.062 A 
ATOM      7  F   UNL d   1      -0.588  -1.534  -0.474  0.00  0.00    -0.097 F 
ATOM      8  F1  UNL d   1       1.726  -0.856   0.761  0.00  0.00    -0.096 F 
ATOM      9  I   UNL d   1       3.008   1.991   1.462  0.00  0.00    -0.060 I 
ATOM     10  F2  UNL d   1       0.638   3.742   0.214  0.00  0.00    -0.096 F 
ATOM     11  F3  UNL d   1      -1.668   3.033  -1.017  0.00  0.00    -0.097 F 
ATOM     12  F4  UNL d   1      -2.292   0.401  -1.367  0.00  0.00    -0.092 F 
ENDROOT
TORSDOF 0
ENDMDL
