MODEL 1
REMARK minimizedAffinity -0.832580864
REMARK minimizedRMSD -1
REMARK  0 active torsions:
REMARK  status: ('A' for Active; 'I' for Inactive)
ROOT
ATOM      1  C   UNL d   1       1.933   1.885   1.047  0.00  0.00     0.124 A 
ATOM      2  C1  UNL d   1       1.717   0.522   1.193  0.00  0.00     0.062 A 
ATOM      3  C2  UNL d   1       0.624  -0.083   0.581  0.00  0.00     0.162 A 
ATOM      4  C3  UNL d   1      -0.263   0.674  -0.184  0.00  0.00    -0.034 A 
ATOM      5  C4  UNL d   1      -0.040   2.045  -0.325  0.00  0.00     0.162 A 
ATOM      6  C5  UNL d   1       1.054   2.645   0.288  0.00  0.00     0.062 A 
ATOM      7  F   UNL d   1       1.261   3.963   0.146  0.00  0.00    -0.097 F 
ATOM      8  F1  UNL d   1      -0.873   2.803  -1.054  0.00  0.00    -0.096 F 
ATOM      9  I   UNL d   1      -1.900  -0.227  -1.101  0.00  0.00    -0.060 I 
ATOM     10  F2  UNL d   1       0.440  -1.403   0.739  0.00  0.00    -0.096 F 
ATOM     11  F3  UNL d   1       2.564  -0.215   1.926  0.00  0.00    -0.097 F 
ATOM     12  F4  UNL d   1       2.986   2.465   1.638  0.00  0.00    -0.092 F 
ENDROOT
TORSDOF 0
ENDMDL
