MODEL 1
REMARK minimizedAffinity 0.594565809
REMARK minimizedRMSD -1
REMARK  0 active torsions:
REMARK  status: ('A' for Active; 'I' for Inactive)
ROOT
ATOM      1  C   UNL d   1      -1.770  -1.717  -0.050  0.00  0.00     0.124 A 
ATOM      2  C1  UNL d   1      -1.765  -0.551  -0.803  0.00  0.00     0.062 A 
ATOM      3  C2  UNL d   1      -0.672   0.309  -0.754  0.00  0.00     0.162 A 
ATOM      4  C3  UNL d   1       0.427   0.005   0.051  0.00  0.00    -0.034 A 
ATOM      5  C4  UNL d   1       0.414  -1.169   0.806  0.00  0.00     0.162 A 
ATOM      6  C5  UNL d   1      -0.681  -2.025   0.753  0.00  0.00     0.062 A 
ATOM      7  F   UNL d   1      -0.684  -3.151   1.482  0.00  0.00    -0.097 F 
ATOM      8  F1  UNL d   1       1.454  -1.491   1.590  0.00  0.00    -0.096 F 
ATOM      9  I   UNL d   1       2.064   1.289   0.127  0.00  0.00    -0.060 I 
ATOM     10  F2  UNL d   1      -0.694   1.428  -1.492  0.00  0.00    -0.096 F 
ATOM     11  F3  UNL d   1      -2.816  -0.251  -1.579  0.00  0.00    -0.097 F 
ATOM     12  F4  UNL d   1      -2.824  -2.543  -0.098  0.00  0.00    -0.092 F 
ENDROOT
TORSDOF 0
ENDMDL
