MODEL 1
REMARK minimizedAffinity 4.91252851
REMARK minimizedRMSD -1
REMARK  0 active torsions:
REMARK  status: ('A' for Active; 'I' for Inactive)
ROOT
ATOM      1  C   UNL d   1      -2.070  -3.959  -0.479  0.00  0.00     0.124 A 
ATOM      2  C1  UNL d   1      -1.846  -3.303   0.724  0.00  0.00     0.062 A 
ATOM      3  C2  UNL d   1      -1.487  -1.958   0.731  0.00  0.00     0.162 A 
ATOM      4  C3  UNL d   1      -1.350  -1.259  -0.468  0.00  0.00    -0.034 A 
ATOM      5  C4  UNL d   1      -1.576  -1.926  -1.674  0.00  0.00     0.162 A 
ATOM      6  C5  UNL d   1      -1.935  -3.270  -1.676  0.00  0.00     0.062 A 
ATOM      7  F   UNL d   1      -2.151  -3.901  -2.839  0.00  0.00    -0.097 F 
ATOM      8  F1  UNL d   1      -1.454  -1.284  -2.845  0.00  0.00    -0.096 F 
ATOM      9  I   UNL d   1      -0.813   0.751  -0.461  0.00  0.00    -0.060 I 
ATOM     10  F2  UNL d   1      -1.276  -1.350   1.908  0.00  0.00    -0.096 F 
ATOM     11  F3  UNL d   1      -1.975  -3.967   1.881  0.00  0.00    -0.097 F 
ATOM     12  F4  UNL d   1      -2.415  -5.253  -0.484  0.00  0.00    -0.092 F 
ENDROOT
TORSDOF 0
ENDMDL
