MODEL 1
REMARK minimizedAffinity 7.67500496
REMARK minimizedRMSD -1
REMARK  0 active torsions:
REMARK  status: ('A' for Active; 'I' for Inactive)
ROOT
ATOM      1  C1  DEN d   1       3.464  -5.492  -3.644  0.00  0.00     0.130 A 
ATOM      2  C2  DEN d   1       2.820  -5.902  -4.889  0.00  0.00    -0.031 A 
ATOM      3  C3  DEN d   1       3.369  -5.075  -5.982  0.00  0.00     0.027 A 
ATOM      4  C4  DEN d   1       5.148  -3.211  -5.869  0.00  0.00     0.027 A 
ATOM      5  C5  DEN d   1       5.976  -2.498  -5.030  0.00  0.00    -0.003 A 
ATOM      6  C6  DEN d   1       6.000  -2.709  -3.676  0.00  0.00     0.001 A 
ATOM      7  C7  DEN d   1       5.213  -3.686  -3.127  0.00  0.00     0.017 A 
ATOM      8  C8  DEN d   1       4.370  -4.403  -3.966  0.00  0.00    -0.094 A 
ATOM      9  C9  DEN d   1       4.369  -4.184  -5.333  0.00  0.00    -0.072 A 
ENDROOT
TORSDOF 0
ENDMDL
