MODEL 1
REMARK minimizedAffinity 3.75501919
REMARK minimizedRMSD -1
REMARK  0 active torsions:
REMARK  status: ('A' for Active; 'I' for Inactive)
ROOT
ATOM      1  C1  DEN d   1      -2.417  -3.027   1.837  0.00  0.00     0.130 A 
ATOM      2  C2  DEN d   1      -2.032  -2.063   2.864  0.00  0.00    -0.031 A 
ATOM      3  C3  DEN d   1      -1.026  -1.153   2.282  0.00  0.00     0.027 A 
ATOM      4  C4  DEN d   1      -0.036  -1.138  -0.099  0.00  0.00     0.027 A 
ATOM      5  C5  DEN d   1      -0.046  -1.770  -1.323  0.00  0.00    -0.003 A 
ATOM      6  C6  DEN d   1      -0.816  -2.876  -1.567  0.00  0.00     0.001 A 
ATOM      7  C7  DEN d   1      -1.642  -3.358  -0.587  0.00  0.00     0.017 A 
ATOM      8  C8  DEN d   1      -1.631  -2.731   0.652  0.00  0.00    -0.094 A 
ATOM      9  C9  DEN d   1      -0.856  -1.606   0.876  0.00  0.00    -0.072 A 
ENDROOT
TORSDOF 0
ENDMDL
