MODEL 1
REMARK minimizedAffinity 16.7632999
REMARK minimizedRMSD -1
REMARK  0 active torsions:
REMARK  status: ('A' for Active; 'I' for Inactive)
ROOT
ATOM      1  C1  DEN d   1      -2.327  -3.983  -1.549  0.00  0.00     0.130 A 
ATOM      2  C2  DEN d   1      -1.443  -3.737  -2.685  0.00  0.00    -0.031 A 
ATOM      3  C3  DEN d   1      -0.327  -2.890  -2.220  0.00  0.00     0.027 A 
ATOM      4  C4  DEN d   1       0.120  -1.946   0.138  0.00  0.00     0.027 A 
ATOM      5  C5  DEN d   1      -0.358  -1.876   1.428  0.00  0.00    -0.003 A 
ATOM      6  C6  DEN d   1      -1.533  -2.470   1.805  0.00  0.00     0.001 A 
ATOM      7  C7  DEN d   1      -2.248  -3.199   0.892  0.00  0.00     0.017 A 
ATOM      8  C8  DEN d   1      -1.777  -3.268  -0.412  0.00  0.00    -0.094 A 
ATOM      9  C9  DEN d   1      -0.580  -2.671  -0.770  0.00  0.00    -0.072 A 
ENDROOT
TORSDOF 0
ENDMDL
