MODEL 1
REMARK minimizedAffinity 9.35317135
REMARK minimizedRMSD -1
REMARK  0 active torsions:
REMARK  status: ('A' for Active; 'I' for Inactive)
ROOT
ATOM      1  C1  DEN d   1       2.948   3.877  -0.322  0.00  0.00     0.130 A 
ATOM      2  C2  DEN d   1       4.237   4.081   0.333  0.00  0.00    -0.031 A 
ATOM      3  C3  DEN d   1       4.446   2.971   1.285  0.00  0.00     0.027 A 
ATOM      4  C4  DEN d   1       2.910   0.965   1.801  0.00  0.00     0.027 A 
ATOM      5  C5  DEN d   1       1.704   0.368   1.504  0.00  0.00    -0.003 A 
ATOM      6  C6  DEN d   1       0.821   0.913   0.610  0.00  0.00     0.001 A 
ATOM      7  C7  DEN d   1       1.150   2.066  -0.053  0.00  0.00     0.017 A 
ATOM      8  C8  DEN d   1       2.361   2.677   0.247  0.00  0.00    -0.094 A 
ATOM      9  C9  DEN d   1       3.245   2.104   1.145  0.00  0.00    -0.072 A 
ENDROOT
TORSDOF 0
ENDMDL
