MODEL 1
REMARK minimizedAffinity 5.92023277
REMARK minimizedRMSD -1
REMARK  0 active torsions:
REMARK  status: ('A' for Active; 'I' for Inactive)
ROOT
ATOM      1  C1  DEN d   1       6.000   4.340  -5.957  0.00  0.00     0.130 A 
ATOM      2  C2  DEN d   1       4.916   5.319  -5.984  0.00  0.00    -0.031 A 
ATOM      3  C3  DEN d   1       3.636   4.583  -5.999  0.00  0.00     0.027 A 
ATOM      4  C4  DEN d   1       3.229   2.036  -5.981  0.00  0.00     0.027 A 
ATOM      5  C5  DEN d   1       3.840   0.801  -5.972  0.00  0.00    -0.003 A 
ATOM      6  C6  DEN d   1       5.202   0.661  -5.991  0.00  0.00     0.001 A 
ATOM      7  C7  DEN d   1       6.000   1.775  -5.975  0.00  0.00     0.017 A 
ATOM      8  C8  DEN d   1       5.391   3.023  -5.992  0.00  0.00    -0.094 A 
ATOM      9  C9  DEN d   1       4.012   3.144  -5.960  0.00  0.00    -0.072 A 
ENDROOT
TORSDOF 0
ENDMDL
