MODEL 1
REMARK minimizedAffinity 16.3099499
REMARK minimizedRMSD -1
REMARK  0 active torsions:
REMARK  status: ('A' for Active; 'I' for Inactive)
ROOT
ATOM      1  C1  DEN d   1      -0.367  -3.128  -2.024  0.00  0.00     0.130 A 
ATOM      2  C2  DEN d   1      -1.517  -3.973  -2.335  0.00  0.00    -0.031 A 
ATOM      3  C3  DEN d   1      -2.412  -3.976  -1.161  0.00  0.00     0.027 A 
ATOM      4  C4  DEN d   1      -2.134  -2.759   1.096  0.00  0.00     0.027 A 
ATOM      5  C5  DEN d   1      -1.313  -1.932   1.831  0.00  0.00    -0.003 A 
ATOM      6  C6  DEN d   1      -0.114  -1.478   1.351  0.00  0.00     0.001 A 
ATOM      7  C7  DEN d   1       0.279  -1.811   0.081  0.00  0.00     0.017 A 
ATOM      8  C8  DEN d   1      -0.540  -2.650  -0.664  0.00  0.00    -0.094 A 
ATOM      9  C9  DEN d   1      -1.754  -3.088  -0.165  0.00  0.00    -0.072 A 
ENDROOT
TORSDOF 0
ENDMDL
