MODEL 1
REMARK minimizedAffinity 11.1951342
REMARK minimizedRMSD -1
REMARK  0 active torsions:
REMARK  status: ('A' for Active; 'I' for Inactive)
ROOT
ATOM      1  C1  DEN d   1       0.746   0.727  -1.457  0.00  0.00     0.130 A 
ATOM      2  C2  DEN d   1       1.202   1.351  -0.218  0.00  0.00    -0.031 A 
ATOM      3  C3  DEN d   1       1.071   0.359   0.868  0.00  0.00     0.027 A 
ATOM      4  C4  DEN d   1       0.218  -2.072   0.751  0.00  0.00     0.027 A 
ATOM      5  C5  DEN d   1      -0.290  -3.045  -0.082  0.00  0.00    -0.003 A 
ATOM      6  C6  DEN d   1      -0.518  -2.819  -1.414  0.00  0.00     0.001 A 
ATOM      7  C7  DEN d   1      -0.195  -1.606  -1.962  0.00  0.00     0.017 A 
ATOM      8  C8  DEN d   1       0.310  -0.618  -1.127  0.00  0.00    -0.094 A 
ATOM      9  C9  DEN d   1       0.545  -0.869   0.214  0.00  0.00    -0.072 A 
ENDROOT
TORSDOF 0
ENDMDL
