MODEL 1
REMARK minimizedAffinity 7.76935339
REMARK minimizedRMSD -1
REMARK  0 active torsions:
REMARK  status: ('A' for Active; 'I' for Inactive)
ROOT
ATOM      1  C1  DEN d   1      -1.544  -4.691  -0.451  0.00  0.00     0.130 A 
ATOM      2  C2  DEN d   1      -1.393  -3.403  -1.124  0.00  0.00    -0.031 A 
ATOM      3  C3  DEN d   1      -1.092  -2.385  -0.099  0.00  0.00     0.027 A 
ATOM      4  C4  DEN d   1      -0.841  -2.675   2.452  0.00  0.00     0.027 A 
ATOM      5  C5  DEN d   1      -0.893  -3.579   3.489  0.00  0.00    -0.003 A 
ATOM      6  C6  DEN d   1      -1.196  -4.900   3.292  0.00  0.00     0.001 A 
ATOM      7  C7  DEN d   1      -1.415  -5.364   2.021  0.00  0.00     0.017 A 
ATOM      8  C8  DEN d   1      -1.372  -4.456   0.971  0.00  0.00    -0.094 A 
ATOM      9  C9  DEN d   1      -1.052  -3.127   1.190  0.00  0.00    -0.072 A 
ENDROOT
TORSDOF 0
ENDMDL
