MODEL 1
REMARK minimizedAffinity 9.82014847
REMARK minimizedRMSD -1
REMARK  0 active torsions:
REMARK  status: ('A' for Active; 'I' for Inactive)
ROOT
ATOM      1  C1  DEN d   1      -0.449  -1.513   1.156  0.00  0.00     0.130 A 
ATOM      2  C2  DEN d   1      -1.433  -1.868   2.176  0.00  0.00    -0.031 A 
ATOM      3  C3  DEN d   1      -1.858  -0.625   2.852  0.00  0.00     0.027 A 
ATOM      4  C4  DEN d   1      -1.097   1.801   2.416  0.00  0.00     0.027 A 
ATOM      5  C5  DEN d   1      -0.269   2.598   1.658  0.00  0.00    -0.003 A 
ATOM      6  C6  DEN d   1       0.575   2.082   0.710  0.00  0.00     0.001 A 
ATOM      7  C7  DEN d   1       0.577   0.734   0.465  0.00  0.00     0.017 A 
ATOM      8  C8  DEN d   1      -0.250  -0.077   1.230  0.00  0.00    -0.094 A 
ATOM      9  C9  DEN d   1      -1.104   0.465   2.175  0.00  0.00    -0.072 A 
ENDROOT
TORSDOF 0
ENDMDL
