MODEL 1
REMARK minimizedAffinity -1.73458219
REMARK minimizedRMSD -1
REMARK  0 active torsions:
REMARK  status: ('A' for Active; 'I' for Inactive)
ROOT
ATOM      1  C1  DEN d   1      -1.073   0.625   1.822  0.00  0.00     0.130 A 
ATOM      2  C2  DEN d   1       0.159   1.408   1.764  0.00  0.00    -0.031 A 
ATOM      3  C3  DEN d   1      -0.130   2.660   1.036  0.00  0.00     0.027 A 
ATOM      4  C4  DEN d   1      -2.354   3.459   0.002  0.00  0.00     0.027 A 
ATOM      5  C5  DEN d   1      -3.674   3.131  -0.213  0.00  0.00    -0.003 A 
ATOM      6  C6  DEN d   1      -4.207   1.939   0.202  0.00  0.00     0.001 A 
ATOM      7  C7  DEN d   1      -3.426   1.051   0.894  0.00  0.00     0.017 A 
ATOM      8  C8  DEN d   1      -2.092   1.372   1.108  0.00  0.00    -0.094 A 
ATOM      9  C9  DEN d   1      -1.576   2.587   0.692  0.00  0.00    -0.072 A 
ENDROOT
TORSDOF 0
ENDMDL
