MODEL 1
REMARK minimizedAffinity 16.4054966
REMARK minimizedRMSD -1
REMARK  0 active torsions:
REMARK  status: ('A' for Active; 'I' for Inactive)
ROOT
ATOM      1  C1  DEN d   1       1.986  -4.221  -3.622  0.00  0.00     0.130 A 
ATOM      2  C2  DEN d   1       1.759  -5.393  -4.462  0.00  0.00    -0.031 A 
ATOM      3  C3  DEN d   1       0.472  -5.998  -4.063  0.00  0.00     0.027 A 
ATOM      4  C4  DEN d   1      -1.183  -5.234  -2.239  0.00  0.00     0.027 A 
ATOM      5  C5  DEN d   1      -1.417  -4.298  -1.256  0.00  0.00    -0.003 A 
ATOM      6  C6  DEN d   1      -0.524  -3.299  -0.971  0.00  0.00     0.001 A 
ATOM      7  C7  DEN d   1       0.625  -3.186  -1.709  0.00  0.00     0.017 A 
ATOM      8  C8  DEN d   1       0.871  -4.130  -2.697  0.00  0.00    -0.094 A 
ATOM      9  C9  DEN d   1      -0.050  -5.125  -2.977  0.00  0.00    -0.072 A 
ENDROOT
TORSDOF 0
ENDMDL
