MODEL 1
REMARK minimizedAffinity 12.567667
REMARK minimizedRMSD -1
REMARK  0 active torsions:
REMARK  status: ('A' for Active; 'I' for Inactive)
ROOT
ATOM      1  C1  DEN d   1       1.945   1.855   2.998  0.00  0.00     0.130 A 
ATOM      2  C2  DEN d   1       2.443   1.960   1.630  0.00  0.00    -0.031 A 
ATOM      3  C3  DEN d   1       1.320   2.373   0.765  0.00  0.00     0.027 A 
ATOM      4  C4  DEN d   1      -1.129   2.864   1.410  0.00  0.00     0.027 A 
ATOM      5  C5  DEN d   1      -2.030   2.899   2.451  0.00  0.00    -0.003 A 
ATOM      6  C6  DEN d   1      -1.680   2.558   3.731  0.00  0.00     0.001 A 
ATOM      7  C7  DEN d   1      -0.385   2.211   4.012  0.00  0.00     0.017 A 
ATOM      8  C8  DEN d   1       0.527   2.167   2.966  0.00  0.00    -0.094 A 
ATOM      9  C9  DEN d   1       0.158   2.526   1.681  0.00  0.00    -0.072 A 
ENDROOT
TORSDOF 0
ENDMDL
