MODEL 1
REMARK minimizedAffinity 9.81986618
REMARK minimizedRMSD -1
REMARK  0 active torsions:
REMARK  status: ('A' for Active; 'I' for Inactive)
ROOT
ATOM      1  C1  DEN d   1       3.337   1.405   3.300  0.00  0.00     0.130 A 
ATOM      2  C2  DEN d   1       4.091   1.845   4.471  0.00  0.00    -0.031 A 
ATOM      3  C3  DEN d   1       4.804   3.087   4.114  0.00  0.00     0.027 A 
ATOM      4  C4  DEN d   1       4.811   4.370   1.876  0.00  0.00     0.027 A 
ATOM      5  C5  DEN d   1       4.331   4.377   0.585  0.00  0.00    -0.003 A 
ATOM      6  C6  DEN d   1       3.519   3.384   0.102  0.00  0.00     0.001 A 
ATOM      7  C7  DEN d   1       3.127   2.366   0.930  0.00  0.00     0.017 A 
ATOM      8  C8  DEN d   1       3.613   2.347   2.231  0.00  0.00    -0.094 A 
ATOM      9  C9  DEN d   1       4.423   3.366   2.704  0.00  0.00    -0.072 A 
ENDROOT
TORSDOF 0
ENDMDL
