MODEL 1
REMARK minimizedAffinity -4.18626308
REMARK minimizedRMSD -1
REMARK  0 active torsions:
REMARK  status: ('A' for Active; 'I' for Inactive)
ROOT
ATOM      1  C1  DEN d   1       4.931   3.563   2.785  0.00  0.00     0.130 A 
ATOM      2  C2  DEN d   1       4.913   2.618   3.899  0.00  0.00    -0.031 A 
ATOM      3  C3  DEN d   1       3.847   1.629   3.641  0.00  0.00     0.027 A 
ATOM      4  C4  DEN d   1       2.235   1.467   1.635  0.00  0.00     0.027 A 
ATOM      5  C5  DEN d   1       1.861   2.052   0.445  0.00  0.00    -0.003 A 
ATOM      6  C6  DEN d   1       2.456   3.192  -0.027  0.00  0.00     0.001 A 
ATOM      7  C7  DEN d   1       3.490   3.757   0.672  0.00  0.00     0.017 A 
ATOM      8  C8  DEN d   1       3.867   3.178   1.876  0.00  0.00    -0.094 A 
ATOM      9  C9  DEN d   1       3.261   2.019   2.331  0.00  0.00    -0.072 A 
ENDROOT
TORSDOF 0
ENDMDL
