MODEL 1
REMARK minimizedAffinity 2.94980478
REMARK minimizedRMSD -1
REMARK  0 active torsions:
REMARK  status: ('A' for Active; 'I' for Inactive)
ROOT
ATOM      1  C1  DEN d   1       3.853   2.032   3.918  0.00  0.00     0.130 A 
ATOM      2  C2  DEN d   1       5.023   2.896   3.788  0.00  0.00    -0.031 A 
ATOM      3  C3  DEN d   1       5.011   3.478   2.430  0.00  0.00     0.027 A 
ATOM      4  C4  DEN d   1       3.301   3.130   0.531  0.00  0.00     0.027 A 
ATOM      5  C5  DEN d   1       2.144   2.477   0.167  0.00  0.00    -0.003 A 
ATOM      6  C6  DEN d   1       1.500   1.610   1.009  0.00  0.00     0.001 A 
ATOM      7  C7  DEN d   1       1.984   1.407   2.275  0.00  0.00     0.017 A 
ATOM      8  C8  DEN d   1       3.153   2.057   2.646  0.00  0.00    -0.094 A 
ATOM      9  C9  DEN d   1       3.783   2.939   1.785  0.00  0.00    -0.072 A 
ENDROOT
TORSDOF 0
ENDMDL
