MODEL 1
REMARK minimizedAffinity 7.86146832
REMARK minimizedRMSD -1
REMARK  0 active torsions:
REMARK  status: ('A' for Active; 'I' for Inactive)
ROOT
ATOM      1  C1  DEN d   1       3.634   0.888  -5.792  0.00  0.00     0.130 A 
ATOM      2  C2  DEN d   1       4.871   0.126  -5.941  0.00  0.00    -0.031 A 
ATOM      3  C3  DEN d   1       5.998   1.080  -5.939  0.00  0.00     0.027 A 
ATOM      4  C4  DEN d   1       5.949   3.649  -5.715  0.00  0.00     0.027 A 
ATOM      5  C5  DEN d   1       5.131   4.748  -5.577  0.00  0.00    -0.003 A 
ATOM      6  C6  DEN d   1       3.766   4.642  -5.535  0.00  0.00     0.001 A 
ATOM      7  C7  DEN d   1       3.180   3.405  -5.587  0.00  0.00     0.017 A 
ATOM      8  C8  DEN d   1       3.998   2.292  -5.734  0.00  0.00    -0.094 A 
ATOM      9  C9  DEN d   1       5.376   2.420  -5.762  0.00  0.00    -0.072 A 
ENDROOT
TORSDOF 0
ENDMDL
