MODEL 1
REMARK minimizedAffinity -0.718110979
REMARK minimizedRMSD -1
REMARK  1 active torsions:
REMARK  status: ('A' for Active; 'I' for Inactive)
REMARK    1  A    between atoms: C1_2  and  C2_3 
ROOT
ATOM      1  C2  UNL d   1       0.923  -2.208  -0.045  0.00  0.00    -0.073 A 
ATOM      2  C3  UNL d   1      -0.470  -2.074  -0.022  0.00  0.00    -0.002 A 
ATOM      3  C4  UNL d   1      -1.265  -3.073   0.541  0.00  0.00     0.004 A 
ATOM      4  C5  UNL d   1      -0.677  -4.212   1.092  0.00  0.00    -0.004 A 
ATOM      5  C6  UNL d   1       0.714  -4.358   1.089  0.00  0.00    -0.075 A 
ATOM      6  C7  UNL d   1       1.362  -5.578   1.676  0.00  0.00     0.076 C 
ATOM      7  C8  UNL d   1       1.505  -3.352   0.520  0.00  0.00     0.001 A 
ENDROOT
BRANCH   1   8
ATOM      8  C1  UNL d   1       1.786  -1.129  -0.646  0.00  0.00     0.053 C 
ATOM      9  C   UNL d   1       0.960   0.038  -1.164  0.00  0.00     0.018 C 
ENDBRANCH   1   8
TORSDOF 1
ENDMDL
