MODEL 1
REMARK minimizedAffinity 5.05570364
REMARK minimizedRMSD -1
REMARK  1 active torsions:
REMARK  status: ('A' for Active; 'I' for Inactive)
REMARK    1  A    between atoms: C1_2  and  C2_3 
ROOT
ATOM      1  C2  UNL d   1       1.160  -3.305   0.701  0.00  0.00    -0.073 A 
ATOM      2  C3  UNL d   1       2.170  -2.803   1.530  0.00  0.00    -0.002 A 
ATOM      3  C4  UNL d   1       2.879  -1.659   1.163  0.00  0.00     0.004 A 
ATOM      4  C5  UNL d   1       2.582  -1.001  -0.031  0.00  0.00    -0.004 A 
ATOM      5  C6  UNL d   1       1.569  -1.480  -0.867  0.00  0.00    -0.075 A 
ATOM      6  C7  UNL d   1       1.239  -0.786  -2.155  0.00  0.00     0.076 C 
ATOM      7  C8  UNL d   1       0.863  -2.632  -0.493  0.00  0.00     0.001 A 
ENDROOT
BRANCH   1   8
ATOM      8  C1  UNL d   1       0.387  -4.537   1.096  0.00  0.00     0.053 C 
ATOM      9  C   UNL d   1       1.304  -5.704   1.423  0.00  0.00     0.018 C 
ENDBRANCH   1   8
TORSDOF 1
ENDMDL
