MODEL 1
REMARK minimizedAffinity 0.326175749
REMARK minimizedRMSD -1
REMARK  1 active torsions:
REMARK  status: ('A' for Active; 'I' for Inactive)
REMARK    1  A    between atoms: C1_2  and  C2_3 
ROOT
ATOM      1  C2  UNL d   1       0.435  -3.076   0.569  0.00  0.00    -0.073 A 
ATOM      2  C3  UNL d   1       1.700  -2.719   1.050  0.00  0.00    -0.002 A 
ATOM      3  C4  UNL d   1       2.330  -1.563   0.588  0.00  0.00     0.004 A 
ATOM      4  C5  UNL d   1       1.700  -0.749  -0.354  0.00  0.00    -0.004 A 
ATOM      5  C6  UNL d   1       0.431  -1.083  -0.839  0.00  0.00    -0.075 A 
ATOM      6  C7  UNL d   1      -0.259  -0.219  -1.854  0.00  0.00     0.076 C 
ATOM      7  C8  UNL d   1      -0.194  -2.247  -0.371  0.00  0.00     0.001 A 
ENDROOT
BRANCH   1   8
ATOM      8  C1  UNL d   1      -0.252  -4.320   1.070  0.00  0.00     0.053 C 
ATOM      9  C   UNL d   1       0.742  -5.404   1.455  0.00  0.00     0.018 C 
ENDBRANCH   1   8
TORSDOF 1
ENDMDL
