MODEL 1
REMARK minimizedAffinity -0.18197538
REMARK minimizedRMSD -1
REMARK  1 active torsions:
REMARK  status: ('A' for Active; 'I' for Inactive)
REMARK    1  A    between atoms: C1_2  and  C2_3 
ROOT
ATOM      1  C2  UNL d   1       0.875  -2.217  -0.210  0.00  0.00    -0.073 A 
ATOM      2  C3  UNL d   1      -0.500  -1.967  -0.134  0.00  0.00    -0.002 A 
ATOM      3  C4  UNL d   1      -1.345  -2.868   0.516  0.00  0.00     0.004 A 
ATOM      4  C5  UNL d   1      -0.824  -4.022   1.101  0.00  0.00    -0.004 A 
ATOM      5  C6  UNL d   1       0.549  -4.283   1.046  0.00  0.00    -0.075 A 
ATOM      6  C7  UNL d   1       1.124  -5.521   1.668  0.00  0.00     0.076 C 
ATOM      7  C8  UNL d   1       1.391  -3.375   0.389  0.00  0.00     0.001 A 
ENDROOT
BRANCH   1   8
ATOM      8  C1  UNL d   1       1.793  -1.244  -0.904  0.00  0.00     0.053 C 
ATOM      9  C   UNL d   1       1.031  -0.078  -1.515  0.00  0.00     0.018 C 
ENDBRANCH   1   8
TORSDOF 1
ENDMDL
