MODEL 1
REMARK minimizedAffinity 4.81235743
REMARK minimizedRMSD -1
REMARK  1 active torsions:
REMARK  status: ('A' for Active; 'I' for Inactive)
REMARK    1  A    between atoms: C1_2  and  C2_3 
ROOT
ATOM      1  C2  UNL d   1       1.690  -1.407  -1.354  0.00  0.00    -0.073 A 
ATOM      2  C3  UNL d   1       2.524  -0.684  -0.494  0.00  0.00    -0.002 A 
ATOM      3  C4  UNL d   1       2.265  -0.651   0.877  0.00  0.00     0.004 A 
ATOM      4  C5  UNL d   1       1.176  -1.345   1.402  0.00  0.00    -0.004 A 
ATOM      5  C6  UNL d   1       0.337  -2.083   0.561  0.00  0.00    -0.075 A 
ATOM      6  C7  UNL d   1      -0.840  -2.834   1.111  0.00  0.00     0.076 C 
ATOM      7  C8  UNL d   1       0.602  -2.110  -0.815  0.00  0.00     0.001 A 
ENDROOT
BRANCH   1   8
ATOM      8  C1  UNL d   1       1.969  -1.451  -2.834  0.00  0.00     0.053 C 
ATOM      9  C   UNL d   1       0.835  -2.104  -3.609  0.00  0.00     0.018 C 
ENDBRANCH   1   8
TORSDOF 1
ENDMDL
