MODEL 1
REMARK minimizedAffinity 1.45006156
REMARK minimizedRMSD -1
REMARK  1 active torsions:
REMARK  status: ('A' for Active; 'I' for Inactive)
REMARK    1  A    between atoms: C1_2  and  C2_3 
ROOT
ATOM      1  C2  UNL d   1       1.802   1.438  -4.095  0.00  0.00    -0.073 A 
ATOM      2  C3  UNL d   1       1.037   2.495  -3.591  0.00  0.00    -0.002 A 
ATOM      3  C4  UNL d   1       0.351   2.356  -2.384  0.00  0.00     0.004 A 
ATOM      4  C5  UNL d   1       0.428   1.163  -1.666  0.00  0.00    -0.004 A 
ATOM      5  C6  UNL d   1       1.197   0.098  -2.148  0.00  0.00    -0.075 A 
ATOM      6  C7  UNL d   1       1.289  -1.193  -1.389  0.00  0.00     0.076 C 
ATOM      7  C8  UNL d   1       1.881   0.245  -3.362  0.00  0.00     0.001 A 
ENDROOT
BRANCH   1   8
ATOM      8  C1  UNL d   1       2.550   1.586  -5.395  0.00  0.00     0.053 C 
ATOM      9  C   UNL d   1       4.056   1.547  -5.194  0.00  0.00     0.018 C 
ENDBRANCH   1   8
TORSDOF 1
ENDMDL
