MODEL 1
REMARK minimizedAffinity 1.64951169
REMARK minimizedRMSD -1
REMARK  1 active torsions:
REMARK  status: ('A' for Active; 'I' for Inactive)
REMARK    1  A    between atoms: C1_2  and  C2_3 
ROOT
ATOM      1  C2  UNL d   1       0.969   0.403  -2.751  0.00  0.00    -0.073 A 
ATOM      2  C3  UNL d   1       0.944   0.626  -1.370  0.00  0.00    -0.002 A 
ATOM      3  C4  UNL d   1       0.848  -0.448  -0.484  0.00  0.00     0.004 A 
ATOM      4  C5  UNL d   1       0.785  -1.755  -0.969  0.00  0.00    -0.004 A 
ATOM      5  C6  UNL d   1       0.821  -1.999  -2.346  0.00  0.00    -0.075 A 
ATOM      6  C7  UNL d   1       0.752  -3.398  -2.883  0.00  0.00     0.076 C 
ATOM      7  C8  UNL d   1       0.914  -0.915  -3.229  0.00  0.00     0.001 A 
ENDROOT
BRANCH   1   8
ATOM      8  C1  UNL d   1       1.078   1.559  -3.711  0.00  0.00     0.053 C 
ATOM      9  C   UNL d   1       2.101   1.297  -4.805  0.00  0.00     0.018 C 
ENDBRANCH   1   8
TORSDOF 1
ENDMDL
