MODEL 1
REMARK minimizedAffinity 1.64701307
REMARK minimizedRMSD -1
REMARK  1 active torsions:
REMARK  status: ('A' for Active; 'I' for Inactive)
REMARK    1  A    between atoms: C1_2  and  C2_3 
ROOT
ATOM      1  C2  UNL d   1      -4.168   3.418   5.141  0.00  0.00    -0.073 A 
ATOM      2  C3  UNL d   1      -4.049   4.518   5.997  0.00  0.00    -0.002 A 
ATOM      3  C4  UNL d   1      -3.726   5.777   5.488  0.00  0.00     0.004 A 
ATOM      4  C5  UNL d   1      -3.525   5.949   4.119  0.00  0.00    -0.004 A 
ATOM      5  C6  UNL d   1      -3.651   4.865   3.245  0.00  0.00    -0.075 A 
ATOM      6  C7  UNL d   1      -3.435   5.033   1.770  0.00  0.00     0.076 C 
ATOM      7  C8  UNL d   1      -3.973   3.603   3.764  0.00  0.00     0.001 A 
ENDROOT
BRANCH   1   8
ATOM      8  C1  UNL d   1      -4.523   2.059   5.685  0.00  0.00     0.053 C 
ATOM      9  C   UNL d   1      -3.522   0.995   5.260  0.00  0.00     0.018 C 
ENDBRANCH   1   8
TORSDOF 1
ENDMDL
