MODEL 1
REMARK minimizedAffinity -1.60606277
REMARK minimizedRMSD -1
REMARK  1 active torsions:
REMARK  status: ('A' for Active; 'I' for Inactive)
REMARK    1  A    between atoms: C1_2  and  C2_3 
ROOT
ATOM      1  C2  UNL d   1      -4.140   2.402   5.124  0.00  0.00    -0.073 A 
ATOM      2  C3  UNL d   1      -3.762   2.535   3.783  0.00  0.00    -0.002 A 
ATOM      3  C4  UNL d   1      -3.807   3.783   3.159  0.00  0.00     0.004 A 
ATOM      4  C5  UNL d   1      -4.222   4.909   3.869  0.00  0.00    -0.004 A 
ATOM      5  C6  UNL d   1      -4.592   4.798   5.213  0.00  0.00    -0.075 A 
ATOM      6  C7  UNL d   1      -5.043   6.000   5.991  0.00  0.00     0.076 C 
ATOM      7  C8  UNL d   1      -4.548   3.542   5.832  0.00  0.00     0.001 A 
ENDROOT
BRANCH   1   8
ATOM      8  C1  UNL d   1      -4.088   1.059   5.804  0.00  0.00     0.053 C 
ATOM      9  C   UNL d   1      -3.673  -0.048   4.848  0.00  0.00     0.018 C 
ENDBRANCH   1   8
TORSDOF 1
ENDMDL
