MODEL 1
REMARK minimizedAffinity 3.64105368
REMARK minimizedRMSD -1
REMARK  1 active torsions:
REMARK  status: ('A' for Active; 'I' for Inactive)
REMARK    1  A    between atoms: C1_2  and  C2_3 
ROOT
ATOM      1  C2  UNL d   1       4.676   2.120  -5.635  0.00  0.00    -0.073 A 
ATOM      2  C3  UNL d   1       4.593   3.516  -5.600  0.00  0.00    -0.002 A 
ATOM      3  C4  UNL d   1       3.389   4.143  -5.276  0.00  0.00     0.004 A 
ATOM      4  C5  UNL d   1       2.260   3.382  -4.975  0.00  0.00    -0.004 A 
ATOM      5  C6  UNL d   1       2.326   1.985  -4.992  0.00  0.00    -0.075 A 
ATOM      6  C7  UNL d   1       1.120   1.151  -4.674  0.00  0.00     0.076 C 
ATOM      7  C8  UNL d   1       3.538   1.363  -5.322  0.00  0.00     0.001 A 
ENDROOT
BRANCH   1   8
ATOM      8  C1  UNL d   1       5.976   1.439  -5.979  0.00  0.00     0.053 C 
ATOM      9  C   UNL d   1       5.998  -0.011  -5.519  0.00  0.00     0.018 C 
ENDBRANCH   1   8
TORSDOF 1
ENDMDL
