MODEL 1
REMARK minimizedAffinity 5.50042915
REMARK minimizedRMSD -1
REMARK  1 active torsions:
REMARK  status: ('A' for Active; 'I' for Inactive)
REMARK    1  A    between atoms: C1_2  and  C2_3 
ROOT
ATOM      1  C2  UNL d   1       0.964   0.629  -2.019  0.00  0.00    -0.073 A 
ATOM      2  C3  UNL d   1       1.547   1.275  -3.115  0.00  0.00    -0.002 A 
ATOM      3  C4  UNL d   1       1.973   0.540  -4.221  0.00  0.00     0.004 A 
ATOM      4  C5  UNL d   1       1.816  -0.846  -4.246  0.00  0.00    -0.004 A 
ATOM      5  C6  UNL d   1       1.225  -1.508  -3.166  0.00  0.00    -0.075 A 
ATOM      6  C7  UNL d   1       1.050  -2.999  -3.176  0.00  0.00     0.076 C 
ATOM      7  C8  UNL d   1       0.801  -0.763  -2.057  0.00  0.00     0.001 A 
ENDROOT
BRANCH   1   8
ATOM      8  C1  UNL d   1       0.496   1.420  -0.824  0.00  0.00     0.053 C 
ATOM      9  C   UNL d   1       1.623   2.224  -0.196  0.00  0.00     0.018 C 
ENDBRANCH   1   8
TORSDOF 1
ENDMDL
