MODEL 1
REMARK minimizedAffinity -5.86313772
REMARK minimizedRMSD -1
REMARK  3 active torsions:
REMARK  status: ('A' for Active; 'I' for Inactive)
REMARK    1  A    between atoms: C3'_2  and  C2'_3 
REMARK    2  A    between atoms: C2'_3  and  C1'_4 
REMARK    3  A    between atoms: C1'_4  and  C1_5 
ROOT
ATOM      1  C1  N4B d   1      -0.254  -0.950   0.049  0.00  0.00    -0.075 A 
ATOM      2  C2  N4B d   1      -0.796  -2.146   0.570  0.00  0.00     0.002 A 
ATOM      3  C3  N4B d   1      -0.625  -3.329  -0.107  0.00  0.00     0.002 A 
ATOM      4  C4  N4B d   1       0.064  -3.337  -1.311  0.00  0.00    -0.004 A 
ATOM      5  C5  N4B d   1       0.606  -2.182  -1.794  0.00  0.00     0.002 A 
ATOM      6  C6  N4B d   1       0.446  -0.987  -1.122  0.00  0.00     0.002 A 
ENDROOT
BRANCH   1   7
ATOM      7  C1' N4B d   1      -0.488   0.381   0.709  0.00  0.00     0.057 C 
BRANCH   7   8
ATOM      8  C2' N4B d   1       0.325   1.449  -0.016  0.00  0.00     0.009 C 
BRANCH   8   9
ATOM      9  C3' N4B d   1       1.456   1.986   0.846  0.00  0.00     0.004 C 
ATOM     10  C4' N4B d   1       1.884   3.367   0.448  0.00  0.00     0.003 C 
ENDBRANCH   8   9
ENDBRANCH   7   8
ENDBRANCH   1   7
TORSDOF 3
ENDMDL
