MODEL 1
REMARK minimizedAffinity -5.28906107
REMARK minimizedRMSD -1
REMARK  3 active torsions:
REMARK  status: ('A' for Active; 'I' for Inactive)
REMARK    1  A    between atoms: C3'_2  and  C2'_3 
REMARK    2  A    between atoms: C2'_3  and  C1'_4 
REMARK    3  A    between atoms: C1'_4  and  C1_5 
ROOT
ATOM      1  C1  N4B d   1       0.931   2.791   0.401  0.00  0.00    -0.075 A 
ATOM      2  C2  N4B d   1       2.288   2.959   0.753  0.00  0.00     0.002 A 
ATOM      3  C3  N4B d   1       2.710   4.138   1.317  0.00  0.00     0.002 A 
ATOM      4  C4  N4B d   1       1.802   5.166   1.519  0.00  0.00    -0.004 A 
ATOM      5  C5  N4B d   1       0.488   4.987   1.199  0.00  0.00     0.002 A 
ATOM      6  C6  N4B d   1       0.048   3.806   0.635  0.00  0.00     0.002 A 
ENDROOT
BRANCH   1   7
ATOM      7  C1' N4B d   1       0.438   1.553  -0.297  0.00  0.00     0.057 C 
BRANCH   7   8
ATOM      8  C2' N4B d   1       0.269   0.435   0.728  0.00  0.00     0.009 C 
BRANCH   8   9
ATOM      9  C3' N4B d   1       0.088  -0.920   0.066  0.00  0.00     0.004 C 
ATOM     10  C4' N4B d   1      -0.405  -1.970   1.017  0.00  0.00     0.003 C 
ENDBRANCH   8   9
ENDBRANCH   7   8
ENDBRANCH   1   7
TORSDOF 3
ENDMDL
