MODEL 1
REMARK minimizedAffinity -4.92141199
REMARK minimizedRMSD -1
REMARK  3 active torsions:
REMARK  status: ('A' for Active; 'I' for Inactive)
REMARK    1  A    between atoms: C3'_2  and  C2'_3 
REMARK    2  A    between atoms: C2'_3  and  C1'_4 
REMARK    3  A    between atoms: C1'_4  and  C1_5 
ROOT
ATOM      1  C1  N4B d   1       0.169  -0.247  -0.274  0.00  0.00    -0.075 A 
ATOM      2  C2  N4B d   1      -0.608  -0.382   0.898  0.00  0.00     0.002 A 
ATOM      3  C3  N4B d   1      -0.989  -1.630   1.328  0.00  0.00     0.002 A 
ATOM      4  C4  N4B d   1      -0.624  -2.749   0.596  0.00  0.00    -0.004 A 
ATOM      5  C5  N4B d   1       0.148  -2.612  -0.520  0.00  0.00     0.002 A 
ATOM      6  C6  N4B d   1       0.542  -1.365  -0.962  0.00  0.00     0.002 A 
ENDROOT
BRANCH   1   7
ATOM      7  C1' N4B d   1       0.538   1.101  -0.831  0.00  0.00     0.057 C 
BRANCH   7   8
ATOM      8  C2' N4B d   1       0.523   2.130   0.296  0.00  0.00     0.009 C 
BRANCH   8   9
ATOM      9  C3' N4B d   1       1.788   2.970   0.316  0.00  0.00     0.004 C 
ATOM     10  C4' N4B d   1       1.751   4.053   1.353  0.00  0.00     0.003 C 
ENDBRANCH   8   9
ENDBRANCH   7   8
ENDBRANCH   1   7
TORSDOF 3
ENDMDL
