MODEL 1
REMARK minimizedAffinity -4.81989098
REMARK minimizedRMSD -1
REMARK  3 active torsions:
REMARK  status: ('A' for Active; 'I' for Inactive)
REMARK    1  A    between atoms: C3'_2  and  C2'_3 
REMARK    2  A    between atoms: C2'_3  and  C1'_4 
REMARK    3  A    between atoms: C1'_4  and  C1_5 
ROOT
ATOM      1  C1  N4B d   1       0.715   0.916   0.184  0.00  0.00    -0.075 A 
ATOM      2  C2  N4B d   1       1.845   1.409   0.872  0.00  0.00     0.002 A 
ATOM      3  C3  N4B d   1       2.022   2.763   1.020  0.00  0.00     0.002 A 
ATOM      4  C4  N4B d   1       1.097   3.639   0.474  0.00  0.00    -0.004 A 
ATOM      5  C5  N4B d   1      -0.005   3.155  -0.167  0.00  0.00     0.002 A 
ATOM      6  C6  N4B d   1      -0.199   1.796  -0.320  0.00  0.00     0.002 A 
ENDROOT
BRANCH   1   7
ATOM      7  C1' N4B d   1       0.522  -0.553  -0.077  0.00  0.00     0.057 C 
BRANCH   7   8
ATOM      8  C2' N4B d   1      -0.744  -1.026   0.631  0.00  0.00     0.009 C 
BRANCH   8   9
ATOM      9  C3' N4B d   1      -1.047  -2.486   0.340  0.00  0.00     0.004 C 
ATOM     10  C4' N4B d   1       0.192  -3.302   0.119  0.00  0.00     0.003 C 
ENDBRANCH   8   9
ENDBRANCH   7   8
ENDBRANCH   1   7
TORSDOF 3
ENDMDL
