MODEL 1
REMARK minimizedAffinity -4.4110713
REMARK minimizedRMSD -1
REMARK  3 active torsions:
REMARK  status: ('A' for Active; 'I' for Inactive)
REMARK    1  A    between atoms: C3'_2  and  C2'_3 
REMARK    2  A    between atoms: C2'_3  and  C1'_4 
REMARK    3  A    between atoms: C1'_4  and  C1_5 
ROOT
ATOM      1  C1  N4B d   1      -0.469   0.054   0.062  0.00  0.00    -0.075 A 
ATOM      2  C2  N4B d   1      -0.397  -1.229  -0.523  0.00  0.00     0.002 A 
ATOM      3  C3  N4B d   1      -0.566  -2.348   0.254  0.00  0.00     0.002 A 
ATOM      4  C4  N4B d   1      -0.788  -2.211   1.616  0.00  0.00    -0.004 A 
ATOM      5  C5  N4B d   1      -0.882  -0.967   2.169  0.00  0.00     0.002 A 
ATOM      6  C6  N4B d   1      -0.718   0.167   1.400  0.00  0.00     0.002 A 
ENDROOT
BRANCH   1   7
ATOM      7  C1' N4B d   1      -0.206   1.305  -0.731  0.00  0.00     0.057 C 
BRANCH   7   8
ATOM      8  C2' N4B d   1       0.125   2.445   0.227  0.00  0.00     0.009 C 
BRANCH   8   9
ATOM      9  C3' N4B d   1       1.561   2.918   0.074  0.00  0.00     0.004 C 
ATOM     10  C4' N4B d   1       2.181   3.323   1.377  0.00  0.00     0.003 C 
ENDBRANCH   8   9
ENDBRANCH   7   8
ENDBRANCH   1   7
TORSDOF 3
ENDMDL
