MODEL 1
REMARK minimizedAffinity -3.69299436
REMARK minimizedRMSD -1
REMARK  3 active torsions:
REMARK  status: ('A' for Active; 'I' for Inactive)
REMARK    1  A    between atoms: C3'_2  and  C2'_3 
REMARK    2  A    between atoms: C2'_3  and  C1'_4 
REMARK    3  A    between atoms: C1'_4  and  C1_5 
ROOT
ATOM      1  C1  N4B d   1      -0.270  -0.029   0.062  0.00  0.00    -0.075 A 
ATOM      2  C2  N4B d   1       0.499  -0.763  -0.868  0.00  0.00     0.002 A 
ATOM      3  C3  N4B d   1       0.597  -2.128  -0.752  0.00  0.00     0.002 A 
ATOM      4  C4  N4B d   1      -0.047  -2.776   0.292  0.00  0.00    -0.004 A 
ATOM      5  C5  N4B d   1      -0.809  -2.063   1.170  0.00  0.00     0.002 A 
ATOM      6  C6  N4B d   1      -0.919  -0.691   1.064  0.00  0.00     0.002 A 
ENDROOT
BRANCH   1   7
ATOM      7  C1' N4B d   1      -0.337   1.473   0.026  0.00  0.00     0.057 C 
BRANCH   7   8
ATOM      8  C2' N4B d   1       1.080   2.036  -0.019  0.00  0.00     0.009 C 
BRANCH   8   9
ATOM      9  C3' N4B d   1       1.176   3.390   0.665  0.00  0.00     0.004 C 
ATOM     10  C4' N4B d   1       2.592   3.813   0.919  0.00  0.00     0.003 C 
ENDBRANCH   8   9
ENDBRANCH   7   8
ENDBRANCH   1   7
TORSDOF 3
ENDMDL
