MODEL 1
REMARK minimizedAffinity -4.37593174
REMARK minimizedRMSD -1
REMARK  3 active torsions:
REMARK  status: ('A' for Active; 'I' for Inactive)
REMARK    1  A    between atoms: C3'_2  and  C2'_3 
REMARK    2  A    between atoms: C2'_3  and  C1'_4 
REMARK    3  A    between atoms: C1'_4  and  C1_5 
ROOT
ATOM      1  C1  N4B d   1      -0.305  -0.337   0.297  0.00  0.00    -0.075 A 
ATOM      2  C2  N4B d   1      -1.268  -1.367   0.213  0.00  0.00     0.002 A 
ATOM      3  C3  N4B d   1      -1.028  -2.582   0.806  0.00  0.00     0.002 A 
ATOM      4  C4  N4B d   1       0.172  -2.797   1.468  0.00  0.00    -0.004 A 
ATOM      5  C5  N4B d   1       1.086  -1.789   1.566  0.00  0.00     0.002 A 
ATOM      6  C6  N4B d   1       0.856  -0.561   0.979  0.00  0.00     0.002 A 
ENDROOT
BRANCH   1   7
ATOM      7  C1' N4B d   1      -0.486   0.979  -0.408  0.00  0.00     0.057 C 
BRANCH   7   8
ATOM      8  C2' N4B d   1       0.773   1.822  -0.226  0.00  0.00     0.009 C 
BRANCH   8   9
ATOM      9  C3' N4B d   1       0.447   3.253   0.167  0.00  0.00     0.004 C 
ATOM     10  C4' N4B d   1       1.669   4.055   0.501  0.00  0.00     0.003 C 
ENDBRANCH   8   9
ENDBRANCH   7   8
ENDBRANCH   1   7
TORSDOF 3
ENDMDL
