MODEL 1
REMARK minimizedAffinity -5.98525143
REMARK minimizedRMSD -1
REMARK  3 active torsions:
REMARK  status: ('A' for Active; 'I' for Inactive)
REMARK    1  A    between atoms: C3'_2  and  C2'_3 
REMARK    2  A    between atoms: C2'_3  and  C1'_4 
REMARK    3  A    between atoms: C1'_4  and  C1_5 
ROOT
ATOM      1  C1  N4B d   1      -0.115  -0.189  -0.265  0.00  0.00    -0.075 A 
ATOM      2  C2  N4B d   1       0.409  -1.109  -1.200  0.00  0.00     0.002 A 
ATOM      3  C3  N4B d   1       0.360  -2.456  -0.939  0.00  0.00     0.002 A 
ATOM      4  C4  N4B d   1      -0.190  -2.905   0.252  0.00  0.00    -0.004 A 
ATOM      5  C5  N4B d   1      -0.717  -2.011   1.139  0.00  0.00     0.002 A 
ATOM      6  C6  N4B d   1      -0.678  -0.655   0.888  0.00  0.00     0.002 A 
ENDROOT
BRANCH   1   7
ATOM      7  C1' N4B d   1      -0.006   1.298  -0.467  0.00  0.00     0.057 C 
BRANCH   7   8
ATOM      8  C2' N4B d   1       1.435   1.733  -0.218  0.00  0.00     0.009 C 
BRANCH   8   9
ATOM      9  C3' N4B d   1       1.515   3.150   0.323  0.00  0.00     0.004 C 
ATOM     10  C4' N4B d   1       2.421   3.267   1.512  0.00  0.00     0.003 C 
ENDBRANCH   8   9
ENDBRANCH   7   8
ENDBRANCH   1   7
TORSDOF 3
ENDMDL
