MODEL 1
REMARK minimizedAffinity -1.55363035
REMARK minimizedRMSD -1
REMARK  0 active torsions:
REMARK  status: ('A' for Active; 'I' for Inactive)
ROOT
ATOM      1  C   UNL d   1       2.037   0.050   0.615  0.00  0.00     0.023 A 
ATOM      2  C1  UNL d   1       1.594   0.074   1.937  0.00  0.00     0.003 A 
ATOM      3  C2  UNL d   1       0.228   0.002   2.219  0.00  0.00     0.048 A 
ATOM      4  C3  UNL d   1      -0.689  -0.093   1.173  0.00  0.00     0.023 A 
ATOM      5  C4  UNL d   1      -0.251  -0.118  -0.152  0.00  0.00     0.048 A 
ATOM      6  C5  UNL d   1       1.115  -0.045  -0.429  0.00  0.00     0.003 A 
ATOM      7  I   UNL d   1      -2.723  -0.200   1.590  0.00  0.00    -0.146 I 
ENDROOT
TORSDOF 0
ENDMDL
