MODEL 1
REMARK minimizedAffinity -0.761179745
REMARK minimizedRMSD -1
REMARK  0 active torsions:
REMARK  status: ('A' for Active; 'I' for Inactive)
ROOT
ATOM      1  C   UNL d   1       2.028  -0.063   1.604  0.00  0.00     0.023 A 
ATOM      2  C1  UNL d   1       1.337  -0.673   2.651  0.00  0.00     0.003 A 
ATOM      3  C2  UNL d   1      -0.047  -0.846   2.569  0.00  0.00     0.048 A 
ATOM      4  C3  UNL d   1      -0.732  -0.407   1.437  0.00  0.00     0.023 A 
ATOM      5  C4  UNL d   1      -0.045   0.203   0.387  0.00  0.00     0.048 A 
ATOM      6  C5  UNL d   1       1.338   0.374   0.473  0.00  0.00     0.003 A 
ATOM      7  I   UNL d   1      -2.791  -0.663   1.313  0.00  0.00    -0.146 I 
ENDROOT
TORSDOF 0
ENDMDL
