MODEL 1
REMARK minimizedAffinity -3.74963975
REMARK minimizedRMSD -1
REMARK  0 active torsions:
REMARK  status: ('A' for Active; 'I' for Inactive)
ROOT
ATOM      1  C   UNL d   1       0.949  -0.639   3.078  0.00  0.00     0.023 A 
ATOM      2  C1  UNL d   1      -0.389  -0.448   2.733  0.00  0.00     0.003 A 
ATOM      3  C2  UNL d   1      -0.743  -0.225   1.401  0.00  0.00     0.048 A 
ATOM      4  C3  UNL d   1       0.246  -0.196   0.418  0.00  0.00     0.023 A 
ATOM      5  C4  UNL d   1       1.586  -0.388   0.758  0.00  0.00     0.048 A 
ATOM      6  C5  UNL d   1       1.935  -0.610   2.092  0.00  0.00     0.003 A 
ATOM      7  I   UNL d   1      -0.279   0.135  -1.565  0.00  0.00    -0.146 I 
ENDROOT
TORSDOF 0
ENDMDL
