MODEL 1
REMARK minimizedAffinity -1.44709885
REMARK minimizedRMSD -1
REMARK  0 active torsions:
REMARK  status: ('A' for Active; 'I' for Inactive)
ROOT
ATOM      1  C   UNL d   1       3.528   4.846   1.875  0.00  0.00     0.078 C 
ATOM      2  C1  UNL d   1       2.164   4.853   1.253  0.00  0.00    -0.077 A 
ATOM      3  C2  UNL d   1       1.666   5.999   0.622  0.00  0.00    -0.001 A 
ATOM      4  C3  UNL d   1       0.390   5.994   0.055  0.00  0.00     0.003 A 
ATOM      5  C4  UNL d   1      -0.398   4.847   0.114  0.00  0.00    -0.005 A 
ATOM      6  C5  UNL d   1       0.089   3.702   0.742  0.00  0.00     0.003 A 
ATOM      7  C6  UNL d   1       1.364   3.705   1.310  0.00  0.00    -0.001 A 
ENDROOT
TORSDOF 0
ENDMDL
