MODEL 1
REMARK minimizedAffinity 12.2492952
REMARK minimizedRMSD -1
REMARK  0 active torsions:
REMARK  status: ('A' for Active; 'I' for Inactive)
ROOT
ATOM      1  C   UNL d   1       3.545   1.918   4.183  0.00  0.00     0.078 C 
ATOM      2  C1  UNL d   1       2.735   0.656   4.230  0.00  0.00    -0.077 A 
ATOM      3  C2  UNL d   1       1.577   0.572   5.012  0.00  0.00    -0.001 A 
ATOM      4  C3  UNL d   1       0.838  -0.611   5.054  0.00  0.00     0.003 A 
ATOM      5  C4  UNL d   1       1.251  -1.720   4.318  0.00  0.00    -0.005 A 
ATOM      6  C5  UNL d   1       2.403  -1.647   3.539  0.00  0.00     0.003 A 
ATOM      7  C6  UNL d   1       3.143  -0.464   3.495  0.00  0.00    -0.001 A 
ENDROOT
TORSDOF 0
ENDMDL
