MODEL 1
REMARK minimizedAffinity 3.93809009
REMARK minimizedRMSD -1
REMARK  0 active torsions:
REMARK  status: ('A' for Active; 'I' for Inactive)
ROOT
ATOM      1  C   UNL d   1       5.641  -5.994  -0.755  0.00  0.00     0.078 C 
ATOM      2  C1  UNL d   1       5.629  -4.801  -1.663  0.00  0.00    -0.077 A 
ATOM      3  C2  UNL d   1       5.267  -4.924  -3.011  0.00  0.00    -0.001 A 
ATOM      4  C3  UNL d   1       5.270  -3.807  -3.847  0.00  0.00     0.003 A 
ATOM      5  C4  UNL d   1       5.636  -2.559  -3.347  0.00  0.00    -0.005 A 
ATOM      6  C5  UNL d   1       6.000  -2.427  -2.009  0.00  0.00     0.003 A 
ATOM      7  C6  UNL d   1       5.997  -3.543  -1.170  0.00  0.00    -0.001 A 
ENDROOT
TORSDOF 0
ENDMDL
