MODEL 1
REMARK minimizedAffinity 11.1165161
REMARK minimizedRMSD -1
REMARK  0 active torsions:
REMARK  status: ('A' for Active; 'I' for Inactive)
ROOT
ATOM      1  C   UNL d   1       3.726  -5.871  -2.254  0.00  0.00     0.078 C 
ATOM      2  C1  UNL d   1       4.524  -4.604  -2.321  0.00  0.00    -0.077 A 
ATOM      3  C2  UNL d   1       4.947  -3.956  -1.153  0.00  0.00    -0.001 A 
ATOM      4  C3  UNL d   1       5.681  -2.772  -1.230  0.00  0.00     0.003 A 
ATOM      5  C4  UNL d   1       5.999  -2.224  -2.471  0.00  0.00    -0.005 A 
ATOM      6  C5  UNL d   1       5.582  -2.861  -3.638  0.00  0.00     0.003 A 
ATOM      7  C6  UNL d   1       4.847  -4.045  -3.564  0.00  0.00    -0.001 A 
ENDROOT
TORSDOF 0
ENDMDL
