MODEL 1
REMARK minimizedAffinity 12.6645527
REMARK minimizedRMSD -1
REMARK  0 active torsions:
REMARK  status: ('A' for Active; 'I' for Inactive)
ROOT
ATOM      1  C   UNL d   1       2.294  -3.074   3.186  0.00  0.00     0.078 C 
ATOM      2  C1  UNL d   1       2.184  -1.630   3.574  0.00  0.00    -0.077 A 
ATOM      3  C2  UNL d   1       1.277  -1.214   4.557  0.00  0.00    -0.001 A 
ATOM      4  C3  UNL d   1       1.178   0.135   4.901  0.00  0.00     0.003 A 
ATOM      5  C4  UNL d   1       1.982   1.079   4.267  0.00  0.00    -0.005 A 
ATOM      6  C5  UNL d   1       2.886   0.676   3.286  0.00  0.00     0.003 A 
ATOM      7  C6  UNL d   1       2.986  -0.673   2.941  0.00  0.00    -0.001 A 
ENDROOT
TORSDOF 0
ENDMDL
