MODEL 1
REMARK minimizedAffinity 9.50163746
REMARK minimizedRMSD -1
REMARK  0 active torsions:
REMARK  status: ('A' for Active; 'I' for Inactive)
ROOT
ATOM      1  C   UNL d   1      -2.621   1.611   3.547  0.00  0.00     0.078 C 
ATOM      2  C1  UNL d   1      -3.806   0.714   3.748  0.00  0.00    -0.077 A 
ATOM      3  C2  UNL d   1      -4.908   1.133   4.503  0.00  0.00    -0.001 A 
ATOM      4  C3  UNL d   1      -6.000   0.284   4.690  0.00  0.00     0.003 A 
ATOM      5  C4  UNL d   1      -6.000  -0.990   4.126  0.00  0.00    -0.005 A 
ATOM      6  C5  UNL d   1      -4.907  -1.417   3.375  0.00  0.00     0.003 A 
ATOM      7  C6  UNL d   1      -3.814  -0.569   3.187  0.00  0.00    -0.001 A 
ENDROOT
TORSDOF 0
ENDMDL
