MODEL 1
REMARK minimizedAffinity 5.48695707
REMARK minimizedRMSD -1
REMARK  0 active torsions:
REMARK  status: ('A' for Active; 'I' for Inactive)
ROOT
ATOM      1  C   UNL d   1       2.864  -4.991  -2.605  0.00  0.00     0.078 C 
ATOM      2  C1  UNL d   1       1.688  -4.124  -2.268  0.00  0.00    -0.077 A 
ATOM      3  C2  UNL d   1       0.381  -4.535  -2.559  0.00  0.00    -0.001 A 
ATOM      4  C3  UNL d   1      -0.703  -3.713  -2.249  0.00  0.00     0.003 A 
ATOM      5  C4  UNL d   1      -0.492  -2.474  -1.648  0.00  0.00    -0.005 A 
ATOM      6  C5  UNL d   1       0.804  -2.055  -1.356  0.00  0.00     0.003 A 
ATOM      7  C6  UNL d   1       1.890  -2.876  -1.665  0.00  0.00    -0.001 A 
ENDROOT
TORSDOF 0
ENDMDL
