MODEL 1
REMARK minimizedAffinity 9.36798477
REMARK minimizedRMSD -1
REMARK  0 active torsions:
REMARK  status: ('A' for Active; 'I' for Inactive)
ROOT
ATOM      1  C   UNL d   1       3.258   4.918   1.892  0.00  0.00     0.078 C 
ATOM      2  C1  UNL d   1       1.967   4.682   1.167  0.00  0.00    -0.077 A 
ATOM      3  C2  UNL d   1       1.299   3.455   1.264  0.00  0.00    -0.001 A 
ATOM      4  C3  UNL d   1       0.103   3.246   0.575  0.00  0.00     0.003 A 
ATOM      5  C4  UNL d   1      -0.434   4.259  -0.217  0.00  0.00    -0.005 A 
ATOM      6  C5  UNL d   1       0.224   5.482  -0.322  0.00  0.00     0.003 A 
ATOM      7  C6  UNL d   1       1.420   5.693   0.367  0.00  0.00    -0.001 A 
ENDROOT
TORSDOF 0
ENDMDL
