MODEL 1
REMARK minimizedAffinity 9.12581062
REMARK minimizedRMSD -1
REMARK  0 active torsions:
REMARK  status: ('A' for Active; 'I' for Inactive)
ROOT
ATOM      1  C   UNL d   1       5.248  -4.327  -2.915  0.00  0.00     0.078 C 
ATOM      2  C1  UNL d   1       5.104  -3.249  -1.883  0.00  0.00    -0.077 A 
ATOM      3  C2  UNL d   1       4.076  -3.291  -0.934  0.00  0.00    -0.001 A 
ATOM      4  C3  UNL d   1       3.949  -2.276   0.015  0.00  0.00     0.003 A 
ATOM      5  C4  UNL d   1       4.845  -1.209   0.023  0.00  0.00    -0.005 A 
ATOM      6  C5  UNL d   1       5.870  -1.156  -0.920  0.00  0.00     0.003 A 
ATOM      7  C6  UNL d   1       5.999  -2.171  -1.869  0.00  0.00    -0.001 A 
ENDROOT
TORSDOF 0
ENDMDL
