MODEL 1
REMARK minimizedAffinity 7.11877728
REMARK minimizedRMSD -1
REMARK  0 active torsions:
REMARK  status: ('A' for Active; 'I' for Inactive)
ROOT
ATOM      1  C   UNL d   1       2.944   4.474   2.400  0.00  0.00     0.078 C 
ATOM      2  C1  UNL d   1       1.782   4.392   1.457  0.00  0.00    -0.077 A 
ATOM      3  C2  UNL d   1       1.017   3.223   1.355  0.00  0.00    -0.001 A 
ATOM      4  C3  UNL d   1      -0.057   3.158   0.465  0.00  0.00     0.003 A 
ATOM      5  C4  UNL d   1      -0.375   4.257  -0.330  0.00  0.00    -0.005 A 
ATOM      6  C5  UNL d   1       0.382   5.423  -0.237  0.00  0.00     0.003 A 
ATOM      7  C6  UNL d   1       1.456   5.491   0.652  0.00  0.00    -0.001 A 
ENDROOT
TORSDOF 0
ENDMDL
