MODEL 1
REMARK minimizedAffinity -3.76824021
REMARK minimizedRMSD -1
REMARK  2 active torsions:
REMARK  status: ('A' for Active; 'I' for Inactive)
REMARK    1  A    between atoms: C1_2  and  C2_3 
REMARK    2  A    between atoms: C2_3  and  C3_4 
ROOT
ATOM      1  C3  UNL d   1      -0.063   0.302   0.464  0.00  0.00    -0.075 A 
ATOM      2  C4  UNL d   1       1.189  -0.279   0.214  0.00  0.00     0.002 A 
ATOM      3  C5  UNL d   1       1.732  -1.203   1.108  0.00  0.00     0.002 A 
ATOM      4  C6  UNL d   1       1.037  -1.549   2.265  0.00  0.00    -0.004 A 
ATOM      5  C7  UNL d   1      -0.200  -0.965   2.531  0.00  0.00     0.002 A 
ATOM      6  C8  UNL d   1      -0.748  -0.044   1.637  0.00  0.00     0.002 A 
ENDROOT
BRANCH   1   7
ATOM      7  C2  UNL d   1      -0.669   1.280  -0.514  0.00  0.00     0.056 C 
BRANCH   7   8
ATOM      8  C1  UNL d   1      -1.502   0.622  -1.619  0.00  0.00     0.007 C 
ATOM      9  C   UNL d   1      -2.089   1.623  -2.605  0.00  0.00     0.009 C 
ENDBRANCH   7   8
ENDBRANCH   1   7
TORSDOF 2
ENDMDL
