MODEL 1
REMARK minimizedAffinity -2.86906362
REMARK minimizedRMSD -1
REMARK  2 active torsions:
REMARK  status: ('A' for Active; 'I' for Inactive)
REMARK    1  A    between atoms: C1_2  and  C2_3 
REMARK    2  A    between atoms: C2_3  and  C3_4 
ROOT
ATOM      1  C3  UNL d   1      -0.042   0.365  -0.056  0.00  0.00    -0.075 A 
ATOM      2  C4  UNL d   1       1.233   0.138  -0.595  0.00  0.00     0.002 A 
ATOM      3  C5  UNL d   1       2.132  -0.716   0.045  0.00  0.00     0.002 A 
ATOM      4  C6  UNL d   1       1.772  -1.344   1.235  0.00  0.00    -0.004 A 
ATOM      5  C7  UNL d   1       0.515  -1.113   1.789  0.00  0.00     0.002 A 
ATOM      6  C8  UNL d   1      -0.388  -0.263   1.148  0.00  0.00     0.002 A 
ENDROOT
BRANCH   1   7
ATOM      7  C2  UNL d   1      -1.029   1.265  -0.760  0.00  0.00     0.056 C 
BRANCH   7   8
ATOM      8  C1  UNL d   1      -1.567   0.692  -2.075  0.00  0.00     0.007 C 
ATOM      9  C   UNL d   1      -2.304   1.721  -2.921  0.00  0.00     0.009 C 
ENDBRANCH   7   8
ENDBRANCH   1   7
TORSDOF 2
ENDMDL
