MODEL 1
REMARK minimizedAffinity -5.04300451
REMARK minimizedRMSD -1
REMARK  2 active torsions:
REMARK  status: ('A' for Active; 'I' for Inactive)
REMARK    1  A    between atoms: C1_2  and  C2_3 
REMARK    2  A    between atoms: C2_3  and  C3_4 
ROOT
ATOM      1  C3  UNL d   1      -0.741   0.510  -1.012  0.00  0.00    -0.075 A 
ATOM      2  C4  UNL d   1      -0.491  -0.160  -2.219  0.00  0.00     0.002 A 
ATOM      3  C5  UNL d   1      -1.289   0.076  -3.338  0.00  0.00     0.002 A 
ATOM      4  C6  UNL d   1      -2.352   0.974  -3.264  0.00  0.00    -0.004 A 
ATOM      5  C7  UNL d   1      -2.619   1.633  -2.065  0.00  0.00     0.002 A 
ATOM      6  C8  UNL d   1      -1.819   1.402  -0.945  0.00  0.00     0.002 A 
ENDROOT
BRANCH   1   7
ATOM      7  C2  UNL d   1       0.137   0.282   0.195  0.00  0.00     0.056 C 
BRANCH   7   8
ATOM      8  C1  UNL d   1       1.591  -0.062  -0.148  0.00  0.00     0.007 C 
ATOM      9  C   UNL d   1       2.009  -1.446   0.330  0.00  0.00     0.009 C 
ENDBRANCH   7   8
ENDBRANCH   1   7
TORSDOF 2
ENDMDL
