MODEL 1
REMARK minimizedAffinity -4.02245474
REMARK minimizedRMSD -1
REMARK  2 active torsions:
REMARK  status: ('A' for Active; 'I' for Inactive)
REMARK    1  A    between atoms: C1_2  and  C2_3 
REMARK    2  A    between atoms: C2_3  and  C3_4 
ROOT
ATOM      1  C3  UNL d   1      -0.044   0.280  -0.139  0.00  0.00    -0.075 A 
ATOM      2  C4  UNL d   1      -0.116  -0.377   1.097  0.00  0.00     0.002 A 
ATOM      3  C5  UNL d   1       0.864  -1.299   1.468  0.00  0.00     0.002 A 
ATOM      4  C6  UNL d   1       1.920  -1.582   0.604  0.00  0.00    -0.004 A 
ATOM      5  C7  UNL d   1       1.992  -0.946  -0.634  0.00  0.00     0.002 A 
ATOM      6  C8  UNL d   1       1.015  -0.021  -1.005  0.00  0.00     0.002 A 
ENDROOT
BRANCH   1   7
ATOM      7  C2  UNL d   1      -1.086   1.300  -0.533  0.00  0.00     0.056 C 
BRANCH   7   8
ATOM      8  C1  UNL d   1      -1.923   0.898  -1.752  0.00  0.00     0.007 C 
ATOM      9  C   UNL d   1      -2.198   2.058  -2.700  0.00  0.00     0.009 C 
ENDBRANCH   7   8
ENDBRANCH   1   7
TORSDOF 2
ENDMDL
