MODEL 1
REMARK minimizedAffinity 1.77626717
REMARK minimizedRMSD -1
REMARK  2 active torsions:
REMARK  status: ('A' for Active; 'I' for Inactive)
REMARK    1  A    between atoms: C1_2  and  C2_3 
REMARK    2  A    between atoms: C2_3  and  C3_4 
ROOT
ATOM      1  C3  UNL d   1      -1.101   3.748  -1.856  0.00  0.00    -0.075 A 
ATOM      2  C4  UNL d   1      -1.501   5.067  -2.113  0.00  0.00     0.002 A 
ATOM      3  C5  UNL d   1      -1.576   6.000  -1.078  0.00  0.00     0.002 A 
ATOM      4  C6  UNL d   1      -1.263   5.623   0.226  0.00  0.00    -0.004 A 
ATOM      5  C7  UNL d   1      -0.880   4.311   0.496  0.00  0.00     0.002 A 
ATOM      6  C8  UNL d   1      -0.800   3.377  -0.538  0.00  0.00     0.002 A 
ENDROOT
BRANCH   1   7
ATOM      7  C2  UNL d   1      -0.990   2.742  -2.976  0.00  0.00     0.056 C 
BRANCH   7   8
ATOM      8  C1  UNL d   1      -2.235   1.868  -3.156  0.00  0.00     0.007 C 
ATOM      9  C   UNL d   1      -2.195   0.589  -2.331  0.00  0.00     0.009 C 
ENDBRANCH   7   8
ENDBRANCH   1   7
TORSDOF 2
ENDMDL
