MODEL 1
REMARK minimizedAffinity 6.7253561
REMARK minimizedRMSD -1
REMARK  2 active torsions:
REMARK  status: ('A' for Active; 'I' for Inactive)
REMARK    1  A    between atoms: C1_2  and  C2_3 
REMARK    2  A    between atoms: C2_3  and  C3_4 
ROOT
ATOM      1  C3  UNL d   1      -3.365   4.150  -2.028  0.00  0.00    -0.075 A 
ATOM      2  C4  UNL d   1      -4.469   4.090  -1.165  0.00  0.00     0.002 A 
ATOM      3  C5  UNL d   1      -5.110   2.875  -0.919  0.00  0.00     0.002 A 
ATOM      4  C6  UNL d   1      -4.663   1.710  -1.539  0.00  0.00    -0.004 A 
ATOM      5  C7  UNL d   1      -3.578   1.762  -2.411  0.00  0.00     0.002 A 
ATOM      6  C8  UNL d   1      -2.932   2.975  -2.655  0.00  0.00     0.002 A 
ENDROOT
BRANCH   1   7
ATOM      7  C2  UNL d   1      -2.649   5.457  -2.275  0.00  0.00     0.056 C 
BRANCH   7   8
ATOM      8  C1  UNL d   1      -1.336   5.311  -3.050  0.00  0.00     0.007 C 
ATOM      9  C   UNL d   1      -0.158   5.998  -2.371  0.00  0.00     0.009 C 
ENDBRANCH   7   8
ENDBRANCH   1   7
TORSDOF 2
ENDMDL
