MODEL 1
REMARK minimizedAffinity -1.50301862
REMARK minimizedRMSD -1
REMARK  2 active torsions:
REMARK  status: ('A' for Active; 'I' for Inactive)
REMARK    1  A    between atoms: C1_2  and  C2_3 
REMARK    2  A    between atoms: C2_3  and  C3_4 
ROOT
ATOM      1  C3  UNL d   1      -1.487  -2.513   0.401  0.00  0.00    -0.075 A 
ATOM      2  C4  UNL d   1      -2.260  -1.350   0.531  0.00  0.00     0.002 A 
ATOM      3  C5  UNL d   1      -1.665  -0.091   0.443  0.00  0.00     0.002 A 
ATOM      4  C6  UNL d   1      -0.292   0.021   0.236  0.00  0.00    -0.004 A 
ATOM      5  C7  UNL d   1       0.488  -1.128   0.123  0.00  0.00     0.002 A 
ATOM      6  C8  UNL d   1      -0.105  -2.389   0.206  0.00  0.00     0.002 A 
ENDROOT
BRANCH   1   7
ATOM      7  C2  UNL d   1      -2.130  -3.878   0.466  0.00  0.00     0.056 C 
BRANCH   7   8
ATOM      8  C1  UNL d   1      -3.008  -4.096   1.703  0.00  0.00     0.007 C 
ATOM      9  C   UNL d   1      -3.583  -5.504   1.789  0.00  0.00     0.009 C 
ENDBRANCH   7   8
ENDBRANCH   1   7
TORSDOF 2
ENDMDL
