MODEL 1
REMARK minimizedAffinity -2.58556128
REMARK minimizedRMSD -1
REMARK  2 active torsions:
REMARK  status: ('A' for Active; 'I' for Inactive)
REMARK    1  A    between atoms: C1_2  and  C2_3 
REMARK    2  A    between atoms: C2_3  and  C3_4 
ROOT
ATOM      1  C3  UNL d   1      -0.219   0.572  -0.962  0.00  0.00    -0.075 A 
ATOM      2  C4  UNL d   1      -0.901   1.795  -0.876  0.00  0.00     0.002 A 
ATOM      3  C5  UNL d   1      -1.599   2.295  -1.976  0.00  0.00     0.002 A 
ATOM      4  C6  UNL d   1      -1.616   1.586  -3.175  0.00  0.00    -0.004 A 
ATOM      5  C7  UNL d   1      -0.928   0.379  -3.277  0.00  0.00     0.002 A 
ATOM      6  C8  UNL d   1      -0.233  -0.126  -2.177  0.00  0.00     0.002 A 
ENDROOT
BRANCH   1   7
ATOM      7  C2  UNL d   1       0.514   0.011   0.233  0.00  0.00     0.056 C 
BRANCH   7   8
ATOM      8  C1  UNL d   1       1.976  -0.353  -0.046  0.00  0.00     0.007 C 
ATOM      9  C   UNL d   1       2.593  -1.231   1.034  0.00  0.00     0.009 C 
ENDBRANCH   7   8
ENDBRANCH   1   7
TORSDOF 2
ENDMDL
