MODEL 1
REMARK minimizedAffinity -4.03705835
REMARK minimizedRMSD -1
REMARK  2 active torsions:
REMARK  status: ('A' for Active; 'I' for Inactive)
REMARK    1  A    between atoms: C1_2  and  C2_3 
REMARK    2  A    between atoms: C2_3  and  C3_4 
ROOT
ATOM      1  C3  UNL d   1       0.131   0.215   0.114  0.00  0.00    -0.075 A 
ATOM      2  C4  UNL d   1       0.513  -0.404   1.313  0.00  0.00     0.002 A 
ATOM      3  C5  UNL d   1       1.569  -1.316   1.335  0.00  0.00     0.002 A 
ATOM      4  C6  UNL d   1       2.249  -1.627   0.159  0.00  0.00    -0.004 A 
ATOM      5  C7  UNL d   1       1.868  -1.031  -1.041  0.00  0.00     0.002 A 
ATOM      6  C8  UNL d   1       0.814  -0.115  -1.065  0.00  0.00     0.002 A 
ENDROOT
BRANCH   1   7
ATOM      7  C2  UNL d   1      -0.992   1.224   0.089  0.00  0.00     0.056 C 
BRANCH   7   8
ATOM      8  C1  UNL d   1      -1.315   1.763  -1.309  0.00  0.00     0.007 C 
ATOM      9  C   UNL d   1      -2.754   1.505  -1.734  0.00  0.00     0.009 C 
ENDBRANCH   7   8
ENDBRANCH   1   7
TORSDOF 2
ENDMDL
