MODEL 1
REMARK minimizedAffinity -2.10766816
REMARK minimizedRMSD -1
REMARK  2 active torsions:
REMARK  status: ('A' for Active; 'I' for Inactive)
REMARK    1  A    between atoms: C1_2  and  C2_3 
REMARK    2  A    between atoms: C2_3  and  C3_4 
ROOT
ATOM      1  C3  UNL d   1      -0.324   0.399  -1.293  0.00  0.00    -0.075 A 
ATOM      2  C4  UNL d   1      -0.804   1.017  -2.457  0.00  0.00     0.002 A 
ATOM      3  C5  UNL d   1      -1.797   1.994  -2.382  0.00  0.00     0.002 A 
ATOM      4  C6  UNL d   1      -2.328   2.358  -1.147  0.00  0.00    -0.004 A 
ATOM      5  C7  UNL d   1      -1.871   1.739   0.014  0.00  0.00     0.002 A 
ATOM      6  C8  UNL d   1      -0.875   0.764  -0.057  0.00  0.00     0.002 A 
ENDROOT
BRANCH   1   7
ATOM      7  C2  UNL d   1       0.771  -0.639  -1.364  0.00  0.00     0.056 C 
BRANCH   7   8
ATOM      8  C1  UNL d   1       2.021  -0.284  -0.552  0.00  0.00     0.007 C 
ATOM      9  C   UNL d   1       2.215  -1.172   0.670  0.00  0.00     0.009 C 
ENDBRANCH   7   8
ENDBRANCH   1   7
TORSDOF 2
ENDMDL
