MODEL 1
REMARK minimizedAffinity 4.75997877
REMARK minimizedRMSD -1
REMARK  2 active torsions:
REMARK  status: ('A' for Active; 'I' for Inactive)
REMARK    1  A    between atoms: C1_2  and  C2_3 
REMARK    2  A    between atoms: C2_3  and  C3_4 
ROOT
ATOM      1  C3  UNL d   1      -1.799   2.122  -1.320  0.00  0.00    -0.075 A 
ATOM      2  C4  UNL d   1      -2.908   1.265  -1.358  0.00  0.00     0.002 A 
ATOM      3  C5  UNL d   1      -3.286   0.544  -0.224  0.00  0.00     0.002 A 
ATOM      4  C6  UNL d   1      -2.555   0.663   0.956  0.00  0.00    -0.004 A 
ATOM      5  C7  UNL d   1      -1.441   1.499   1.000  0.00  0.00     0.002 A 
ATOM      6  C8  UNL d   1      -1.064   2.224  -0.131  0.00  0.00     0.002 A 
ENDROOT
BRANCH   1   7
ATOM      7  C2  UNL d   1      -1.402   2.927  -2.535  0.00  0.00     0.056 C 
BRANCH   7   8
ATOM      8  C1  UNL d   1       0.098   2.892  -2.843  0.00  0.00     0.007 C 
ATOM      9  C   UNL d   1       0.499   3.822  -3.981  0.00  0.00     0.009 C 
ENDBRANCH   7   8
ENDBRANCH   1   7
TORSDOF 2
ENDMDL
