MODEL 1
REMARK minimizedAffinity 5.01413059
REMARK minimizedRMSD -1
REMARK  2 active torsions:
REMARK  status: ('A' for Active; 'I' for Inactive)
REMARK    1  A    between atoms: C1_2  and  C2_3 
REMARK    2  A    between atoms: C2_3  and  C3_4 
ROOT
ATOM      1  C3  UNL d   1       4.665   5.555   2.968  0.00  0.00    -0.075 A 
ATOM      2  C4  UNL d   1       5.835   4.929   2.513  0.00  0.00     0.002 A 
ATOM      3  C5  UNL d   1       5.995   4.624   1.161  0.00  0.00     0.002 A 
ATOM      4  C6  UNL d   1       4.986   4.930   0.251  0.00  0.00    -0.004 A 
ATOM      5  C7  UNL d   1       3.812   5.537   0.694  0.00  0.00     0.002 A 
ATOM      6  C8  UNL d   1       3.652   5.847   2.046  0.00  0.00     0.002 A 
ENDROOT
BRANCH   1   7
ATOM      7  C2  UNL d   1       4.498   5.914   4.425  0.00  0.00     0.056 C 
BRANCH   7   8
ATOM      8  C1  UNL d   1       5.786   5.801   5.247  0.00  0.00     0.007 C 
ATOM      9  C   UNL d   1       5.984   4.424   5.867  0.00  0.00     0.009 C 
ENDBRANCH   7   8
ENDBRANCH   1   7
TORSDOF 2
ENDMDL
