MODEL 1
REMARK minimizedAffinity 12.0882607
REMARK minimizedRMSD -1
REMARK  2 active torsions:
REMARK  status: ('A' for Active; 'I' for Inactive)
REMARK    1  A    between atoms: C1_2  and  C2_3 
REMARK    2  A    between atoms: C2_3  and  C3_4 
ROOT
ATOM      1  C3  UNL d   1      -1.424   0.565   0.909  0.00  0.00    -0.075 A 
ATOM      2  C4  UNL d   1      -2.316  -0.417   1.366  0.00  0.00     0.002 A 
ATOM      3  C5  UNL d   1      -2.747  -0.419   2.693  0.00  0.00     0.002 A 
ATOM      4  C6  UNL d   1      -2.285   0.550   3.581  0.00  0.00    -0.004 A 
ATOM      5  C7  UNL d   1      -1.386   1.520   3.142  0.00  0.00     0.002 A 
ATOM      6  C8  UNL d   1      -0.957   1.528   1.814  0.00  0.00     0.002 A 
ENDROOT
BRANCH   1   7
ATOM      7  C2  UNL d   1      -0.977   0.591  -0.533  0.00  0.00     0.056 C 
BRANCH   7   8
ATOM      8  C1  UNL d   1       0.541   0.696  -0.713  0.00  0.00     0.007 C 
ATOM      9  C   UNL d   1       0.999   0.398  -2.135  0.00  0.00     0.009 C 
ENDBRANCH   7   8
ENDBRANCH   1   7
TORSDOF 2
ENDMDL
