MODEL 1
REMARK minimizedAffinity 13.8156662
REMARK minimizedRMSD -1
REMARK  2 active torsions:
REMARK  status: ('A' for Active; 'I' for Inactive)
REMARK    1  A    between atoms: C1_2  and  C2_3 
REMARK    2  A    between atoms: C2_3  and  C3_4 
ROOT
ATOM      1  C3  UNL d   1       1.611  -2.442  -2.409  0.00  0.00    -0.075 A 
ATOM      2  C4  UNL d   1       1.736  -1.059  -2.603  0.00  0.00     0.002 A 
ATOM      3  C5  UNL d   1       1.209  -0.453  -3.744  0.00  0.00     0.002 A 
ATOM      4  C6  UNL d   1       0.561  -1.222  -4.708  0.00  0.00    -0.004 A 
ATOM      5  C7  UNL d   1       0.445  -2.600  -4.534  0.00  0.00     0.002 A 
ATOM      6  C8  UNL d   1       0.967  -3.208  -3.391  0.00  0.00     0.002 A 
ENDROOT
BRANCH   1   7
ATOM      7  C2  UNL d   1       2.153  -3.100  -1.162  0.00  0.00     0.056 C 
BRANCH   7   8
ATOM      8  C1  UNL d   1       1.108  -3.892  -0.370  0.00  0.00     0.007 C 
ATOM      9  C   UNL d   1       1.667  -4.522   0.899  0.00  0.00     0.009 C 
ENDBRANCH   7   8
ENDBRANCH   1   7
TORSDOF 2
ENDMDL
