MODEL 1
REMARK minimizedAffinity 8.11271954
REMARK minimizedRMSD -1
REMARK  2 active torsions:
REMARK  status: ('A' for Active; 'I' for Inactive)
REMARK    1  A    between atoms: C1_2  and  C2_3 
REMARK    2  A    between atoms: C2_3  and  C3_4 
ROOT
ATOM      1  C3  UNL d   1      -1.654   1.427   3.237  0.00  0.00    -0.075 A 
ATOM      2  C4  UNL d   1      -2.429   0.342   3.673  0.00  0.00     0.002 A 
ATOM      3  C5  UNL d   1      -2.902  -0.602   2.762  0.00  0.00     0.002 A 
ATOM      4  C6  UNL d   1      -2.616  -0.469   1.405  0.00  0.00    -0.004 A 
ATOM      5  C7  UNL d   1      -1.861   0.613   0.958  0.00  0.00     0.002 A 
ATOM      6  C8  UNL d   1      -1.383   1.557   1.868  0.00  0.00     0.002 A 
ENDROOT
BRANCH   1   7
ATOM      7  C2  UNL d   1      -1.114   2.437   4.222  0.00  0.00     0.056 C 
BRANCH   7   8
ATOM      8  C1  UNL d   1      -1.732   3.832   4.086  0.00  0.00     0.007 C 
ATOM      9  C   UNL d   1      -1.523   4.704   5.317  0.00  0.00     0.009 C 
ENDBRANCH   7   8
ENDBRANCH   1   7
TORSDOF 2
ENDMDL
