MODEL 1
REMARK minimizedAffinity 10.7469254
REMARK minimizedRMSD -1
REMARK  2 active torsions:
REMARK  status: ('A' for Active; 'I' for Inactive)
REMARK    1  A    between atoms: C1_2  and  C2_3 
REMARK    2  A    between atoms: C2_3  and  C3_4 
ROOT
ATOM      1  C3  UNL d   1       1.690  -3.162  -1.136  0.00  0.00    -0.075 A 
ATOM      2  C4  UNL d   1       2.373  -1.938  -1.099  0.00  0.00     0.002 A 
ATOM      3  C5  UNL d   1       2.141  -0.967  -2.073  0.00  0.00     0.002 A 
ATOM      4  C6  UNL d   1       1.232  -1.210  -3.101  0.00  0.00    -0.004 A 
ATOM      5  C7  UNL d   1       0.560  -2.429  -3.157  0.00  0.00     0.002 A 
ATOM      6  C8  UNL d   1       0.787  -3.401  -2.180  0.00  0.00     0.002 A 
ENDROOT
BRANCH   1   7
ATOM      7  C2  UNL d   1       1.915  -4.205  -0.068  0.00  0.00     0.056 C 
BRANCH   7   8
ATOM      8  C1  UNL d   1       0.624  -4.775   0.530  0.00  0.00     0.007 C 
ATOM      9  C   UNL d   1       0.871  -5.817   1.612  0.00  0.00     0.009 C 
ENDBRANCH   7   8
ENDBRANCH   1   7
TORSDOF 2
ENDMDL
