MODEL 1
REMARK minimizedAffinity 1.38519752
REMARK minimizedRMSD -1
REMARK  2 active torsions:
REMARK  status: ('A' for Active; 'I' for Inactive)
REMARK    1  A    between atoms: C1_2  and  C2_3 
REMARK    2  A    between atoms: C2_3  and  C3_4 
ROOT
ATOM      1  C3  UNL d   1       5.278   5.587   2.522  0.00  0.00    -0.075 A 
ATOM      2  C4  UNL d   1       5.989   4.872   1.547  0.00  0.00     0.002 A 
ATOM      3  C5  UNL d   1       5.410   4.595   0.309  0.00  0.00     0.002 A 
ATOM      4  C6  UNL d   1       4.112   5.018   0.033  0.00  0.00    -0.004 A 
ATOM      5  C7  UNL d   1       3.390   5.714   0.999  0.00  0.00     0.002 A 
ATOM      6  C8  UNL d   1       3.968   5.997   2.238  0.00  0.00     0.002 A 
ENDROOT
BRANCH   1   7
ATOM      7  C2  UNL d   1       5.909   5.917   3.853  0.00  0.00     0.056 C 
BRANCH   7   8
ATOM      8  C1  UNL d   1       4.945   5.825   5.041  0.00  0.00     0.007 C 
ATOM      9  C   UNL d   1       5.278   4.689   5.998  0.00  0.00     0.009 C 
ENDBRANCH   7   8
ENDBRANCH   1   7
TORSDOF 2
ENDMDL
