MODEL 1
REMARK minimizedAffinity -1.5303371
REMARK minimizedRMSD -1
REMARK  2 active torsions:
REMARK  status: ('A' for Active; 'I' for Inactive)
REMARK    1  A    between atoms: C1_2  and  C2_3 
REMARK    2  A    between atoms: C2_3  and  C3_4 
ROOT
ATOM      1  C3  UNL d   1       4.798   5.438   2.725  0.00  0.00    -0.075 A 
ATOM      2  C4  UNL d   1       5.830   4.599   2.279  0.00  0.00     0.002 A 
ATOM      3  C5  UNL d   1       5.999   4.346   0.918  0.00  0.00     0.002 A 
ATOM      4  C6  UNL d   1       5.134   4.919  -0.013  0.00  0.00    -0.004 A 
ATOM      5  C7  UNL d   1       4.096   5.740   0.420  0.00  0.00     0.002 A 
ATOM      6  C8  UNL d   1       3.927   5.999   1.781  0.00  0.00     0.002 A 
ENDROOT
BRANCH   1   7
ATOM      7  C2  UNL d   1       4.628   5.740   4.195  0.00  0.00     0.056 C 
BRANCH   7   8
ATOM      8  C1  UNL d   1       5.917   5.606   5.012  0.00  0.00     0.007 C 
ATOM      9  C   UNL d   1       5.891   4.438   5.988  0.00  0.00     0.009 C 
ENDBRANCH   7   8
ENDBRANCH   1   7
TORSDOF 2
ENDMDL
