MODEL 1
REMARK minimizedAffinity 8.41831684
REMARK minimizedRMSD -1
REMARK  2 active torsions:
REMARK  status: ('A' for Active; 'I' for Inactive)
REMARK    1  A    between atoms: C1_2  and  C2_3 
REMARK    2  A    between atoms: C2_3  and  C3_4 
ROOT
ATOM      1  C3  UNL d   1      -5.215  -0.882   3.007  0.00  0.00    -0.075 A 
ATOM      2  C4  UNL d   1      -3.830  -0.678   2.925  0.00  0.00     0.002 A 
ATOM      3  C5  UNL d   1      -3.105  -0.274   4.046  0.00  0.00     0.002 A 
ATOM      4  C6  UNL d   1      -3.756  -0.058   5.259  0.00  0.00    -0.004 A 
ATOM      5  C7  UNL d   1      -5.135  -0.240   5.348  0.00  0.00     0.002 A 
ATOM      6  C8  UNL d   1      -5.861  -0.649   4.228  0.00  0.00     0.002 A 
ENDROOT
BRANCH   1   7
ATOM      7  C2  UNL d   1      -6.000  -1.348   1.804  0.00  0.00     0.056 C 
BRANCH   7   8
ATOM      8  C1  UNL d   1      -6.000  -2.868   1.610  0.00  0.00     0.007 C 
ATOM      9  C   UNL d   1      -6.000  -3.640   2.923  0.00  0.00     0.009 C 
ENDBRANCH   7   8
ENDBRANCH   1   7
TORSDOF 2
ENDMDL
