MODEL 1
REMARK minimizedAffinity 7.25904608
REMARK minimizedRMSD -1
REMARK  2 active torsions:
REMARK  status: ('A' for Active; 'I' for Inactive)
REMARK    1  A    between atoms: C1_2  and  C2_3 
REMARK    2  A    between atoms: C2_3  and  C3_4 
ROOT
ATOM      1  C3  UNL d   1       2.046  -0.312  -1.905  0.00  0.00    -0.075 A 
ATOM      2  C4  UNL d   1       1.084  -1.313  -2.105  0.00  0.00     0.002 A 
ATOM      3  C5  UNL d   1       1.200  -2.545  -1.461  0.00  0.00     0.002 A 
ATOM      4  C6  UNL d   1       2.281  -2.796  -0.619  0.00  0.00    -0.004 A 
ATOM      5  C7  UNL d   1       3.251  -1.815  -0.426  0.00  0.00     0.002 A 
ATOM      6  C8  UNL d   1       3.136  -0.579  -1.065  0.00  0.00     0.002 A 
ENDROOT
BRANCH   1   7
ATOM      7  C2  UNL d   1       1.911   1.034  -2.575  0.00  0.00     0.056 C 
BRANCH   7   8
ATOM      8  C1  UNL d   1       0.690   1.154  -3.493  0.00  0.00     0.007 C 
ATOM      9  C   UNL d   1       0.991   0.795  -4.942  0.00  0.00     0.009 C 
ENDBRANCH   7   8
ENDBRANCH   1   7
TORSDOF 2
ENDMDL
