MODEL 1
REMARK minimizedAffinity 7.1444397
REMARK minimizedRMSD -1
REMARK  2 active torsions:
REMARK  status: ('A' for Active; 'I' for Inactive)
REMARK    1  A    between atoms: C1_2  and  C2_3 
REMARK    2  A    between atoms: C2_3  and  C3_4 
ROOT
ATOM      1  C3  UNL d   1      -1.663   0.652   1.044  0.00  0.00    -0.075 A 
ATOM      2  C4  UNL d   1      -2.520  -0.063   1.893  0.00  0.00     0.002 A 
ATOM      3  C5  UNL d   1      -2.680   0.321   3.225  0.00  0.00     0.002 A 
ATOM      4  C6  UNL d   1      -1.979   1.415   3.727  0.00  0.00    -0.004 A 
ATOM      5  C7  UNL d   1      -1.112   2.123   2.897  0.00  0.00     0.002 A 
ATOM      6  C8  UNL d   1      -0.954   1.744   1.562  0.00  0.00     0.002 A 
ENDROOT
BRANCH   1   7
ATOM      7  C2  UNL d   1      -1.509   0.260  -0.406  0.00  0.00     0.056 C 
BRANCH   7   8
ATOM      8  C1  UNL d   1      -0.679   1.248  -1.234  0.00  0.00     0.007 C 
ATOM      9  C   UNL d   1       0.533   0.606  -1.896  0.00  0.00     0.009 C 
ENDBRANCH   7   8
ENDBRANCH   1   7
TORSDOF 2
ENDMDL
