MODEL 1
REMARK minimizedAffinity 1.2940166
REMARK minimizedRMSD -1
REMARK  2 active torsions:
REMARK  status: ('A' for Active; 'I' for Inactive)
REMARK    1  A    between atoms: C1_2  and  C2_3 
REMARK    2  A    between atoms: C2_3  and  C3_4 
ROOT
ATOM      1  C3  UNL d   1       5.226   5.008   2.824  0.00  0.00    -0.075 A 
ATOM      2  C4  UNL d   1       5.983   5.010   1.644  0.00  0.00     0.002 A 
ATOM      3  C5  UNL d   1       5.444   5.507   0.457  0.00  0.00     0.002 A 
ATOM      4  C6  UNL d   1       4.140   5.998   0.432  0.00  0.00    -0.004 A 
ATOM      5  C7  UNL d   1       3.373   5.986   1.595  0.00  0.00     0.002 A 
ATOM      6  C8  UNL d   1       3.912   5.493   2.785  0.00  0.00     0.002 A 
ENDROOT
BRANCH   1   7
ATOM      7  C2  UNL d   1       5.813   4.499   4.118  0.00  0.00     0.056 C 
BRANCH   7   8
ATOM      8  C1  UNL d   1       4.846   4.551   5.306  0.00  0.00     0.007 C 
ATOM      9  C   UNL d   1       4.691   5.947   5.894  0.00  0.00     0.009 C 
ENDBRANCH   7   8
ENDBRANCH   1   7
TORSDOF 2
ENDMDL
