MODEL 1
REMARK minimizedAffinity 13.1332684
REMARK minimizedRMSD -1
REMARK  0 active torsions:
REMARK  status: ('A' for Active; 'I' for Inactive)
ROOT
ATOM      1  C2' OXE d   1      -0.002   3.635   6.000  0.00  0.00     0.078 C 
ATOM      2  C1' OXE d   1       1.817   1.497   6.000  0.00  0.00     0.078 C 
ATOM      3  C1  OXE d   1       0.854   1.602   4.844  0.00  0.00    -0.078 A 
ATOM      4  C2  OXE d   1      -0.063   2.624   4.875  0.00  0.00    -0.078 A 
ATOM      5  C3  OXE d   1      -0.938   2.799   3.807  0.00  0.00     0.003 A 
ATOM      6  C4  OXE d   1      -0.995   1.854   2.775  0.00  0.00    -0.002 A 
ATOM      7  C5  OXE d   1      -0.096   0.782   2.744  0.00  0.00    -0.002 A 
ATOM      8  C6  OXE d   1       0.861   0.666   3.746  0.00  0.00     0.003 A 
ENDROOT
TORSDOF 0
ENDMDL
