MODEL 1
REMARK minimizedAffinity 6.91394615
REMARK minimizedRMSD -1
REMARK  0 active torsions:
REMARK  status: ('A' for Active; 'I' for Inactive)
ROOT
ATOM      1  C2' OXE d   1      -5.692  -2.442   2.523  0.00  0.00     0.078 C 
ATOM      2  C1' OXE d   1      -3.911  -2.547   4.690  0.00  0.00     0.078 C 
ATOM      3  C1  OXE d   1      -3.828  -1.356   3.768  0.00  0.00    -0.078 A 
ATOM      4  C2  OXE d   1      -4.672  -1.336   2.684  0.00  0.00    -0.078 A 
ATOM      5  C3  OXE d   1      -4.675  -0.234   1.833  0.00  0.00     0.003 A 
ATOM      6  C4  OXE d   1      -3.722   0.780   1.983  0.00  0.00    -0.002 A 
ATOM      7  C5  OXE d   1      -2.827   0.759   3.058  0.00  0.00    -0.002 A 
ATOM      8  C6  OXE d   1      -2.895  -0.278   3.982  0.00  0.00     0.003 A 
ENDROOT
TORSDOF 0
ENDMDL
