MODEL 1
REMARK minimizedAffinity 11.1513367
REMARK minimizedRMSD -1
REMARK  0 active torsions:
REMARK  status: ('A' for Active; 'I' for Inactive)
ROOT
ATOM      1  C2' OXE d   1      -2.099   0.091  -3.372  0.00  0.00     0.078 C 
ATOM      2  C1' OXE d   1       0.456  -0.872  -2.720  0.00  0.00     0.078 C 
ATOM      3  C1  OXE d   1      -0.634  -1.884  -2.971  0.00  0.00    -0.078 A 
ATOM      4  C2  OXE d   1      -1.892  -1.403  -3.243  0.00  0.00    -0.078 A 
ATOM      5  C3  OXE d   1      -2.921  -2.293  -3.536  0.00  0.00     0.003 A 
ATOM      6  C4  OXE d   1      -2.724  -3.673  -3.405  0.00  0.00    -0.002 A 
ATOM      7  C5  OXE d   1      -1.460  -4.183  -3.089  0.00  0.00    -0.002 A 
ATOM      8  C6  OXE d   1      -0.396  -3.305  -2.911  0.00  0.00     0.003 A 
ENDROOT
TORSDOF 0
ENDMDL
