MODEL 1
REMARK minimizedAffinity 17.7607346
REMARK minimizedRMSD -1
REMARK  0 active torsions:
REMARK  status: ('A' for Active; 'I' for Inactive)
ROOT
ATOM      1  C2' OXE d   1       2.253   0.091  -4.731  0.00  0.00     0.078 C 
ATOM      2  C1' OXE d   1       0.522  -1.480  -3.177  0.00  0.00     0.078 C 
ATOM      3  C1  OXE d   1       1.619  -0.728  -2.466  0.00  0.00    -0.078 A 
ATOM      4  C2  OXE d   1       2.490   0.001  -3.239  0.00  0.00    -0.078 A 
ATOM      5  C3  OXE d   1       3.486   0.758  -2.628  0.00  0.00     0.003 A 
ATOM      6  C4  OXE d   1       3.704   0.661  -1.249  0.00  0.00    -0.002 A 
ATOM      7  C5  OXE d   1       2.853  -0.108  -0.448  0.00  0.00    -0.002 A 
ATOM      8  C6  OXE d   1       1.782  -0.773  -1.034  0.00  0.00     0.003 A 
ENDROOT
TORSDOF 0
ENDMDL
