MODEL 1
REMARK minimizedAffinity 12.2622805
REMARK minimizedRMSD -1
REMARK  0 active torsions:
REMARK  status: ('A' for Active; 'I' for Inactive)
ROOT
ATOM      1  C2' OXE d   1      -2.593  -2.692  -4.065  0.00  0.00     0.078 C 
ATOM      2  C1' OXE d   1      -2.562  -5.265  -2.944  0.00  0.00     0.078 C 
ATOM      3  C1  OXE d   1      -3.573  -4.982  -4.026  0.00  0.00    -0.078 A 
ATOM      4  C2  OXE d   1      -3.612  -3.706  -4.536  0.00  0.00    -0.078 A 
ATOM      5  C3  OXE d   1      -4.489  -3.405  -5.575  0.00  0.00     0.003 A 
ATOM      6  C4  OXE d   1      -5.435  -4.346  -5.998  0.00  0.00    -0.002 A 
ATOM      7  C5  OXE d   1      -5.439  -5.639  -5.464  0.00  0.00    -0.002 A 
ATOM      8  C6  OXE d   1      -4.489  -5.985  -4.510  0.00  0.00     0.003 A 
ENDROOT
TORSDOF 0
ENDMDL
