MODEL 1
REMARK minimizedAffinity 12.4741087
REMARK minimizedRMSD -1
REMARK  0 active torsions:
REMARK  status: ('A' for Active; 'I' for Inactive)
ROOT
ATOM      1  C2' OXE d   1      -3.863   2.596  -5.962  0.00  0.00     0.078 C 
ATOM      2  C1' OXE d   1      -2.133   2.050  -3.820  0.00  0.00     0.078 C 
ATOM      3  C1  OXE d   1      -2.139   3.450  -4.380  0.00  0.00    -0.078 A 
ATOM      4  C2  OXE d   1      -2.955   3.697  -5.458  0.00  0.00    -0.078 A 
ATOM      5  C3  OXE d   1      -3.039   4.985  -5.978  0.00  0.00     0.003 A 
ATOM      6  C4  OXE d   1      -2.188   5.995  -5.513  0.00  0.00    -0.002 A 
ATOM      7  C5  OXE d   1      -1.321   5.754  -4.441  0.00  0.00    -0.002 A 
ATOM      8  C6  OXE d   1      -1.315   4.502  -3.837  0.00  0.00     0.003 A 
ENDROOT
TORSDOF 0
ENDMDL
