MODEL 1
REMARK minimizedAffinity 12.3881807
REMARK minimizedRMSD -1
REMARK  0 active torsions:
REMARK  status: ('A' for Active; 'I' for Inactive)
ROOT
ATOM      1  C2' OXE d   1      -0.648   3.199  -3.713  0.00  0.00     0.078 C 
ATOM      2  C1' OXE d   1      -0.798   6.000  -3.616  0.00  0.00     0.078 C 
ATOM      3  C1  OXE d   1      -1.820   5.269  -4.450  0.00  0.00    -0.078 A 
ATOM      4  C2  OXE d   1      -1.711   3.901  -4.529  0.00  0.00    -0.078 A 
ATOM      5  C3  OXE d   1      -2.661   3.174  -5.240  0.00  0.00     0.003 A 
ATOM      6  C4  OXE d   1      -3.635   3.832  -6.000  0.00  0.00    -0.002 A 
ATOM      7  C5  OXE d   1      -3.740   5.226  -5.965  0.00  0.00    -0.002 A 
ATOM      8  C6  OXE d   1      -2.869   5.956  -5.164  0.00  0.00     0.003 A 
ENDROOT
TORSDOF 0
ENDMDL
