MODEL 1
REMARK minimizedAffinity 5.1841917
REMARK minimizedRMSD -1
REMARK  0 active torsions:
REMARK  status: ('A' for Active; 'I' for Inactive)
ROOT
ATOM      1  C2' OXE d   1       2.226   3.092  -0.390  0.00  0.00     0.078 C 
ATOM      2  C1' OXE d   1       0.882   1.336   1.339  0.00  0.00     0.078 C 
ATOM      3  C1  OXE d   1       1.458   0.767   0.066  0.00  0.00    -0.078 A 
ATOM      4  C2  OXE d   1       2.073   1.642  -0.796  0.00  0.00    -0.078 A 
ATOM      5  C3  OXE d   1       2.670   1.160  -1.958  0.00  0.00     0.003 A 
ATOM      6  C4  OXE d   1       2.515  -0.180  -2.331  0.00  0.00    -0.002 A 
ATOM      7  C5  OXE d   1       1.858  -1.081  -1.486  0.00  0.00    -0.002 A 
ATOM      8  C6  OXE d   1       1.361  -0.633  -0.266  0.00  0.00     0.003 A 
ENDROOT
TORSDOF 0
ENDMDL
