MODEL 1
REMARK minimizedAffinity 4.88710976
REMARK minimizedRMSD -1
REMARK  0 active torsions:
REMARK  status: ('A' for Active; 'I' for Inactive)
ROOT
ATOM      1  C2' OXE d   1       2.193  -2.185  -1.817  0.00  0.00     0.078 C 
ATOM      2  C1' OXE d   1       1.120  -4.497  -2.994  0.00  0.00     0.078 C 
ATOM      3  C1  OXE d   1       2.345  -4.652  -2.128  0.00  0.00    -0.078 A 
ATOM      4  C2  OXE d   1       2.891  -3.509  -1.594  0.00  0.00    -0.078 A 
ATOM      5  C3  OXE d   1       3.989  -3.602  -0.744  0.00  0.00     0.003 A 
ATOM      6  C4  OXE d   1       4.634  -4.830  -0.551  0.00  0.00    -0.002 A 
ATOM      7  C5  OXE d   1       4.118  -6.000  -1.117  0.00  0.00    -0.002 A 
ATOM      8  C6  OXE d   1       2.952  -5.935  -1.872  0.00  0.00     0.003 A 
ENDROOT
TORSDOF 0
ENDMDL
