MODEL 1
REMARK minimizedAffinity 17.8400383
REMARK minimizedRMSD -1
REMARK  0 active torsions:
REMARK  status: ('A' for Active; 'I' for Inactive)
ROOT
ATOM      1  C2' OXE d   1      -0.791  -2.491  -3.004  0.00  0.00     0.078 C 
ATOM      2  C1' OXE d   1       1.030  -0.840  -1.650  0.00  0.00     0.078 C 
ATOM      3  C1  OXE d   1       1.219  -1.026  -3.134  0.00  0.00    -0.078 A 
ATOM      4  C2  OXE d   1       0.351  -1.873  -3.781  0.00  0.00    -0.078 A 
ATOM      5  C3  OXE d   1       0.447  -2.037  -5.160  0.00  0.00     0.003 A 
ATOM      6  C4  OXE d   1       1.512  -1.469  -5.869  0.00  0.00    -0.002 A 
ATOM      7  C5  OXE d   1       2.431  -0.635  -5.223  0.00  0.00    -0.002 A 
ATOM      8  C6  OXE d   1       2.274  -0.370  -3.867  0.00  0.00     0.003 A 
ENDROOT
TORSDOF 0
ENDMDL
