MODEL 1
REMARK minimizedAffinity 21.4724083
REMARK minimizedRMSD -1
REMARK  0 active torsions:
REMARK  status: ('A' for Active; 'I' for Inactive)
ROOT
ATOM      1  C2' OXE d   1       1.663   0.004  -4.266  0.00  0.00     0.078 C 
ATOM      2  C1' OXE d   1      -0.173  -1.625  -2.904  0.00  0.00     0.078 C 
ATOM      3  C1  OXE d   1       0.922  -0.973  -2.098  0.00  0.00    -0.078 A 
ATOM      4  C2  OXE d   1       1.844  -0.215  -2.780  0.00  0.00    -0.078 A 
ATOM      5  C3  OXE d   1       2.843   0.453  -2.077  0.00  0.00     0.003 A 
ATOM      6  C4  OXE d   1       3.009   0.236  -0.704  0.00  0.00    -0.002 A 
ATOM      7  C5  OXE d   1       2.105  -0.564   0.004  0.00  0.00    -0.002 A 
ATOM      8  C6  OXE d   1       1.034  -1.140  -0.669  0.00  0.00     0.003 A 
ENDROOT
TORSDOF 0
ENDMDL
