MODEL 1
REMARK minimizedAffinity 20.2910976
REMARK minimizedRMSD -1
REMARK  0 active torsions:
REMARK  status: ('A' for Active; 'I' for Inactive)
ROOT
ATOM      1  C2' OXE d   1      -5.965   3.234   3.385  0.00  0.00     0.078 C 
ATOM      2  C1' OXE d   1      -5.070   3.726   6.000  0.00  0.00     0.078 C 
ATOM      3  C1  OXE d   1      -4.562   2.488   5.304  0.00  0.00    -0.078 A 
ATOM      4  C2  OXE d   1      -5.042   2.230   4.043  0.00  0.00    -0.078 A 
ATOM      5  C3  OXE d   1      -4.565   1.131   3.335  0.00  0.00     0.003 A 
ATOM      6  C4  OXE d   1      -3.719   0.202   3.954  0.00  0.00    -0.002 A 
ATOM      7  C5  OXE d   1      -3.250   0.425   5.253  0.00  0.00    -0.002 A 
ATOM      8  C6  OXE d   1      -3.627   1.582   5.925  0.00  0.00     0.003 A 
ENDROOT
TORSDOF 0
ENDMDL
