MODEL 1
REMARK minimizedAffinity 14.0401964
REMARK minimizedRMSD -1
REMARK  0 active torsions:
REMARK  status: ('A' for Active; 'I' for Inactive)
ROOT
ATOM      1  C2' OXE d   1      -3.721  -1.266   3.410  0.00  0.00     0.078 C 
ATOM      2  C1' OXE d   1      -4.133   1.508   3.278  0.00  0.00     0.078 C 
ATOM      3  C1  OXE d   1      -2.726   0.996   3.096  0.00  0.00    -0.078 A 
ATOM      4  C2  OXE d   1      -2.526  -0.359   3.208  0.00  0.00    -0.078 A 
ATOM      5  C3  OXE d   1      -1.257  -0.889   2.994  0.00  0.00     0.003 A 
ATOM      6  C4  OXE d   1      -0.156  -0.042   2.818  0.00  0.00    -0.002 A 
ATOM      7  C5  OXE d   1      -0.331   1.344   2.740  0.00  0.00    -0.002 A 
ATOM      8  C6  OXE d   1      -1.613   1.875   2.834  0.00  0.00     0.003 A 
ENDROOT
TORSDOF 0
ENDMDL
