MODEL 1
REMARK minimizedAffinity 12.7511024
REMARK minimizedRMSD -1
REMARK  0 active torsions:
REMARK  status: ('A' for Active; 'I' for Inactive)
ROOT
ATOM      1  C2' OXE d   1       0.868   1.106   5.989  0.00  0.00     0.078 C 
ATOM      2  C1' OXE d   1      -0.105   3.739   5.971  0.00  0.00     0.078 C 
ATOM      3  C1  OXE d   1      -1.113   2.617   5.974  0.00  0.00    -0.078 A 
ATOM      4  C2  OXE d   1      -0.628   1.332   5.936  0.00  0.00    -0.078 A 
ATOM      5  C3  OXE d   1      -1.513   0.259   5.992  0.00  0.00     0.003 A 
ATOM      6  C4  OXE d   1      -2.895   0.476   5.932  0.00  0.00    -0.002 A 
ATOM      7  C5  OXE d   1      -3.409   1.777   5.931  0.00  0.00    -0.002 A 
ATOM      8  C6  OXE d   1      -2.535   2.856   5.994  0.00  0.00     0.003 A 
ENDROOT
TORSDOF 0
ENDMDL
