MODEL 1
REMARK minimizedAffinity 19.3900471
REMARK minimizedRMSD -1
REMARK  0 active torsions:
REMARK  status: ('A' for Active; 'I' for Inactive)
ROOT
ATOM      1  C2' OXE d   1      -4.866  -2.042   1.902  0.00  0.00     0.078 C 
ATOM      2  C1' OXE d   1      -2.936  -3.937   2.655  0.00  0.00     0.078 C 
ATOM      3  C1  OXE d   1      -2.492  -2.504   2.498  0.00  0.00    -0.078 A 
ATOM      4  C2  OXE d   1      -3.432  -1.592   2.084  0.00  0.00    -0.078 A 
ATOM      5  C3  OXE d   1      -3.088  -0.248   1.975  0.00  0.00     0.003 A 
ATOM      6  C4  OXE d   1      -1.758   0.158   2.136  0.00  0.00    -0.002 A 
ATOM      7  C5  OXE d   1      -0.776  -0.761   2.519  0.00  0.00    -0.002 A 
ATOM      8  C6  OXE d   1      -1.134  -2.086   2.745  0.00  0.00     0.003 A 
ENDROOT
TORSDOF 0
ENDMDL
