MODEL 1
REMARK minimizedAffinity 14.2779884
REMARK minimizedRMSD -1
REMARK  0 active torsions:
REMARK  status: ('A' for Active; 'I' for Inactive)
ROOT
ATOM      1  C2' OXE d   1      -4.102  -0.770   1.860  0.00  0.00     0.078 C 
ATOM      2  C1' OXE d   1      -4.090   1.511   3.495  0.00  0.00     0.078 C 
ATOM      3  C1  OXE d   1      -2.760   0.974   3.028  0.00  0.00    -0.078 A 
ATOM      4  C2  OXE d   1      -2.773  -0.170   2.266  0.00  0.00    -0.078 A 
ATOM      5  C3  OXE d   1      -1.579  -0.677   1.763  0.00  0.00     0.003 A 
ATOM      6  C4  OXE d   1      -0.354  -0.122   2.153  0.00  0.00    -0.002 A 
ATOM      7  C5  OXE d   1      -0.316   1.020   2.960  0.00  0.00    -0.002 A 
ATOM      8  C6  OXE d   1      -1.509   1.604   3.370  0.00  0.00     0.003 A 
ENDROOT
TORSDOF 0
ENDMDL
