MODEL 1
REMARK minimizedAffinity 2.03765535
REMARK minimizedRMSD -1
REMARK  0 active torsions:
REMARK  status: ('A' for Active; 'I' for Inactive)
ROOT
ATOM      1  C2' OXE d   1      -2.616  -2.991  -5.999  0.00  0.00     0.078 C 
ATOM      2  C1' OXE d   1      -4.929  -4.504  -5.509  0.00  0.00     0.078 C 
ATOM      3  C1  OXE d   1      -3.725  -4.758  -4.638  0.00  0.00    -0.078 A 
ATOM      4  C2  OXE d   1      -2.582  -4.047  -4.915  0.00  0.00    -0.078 A 
ATOM      5  C3  OXE d   1      -1.459  -4.203  -4.107  0.00  0.00     0.003 A 
ATOM      6  C4  OXE d   1      -1.434  -5.189  -3.113  0.00  0.00    -0.002 A 
ATOM      7  C5  OXE d   1      -2.574  -5.952  -2.840  0.00  0.00    -0.002 A 
ATOM      8  C6  OXE d   1      -3.738  -5.720  -3.563  0.00  0.00     0.003 A 
ENDROOT
TORSDOF 0
ENDMDL
