MODEL 1
REMARK minimizedAffinity 8.02091312
REMARK minimizedRMSD -1
REMARK  0 active torsions:
REMARK  status: ('A' for Active; 'I' for Inactive)
ROOT
ATOM      1  C2' OXE d   1      -3.722   2.523   2.267  0.00  0.00     0.078 C 
ATOM      2  C1' OXE d   1      -5.719   1.070   3.602  0.00  0.00     0.078 C 
ATOM      3  C1  OXE d   1      -4.352   1.133   4.236  0.00  0.00    -0.078 A 
ATOM      4  C2  OXE d   1      -3.368   1.807   3.553  0.00  0.00    -0.078 A 
ATOM      5  C3  OXE d   1      -2.104   1.942   4.120  0.00  0.00     0.003 A 
ATOM      6  C4  OXE d   1      -1.783   1.269   5.304  0.00  0.00    -0.002 A 
ATOM      7  C5  OXE d   1      -2.759   0.544   5.996  0.00  0.00    -0.002 A 
ATOM      8  C6  OXE d   1      -4.056   0.502   5.499  0.00  0.00     0.003 A 
ENDROOT
TORSDOF 0
ENDMDL
