MODEL 1
REMARK minimizedAffinity 4.1499052
REMARK minimizedRMSD -1
REMARK  0 active torsions:
REMARK  status: ('A' for Active; 'I' for Inactive)
ROOT
ATOM      1  C2' OXE d   1       1.142   3.029  -3.405  0.00  0.00     0.078 C 
ATOM      2  C1' OXE d   1       1.066   1.024  -1.442  0.00  0.00     0.078 C 
ATOM      3  C1  OXE d   1       1.169   2.457  -0.981  0.00  0.00    -0.078 A 
ATOM      4  C2  OXE d   1       1.252   3.428  -1.949  0.00  0.00    -0.078 A 
ATOM      5  C3  OXE d   1       1.293   4.769  -1.578  0.00  0.00     0.003 A 
ATOM      6  C4  OXE d   1       1.404   5.129  -0.230  0.00  0.00    -0.002 A 
ATOM      7  C5  OXE d   1       1.361   4.153   0.771  0.00  0.00    -0.002 A 
ATOM      8  C6  OXE d   1       1.201   2.818   0.415  0.00  0.00     0.003 A 
ENDROOT
TORSDOF 0
ENDMDL
