MODEL 1
REMARK minimizedAffinity -5.25715446
REMARK minimizedRMSD -1
REMARK  0 active torsions:
REMARK  status: ('A' for Active; 'I' for Inactive)
ROOT
ATOM      1  C   UNL d   1       0.758  -1.910  -1.502  0.00  0.00     0.077 C 
ATOM      2  C1  UNL d   1       0.622  -3.333  -1.048  0.00  0.00    -0.074 A 
ATOM      3  C2  UNL d   1      -0.452  -4.123  -1.470  0.00  0.00    -0.005 A 
ATOM      4  C3  UNL d   1      -0.560  -5.448  -1.047  0.00  0.00     0.006 A 
ATOM      5  C4  UNL d   1       0.404  -5.995  -0.199  0.00  0.00    -0.005 A 
ATOM      6  C5  UNL d   1       1.486  -5.221   0.232  0.00  0.00    -0.074 A 
ATOM      7  C6  UNL d   1       2.536  -5.797   1.135  0.00  0.00     0.077 C 
ATOM      8  C7  UNL d   1       1.591  -3.892  -0.203  0.00  0.00    -0.001 A 
ENDROOT
TORSDOF 0
ENDMDL
