MODEL 1
REMARK minimizedAffinity -3.21691775
REMARK minimizedRMSD -1
REMARK  0 active torsions:
REMARK  status: ('A' for Active; 'I' for Inactive)
ROOT
ATOM      1  C   UNL d   1       0.994  -2.757  -1.029  0.00  0.00     0.077 C 
ATOM      2  C1  UNL d   1       0.665  -1.294  -1.033  0.00  0.00    -0.074 A 
ATOM      3  C2  UNL d   1       0.715  -0.548  -2.215  0.00  0.00    -0.005 A 
ATOM      4  C3  UNL d   1       0.397   0.810  -2.204  0.00  0.00     0.006 A 
ATOM      5  C4  UNL d   1       0.025   1.435  -1.013  0.00  0.00    -0.005 A 
ATOM      6  C5  UNL d   1      -0.032   0.706   0.179  0.00  0.00    -0.074 A 
ATOM      7  C6  UNL d   1      -0.439   1.360   1.466  0.00  0.00     0.077 C 
ATOM      8  C7  UNL d   1       0.283  -0.660   0.158  0.00  0.00    -0.001 A 
ENDROOT
TORSDOF 0
ENDMDL
