MODEL 1
REMARK minimizedAffinity -5.26326561
REMARK minimizedRMSD -1
REMARK  0 active torsions:
REMARK  status: ('A' for Active; 'I' for Inactive)
ROOT
ATOM      1  C   UNL d   1      -0.380   2.648  -2.885  0.00  0.00     0.077 C 
ATOM      2  C1  UNL d   1      -0.312   1.970  -1.549  0.00  0.00    -0.074 A 
ATOM      3  C2  UNL d   1       0.351   0.748  -1.396  0.00  0.00    -0.005 A 
ATOM      4  C3  UNL d   1       0.414   0.134  -0.145  0.00  0.00     0.006 A 
ATOM      5  C4  UNL d   1      -0.184   0.735   0.963  0.00  0.00    -0.005 A 
ATOM      6  C5  UNL d   1      -0.851   1.957   0.830  0.00  0.00    -0.074 A 
ATOM      7  C6  UNL d   1      -1.490   2.621   2.013  0.00  0.00     0.077 C 
ATOM      8  C7  UNL d   1      -0.904   2.571  -0.429  0.00  0.00    -0.001 A 
ENDROOT
TORSDOF 0
ENDMDL
