MODEL 1
REMARK minimizedAffinity -2.51367593
REMARK minimizedRMSD -1
REMARK  0 active torsions:
REMARK  status: ('A' for Active; 'I' for Inactive)
ROOT
ATOM      1  C   UNL d   1       0.342  -1.071  -0.754  0.00  0.00     0.077 C 
ATOM      2  C1  UNL d   1       0.269  -2.561  -0.900  0.00  0.00    -0.074 A 
ATOM      3  C2  UNL d   1      -0.583  -3.151  -1.840  0.00  0.00    -0.005 A 
ATOM      4  C3  UNL d   1      -0.633  -4.539  -1.971  0.00  0.00     0.006 A 
ATOM      5  C4  UNL d   1       0.166  -5.350  -1.165  0.00  0.00    -0.005 A 
ATOM      6  C5  UNL d   1       1.024  -4.778  -0.220  0.00  0.00    -0.074 A 
ATOM      7  C6  UNL d   1       1.897  -5.635   0.648  0.00  0.00     0.077 C 
ATOM      8  C7  UNL d   1       1.074  -3.383  -0.099  0.00  0.00    -0.001 A 
ENDROOT
TORSDOF 0
ENDMDL
