MODEL 1
REMARK minimizedAffinity -3.6343987
REMARK minimizedRMSD -1
REMARK  0 active torsions:
REMARK  status: ('A' for Active; 'I' for Inactive)
ROOT
ATOM      1  C   UNL d   1      -0.636   1.685   1.633  0.00  0.00     0.077 C 
ATOM      2  C1  UNL d   1      -0.225   1.099   0.315  0.00  0.00    -0.074 A 
ATOM      3  C2  UNL d   1      -0.189   1.885  -0.841  0.00  0.00    -0.005 A 
ATOM      4  C3  UNL d   1       0.204   1.329  -2.058  0.00  0.00     0.006 A 
ATOM      5  C4  UNL d   1       0.566  -0.017  -2.131  0.00  0.00    -0.005 A 
ATOM      6  C5  UNL d   1       0.537  -0.818  -0.985  0.00  0.00    -0.074 A 
ATOM      7  C6  UNL d   1       0.932  -2.264  -1.044  0.00  0.00     0.077 C 
ATOM      8  C7  UNL d   1       0.148  -0.250   0.235  0.00  0.00    -0.001 A 
ENDROOT
TORSDOF 0
ENDMDL
