MODEL 1
REMARK minimizedAffinity -2.96527195
REMARK minimizedRMSD -1
REMARK  0 active torsions:
REMARK  status: ('A' for Active; 'I' for Inactive)
ROOT
ATOM      1  C   UNL d   1       0.428  -2.332  -0.729  0.00  0.00     0.077 C 
ATOM      2  C1  UNL d   1       0.383  -0.833  -0.687  0.00  0.00    -0.074 A 
ATOM      3  C2  UNL d   1       0.792  -0.071  -1.786  0.00  0.00    -0.005 A 
ATOM      4  C3  UNL d   1       0.736   1.322  -1.736  0.00  0.00     0.006 A 
ATOM      5  C4  UNL d   1       0.271   1.965  -0.588  0.00  0.00    -0.005 A 
ATOM      6  C5  UNL d   1      -0.144   1.220   0.520  0.00  0.00    -0.074 A 
ATOM      7  C6  UNL d   1      -0.656   1.895   1.757  0.00  0.00     0.077 C 
ATOM      8  C7  UNL d   1      -0.091  -0.180   0.459  0.00  0.00    -0.001 A 
ENDROOT
TORSDOF 0
ENDMDL
