MODEL 1
REMARK minimizedAffinity 1.80002892
REMARK minimizedRMSD -1
REMARK  0 active torsions:
REMARK  status: ('A' for Active; 'I' for Inactive)
ROOT
ATOM      1  C   UNL d   1       0.876   1.550   2.344  0.00  0.00     0.077 C 
ATOM      2  C1  UNL d   1       0.334   0.959   1.076  0.00  0.00    -0.074 A 
ATOM      3  C2  UNL d   1      -0.257  -0.308   1.068  0.00  0.00    -0.005 A 
ATOM      4  C3  UNL d   1      -0.765  -0.841  -0.117  0.00  0.00     0.006 A 
ATOM      5  C4  UNL d   1      -0.687  -0.112  -1.304  0.00  0.00    -0.005 A 
ATOM      6  C5  UNL d   1      -0.100   1.157  -1.316  0.00  0.00    -0.074 A 
ATOM      7  C6  UNL d   1      -0.017   1.958  -2.582  0.00  0.00     0.077 C 
ATOM      8  C7  UNL d   1       0.402   1.688  -0.120  0.00  0.00    -0.001 A 
ENDROOT
TORSDOF 0
ENDMDL
