MODEL 1
REMARK minimizedAffinity -1.7656194
REMARK minimizedRMSD -1
REMARK  0 active torsions:
REMARK  status: ('A' for Active; 'I' for Inactive)
ROOT
ATOM      1  C   UNL d   1      -0.291  -1.499   4.116  0.00  0.00     0.172 C 
ATOM      2  N   UNL d   1       0.861  -1.087   4.882  0.00  0.00    -0.070 N 
ATOM      3  C1  UNL d   1       1.875  -1.907   5.302  0.00  0.00    -0.004 A 
ATOM      4  C2  UNL d   1       2.779  -1.135   6.000  0.00  0.00    -0.047 A 
ATOM      5  C3  UNL d   1       2.292   0.193   6.000  0.00  0.00    -0.047 A 
ATOM      6  C4  UNL d   1       1.103   0.194   5.301  0.00  0.00    -0.004 A 
ENDROOT
TORSDOF 0
ENDMDL
