MODEL 1
REMARK minimizedAffinity 4.5835371
REMARK minimizedRMSD -1
REMARK  0 active torsions:
REMARK  status: ('A' for Active; 'I' for Inactive)
ROOT
ATOM      1  C   UNL d   1       2.553  -0.038  -0.331  0.00  0.00     0.172 C 
ATOM      2  N   UNL d   1       1.599   0.170   0.733  0.00  0.00    -0.070 N 
ATOM      3  C1  UNL d   1       0.250  -0.047   0.650  0.00  0.00    -0.004 A 
ATOM      4  C2  UNL d   1      -0.305   0.267   1.872  0.00  0.00    -0.047 A 
ATOM      5  C3  UNL d   1       0.748   0.688   2.719  0.00  0.00    -0.047 A 
ATOM      6  C4  UNL d   1       1.915   0.618   1.989  0.00  0.00    -0.004 A 
ENDROOT
TORSDOF 0
ENDMDL
