MODEL 1
REMARK minimizedAffinity 2.14219117
REMARK minimizedRMSD -1
REMARK  0 active torsions:
REMARK  status: ('A' for Active; 'I' for Inactive)
ROOT
ATOM      1  C   UNL d   1       0.828   4.899   1.595  0.00  0.00     0.172 C 
ATOM      2  N   UNL d   1      -0.473   5.346   1.155  0.00  0.00    -0.070 N 
ATOM      3  C1  UNL d   1      -0.836   5.590  -0.143  0.00  0.00    -0.004 A 
ATOM      4  C2  UNL d   1      -2.152   5.997  -0.143  0.00  0.00    -0.047 A 
ATOM      5  C3  UNL d   1      -2.596   5.999   1.201  0.00  0.00    -0.047 A 
ATOM      6  C4  UNL d   1      -1.536   5.592   1.983  0.00  0.00    -0.004 A 
ENDROOT
TORSDOF 0
ENDMDL
