MODEL 1
REMARK minimizedAffinity -1.83464706
REMARK minimizedRMSD -1
REMARK  0 active torsions:
REMARK  status: ('A' for Active; 'I' for Inactive)
ROOT
ATOM      1  C   UNL d   1      -2.744  -0.737  -0.468  0.00  0.00     0.172 C 
ATOM      2  N   UNL d   1      -1.422  -0.723   0.113  0.00  0.00    -0.070 N 
ATOM      3  C1  UNL d   1      -1.089  -0.184   1.327  0.00  0.00    -0.004 A 
ATOM      4  C2  UNL d   1       0.263  -0.372   1.517  0.00  0.00    -0.047 A 
ATOM      5  C3  UNL d   1       0.760  -1.046   0.376  0.00  0.00    -0.047 A 
ATOM      6  C4  UNL d   1      -0.304  -1.251  -0.477  0.00  0.00    -0.004 A 
ENDROOT
TORSDOF 0
ENDMDL
