MODEL 1
REMARK minimizedAffinity 6.34051418
REMARK minimizedRMSD -1
REMARK  0 active torsions:
REMARK  status: ('A' for Active; 'I' for Inactive)
ROOT
ATOM      1  C   UNL d   1      -2.361   0.163   0.492  0.00  0.00     0.172 C 
ATOM      2  N   UNL d   1      -0.929  -0.012   0.440  0.00  0.00    -0.070 N 
ATOM      3  C1  UNL d   1      -0.039   0.397   1.396  0.00  0.00    -0.004 A 
ATOM      4  C2  UNL d   1       1.225   0.046   0.975  0.00  0.00    -0.047 A 
ATOM      5  C3  UNL d   1       1.090  -0.596  -0.278  0.00  0.00    -0.047 A 
ATOM      6  C4  UNL d   1      -0.254  -0.619  -0.586  0.00  0.00    -0.004 A 
ENDROOT
TORSDOF 0
ENDMDL
