MODEL 1
REMARK minimizedAffinity -0.0274101049
REMARK minimizedRMSD -1
REMARK  0 active torsions:
REMARK  status: ('A' for Active; 'I' for Inactive)
ROOT
ATOM      1  C   UNL d   1      -2.086  -0.260  -0.322  0.00  0.00     0.172 C 
ATOM      2  N   UNL d   1      -1.173   0.074   0.746  0.00  0.00    -0.070 N 
ATOM      3  C1  UNL d   1      -1.475   0.828   1.848  0.00  0.00    -0.004 A 
ATOM      4  C2  UNL d   1      -0.339   0.915   2.624  0.00  0.00    -0.047 A 
ATOM      5  C3  UNL d   1       0.681   0.189   1.965  0.00  0.00    -0.047 A 
ATOM      6  C4  UNL d   1       0.138  -0.321   0.805  0.00  0.00    -0.004 A 
ENDROOT
TORSDOF 0
ENDMDL
