MODEL 1
REMARK minimizedAffinity -0.206990823
REMARK minimizedRMSD -1
REMARK  0 active torsions:
REMARK  status: ('A' for Active; 'I' for Inactive)
ROOT
ATOM      1  C   UNL d   1      -2.110  -0.037   2.262  0.00  0.00     0.172 C 
ATOM      2  N   UNL d   1      -0.809   0.568   2.429  0.00  0.00    -0.070 N 
ATOM      3  C1  UNL d   1       0.393  -0.073   2.292  0.00  0.00    -0.004 A 
ATOM      4  C2  UNL d   1       1.391   0.847   2.530  0.00  0.00    -0.047 A 
ATOM      5  C3  UNL d   1       0.767   2.084   2.820  0.00  0.00    -0.047 A 
ATOM      6  C4  UNL d   1      -0.595   1.883   2.750  0.00  0.00    -0.004 A 
ENDROOT
TORSDOF 0
ENDMDL
