MODEL 1
REMARK minimizedAffinity -1.52037203
REMARK minimizedRMSD -1
REMARK  0 active torsions:
REMARK  status: ('A' for Active; 'I' for Inactive)
ROOT
ATOM      1  C   UNL d   1       2.847   3.760  -3.860  0.00  0.00     0.023 A 
ATOM      2  C1  UNL d   1       1.947   2.897  -4.484  0.00  0.00     0.003 A 
ATOM      3  C2  UNL d   1       1.400   1.825  -3.776  0.00  0.00     0.048 A 
ATOM      4  C3  UNL d   1       1.756   1.623  -2.443  0.00  0.00     0.023 A 
ATOM      5  C4  UNL d   1       2.655   2.485  -1.813  0.00  0.00     0.048 A 
ATOM      6  C5  UNL d   1       3.201   3.555  -2.526  0.00  0.00     0.003 A 
ATOM      7  I   UNL d   1       0.942   0.029  -1.386  0.00  0.00    -0.146 I 
ENDROOT
TORSDOF 0
ENDMDL
