MODEL 1
REMARK minimizedAffinity 6.14300489
REMARK minimizedRMSD -1
REMARK  0 active torsions:
REMARK  status: ('A' for Active; 'I' for Inactive)
ROOT
ATOM      1  C   UNL d   1      -0.747  -1.910  -0.226  0.00  0.00     0.023 A 
ATOM      2  C1  UNL d   1      -1.268  -0.906  -1.043  0.00  0.00     0.003 A 
ATOM      3  C2  UNL d   1      -0.606   0.318  -1.154  0.00  0.00     0.048 A 
ATOM      4  C3  UNL d   1       0.577   0.532  -0.447  0.00  0.00     0.023 A 
ATOM      5  C4  UNL d   1       1.102  -0.470   0.370  0.00  0.00     0.048 A 
ATOM      6  C5  UNL d   1       0.436  -1.692   0.480  0.00  0.00     0.003 A 
ATOM      7  I   UNL d   1       1.564   2.354  -0.612  0.00  0.00    -0.146 I 
ENDROOT
TORSDOF 0
ENDMDL
