MODEL 1
REMARK minimizedAffinity -0.997662604
REMARK minimizedRMSD -1
REMARK  0 active torsions:
REMARK  status: ('A' for Active; 'I' for Inactive)
ROOT
ATOM      1  C   UNL d   1       5.997  -1.571  -5.734  0.00  0.00     0.023 A 
ATOM      2  C1  UNL d   1       5.998  -2.030  -4.417  0.00  0.00     0.003 A 
ATOM      3  C2  UNL d   1       5.997  -1.120  -3.358  0.00  0.00     0.048 A 
ATOM      4  C3  UNL d   1       5.995   0.249  -3.624  0.00  0.00     0.023 A 
ATOM      5  C4  UNL d   1       5.993   0.714  -4.940  0.00  0.00     0.048 A 
ATOM      6  C5  UNL d   1       5.994  -0.200  -5.995  0.00  0.00     0.003 A 
ATOM      7  I   UNL d   1       5.994   1.607  -2.050  0.00  0.00    -0.146 I 
ENDROOT
TORSDOF 0
ENDMDL
