MODEL 1
REMARK minimizedAffinity 13.2220984
REMARK minimizedRMSD -1
REMARK  0 active torsions:
REMARK  status: ('A' for Active; 'I' for Inactive)
ROOT
ATOM      1  C   UNL d   1      -1.037  -5.232   1.230  0.00  0.00     0.023 A 
ATOM      2  C1  UNL d   1      -1.374  -3.923   0.886  0.00  0.00     0.003 A 
ATOM      3  C2  UNL d   1      -0.389  -2.933   0.851  0.00  0.00     0.048 A 
ATOM      4  C3  UNL d   1       0.931  -3.260   1.160  0.00  0.00     0.023 A 
ATOM      5  C4  UNL d   1       1.273  -4.569   1.503  0.00  0.00     0.048 A 
ATOM      6  C5  UNL d   1       0.285  -5.555   1.538  0.00  0.00     0.003 A 
ATOM      7  I   UNL d   1       2.399  -1.790   1.108  0.00  0.00    -0.146 I 
ENDROOT
TORSDOF 0
ENDMDL
