MODEL 1
REMARK minimizedAffinity 11.1963568
REMARK minimizedRMSD -1
REMARK  0 active torsions:
REMARK  status: ('A' for Active; 'I' for Inactive)
ROOT
ATOM      1  C   UNL d   1       1.913   2.707  -0.545  0.00  0.00     0.023 A 
ATOM      2  C1  UNL d   1       3.239   2.431  -0.878  0.00  0.00     0.003 A 
ATOM      3  C2  UNL d   1       3.719   2.740  -2.153  0.00  0.00     0.048 A 
ATOM      4  C3  UNL d   1       2.867   3.326  -3.089  0.00  0.00     0.023 A 
ATOM      5  C4  UNL d   1       1.540   3.604  -2.759  0.00  0.00     0.048 A 
ATOM      6  C5  UNL d   1       1.064   3.293  -1.484  0.00  0.00     0.003 A 
ATOM      7  I   UNL d   1       3.579   3.787  -4.986  0.00  0.00    -0.146 I 
ENDROOT
TORSDOF 0
ENDMDL
