MODEL 1
REMARK minimizedAffinity 8.6562109
REMARK minimizedRMSD -1
REMARK  0 active torsions:
REMARK  status: ('A' for Active; 'I' for Inactive)
ROOT
ATOM      1  C   UNL d   1       0.139  -1.505   0.171  0.00  0.00     0.023 A 
ATOM      2  C1  UNL d   1      -0.842  -2.478   0.364  0.00  0.00     0.003 A 
ATOM      3  C2  UNL d   1      -0.479  -3.768   0.754  0.00  0.00     0.048 A 
ATOM      4  C3  UNL d   1       0.866  -4.079   0.950  0.00  0.00     0.023 A 
ATOM      5  C4  UNL d   1       1.851  -3.109   0.758  0.00  0.00     0.048 A 
ATOM      6  C5  UNL d   1       1.483  -1.820   0.367  0.00  0.00     0.003 A 
ATOM      7  I   UNL d   1       1.408  -6.000   1.531  0.00  0.00    -0.146 I 
ENDROOT
TORSDOF 0
ENDMDL
