MODEL 1
REMARK minimizedAffinity -0.0645485073
REMARK minimizedRMSD -1
REMARK  0 active torsions:
REMARK  status: ('A' for Active; 'I' for Inactive)
ROOT
ATOM      1  C   UNL d   1       5.957   1.347  -3.207  0.00  0.00     0.023 A 
ATOM      2  C1  UNL d   1       5.958   1.470  -4.596  0.00  0.00     0.003 A 
ATOM      3  C2  UNL d   1       5.944   0.327  -5.399  0.00  0.00     0.048 A 
ATOM      4  C3  UNL d   1       5.928  -0.935  -4.806  0.00  0.00     0.023 A 
ATOM      5  C4  UNL d   1       5.926  -1.062  -3.416  0.00  0.00     0.048 A 
ATOM      6  C5  UNL d   1       5.941   0.082  -2.617  0.00  0.00     0.003 A 
ATOM      7  I   UNL d   1       5.907  -2.636  -6.000  0.00  0.00    -0.146 I 
ENDROOT
TORSDOF 0
ENDMDL
