MODEL 1
REMARK minimizedAffinity 3.46177793
REMARK minimizedRMSD -1
REMARK  0 active torsions:
REMARK  status: ('A' for Active; 'I' for Inactive)
ROOT
ATOM      1  C   UNL d   1       1.512  -0.257  -4.237  0.00  0.00     0.023 A 
ATOM      2  C1  UNL d   1       2.552  -0.227  -3.309  0.00  0.00     0.003 A 
ATOM      3  C2  UNL d   1       3.841   0.125  -3.714  0.00  0.00     0.048 A 
ATOM      4  C3  UNL d   1       4.082   0.448  -5.049  0.00  0.00     0.023 A 
ATOM      5  C4  UNL d   1       3.044   0.421  -5.981  0.00  0.00     0.048 A 
ATOM      6  C5  UNL d   1       1.757   0.066  -5.572  0.00  0.00     0.003 A 
ATOM      7  I   UNL d   1       5.999   0.974  -5.655  0.00  0.00    -0.146 I 
ENDROOT
TORSDOF 0
ENDMDL
