MODEL 1
REMARK minimizedAffinity 5.57698298
REMARK minimizedRMSD -1
REMARK  0 active torsions:
REMARK  status: ('A' for Active; 'I' for Inactive)
ROOT
ATOM      1  C   UNL d   1       1.895   3.365  -5.217  0.00  0.00     0.023 A 
ATOM      2  C1  UNL d   1       1.965   2.022  -4.845  0.00  0.00     0.003 A 
ATOM      3  C2  UNL d   1       3.142   1.300  -5.050  0.00  0.00     0.048 A 
ATOM      4  C3  UNL d   1       4.246   1.926  -5.627  0.00  0.00     0.023 A 
ATOM      5  C4  UNL d   1       4.182   3.270  -6.000  0.00  0.00     0.048 A 
ATOM      6  C5  UNL d   1       3.002   3.988  -5.793  0.00  0.00     0.003 A 
ATOM      7  I   UNL d   1       6.000   0.853  -5.933  0.00  0.00    -0.146 I 
ENDROOT
TORSDOF 0
ENDMDL
