MODEL 1
REMARK minimizedAffinity 2.90770221
REMARK minimizedRMSD -1
REMARK  0 active torsions:
REMARK  status: ('A' for Active; 'I' for Inactive)
ROOT
ATOM      1  C   UNL d   1       1.245  -1.833  -2.511  0.00  0.00     0.023 A 
ATOM      2  C1  UNL d   1       1.094  -1.804  -1.125  0.00  0.00     0.003 A 
ATOM      3  C2  UNL d   1       1.055  -0.582  -0.451  0.00  0.00     0.048 A 
ATOM      4  C3  UNL d   1       1.166   0.608  -1.170  0.00  0.00     0.023 A 
ATOM      5  C4  UNL d   1       1.316   0.584  -2.557  0.00  0.00     0.048 A 
ATOM      6  C5  UNL d   1       1.356  -0.641  -3.226  0.00  0.00     0.003 A 
ATOM      7  I   UNL d   1       1.108   2.429  -0.169  0.00  0.00    -0.146 I 
ENDROOT
TORSDOF 0
ENDMDL
