MODEL 1
REMARK minimizedAffinity 3.23139834
REMARK minimizedRMSD -1
REMARK  0 active torsions:
REMARK  status: ('A' for Active; 'I' for Inactive)
ROOT
ATOM      1  C   UNL d   1       0.810   1.857  -1.016  0.00  0.00     0.023 A 
ATOM      2  C1  UNL d   1       0.721   0.617  -0.383  0.00  0.00     0.003 A 
ATOM      3  C2  UNL d   1       0.829  -0.559  -1.128  0.00  0.00     0.048 A 
ATOM      4  C3  UNL d   1       1.027  -0.487  -2.507  0.00  0.00     0.023 A 
ATOM      5  C4  UNL d   1       1.118   0.751  -3.144  0.00  0.00     0.048 A 
ATOM      6  C5  UNL d   1       1.008   1.924  -2.395  0.00  0.00     0.003 A 
ATOM      7  I   UNL d   1       1.189  -2.236  -3.619  0.00  0.00    -0.146 I 
ENDROOT
TORSDOF 0
ENDMDL
