MODEL 1
REMARK minimizedAffinity 9.01209068
REMARK minimizedRMSD -1
REMARK  0 active torsions:
REMARK  status: ('A' for Active; 'I' for Inactive)
ROOT
ATOM      1  C   UNL d   1      -4.628  -0.121   4.148  0.00  0.00     0.023 A 
ATOM      2  C1  UNL d   1      -3.828  -1.005   4.872  0.00  0.00     0.003 A 
ATOM      3  C2  UNL d   1      -4.112  -2.373   4.863  0.00  0.00     0.048 A 
ATOM      4  C3  UNL d   1      -5.197  -2.849   4.127  0.00  0.00     0.023 A 
ATOM      5  C4  UNL d   1      -6.000  -1.967   3.401  0.00  0.00     0.048 A 
ATOM      6  C5  UNL d   1      -5.712  -0.601   3.414  0.00  0.00     0.003 A 
ATOM      7  I   UNL d   1      -5.621  -4.883   4.112  0.00  0.00    -0.146 I 
ENDROOT
TORSDOF 0
ENDMDL
