MODEL 1
REMARK minimizedAffinity -3.61055398
REMARK minimizedRMSD -1
REMARK  0 active torsions:
REMARK  status: ('A' for Active; 'I' for Inactive)
ROOT
ATOM      1  C   UNL d   1       2.286   3.539   0.700  0.00  0.00     0.078 C 
ATOM      2  C1  UNL d   1       1.440   2.302   0.630  0.00  0.00    -0.077 A 
ATOM      3  C2  UNL d   1       2.024   1.035   0.506  0.00  0.00    -0.001 A 
ATOM      4  C3  UNL d   1       1.225  -0.106   0.432  0.00  0.00     0.003 A 
ATOM      5  C4  UNL d   1      -0.163   0.007   0.479  0.00  0.00    -0.005 A 
ATOM      6  C5  UNL d   1      -0.753   1.264   0.600  0.00  0.00     0.003 A 
ATOM      7  C6  UNL d   1       0.045   2.407   0.675  0.00  0.00    -0.001 A 
ENDROOT
TORSDOF 0
ENDMDL
