MODEL 1
REMARK minimizedAffinity -0.979706883
REMARK minimizedRMSD -1
REMARK  0 active torsions:
REMARK  status: ('A' for Active; 'I' for Inactive)
ROOT
ATOM      1  C   UNL d   1       0.382  -0.004   0.325  0.00  0.00     0.078 C 
ATOM      2  C1  UNL d   1      -0.032  -1.298  -0.308  0.00  0.00    -0.077 A 
ATOM      3  C2  UNL d   1      -0.850  -2.207   0.377  0.00  0.00    -0.001 A 
ATOM      4  C3  UNL d   1      -1.220  -3.412  -0.221  0.00  0.00     0.003 A 
ATOM      5  C4  UNL d   1      -0.776  -3.722  -1.505  0.00  0.00    -0.005 A 
ATOM      6  C5  UNL d   1       0.039  -2.825  -2.193  0.00  0.00     0.003 A 
ATOM      7  C6  UNL d   1       0.410  -1.619  -1.597  0.00  0.00    -0.001 A 
ENDROOT
TORSDOF 0
ENDMDL
