MODEL 1
REMARK minimizedAffinity -5.60780144
REMARK minimizedRMSD -1
REMARK  0 active torsions:
REMARK  status: ('A' for Active; 'I' for Inactive)
ROOT
ATOM      1  C   UNL d   1      -0.154  -1.025   0.451  0.00  0.00     0.078 C 
ATOM      2  C1  UNL d   1       0.103   0.438   0.246  0.00  0.00    -0.077 A 
ATOM      3  C2  UNL d   1       1.408   0.944   0.217  0.00  0.00    -0.001 A 
ATOM      4  C3  UNL d   1       1.631   2.310   0.035  0.00  0.00     0.003 A 
ATOM      5  C4  UNL d   1       0.555   3.181  -0.119  0.00  0.00    -0.005 A 
ATOM      6  C5  UNL d   1      -0.748   2.686  -0.090  0.00  0.00     0.003 A 
ATOM      7  C6  UNL d   1      -0.973   1.321   0.092  0.00  0.00    -0.001 A 
ENDROOT
TORSDOF 0
ENDMDL
