MODEL 1
REMARK minimizedAffinity -5.11663198
REMARK minimizedRMSD -1
REMARK  0 active torsions:
REMARK  status: ('A' for Active; 'I' for Inactive)
ROOT
ATOM      1  C   UNL d   1       0.038  -1.576  -0.434  0.00  0.00     0.078 C 
ATOM      2  C1  UNL d   1       0.344  -0.186   0.037  0.00  0.00    -0.077 A 
ATOM      3  C2  UNL d   1       1.649   0.189   0.379  0.00  0.00    -0.001 A 
ATOM      4  C3  UNL d   1       1.918   1.483   0.825  0.00  0.00     0.003 A 
ATOM      5  C4  UNL d   1       0.887   2.414   0.934  0.00  0.00    -0.005 A 
ATOM      6  C5  UNL d   1      -0.416   2.050   0.598  0.00  0.00     0.003 A 
ATOM      7  C6  UNL d   1      -0.686   0.756   0.152  0.00  0.00    -0.001 A 
ENDROOT
TORSDOF 0
ENDMDL
