MODEL 1
REMARK minimizedAffinity -5.18893909
REMARK minimizedRMSD -1
REMARK  0 active torsions:
REMARK  status: ('A' for Active; 'I' for Inactive)
ROOT
ATOM      1  C   UNL d   1      -0.755  -1.685   0.345  0.00  0.00     0.078 C 
ATOM      2  C1  UNL d   1      -0.538  -0.201   0.318  0.00  0.00    -0.077 A 
ATOM      3  C2  UNL d   1      -1.618   0.687   0.376  0.00  0.00    -0.001 A 
ATOM      4  C3  UNL d   1      -1.401   2.066   0.340  0.00  0.00     0.003 A 
ATOM      5  C4  UNL d   1      -0.105   2.568   0.244  0.00  0.00    -0.005 A 
ATOM      6  C5  UNL d   1       0.977   1.691   0.183  0.00  0.00     0.003 A 
ATOM      7  C6  UNL d   1       0.762   0.312   0.219  0.00  0.00    -0.001 A 
ENDROOT
TORSDOF 0
ENDMDL
