MODEL 1
REMARK minimizedAffinity -4.75104523
REMARK minimizedRMSD -1
REMARK  0 active torsions:
REMARK  status: ('A' for Active; 'I' for Inactive)
ROOT
ATOM      1  C   UNL d   1      -0.527  -0.033  -0.148  0.00  0.00     0.078 C 
ATOM      2  C1  UNL d   1       0.270   1.225   0.030  0.00  0.00    -0.077 A 
ATOM      3  C2  UNL d   1       1.542   1.359  -0.540  0.00  0.00    -0.001 A 
ATOM      4  C3  UNL d   1       2.276   2.532  -0.359  0.00  0.00     0.003 A 
ATOM      5  C4  UNL d   1       1.748   3.579   0.394  0.00  0.00    -0.005 A 
ATOM      6  C5  UNL d   1       0.484   3.454   0.967  0.00  0.00     0.003 A 
ATOM      7  C6  UNL d   1      -0.252   2.282   0.786  0.00  0.00    -0.001 A 
ENDROOT
TORSDOF 0
ENDMDL
