MODEL 1
REMARK minimizedAffinity -5.81566572
REMARK minimizedRMSD -1
REMARK  0 active torsions:
REMARK  status: ('A' for Active; 'I' for Inactive)
ROOT
ATOM      1  C   UNL d   1       2.739   1.502   0.393  0.00  0.00     0.078 C 
ATOM      2  C1  UNL d   1       1.255   1.372   0.225  0.00  0.00    -0.077 A 
ATOM      3  C2  UNL d   1       0.432   2.505   0.182  0.00  0.00    -0.001 A 
ATOM      4  C3  UNL d   1      -0.949   2.369   0.034  0.00  0.00     0.003 A 
ATOM      5  C4  UNL d   1      -1.520   1.102  -0.071  0.00  0.00    -0.005 A 
ATOM      6  C5  UNL d   1      -0.710  -0.031  -0.027  0.00  0.00     0.003 A 
ATOM      7  C6  UNL d   1       0.672   0.103   0.121  0.00  0.00    -0.001 A 
ENDROOT
TORSDOF 0
ENDMDL
