MODEL 1
REMARK minimizedAffinity -4.82009745
REMARK minimizedRMSD -1
REMARK  0 active torsions:
REMARK  status: ('A' for Active; 'I' for Inactive)
ROOT
ATOM      1  C   UNL d   1       2.793   2.850   1.511  0.00  0.00     0.078 C 
ATOM      2  C1  UNL d   1       1.549   2.155   1.045  0.00  0.00    -0.077 A 
ATOM      3  C2  UNL d   1       0.370   2.872   0.803  0.00  0.00    -0.001 A 
ATOM      4  C3  UNL d   1      -0.784   2.211   0.379  0.00  0.00     0.003 A 
ATOM      5  C4  UNL d   1      -0.770   0.830   0.193  0.00  0.00    -0.005 A 
ATOM      6  C5  UNL d   1       0.397   0.108   0.433  0.00  0.00     0.003 A 
ATOM      7  C6  UNL d   1       1.552   0.768   0.858  0.00  0.00    -0.001 A 
ENDROOT
TORSDOF 0
ENDMDL
