MODEL 1
REMARK minimizedAffinity -3.05094838
REMARK minimizedRMSD -1
REMARK  0 active torsions:
REMARK  status: ('A' for Active; 'I' for Inactive)
ROOT
ATOM      1  C   UNL d   1       1.669  -0.741   0.003  0.00  0.00     0.078 C 
ATOM      2  C1  UNL d   1       0.292  -0.203   0.257  0.00  0.00    -0.077 A 
ATOM      3  C2  UNL d   1      -0.015   1.140   0.006  0.00  0.00    -0.001 A 
ATOM      4  C3  UNL d   1      -1.298   1.629   0.255  0.00  0.00     0.003 A 
ATOM      5  C4  UNL d   1      -2.284   0.783   0.759  0.00  0.00    -0.005 A 
ATOM      6  C5  UNL d   1      -1.987  -0.555   1.014  0.00  0.00     0.003 A 
ATOM      7  C6  UNL d   1      -0.704  -1.045   0.765  0.00  0.00    -0.001 A 
ENDROOT
TORSDOF 0
ENDMDL
