MODEL 1
REMARK minimizedAffinity -4.27976847
REMARK minimizedRMSD -1
REMARK  0 active torsions:
REMARK  status: ('A' for Active; 'I' for Inactive)
ROOT
ATOM      1  C   UNL d   1      -0.084   2.807   0.849  0.00  0.00     0.078 C 
ATOM      2  C1  UNL d   1      -0.143   1.313   0.730  0.00  0.00    -0.077 A 
ATOM      3  C2  UNL d   1      -1.325   0.614   1.006  0.00  0.00    -0.001 A 
ATOM      4  C3  UNL d   1      -1.363  -0.777   0.900  0.00  0.00     0.003 A 
ATOM      5  C4  UNL d   1      -0.223  -1.481   0.518  0.00  0.00    -0.005 A 
ATOM      6  C5  UNL d   1       0.958  -0.795   0.243  0.00  0.00     0.003 A 
ATOM      7  C6  UNL d   1       0.998   0.597   0.348  0.00  0.00    -0.001 A 
ENDROOT
TORSDOF 0
ENDMDL
