MODEL 1
REMARK minimizedAffinity -5.51317406
REMARK minimizedRMSD -1
REMARK  0 active torsions:
REMARK  status: ('A' for Active; 'I' for Inactive)
ROOT
ATOM      1  C   UNL d   1       0.022  -0.944  -0.633  0.00  0.00     0.078 C 
ATOM      2  C1  UNL d   1       0.142   0.521  -0.338  0.00  0.00    -0.077 A 
ATOM      3  C2  UNL d   1      -0.972   1.271   0.058  0.00  0.00    -0.001 A 
ATOM      4  C3  UNL d   1      -0.847   2.636   0.321  0.00  0.00     0.003 A 
ATOM      5  C4  UNL d   1       0.390   3.264   0.189  0.00  0.00    -0.005 A 
ATOM      6  C5  UNL d   1       1.504   2.527  -0.206  0.00  0.00     0.003 A 
ATOM      7  C6  UNL d   1       1.381   1.161  -0.469  0.00  0.00    -0.001 A 
ENDROOT
TORSDOF 0
ENDMDL
