MODEL 1
REMARK minimizedAffinity -3.75531673
REMARK minimizedRMSD -1
REMARK  0 active torsions:
REMARK  status: ('A' for Active; 'I' for Inactive)
ROOT
ATOM      1  C   UNL d   1      -0.385  -0.202  -0.039  0.00  0.00     0.078 C 
ATOM      2  C1  UNL d   1       0.321   0.947   0.617  0.00  0.00    -0.077 A 
ATOM      3  C2  UNL d   1      -0.383   2.083   1.034  0.00  0.00    -0.001 A 
ATOM      4  C3  UNL d   1       0.289   3.149   1.634  0.00  0.00     0.003 A 
ATOM      5  C4  UNL d   1       1.668   3.091   1.820  0.00  0.00    -0.005 A 
ATOM      6  C5  UNL d   1       2.378   1.966   1.406  0.00  0.00     0.003 A 
ATOM      7  C6  UNL d   1       1.708   0.899   0.806  0.00  0.00    -0.001 A 
ENDROOT
TORSDOF 0
ENDMDL
