MODEL 1
REMARK minimizedAffinity -5.09810638
REMARK minimizedRMSD -1
REMARK  0 active torsions:
REMARK  status: ('A' for Active; 'I' for Inactive)
ROOT
ATOM      1  C   UNL d   1       0.380   3.894   0.664  0.00  0.00     0.078 C 
ATOM      2  C1  UNL d   1       0.894   2.486   0.675  0.00  0.00    -0.077 A 
ATOM      3  C2  UNL d   1       2.220   2.205   1.023  0.00  0.00    -0.001 A 
ATOM      4  C3  UNL d   1       2.688   0.889   1.020  0.00  0.00     0.003 A 
ATOM      5  C4  UNL d   1       1.835  -0.155   0.667  0.00  0.00    -0.005 A 
ATOM      6  C5  UNL d   1       0.514   0.115   0.316  0.00  0.00     0.003 A 
ATOM      7  C6  UNL d   1       0.045   1.430   0.319  0.00  0.00    -0.001 A 
ENDROOT
TORSDOF 0
ENDMDL
