MODEL 1
REMARK minimizedAffinity -6.13008881
REMARK minimizedRMSD -1
REMARK  0 active torsions:
REMARK  status: ('A' for Active; 'I' for Inactive)
ROOT
ATOM      1  C   UNL d   1       2.878   0.224   0.370  0.00  0.00     0.078 C 
ATOM      2  C1  UNL d   1       2.130   1.509   0.176  0.00  0.00    -0.077 A 
ATOM      3  C2  UNL d   1       2.738   2.744   0.435  0.00  0.00    -0.001 A 
ATOM      4  C3  UNL d   1       2.027   3.932   0.258  0.00  0.00     0.003 A 
ATOM      5  C4  UNL d   1       0.704   3.897  -0.177  0.00  0.00    -0.005 A 
ATOM      6  C5  UNL d   1       0.090   2.674  -0.435  0.00  0.00     0.003 A 
ATOM      7  C6  UNL d   1       0.799   1.484  -0.259  0.00  0.00    -0.001 A 
ENDROOT
TORSDOF 0
ENDMDL
