MODEL 1
REMARK minimizedAffinity 4.91092157
REMARK minimizedRMSD -1
REMARK  1 active torsions:
REMARK  status: ('A' for Active; 'I' for Inactive)
REMARK    1  A    between atoms: C1_2  and  C2_3 
ROOT
ATOM      1  C2  UNL d   1       1.071   1.850  -0.269  0.00  0.00    -0.073 A 
ATOM      2  C3  UNL d   1       0.567   3.090   0.140  0.00  0.00    -0.002 A 
ATOM      3  C4  UNL d   1       1.437   4.123   0.492  0.00  0.00     0.004 A 
ATOM      4  C5  UNL d   1       2.817   3.930   0.431  0.00  0.00    -0.004 A 
ATOM      5  C6  UNL d   1       3.339   2.702   0.012  0.00  0.00    -0.075 A 
ATOM      6  C7  UNL d   1       4.822   2.478  -0.057  0.00  0.00     0.076 C 
ATOM      7  C8  UNL d   1       2.459   1.669  -0.336  0.00  0.00     0.001 A 
ENDROOT
BRANCH   1   8
ATOM      8  C1  UNL d   1       0.135   0.734  -0.656  0.00  0.00     0.053 C 
ATOM      9  C   UNL d   1      -0.081  -0.249   0.484  0.00  0.00     0.018 C 
ENDBRANCH   1   8
TORSDOF 1
ENDMDL
