MODEL 1
REMARK minimizedAffinity -0.414394736
REMARK minimizedRMSD -1
REMARK  1 active torsions:
REMARK  status: ('A' for Active; 'I' for Inactive)
REMARK    1  A    between atoms: C1_2  and  C2_3 
ROOT
ATOM      1  C2  UNL d   1      -1.328   3.184  -2.350  0.00  0.00    -0.073 A 
ATOM      2  C3  UNL d   1      -2.095   2.214  -1.695  0.00  0.00    -0.002 A 
ATOM      3  C4  UNL d   1      -1.888   1.948  -0.341  0.00  0.00     0.004 A 
ATOM      4  C5  UNL d   1      -0.918   2.652   0.372  0.00  0.00    -0.004 A 
ATOM      5  C6  UNL d   1      -0.149   3.633  -0.262  0.00  0.00    -0.075 A 
ATOM      6  C7  UNL d   1       0.900   4.398   0.491  0.00  0.00     0.076 C 
ATOM      7  C8  UNL d   1      -0.362   3.893  -1.622  0.00  0.00     0.001 A 
ENDROOT
BRANCH   1   8
ATOM      8  C1  UNL d   1      -1.553   3.480  -3.811  0.00  0.00     0.053 C 
ATOM      9  C   UNL d   1      -0.269   3.890  -4.514  0.00  0.00     0.018 C 
ENDBRANCH   1   8
TORSDOF 1
ENDMDL
