MODEL 1
REMARK minimizedAffinity -4.02753735
REMARK minimizedRMSD -1
REMARK  1 active torsions:
REMARK  status: ('A' for Active; 'I' for Inactive)
REMARK    1  A    between atoms: C1_2  and  C2_3 
ROOT
ATOM      1  C2  UNL d   1      -0.735   2.445  -1.358  0.00  0.00    -0.073 A 
ATOM      2  C3  UNL d   1      -1.761   1.562  -1.712  0.00  0.00    -0.002 A 
ATOM      3  C4  UNL d   1      -2.348   1.633  -2.976  0.00  0.00     0.004 A 
ATOM      4  C5  UNL d   1      -1.911   2.582  -3.900  0.00  0.00    -0.004 A 
ATOM      5  C6  UNL d   1      -0.878   3.465  -3.569  0.00  0.00    -0.075 A 
ATOM      6  C7  UNL d   1      -0.398   4.493  -4.551  0.00  0.00     0.076 C 
ATOM      7  C8  UNL d   1      -0.296   3.389  -2.297  0.00  0.00     0.001 A 
ENDROOT
BRANCH   1   8
ATOM      8  C1  UNL d   1      -0.094   2.367   0.004  0.00  0.00     0.053 C 
ATOM      9  C   UNL d   1       1.009   3.399   0.174  0.00  0.00     0.018 C 
ENDBRANCH   1   8
TORSDOF 1
ENDMDL
