MODEL 1
REMARK minimizedAffinity -1.29416883
REMARK minimizedRMSD -1
REMARK  1 active torsions:
REMARK  status: ('A' for Active; 'I' for Inactive)
REMARK    1  A    between atoms: C1_2  and  C2_3 
ROOT
ATOM      1  C2  UNL d   1      -1.431   1.280  -1.446  0.00  0.00    -0.073 A 
ATOM      2  C3  UNL d   1      -2.554   0.568  -1.885  0.00  0.00    -0.002 A 
ATOM      3  C4  UNL d   1      -3.215   0.947  -3.054  0.00  0.00     0.004 A 
ATOM      4  C5  UNL d   1      -2.759   2.035  -3.798  0.00  0.00    -0.004 A 
ATOM      5  C6  UNL d   1      -1.632   2.752  -3.381  0.00  0.00    -0.075 A 
ATOM      6  C7  UNL d   1      -1.130   3.926  -4.169  0.00  0.00     0.076 C 
ATOM      7  C8  UNL d   1      -0.974   2.366  -2.205  0.00  0.00     0.001 A 
ENDROOT
BRANCH   1   8
ATOM      8  C1  UNL d   1      -0.710   0.870  -0.188  0.00  0.00     0.053 C 
ATOM      9  C   UNL d   1      -0.041  -0.488  -0.331  0.00  0.00     0.018 C 
ENDBRANCH   1   8
TORSDOF 1
ENDMDL
