MODEL 1
REMARK minimizedAffinity -0.432048023
REMARK minimizedRMSD -1
REMARK  1 active torsions:
REMARK  status: ('A' for Active; 'I' for Inactive)
REMARK    1  A    between atoms: C1_2  and  C2_3 
ROOT
ATOM      1  C2  UNL d   1      -0.933   1.955  -1.751  0.00  0.00    -0.073 A 
ATOM      2  C3  UNL d   1      -0.497   0.648  -1.508  0.00  0.00    -0.002 A 
ATOM      3  C4  UNL d   1       0.650   0.418  -0.747  0.00  0.00     0.004 A 
ATOM      4  C5  UNL d   1       1.368   1.490  -0.217  0.00  0.00    -0.004 A 
ATOM      5  C6  UNL d   1       0.941   2.803  -0.440  0.00  0.00    -0.075 A 
ATOM      6  C7  UNL d   1       1.702   3.968   0.122  0.00  0.00     0.076 C 
ATOM      7  C8  UNL d   1      -0.211   3.026  -1.207  0.00  0.00     0.001 A 
ENDROOT
BRANCH   1   8
ATOM      8  C1  UNL d   1      -2.175   2.208  -2.567  0.00  0.00     0.053 C 
ATOM      9  C   UNL d   1      -1.962   1.901  -4.041  0.00  0.00     0.018 C 
ENDBRANCH   1   8
TORSDOF 1
ENDMDL
