MODEL 1
REMARK minimizedAffinity -4.493958
REMARK minimizedRMSD -1
REMARK  1 active torsions:
REMARK  status: ('A' for Active; 'I' for Inactive)
REMARK    1  A    between atoms: C1_2  and  C2_3 
ROOT
ATOM      1  C2  UNL d   1      -0.385   3.681  -1.120  0.00  0.00    -0.073 A 
ATOM      2  C3  UNL d   1      -0.136   4.121  -2.425  0.00  0.00    -0.002 A 
ATOM      3  C4  UNL d   1      -0.722   3.471  -3.512  0.00  0.00     0.004 A 
ATOM      4  C5  UNL d   1      -1.569   2.382  -3.305  0.00  0.00    -0.004 A 
ATOM      5  C6  UNL d   1      -1.840   1.936  -2.008  0.00  0.00    -0.075 A 
ATOM      6  C7  UNL d   1      -2.747   0.764  -1.769  0.00  0.00     0.076 C 
ATOM      7  C8  UNL d   1      -1.245   2.592  -0.922  0.00  0.00     0.001 A 
ENDROOT
BRANCH   1   8
ATOM      8  C1  UNL d   1       0.241   4.383   0.057  0.00  0.00     0.053 C 
ATOM      9  C   UNL d   1       1.726   4.082   0.177  0.00  0.00     0.018 C 
ENDBRANCH   1   8
TORSDOF 1
ENDMDL
