MODEL 1
REMARK minimizedAffinity -3.06651878
REMARK minimizedRMSD -1
REMARK  1 active torsions:
REMARK  status: ('A' for Active; 'I' for Inactive)
REMARK    1  A    between atoms: C1_2  and  C2_3 
ROOT
ATOM      1  C2  UNL d   1       1.621   0.533  -0.246  0.00  0.00    -0.073 A 
ATOM      2  C3  UNL d   1       0.263   0.843  -0.380  0.00  0.00    -0.002 A 
ATOM      3  C4  UNL d   1      -0.711  -0.062   0.042  0.00  0.00     0.004 A 
ATOM      4  C5  UNL d   1      -0.339  -1.281   0.608  0.00  0.00    -0.004 A 
ATOM      5  C6  UNL d   1       1.013  -1.605   0.761  0.00  0.00    -0.075 A 
ATOM      6  C7  UNL d   1       1.429  -2.913   1.365  0.00  0.00     0.076 C 
ATOM      7  C8  UNL d   1       1.986  -0.692   0.332  0.00  0.00     0.001 A 
ENDROOT
BRANCH   1   8
ATOM      8  C1  UNL d   1       2.678   1.509  -0.695  0.00  0.00     0.053 C 
ATOM      9  C   UNL d   1       2.506   2.873  -0.045  0.00  0.00     0.018 C 
ENDBRANCH   1   8
TORSDOF 1
ENDMDL
