MODEL 1
REMARK minimizedAffinity -4.65539408
REMARK minimizedRMSD -1
REMARK  1 active torsions:
REMARK  status: ('A' for Active; 'I' for Inactive)
REMARK    1  A    between atoms: C1_2  and  C2_3 
ROOT
ATOM      1  C2  UNL d   1       0.855   0.334  -0.368  0.00  0.00    -0.073 A 
ATOM      2  C3  UNL d   1      -0.446   0.756  -0.666  0.00  0.00    -0.002 A 
ATOM      3  C4  UNL d   1      -0.763   2.115  -0.670  0.00  0.00     0.004 A 
ATOM      4  C5  UNL d   1       0.217   3.065  -0.384  0.00  0.00    -0.004 A 
ATOM      5  C6  UNL d   1       1.526   2.664  -0.095  0.00  0.00    -0.075 A 
ATOM      6  C7  UNL d   1       2.591   3.674   0.217  0.00  0.00     0.076 C 
ATOM      7  C8  UNL d   1       1.836   1.298  -0.090  0.00  0.00     0.001 A 
ENDROOT
BRANCH   1   8
ATOM      8  C1  UNL d   1       1.204  -1.132  -0.368  0.00  0.00     0.053 C 
ATOM      9  C   UNL d   1       0.401  -1.909   0.662  0.00  0.00     0.018 C 
ENDBRANCH   1   8
TORSDOF 1
ENDMDL
