MODEL 1
REMARK minimizedAffinity -2.26565385
REMARK minimizedRMSD -1
REMARK  1 active torsions:
REMARK  status: ('A' for Active; 'I' for Inactive)
REMARK    1  A    between atoms: C1_2  and  C2_3 
ROOT
ATOM      1  C2  UNL d   1       1.624  -1.035   1.281  0.00  0.00    -0.073 A 
ATOM      2  C3  UNL d   1       0.399  -1.556   0.847  0.00  0.00    -0.002 A 
ATOM      3  C4  UNL d   1      -0.444  -0.793   0.038  0.00  0.00     0.004 A 
ATOM      4  C5  UNL d   1      -0.069   0.493  -0.351  0.00  0.00    -0.004 A 
ATOM      5  C6  UNL d   1       1.156   1.026   0.062  0.00  0.00    -0.075 A 
ATOM      6  C7  UNL d   1       1.572   2.409  -0.345  0.00  0.00     0.076 C 
ATOM      7  C8  UNL d   1       1.996   0.255   0.877  0.00  0.00     0.001 A 
ENDROOT
BRANCH   1   8
ATOM      8  C1  UNL d   1       2.541  -1.857   2.149  0.00  0.00     0.053 C 
ATOM      9  C   UNL d   1       3.741  -1.057   2.629  0.00  0.00     0.018 C 
ENDBRANCH   1   8
TORSDOF 1
ENDMDL
