MODEL 1
REMARK minimizedAffinity -4.82415771
REMARK minimizedRMSD -1
REMARK  1 active torsions:
REMARK  status: ('A' for Active; 'I' for Inactive)
REMARK    1  A    between atoms: C1_2  and  C2_3 
ROOT
ATOM      1  C2  UNL d   1       1.707   0.921   0.004  0.00  0.00    -0.073 A 
ATOM      2  C3  UNL d   1       0.435   1.485   0.153  0.00  0.00    -0.002 A 
ATOM      3  C4  UNL d   1      -0.679   0.668   0.351  0.00  0.00     0.004 A 
ATOM      4  C5  UNL d   1      -0.533  -0.718   0.409  0.00  0.00    -0.004 A 
ATOM      5  C6  UNL d   1       0.732  -1.299   0.274  0.00  0.00    -0.075 A 
ATOM      6  C7  UNL d   1       0.906  -2.789   0.331  0.00  0.00     0.076 C 
ATOM      7  C8  UNL d   1       1.846  -0.473   0.072  0.00  0.00     0.001 A 
ENDROOT
BRANCH   1   8
ATOM      8  C1  UNL d   1       2.914   1.799  -0.204  0.00  0.00     0.053 C 
ATOM      9  C   UNL d   1       2.646   3.241   0.198  0.00  0.00     0.018 C 
ENDBRANCH   1   8
TORSDOF 1
ENDMDL
