MODEL 1
REMARK minimizedAffinity -5.25296259
REMARK minimizedRMSD -1
REMARK  1 active torsions:
REMARK  status: ('A' for Active; 'I' for Inactive)
REMARK    1  A    between atoms: C1_2  and  C2_3 
ROOT
ATOM      1  C2  UNL d   1       1.223   0.666   0.092  0.00  0.00    -0.073 A 
ATOM      2  C3  UNL d   1      -0.152   0.870   0.255  0.00  0.00    -0.002 A 
ATOM      3  C4  UNL d   1      -0.986  -0.193   0.602  0.00  0.00     0.004 A 
ATOM      4  C5  UNL d   1      -0.455  -1.468   0.797  0.00  0.00    -0.004 A 
ATOM      5  C6  UNL d   1       0.918  -1.690   0.650  0.00  0.00    -0.075 A 
ATOM      6  C7  UNL d   1       1.505  -3.056   0.854  0.00  0.00     0.076 C 
ATOM      7  C8  UNL d   1       1.749  -0.617   0.299  0.00  0.00     0.001 A 
ENDROOT
BRANCH   1   8
ATOM      8  C1  UNL d   1       2.129   1.812  -0.276  0.00  0.00     0.053 C 
ATOM      9  C   UNL d   1       1.598   3.144   0.231  0.00  0.00     0.018 C 
ENDBRANCH   1   8
TORSDOF 1
ENDMDL
