MODEL 1
REMARK minimizedAffinity -5.93251228
REMARK minimizedRMSD -1
REMARK  1 active torsions:
REMARK  status: ('A' for Active; 'I' for Inactive)
REMARK    1  A    between atoms: C1_2  and  C2_3 
ROOT
ATOM      1  C2  UNL d   1       1.437   2.362  -0.017  0.00  0.00    -0.073 A 
ATOM      2  C3  UNL d   1       0.059   2.599  -0.081  0.00  0.00    -0.002 A 
ATOM      3  C4  UNL d   1      -0.836   1.533  -0.175  0.00  0.00     0.004 A 
ATOM      4  C5  UNL d   1      -0.365   0.220  -0.200  0.00  0.00    -0.004 A 
ATOM      5  C6  UNL d   1       1.008  -0.038  -0.124  0.00  0.00    -0.075 A 
ATOM      6  C7  UNL d   1       1.531  -1.444  -0.151  0.00  0.00     0.076 C 
ATOM      7  C8  UNL d   1       1.901   1.038  -0.032  0.00  0.00     0.001 A 
ENDROOT
BRANCH   1   8
ATOM      8  C1  UNL d   1       2.407   3.510   0.092  0.00  0.00     0.053 C 
ATOM      9  C   UNL d   1       3.793   3.133  -0.407  0.00  0.00     0.018 C 
ENDBRANCH   1   8
TORSDOF 1
ENDMDL
