MODEL 1
REMARK minimizedAffinity -0.118394405
REMARK minimizedRMSD -1
REMARK  0 active torsions:
REMARK  status: ('A' for Active; 'I' for Inactive)
ROOT
ATOM      1  C1  BNZ d   1      -0.362  -0.994   2.870  0.00  0.00     0.000 A 
ATOM      2  C2  BNZ d   1      -0.662   0.088   2.086  0.00  0.00     0.000 A 
ATOM      3  C3  BNZ d   1      -1.679   0.031   1.175  0.00  0.00     0.000 A 
ATOM      4  C4  BNZ d   1      -2.368  -1.118   1.021  0.00  0.00     0.000 A 
ATOM      5  C5  BNZ d   1      -2.072  -2.220   1.797  0.00  0.00     0.000 A 
ATOM      6  C6  BNZ d   1      -1.073  -2.147   2.741  0.00  0.00     0.000 A 
ENDROOT
TORSDOF 0
ENDMDL
