MODEL 1
REMARK minimizedAffinity -1.10804093
REMARK minimizedRMSD -1
REMARK  0 active torsions:
REMARK  status: ('A' for Active; 'I' for Inactive)
ROOT
ATOM      1  C1  BNZ d   1      -0.342  -0.426   0.688  0.00  0.00     0.000 A 
ATOM      2  C2  BNZ d   1      -0.003  -1.264   1.717  0.00  0.00     0.000 A 
ATOM      3  C3  BNZ d   1      -0.925  -1.623   2.660  0.00  0.00     0.000 A 
ATOM      4  C4  BNZ d   1      -2.172  -1.113   2.596  0.00  0.00     0.000 A 
ATOM      5  C5  BNZ d   1      -2.527  -0.260   1.570  0.00  0.00     0.000 A 
ATOM      6  C6  BNZ d   1      -1.607   0.068   0.601  0.00  0.00     0.000 A 
ENDROOT
TORSDOF 0
ENDMDL
