MODEL 1
REMARK minimizedAffinity -4.12195683
REMARK minimizedRMSD -1
REMARK  0 active torsions:
REMARK  status: ('A' for Active; 'I' for Inactive)
ROOT
ATOM      1  C1  BNZ d   1       1.046  -1.877   2.590  0.00  0.00     0.000 A 
ATOM      2  C2  BNZ d   1       1.788  -2.163   1.475  0.00  0.00     0.000 A 
ATOM      3  C3  BNZ d   1       1.418  -1.686   0.248  0.00  0.00     0.000 A 
ATOM      4  C4  BNZ d   1       0.288  -0.959   0.132  0.00  0.00     0.000 A 
ATOM      5  C5  BNZ d   1      -0.475  -0.671   1.246  0.00  0.00     0.000 A 
ATOM      6  C6  BNZ d   1      -0.079  -1.120   2.485  0.00  0.00     0.000 A 
ENDROOT
TORSDOF 0
ENDMDL
