MODEL 1
REMARK minimizedAffinity 0.256637812
REMARK minimizedRMSD -1
REMARK  0 active torsions:
REMARK  status: ('A' for Active; 'I' for Inactive)
ROOT
ATOM      1  C1  BNZ d   1      -1.461  -0.288  -0.146  0.00  0.00     0.000 A 
ATOM      2  C2  BNZ d   1      -2.111  -0.260   1.059  0.00  0.00     0.000 A 
ATOM      3  C3  BNZ d   1      -1.471  -0.630   2.208  0.00  0.00     0.000 A 
ATOM      4  C4  BNZ d   1      -0.196  -1.064   2.146  0.00  0.00     0.000 A 
ATOM      5  C5  BNZ d   1       0.470  -1.107   0.938  0.00  0.00     0.000 A 
ATOM      6  C6  BNZ d   1      -0.165  -0.697  -0.212  0.00  0.00     0.000 A 
ENDROOT
TORSDOF 0
ENDMDL
