MODEL 1
REMARK minimizedAffinity -0.0962490514
REMARK minimizedRMSD -1
REMARK  0 active torsions:
REMARK  status: ('A' for Active; 'I' for Inactive)
ROOT
ATOM      1  C1  BNZ d   1      -0.381  -0.057   0.584  0.00  0.00     0.000 A 
ATOM      2  C2  BNZ d   1      -1.037   0.036   1.782  0.00  0.00     0.000 A 
ATOM      3  C3  BNZ d   1      -0.720  -0.796   2.820  0.00  0.00     0.000 A 
ATOM      4  C4  BNZ d   1       0.222  -1.744   2.645  0.00  0.00     0.000 A 
ATOM      5  C5  BNZ d   1       0.886  -1.857   1.440  0.00  0.00     0.000 A 
ATOM      6  C6  BNZ d   1       0.591  -0.993   0.410  0.00  0.00     0.000 A 
ENDROOT
TORSDOF 0
ENDMDL
