MODEL 1
REMARK minimizedAffinity 1.39609885
REMARK minimizedRMSD -1
REMARK  0 active torsions:
REMARK  status: ('A' for Active; 'I' for Inactive)
ROOT
ATOM      1  C1  BNZ d   1      -0.343  -4.191   3.268  0.00  0.00     0.000 A 
ATOM      2  C2  BNZ d   1       0.497  -5.151   2.769  0.00  0.00     0.000 A 
ATOM      3  C3  BNZ d   1       1.529  -4.814   1.939  0.00  0.00     0.000 A 
ATOM      4  C4  BNZ d   1       1.695  -3.526   1.576  0.00  0.00     0.000 A 
ATOM      5  C5  BNZ d   1       0.851  -2.548   2.063  0.00  0.00     0.000 A 
ATOM      6  C6  BNZ d   1      -0.163  -2.885   2.930  0.00  0.00     0.000 A 
ENDROOT
TORSDOF 0
ENDMDL
