MODEL 1
REMARK minimizedAffinity -2.29391432
REMARK minimizedRMSD -1
REMARK  0 active torsions:
REMARK  status: ('A' for Active; 'I' for Inactive)
ROOT
ATOM      1  N1  IND d   1      -0.399  -0.975  -0.283  0.00  0.00    -0.196 N 
ATOM      2  C2  IND d   1      -0.139   0.221   0.327  0.00  0.00     0.054 A 
ATOM      3  C3  IND d   1       0.574   1.023  -0.495  0.00  0.00    -0.031 A 
ATOM      4  C4  IND d   1       1.335   0.618  -2.921  0.00  0.00     0.051 A 
ATOM      5  C5  IND d   1       1.365  -0.341  -3.894  0.00  0.00    -0.031 A 
ATOM      6  C6  IND d   1       0.794  -1.584  -3.712  0.00  0.00     0.015 A 
ATOM      7  C7  IND d   1       0.160  -1.912  -2.547  0.00  0.00    -0.016 A 
ATOM      8  C8  IND d   1       0.134  -0.944  -1.553  0.00  0.00    -0.047 A 
ATOM      9  C9  IND d   1       0.749   0.305  -1.717  0.00  0.00    -0.096 A 
ATOM     10  HN1 IND d   1      -0.823  -1.635   0.067  0.00  0.00     0.298 HD
ENDROOT
TORSDOF 0
ENDMDL
