MODEL 1
REMARK minimizedAffinity -3.91383481
REMARK minimizedRMSD -1
REMARK  0 active torsions:
REMARK  status: ('A' for Active; 'I' for Inactive)
ROOT
ATOM      1  N1  IND d   1      -1.156   0.045  -0.807  0.00  0.00    -0.196 N 
ATOM      2  C2  IND d   1      -0.036   0.294  -1.551  0.00  0.00     0.054 A 
ATOM      3  C3  IND d   1       1.047   0.401  -0.748  0.00  0.00    -0.031 A 
ATOM      4  C4  IND d   1       1.229   0.102   1.802  0.00  0.00     0.051 A 
ATOM      5  C5  IND d   1       0.469  -0.099   2.920  0.00  0.00    -0.031 A 
ATOM      6  C6  IND d   1      -0.899  -0.268   2.851  0.00  0.00     0.015 A 
ATOM      7  C7  IND d   1      -1.559  -0.254   1.655  0.00  0.00    -0.016 A 
ATOM      8  C8  IND d   1      -0.791  -0.043   0.518  0.00  0.00    -0.047 A 
ATOM      9  C9  IND d   1       0.591   0.171   0.586  0.00  0.00    -0.096 A 
ATOM     10  HN1 IND d   1      -1.953  -0.042  -1.116  0.00  0.00     0.298 HD
ENDROOT
TORSDOF 0
ENDMDL
