MODEL 1
REMARK minimizedAffinity -4.05764198
REMARK minimizedRMSD -1
REMARK  0 active torsions:
REMARK  status: ('A' for Active; 'I' for Inactive)
ROOT
ATOM      1  N1  IND d   1       0.971   1.121   0.071  0.00  0.00    -0.196 N 
ATOM      2  C2  IND d   1       0.859   0.467  -1.124  0.00  0.00     0.054 A 
ATOM      3  C3  IND d   1       0.112  -0.651  -0.980  0.00  0.00    -0.031 A 
ATOM      4  C4  IND d   1      -1.110  -1.544   1.102  0.00  0.00     0.051 A 
ATOM      5  C5  IND d   1      -1.274  -1.309   2.439  0.00  0.00    -0.031 A 
ATOM      6  C6  IND d   1      -0.688  -0.228   3.066  0.00  0.00     0.015 A 
ATOM      7  C7  IND d   1       0.077   0.668   2.375  0.00  0.00    -0.016 A 
ATOM      8  C8  IND d   1       0.252   0.428   1.019  0.00  0.00    -0.047 A 
ATOM      9  C9  IND d   1      -0.305  -0.690   0.386  0.00  0.00    -0.096 A 
ATOM     10  HN1 IND d   1       1.416   1.844   0.207  0.00  0.00     0.298 HD
ENDROOT
TORSDOF 0
ENDMDL
