MODEL 1
REMARK minimizedAffinity -1.83131897
REMARK minimizedRMSD -1
REMARK  0 active torsions:
REMARK  status: ('A' for Active; 'I' for Inactive)
ROOT
ATOM      1  N1  IND d   1      -0.486  -0.427  -0.683  0.00  0.00    -0.196 N 
ATOM      2  C2  IND d   1       0.774  -0.107  -1.103  0.00  0.00     0.054 A 
ATOM      3  C3  IND d   1       1.583   0.110  -0.042  0.00  0.00    -0.031 A 
ATOM      4  C4  IND d   1       1.075  -0.107   2.473  0.00  0.00     0.051 A 
ATOM      5  C5  IND d   1       0.053  -0.340   3.349  0.00  0.00    -0.031 A 
ATOM      6  C6  IND d   1      -1.227  -0.623   2.917  0.00  0.00     0.015 A 
ATOM      7  C7  IND d   1      -1.531  -0.694   1.587  0.00  0.00    -0.016 A 
ATOM      8  C8  IND d   1      -0.496  -0.451   0.695  0.00  0.00    -0.047 A 
ATOM      9  C9  IND d   1       0.795  -0.122   1.127  0.00  0.00    -0.096 A 
ATOM     10  HN1 IND d   1      -1.160  -0.587  -1.193  0.00  0.00     0.298 HD
ENDROOT
TORSDOF 0
ENDMDL
