MODEL 1
REMARK minimizedAffinity -4.50124025
REMARK minimizedRMSD -1
REMARK  0 active torsions:
REMARK  status: ('A' for Active; 'I' for Inactive)
ROOT
ATOM      1  N1  IND d   1      -1.594  -0.593   2.525  0.00  0.00    -0.196 N 
ATOM      2  C2  IND d   1      -0.709  -0.793   3.548  0.00  0.00     0.054 A 
ATOM      3  C3  IND d   1       0.559  -0.610   3.115  0.00  0.00    -0.031 A 
ATOM      4  C4  IND d   1       1.407   0.119   0.797  0.00  0.00     0.051 A 
ATOM      5  C5  IND d   1       0.977   0.384  -0.473  0.00  0.00    -0.031 A 
ATOM      6  C6  IND d   1      -0.359   0.339  -0.815  0.00  0.00     0.015 A 
ATOM      7  C7  IND d   1      -1.320   0.037   0.108  0.00  0.00    -0.016 A 
ATOM      8  C8  IND d   1      -0.887  -0.240   1.396  0.00  0.00    -0.047 A 
ATOM      9  C9  IND d   1       0.472  -0.238   1.739  0.00  0.00    -0.096 A 
ATOM     10  HN1 IND d   1      -2.448  -0.674   2.578  0.00  0.00     0.298 HD
ENDROOT
TORSDOF 0
ENDMDL
