MODEL 1
REMARK minimizedAffinity -4.6530776
REMARK minimizedRMSD -1
REMARK  0 active torsions:
REMARK  status: ('A' for Active; 'I' for Inactive)
ROOT
ATOM      1  N1  IND d   1       1.116   0.877  -0.004  0.00  0.00    -0.196 N 
ATOM      2  C2  IND d   1       0.516   0.789  -1.230  0.00  0.00     0.054 A 
ATOM      3  C3  IND d   1      -0.624   0.066  -1.145  0.00  0.00    -0.031 A 
ATOM      4  C4  IND d   1      -1.746  -0.981   0.922  0.00  0.00     0.051 A 
ATOM      5  C5  IND d   1      -1.555  -1.197   2.258  0.00  0.00    -0.031 A 
ATOM      6  C6  IND d   1      -0.442  -0.722   2.922  0.00  0.00     0.015 A 
ATOM      7  C7  IND d   1       0.519   0.001   2.274  0.00  0.00    -0.016 A 
ATOM      8  C8  IND d   1       0.332   0.217   0.916  0.00  0.00    -0.047 A 
ATOM      9  C9  IND d   1      -0.774  -0.299   0.228  0.00  0.00    -0.096 A 
ATOM     10  HN1 IND d   1       1.859   1.277   0.163  0.00  0.00     0.298 HD
ENDROOT
TORSDOF 0
ENDMDL
