MODEL 1
REMARK minimizedAffinity -1.65421581
REMARK minimizedRMSD -1
REMARK  0 active torsions:
REMARK  status: ('A' for Active; 'I' for Inactive)
ROOT
ATOM      1  N1  IND d   1      -0.640  -0.349  -1.022  0.00  0.00    -0.196 N 
ATOM      2  C2  IND d   1       0.407   0.103  -1.775  0.00  0.00     0.054 A 
ATOM      3  C3  IND d   1       1.380   0.600  -0.979  0.00  0.00    -0.031 A 
ATOM      4  C4  IND d   1       1.508   0.680   1.591  0.00  0.00     0.051 A 
ATOM      5  C5  IND d   1       0.775   0.419   2.715  0.00  0.00    -0.031 A 
ATOM      6  C6  IND d   1      -0.491  -0.125   2.649  0.00  0.00     0.015 A 
ATOM      7  C7  IND d   1      -1.070  -0.440   1.453  0.00  0.00    -0.016 A 
ATOM      8  C8  IND d   1      -0.332  -0.170   0.309  0.00  0.00    -0.047 A 
ATOM      9  C9  IND d   1       0.937   0.421   0.367  0.00  0.00    -0.096 A 
ATOM     10  HN1 IND d   1      -1.369  -0.688  -1.327  0.00  0.00     0.298 HD
ENDROOT
TORSDOF 0
ENDMDL
