MODEL 1
REMARK minimizedAffinity -5.14812899
REMARK minimizedRMSD -1
REMARK  0 active torsions:
REMARK  status: ('A' for Active; 'I' for Inactive)
ROOT
ATOM      1  N1  IND d   1       1.039   0.834   0.158  0.00  0.00    -0.196 N 
ATOM      2  C2  IND d   1       0.478   0.620  -1.071  0.00  0.00     0.054 A 
ATOM      3  C3  IND d   1      -0.615  -0.167  -0.958  0.00  0.00    -0.031 A 
ATOM      4  C4  IND d   1      -1.723  -1.135   1.155  0.00  0.00     0.051 A 
ATOM      5  C5  IND d   1      -1.554  -1.243   2.507  0.00  0.00    -0.031 A 
ATOM      6  C6  IND d   1      -0.492  -0.651   3.158  0.00  0.00     0.015 A 
ATOM      7  C7  IND d   1       0.439   0.085   2.480  0.00  0.00    -0.016 A 
ATOM      8  C8  IND d   1       0.274   0.192   1.106  0.00  0.00    -0.047 A 
ATOM      9  C9  IND d   1      -0.779  -0.443   0.434  0.00  0.00    -0.096 A 
ATOM     10  HN1 IND d   1       1.750   1.292   0.312  0.00  0.00     0.298 HD
ENDROOT
TORSDOF 0
ENDMDL
