MODEL 1
REMARK minimizedAffinity 0.38434568
REMARK minimizedRMSD -1
REMARK  0 active torsions:
REMARK  status: ('A' for Active; 'I' for Inactive)
ROOT
ATOM      1  N1  IND d   1       0.098   1.541  -0.976  0.00  0.00    -0.196 N 
ATOM      2  C2  IND d   1      -1.205   1.355  -1.346  0.00  0.00     0.054 A 
ATOM      3  C3  IND d   1      -1.835   0.547  -0.464  0.00  0.00    -0.031 A 
ATOM      4  C4  IND d   1      -0.949  -0.501   1.714  0.00  0.00     0.051 A 
ATOM      5  C5  IND d   1       0.191  -0.647   2.453  0.00  0.00    -0.031 A 
ATOM      6  C6  IND d   1       1.382  -0.057   2.081  0.00  0.00     0.015 A 
ATOM      7  C7  IND d   1       1.474   0.714   0.957  0.00  0.00    -0.016 A 
ATOM      8  C8  IND d   1       0.320   0.858   0.200  0.00  0.00    -0.047 A 
ATOM      9  C9  IND d   1      -0.880   0.227   0.550  0.00  0.00    -0.096 A 
ATOM     10  HN1 IND d   1       0.680   2.005  -1.405  0.00  0.00     0.298 HD
ENDROOT
TORSDOF 0
ENDMDL
