MODEL 1
REMARK minimizedAffinity -2.51945114
REMARK minimizedRMSD -1
REMARK  0 active torsions:
REMARK  status: ('A' for Active; 'I' for Inactive)
ROOT
ATOM      1  N1  IND d   1      -0.071  -0.709  -0.454  0.00  0.00    -0.196 N 
ATOM      2  C2  IND d   1       0.630   0.418  -0.782  0.00  0.00     0.054 A 
ATOM      3  C3  IND d   1       0.866   1.162   0.322  0.00  0.00    -0.031 A 
ATOM      4  C4  IND d   1       0.282   0.673   2.781  0.00  0.00     0.051 A 
ATOM      5  C5  IND d   1      -0.389  -0.217   3.572  0.00  0.00    -0.031 A 
ATOM      6  C6  IND d   1      -0.999  -1.340   3.051  0.00  0.00     0.015 A 
ATOM      7  C7  IND d   1      -0.950  -1.623   1.715  0.00  0.00    -0.016 A 
ATOM      8  C8  IND d   1      -0.275  -0.718   0.908  0.00  0.00    -0.047 A 
ATOM      9  C9  IND d   1       0.309   0.446   1.425  0.00  0.00    -0.096 A 
ATOM     10  HN1 IND d   1      -0.340  -1.310  -1.007  0.00  0.00     0.298 HD
ENDROOT
TORSDOF 0
ENDMDL
