MODEL 1
REMARK minimizedAffinity -2.40191674
REMARK minimizedRMSD -1
REMARK  0 active torsions:
REMARK  status: ('A' for Active; 'I' for Inactive)
ROOT
ATOM      1  N1  IND d   1       1.277   0.588  -1.655  0.00  0.00    -0.196 N 
ATOM      2  C2  IND d   1       0.408   0.298  -2.669  0.00  0.00     0.054 A 
ATOM      3  C3  IND d   1      -0.760  -0.165  -2.169  0.00  0.00    -0.031 A 
ATOM      4  C4  IND d   1      -1.498  -0.433   0.282  0.00  0.00     0.051 A 
ATOM      5  C5  IND d   1      -1.035  -0.333   1.564  0.00  0.00    -0.031 A 
ATOM      6  C6  IND d   1       0.248   0.091   1.844  0.00  0.00     0.015 A 
ATOM      7  C7  IND d   1       1.116   0.443   0.849  0.00  0.00    -0.016 A 
ATOM      8  C8  IND d   1       0.651   0.335  -0.454  0.00  0.00    -0.047 A 
ATOM      9  C9  IND d   1      -0.636  -0.135  -0.746  0.00  0.00    -0.096 A 
ATOM     10  HN1 IND d   1       2.081   0.879  -1.750  0.00  0.00     0.298 HD
ENDROOT
TORSDOF 0
ENDMDL
