MODEL 1
REMARK minimizedAffinity -6.01894712
REMARK minimizedRMSD -1
REMARK  0 active torsions:
REMARK  status: ('A' for Active; 'I' for Inactive)
ROOT
ATOM      1  N1  IND d   1      -1.133   0.444  -0.977  0.00  0.00    -0.196 N 
ATOM      2  C2  IND d   1      -0.035   0.685  -1.754  0.00  0.00     0.054 A 
ATOM      3  C3  IND d   1       1.097   0.463  -1.049  0.00  0.00    -0.031 A 
ATOM      4  C4  IND d   1       1.382  -0.399   1.360  0.00  0.00     0.051 A 
ATOM      5  C5  IND d   1       0.667  -0.725   2.479  0.00  0.00    -0.031 A 
ATOM      6  C6  IND d   1      -0.712  -0.679   2.502  0.00  0.00     0.015 A 
ATOM      7  C7  IND d   1      -1.431  -0.316   1.400  0.00  0.00    -0.016 A 
ATOM      8  C8  IND d   1      -0.709   0.023   0.264  0.00  0.00    -0.047 A 
ATOM      9  C9  IND d   1       0.692   0.019   0.247  0.00  0.00    -0.096 A 
ATOM     10  HN1 IND d   1      -1.952   0.539  -1.222  0.00  0.00     0.298 HD
ENDROOT
TORSDOF 0
ENDMDL
