MODEL 1
REMARK minimizedAffinity -3.34113717
REMARK minimizedRMSD -1
REMARK  0 active torsions:
REMARK  status: ('A' for Active; 'I' for Inactive)
ROOT
ATOM      1  N1  IND d   1      -1.088  -0.855  -0.618  0.00  0.00    -0.196 N 
ATOM      2  C2  IND d   1      -0.436   0.035  -1.425  0.00  0.00     0.054 A 
ATOM      3  C3  IND d   1       0.437   0.773  -0.703  0.00  0.00    -0.031 A 
ATOM      4  C4  IND d   1       1.033   0.617   1.797  0.00  0.00     0.051 A 
ATOM      5  C5  IND d   1       0.675  -0.020   2.952  0.00  0.00    -0.031 A 
ATOM      6  C6  IND d   1      -0.307  -0.989   2.976  0.00  0.00     0.015 A 
ATOM      7  C7  IND d   1      -0.962  -1.367   1.839  0.00  0.00    -0.016 A 
ATOM      8  C8  IND d   1      -0.606  -0.718   0.665  0.00  0.00    -0.047 A 
ATOM      9  C9  IND d   1       0.360   0.296   0.642  0.00  0.00    -0.096 A 
ATOM     10  HN1 IND d   1      -1.696  -1.408  -0.870  0.00  0.00     0.298 HD
ENDROOT
TORSDOF 0
ENDMDL
