MODEL 1
REMARK minimizedAffinity -0.760688663
REMARK minimizedRMSD -1
REMARK  0 active torsions:
REMARK  status: ('A' for Active; 'I' for Inactive)
ROOT
ATOM      1  N1  IND d   1      -2.010  -0.373   2.296  0.00  0.00    -0.196 N 
ATOM      2  C2  IND d   1      -1.154  -0.249   3.355  0.00  0.00     0.054 A 
ATOM      3  C3  IND d   1       0.076   0.113   2.925  0.00  0.00    -0.031 A 
ATOM      4  C4  IND d   1       0.881   0.655   0.541  0.00  0.00     0.051 A 
ATOM      5  C5  IND d   1       0.470   0.648  -0.763  0.00  0.00    -0.031 A 
ATOM      6  C6  IND d   1      -0.815   0.296  -1.120  0.00  0.00     0.015 A 
ATOM      7  C7  IND d   1      -1.745  -0.053  -0.182  0.00  0.00    -0.016 A 
ATOM      8  C8  IND d   1      -1.329  -0.054   1.142  0.00  0.00    -0.047 A 
ATOM      9  C9  IND d   1      -0.014   0.261   1.507  0.00  0.00    -0.096 A 
ATOM     10  HN1 IND d   1      -2.835  -0.610   2.344  0.00  0.00     0.298 HD
ENDROOT
TORSDOF 0
ENDMDL
