MODEL 1
REMARK minimizedAffinity -3.56094646
REMARK minimizedRMSD -1
REMARK  0 active torsions:
REMARK  status: ('A' for Active; 'I' for Inactive)
ROOT
ATOM      1  N1  IND d   1      -0.705  -0.883  -0.840  0.00  0.00    -0.196 N 
ATOM      2  C2  IND d   1       0.258  -0.328  -1.636  0.00  0.00     0.054 A 
ATOM      3  C3  IND d   1       1.167   0.333  -0.885  0.00  0.00    -0.031 A 
ATOM      4  C4  IND d   1       1.327   0.546   1.676  0.00  0.00     0.051 A 
ATOM      5  C5  IND d   1       0.656   0.239   2.826  0.00  0.00    -0.031 A 
ATOM      6  C6  IND d   1      -0.525  -0.474   2.814  0.00  0.00     0.015 A 
ATOM      7  C7  IND d   1      -1.076  -0.919   1.645  0.00  0.00    -0.016 A 
ATOM      8  C8  IND d   1      -0.401  -0.603   0.474  0.00  0.00    -0.047 A 
ATOM      9  C9  IND d   1       0.775   0.157   0.478  0.00  0.00    -0.096 A 
ATOM     10  HN1 IND d   1      -1.385  -1.332  -1.114  0.00  0.00     0.298 HD
ENDROOT
TORSDOF 0
ENDMDL
