MODEL 1
REMARK minimizedAffinity -2.19005013
REMARK minimizedRMSD -1
REMARK  0 active torsions:
REMARK  status: ('A' for Active; 'I' for Inactive)
ROOT
ATOM      1  N1  IND d   1      -1.141   0.322  -1.590  0.00  0.00    -0.196 N 
ATOM      2  C2  IND d   1      -0.033   0.488  -2.373  0.00  0.00     0.054 A 
ATOM      3  C3  IND d   1       1.087   0.460  -1.616  0.00  0.00    -0.031 A 
ATOM      4  C4  IND d   1       1.342   0.050   0.912  0.00  0.00     0.051 A 
ATOM      5  C5  IND d   1       0.612  -0.118   2.055  0.00  0.00    -0.031 A 
ATOM      6  C6  IND d   1      -0.767  -0.151   2.041  0.00  0.00     0.015 A 
ATOM      7  C7  IND d   1      -1.471  -0.028   0.877  0.00  0.00    -0.016 A 
ATOM      8  C8  IND d   1      -0.733   0.149  -0.285  0.00  0.00    -0.047 A 
ATOM      9  C9  IND d   1       0.665   0.226  -0.272  0.00  0.00    -0.096 A 
ATOM     10  HN1 IND d   1      -1.955   0.324  -1.865  0.00  0.00     0.298 HD
ENDROOT
TORSDOF 0
ENDMDL
