MODEL 1
REMARK minimizedAffinity -2.02458358
REMARK minimizedRMSD -1
REMARK  0 active torsions:
REMARK  status: ('A' for Active; 'I' for Inactive)
ROOT
ATOM      1  O1  BZF d   1       1.148  -1.636   1.916  0.00  0.00    -0.204 OA
ATOM      2  C2  BZF d   1       0.114  -1.051   2.621  0.00  0.00     0.174 A 
ATOM      3  C3  BZF d   1      -0.661  -0.308   1.805  0.00  0.00    -0.012 A 
ATOM      4  C3A BZF d   1      -0.129  -0.511   0.493  0.00  0.00    -0.107 A 
ATOM      5  C4  BZF d   1      -0.480  -0.051  -0.744  0.00  0.00     0.055 A 
ATOM      6  C5  BZF d   1       0.291  -0.379  -1.814  0.00  0.00    -0.016 A 
ATOM      7  C6  BZF d   1       1.421  -1.159  -1.683  0.00  0.00     0.022 A 
ATOM      8  C7  BZF d   1       1.806  -1.643  -0.477  0.00  0.00     0.029 A 
ATOM      9  C7A BZF d   1       1.011  -1.341   0.601  0.00  0.00     0.058 A 
ENDROOT
TORSDOF 0
ENDMDL
