MODEL 1
REMARK minimizedAffinity 7.58693743
REMARK minimizedRMSD -1
REMARK  0 active torsions:
REMARK  status: ('A' for Active; 'I' for Inactive)
ROOT
ATOM      1  O1  BZF d   1       1.827   2.458  -5.997  0.00  0.00    -0.204 OA
ATOM      2  C2  BZF d   1       2.825   1.503  -5.980  0.00  0.00     0.174 A 
ATOM      3  C3  BZF d   1       4.043   2.083  -6.000  0.00  0.00    -0.012 A 
ATOM      4  C3A BZF d   1       3.790   3.490  -5.939  0.00  0.00    -0.107 A 
ATOM      5  C4  BZF d   1       4.600   4.589  -5.911  0.00  0.00     0.055 A 
ATOM      6  C5  BZF d   1       4.036   5.825  -5.925  0.00  0.00    -0.016 A 
ATOM      7  C6  BZF d   1       2.669   6.000  -5.972  0.00  0.00     0.022 A 
ATOM      8  C7  BZF d   1       1.824   4.940  -5.996  0.00  0.00     0.029 A 
ATOM      9  C7A BZF d   1       2.390   3.689  -5.949  0.00  0.00     0.058 A 
ENDROOT
TORSDOF 0
ENDMDL
