MODEL 1
REMARK minimizedAffinity 9.39308929
REMARK minimizedRMSD -1
REMARK  0 active torsions:
REMARK  status: ('A' for Active; 'I' for Inactive)
ROOT
ATOM      1  O1  BZF d   1       0.547  -0.611  -1.024  0.00  0.00    -0.204 OA
ATOM      2  C2  BZF d   1       1.797  -0.895  -0.507  0.00  0.00     0.174 A 
ATOM      3  C3  BZF d   1       1.767  -0.896   0.842  0.00  0.00    -0.012 A 
ATOM      4  C3A BZF d   1       0.396  -0.685   1.188  0.00  0.00    -0.107 A 
ATOM      5  C4  BZF d   1      -0.270  -0.601   2.378  0.00  0.00     0.055 A 
ATOM      6  C5  BZF d   1      -1.598  -0.315   2.373  0.00  0.00    -0.016 A 
ATOM      7  C6  BZF d   1      -2.291  -0.101   1.199  0.00  0.00     0.022 A 
ATOM      8  C7  BZF d   1      -1.675  -0.179  -0.006  0.00  0.00     0.029 A 
ATOM      9  C7A BZF d   1      -0.339  -0.500  -0.006  0.00  0.00     0.058 A 
ENDROOT
TORSDOF 0
ENDMDL
