MODEL 1
REMARK minimizedAffinity 1.71164393
REMARK minimizedRMSD -1
REMARK  0 active torsions:
REMARK  status: ('A' for Active; 'I' for Inactive)
ROOT
ATOM      1  O1  BZF d   1       4.999   5.959   3.719  0.00  0.00    -0.204 OA
ATOM      2  C2  BZF d   1       4.959   5.949   2.338  0.00  0.00     0.174 A 
ATOM      3  C3  BZF d   1       3.685   5.901   1.897  0.00  0.00    -0.012 A 
ATOM      4  C3A BZF d   1       2.876   5.974   3.075  0.00  0.00    -0.107 A 
ATOM      5  C4  BZF d   1       1.527   5.987   3.289  0.00  0.00     0.055 A 
ATOM      6  C5  BZF d   1       1.061   5.991   4.565  0.00  0.00    -0.016 A 
ATOM      7  C6  BZF d   1       1.913   5.978   5.650  0.00  0.00     0.022 A 
ATOM      8  C7  BZF d   1       3.258   5.971   5.488  0.00  0.00     0.029 A 
ATOM      9  C7A BZF d   1       3.733   5.999   4.200  0.00  0.00     0.058 A 
ENDROOT
TORSDOF 0
ENDMDL
