MODEL 1
REMARK minimizedAffinity 13.8666697
REMARK minimizedRMSD -1
REMARK  0 active torsions:
REMARK  status: ('A' for Active; 'I' for Inactive)
ROOT
ATOM      1  O1  BZF d   1       0.402  -1.718   0.885  0.00  0.00    -0.204 OA
ATOM      2  C2  BZF d   1       1.510  -1.007   0.468  0.00  0.00     0.174 A 
ATOM      3  C3  BZF d   1       1.194   0.286   0.247  0.00  0.00    -0.012 A 
ATOM      4  C3A BZF d   1      -0.178   0.409   0.633  0.00  0.00    -0.107 A 
ATOM      5  C4  BZF d   1      -1.056   1.455   0.658  0.00  0.00     0.055 A 
ATOM      6  C5  BZF d   1      -2.346   1.226   1.020  0.00  0.00    -0.016 A 
ATOM      7  C6  BZF d   1      -2.792  -0.035   1.357  0.00  0.00     0.022 A 
ATOM      8  C7  BZF d   1      -1.957  -1.103   1.352  0.00  0.00     0.029 A 
ATOM      9  C7A BZF d   1      -0.646  -0.869   1.018  0.00  0.00     0.058 A 
ENDROOT
TORSDOF 0
ENDMDL
