MODEL 1
REMARK minimizedAffinity 6.66392565
REMARK minimizedRMSD -1
REMARK  0 active torsions:
REMARK  status: ('A' for Active; 'I' for Inactive)
ROOT
ATOM      1  O1  BZF d   1       0.909  -0.621  -0.193  0.00  0.00    -0.204 OA
ATOM      2  C2  BZF d   1       1.962  -1.438   0.171  0.00  0.00     0.174 A 
ATOM      3  C3  BZF d   1       1.742  -1.992   1.381  0.00  0.00    -0.012 A 
ATOM      4  C3A BZF d   1       0.430  -1.562   1.758  0.00  0.00    -0.107 A 
ATOM      5  C4  BZF d   1      -0.356  -1.795   2.850  0.00  0.00     0.055 A 
ATOM      6  C5  BZF d   1      -1.557  -1.167   2.946  0.00  0.00    -0.016 A 
ATOM      7  C6  BZF d   1      -2.000  -0.296   1.972  0.00  0.00     0.022 A 
ATOM      8  C7  BZF d   1      -1.257  -0.037   0.868  0.00  0.00     0.029 A 
ATOM      9  C7A BZF d   1      -0.058  -0.696   0.753  0.00  0.00     0.058 A 
ENDROOT
TORSDOF 0
ENDMDL
