MODEL 1
REMARK minimizedAffinity -0.712042928
REMARK minimizedRMSD -1
REMARK  0 active torsions:
REMARK  status: ('A' for Active; 'I' for Inactive)
ROOT
ATOM      1  O1  BZF d   1      -1.651  -2.648   3.652  0.00  0.00    -0.204 OA
ATOM      2  C2  BZF d   1      -2.998  -2.943   3.726  0.00  0.00     0.174 A 
ATOM      3  C3  BZF d   1      -3.707  -2.150   2.896  0.00  0.00    -0.012 A 
ATOM      4  C3A BZF d   1      -2.733  -1.370   2.196  0.00  0.00    -0.107 A 
ATOM      5  C4  BZF d   1      -2.818  -0.412   1.227  0.00  0.00     0.055 A 
ATOM      6  C5  BZF d   1      -1.682   0.206   0.809  0.00  0.00    -0.016 A 
ATOM      7  C6  BZF d   1      -0.448  -0.104   1.341  0.00  0.00     0.022 A 
ATOM      8  C7  BZF d   1      -0.314  -1.051   2.302  0.00  0.00     0.029 A 
ATOM      9  C7A BZF d   1      -1.455  -1.701   2.703  0.00  0.00     0.058 A 
ENDROOT
TORSDOF 0
ENDMDL
