MODEL 1
REMARK minimizedAffinity -1.75769019
REMARK minimizedRMSD -1
REMARK  0 active torsions:
REMARK  status: ('A' for Active; 'I' for Inactive)
ROOT
ATOM      1  O1  BZF d   1       0.485   0.521  -2.389  0.00  0.00    -0.204 OA
ATOM      2  C2  BZF d   1      -0.126  -0.636  -1.945  0.00  0.00     0.174 A 
ATOM      3  C3  BZF d   1      -1.468  -0.510  -1.976  0.00  0.00    -0.012 A 
ATOM      4  C3A BZF d   1      -1.713   0.775  -2.557  0.00  0.00    -0.107 A 
ATOM      5  C4  BZF d   1      -2.850   1.465  -2.866  0.00  0.00     0.055 A 
ATOM      6  C5  BZF d   1      -2.744   2.728  -3.356  0.00  0.00    -0.016 A 
ATOM      7  C6  BZF d   1      -1.518   3.332  -3.546  0.00  0.00     0.022 A 
ATOM      8  C7  BZF d   1      -0.362   2.686  -3.259  0.00  0.00     0.029 A 
ATOM      9  C7A BZF d   1      -0.465   1.397  -2.794  0.00  0.00     0.058 A 
ENDROOT
TORSDOF 0
ENDMDL
