MODEL 1
REMARK minimizedAffinity 6.5876236
REMARK minimizedRMSD -1
REMARK  0 active torsions:
REMARK  status: ('A' for Active; 'I' for Inactive)
ROOT
ATOM      1  O1  BZF d   1       1.056  -0.464   2.615  0.00  0.00    -0.204 OA
ATOM      2  C2  BZF d   1       2.284  -0.949   2.209  0.00  0.00     0.174 A 
ATOM      3  C3  BZF d   1       2.265  -1.260   0.896  0.00  0.00    -0.012 A 
ATOM      4  C3A BZF d   1       0.971  -0.863   0.434  0.00  0.00    -0.107 A 
ATOM      5  C4  BZF d   1       0.357  -0.901  -0.786  0.00  0.00     0.055 A 
ATOM      6  C5  BZF d   1      -0.939  -0.504  -0.886  0.00  0.00    -0.016 A 
ATOM      7  C6  BZF d   1      -1.651  -0.068   0.212  0.00  0.00     0.022 A 
ATOM      8  C7  BZF d   1      -1.084  -0.008   1.441  0.00  0.00     0.029 A 
ATOM      9  C7A BZF d   1       0.235  -0.378   1.540  0.00  0.00     0.058 A 
ENDROOT
TORSDOF 0
ENDMDL
