MODEL 1
REMARK minimizedAffinity 6.0012002
REMARK minimizedRMSD -1
REMARK  0 active torsions:
REMARK  status: ('A' for Active; 'I' for Inactive)
ROOT
ATOM      1  O1  BZF d   1       2.645   5.906   1.939  0.00  0.00    -0.204 OA
ATOM      2  C2  BZF d   1       4.021   5.914   1.811  0.00  0.00     0.174 A 
ATOM      3  C3  BZF d   1       4.613   6.000   3.020  0.00  0.00    -0.012 A 
ATOM      4  C3A BZF d   1       3.543   5.956   3.968  0.00  0.00    -0.107 A 
ATOM      5  C4  BZF d   1       3.495   5.986   5.332  0.00  0.00     0.055 A 
ATOM      6  C5  BZF d   1       2.285   6.000   5.951  0.00  0.00    -0.016 A 
ATOM      7  C6  BZF d   1       1.105   5.989   5.237  0.00  0.00     0.022 A 
ATOM      8  C7  BZF d   1       1.101   5.954   3.882  0.00  0.00     0.029 A 
ATOM      9  C7A BZF d   1       2.322   5.907   3.255  0.00  0.00     0.058 A 
ENDROOT
TORSDOF 0
ENDMDL
