MODEL 1
REMARK minimizedAffinity 9.12740135
REMARK minimizedRMSD -1
REMARK  0 active torsions:
REMARK  status: ('A' for Active; 'I' for Inactive)
ROOT
ATOM      1  O1  BZF d   1       1.848  -0.806  -0.714  0.00  0.00    -0.204 OA
ATOM      2  C2  BZF d   1       2.741   0.166  -1.121  0.00  0.00     0.174 A 
ATOM      3  C3  BZF d   1       2.291   1.395  -0.796  0.00  0.00    -0.012 A 
ATOM      4  C3A BZF d   1       1.082   1.172  -0.064  0.00  0.00    -0.107 A 
ATOM      5  C4  BZF d   1       0.182   2.004   0.538  0.00  0.00     0.055 A 
ATOM      6  C5  BZF d   1      -0.932   1.472   1.107  0.00  0.00    -0.016 A 
ATOM      7  C6  BZF d   1      -1.179   0.115   1.087  0.00  0.00     0.022 A 
ATOM      8  C7  BZF d   1      -0.313  -0.751   0.506  0.00  0.00     0.029 A 
ATOM      9  C7A BZF d   1       0.829  -0.219  -0.040  0.00  0.00     0.058 A 
ENDROOT
TORSDOF 0
ENDMDL
