MODEL 1
REMARK minimizedAffinity 0.731982827
REMARK minimizedRMSD -1
REMARK  0 active torsions:
REMARK  status: ('A' for Active; 'I' for Inactive)
ROOT
ATOM      1  C   UNL d   1       3.574   1.690   5.997  0.00  0.00     0.078 C 
ATOM      2  C1  UNL d   1       3.709   3.184   5.987  0.00  0.00    -0.077 A 
ATOM      3  C2  UNL d   1       4.969   3.794   5.999  0.00  0.00    -0.001 A 
ATOM      4  C3  UNL d   1       5.079   5.186   6.000  0.00  0.00     0.003 A 
ATOM      5  C4  UNL d   1       3.933   5.978   5.989  0.00  0.00    -0.005 A 
ATOM      6  C5  UNL d   1       2.675   5.380   5.980  0.00  0.00     0.003 A 
ATOM      7  C6  UNL d   1       2.563   3.989   5.979  0.00  0.00    -0.001 A 
ENDROOT
TORSDOF 0
ENDMDL
