MODEL 1
REMARK minimizedAffinity -4.49538612
REMARK minimizedRMSD -1
REMARK  0 active torsions:
REMARK  status: ('A' for Active; 'I' for Inactive)
ROOT
ATOM      1  C   UNL d   1       1.831   4.392   6.000  0.00  0.00     0.078 C 
ATOM      2  C1  UNL d   1       3.073   3.665   5.580  0.00  0.00    -0.077 A 
ATOM      3  C2  UNL d   1       4.132   4.344   4.963  0.00  0.00    -0.001 A 
ATOM      4  C3  UNL d   1       5.279   3.653   4.569  0.00  0.00     0.003 A 
ATOM      5  C4  UNL d   1       5.377   2.280   4.785  0.00  0.00    -0.005 A 
ATOM      6  C5  UNL d   1       4.328   1.596   5.395  0.00  0.00     0.003 A 
ATOM      7  C6  UNL d   1       3.181   2.285   5.791  0.00  0.00    -0.001 A 
ENDROOT
TORSDOF 0
ENDMDL
