MODEL 1
REMARK minimizedAffinity -0.24474889
REMARK minimizedRMSD -1
REMARK  0 active torsions:
REMARK  status: ('A' for Active; 'I' for Inactive)
ROOT
ATOM      1  C   UNL d   1       1.503   5.238   6.000  0.00  0.00     0.078 C 
ATOM      2  C1  UNL d   1       2.813   4.514   5.913  0.00  0.00    -0.077 A 
ATOM      3  C2  UNL d   1       4.013   5.213   5.733  0.00  0.00    -0.001 A 
ATOM      4  C3  UNL d   1       5.224   4.526   5.644  0.00  0.00     0.003 A 
ATOM      5  C4  UNL d   1       5.248   3.136   5.734  0.00  0.00    -0.005 A 
ATOM      6  C5  UNL d   1       4.059   2.431   5.911  0.00  0.00     0.003 A 
ATOM      7  C6  UNL d   1       2.847   3.117   6.000  0.00  0.00    -0.001 A 
ENDROOT
TORSDOF 0
ENDMDL
