MODEL 1
REMARK minimizedAffinity 1.13511813
REMARK minimizedRMSD -1
REMARK  0 active torsions:
REMARK  status: ('A' for Active; 'I' for Inactive)
ROOT
ATOM      1  C   UNL d   1       1.559   5.270   6.000  0.00  0.00     0.078 C 
ATOM      2  C1  UNL d   1       2.523   4.121   5.987  0.00  0.00    -0.077 A 
ATOM      3  C2  UNL d   1       2.067   2.798   5.980  0.00  0.00    -0.001 A 
ATOM      4  C3  UNL d   1       2.975   1.738   5.978  0.00  0.00     0.003 A 
ATOM      5  C4  UNL d   1       4.345   1.991   5.985  0.00  0.00    -0.005 A 
ATOM      6  C5  UNL d   1       4.809   3.305   5.995  0.00  0.00     0.003 A 
ATOM      7  C6  UNL d   1       3.902   4.366   5.997  0.00  0.00    -0.001 A 
ENDROOT
TORSDOF 0
ENDMDL
