MODEL 1
REMARK minimizedAffinity 2.08042932
REMARK minimizedRMSD -1
REMARK  0 active torsions:
REMARK  status: ('A' for Active; 'I' for Inactive)
ROOT
ATOM      1  C   UNL d   1       0.448  -5.277   5.174  0.00  0.00     0.078 C 
ATOM      2  C1  UNL d   1       0.824  -3.835   5.005  0.00  0.00    -0.077 A 
ATOM      3  C2  UNL d   1       1.545  -3.157   5.995  0.00  0.00    -0.001 A 
ATOM      4  C3  UNL d   1       1.879  -1.812   5.829  0.00  0.00     0.003 A 
ATOM      5  C4  UNL d   1       1.496  -1.133   4.673  0.00  0.00    -0.005 A 
ATOM      6  C5  UNL d   1       0.777  -1.800   3.683  0.00  0.00     0.003 A 
ATOM      7  C6  UNL d   1       0.441  -3.144   3.848  0.00  0.00    -0.001 A 
ENDROOT
TORSDOF 0
ENDMDL
