MODEL 1
REMARK minimizedAffinity -0.656813502
REMARK minimizedRMSD -1
REMARK  0 active torsions:
REMARK  status: ('A' for Active; 'I' for Inactive)
ROOT
ATOM      1  C   UNL d   1       3.065   0.737   5.995  0.00  0.00     0.078 C 
ATOM      2  C1  UNL d   1       3.711   2.066   5.742  0.00  0.00    -0.077 A 
ATOM      3  C2  UNL d   1       3.027   3.261   5.997  0.00  0.00    -0.001 A 
ATOM      4  C3  UNL d   1       3.638   4.491   5.747  0.00  0.00     0.003 A 
ATOM      5  C4  UNL d   1       4.935   4.538   5.240  0.00  0.00    -0.005 A 
ATOM      6  C5  UNL d   1       5.623   3.354   4.981  0.00  0.00     0.003 A 
ATOM      7  C6  UNL d   1       5.014   2.123   5.230  0.00  0.00    -0.001 A 
ENDROOT
TORSDOF 0
ENDMDL
