MODEL 1
REMARK minimizedAffinity -1.81615007
REMARK minimizedRMSD -1
REMARK  0 active torsions:
REMARK  status: ('A' for Active; 'I' for Inactive)
ROOT
ATOM      1  C   UNL d   1       1.545   5.247   5.994  0.00  0.00     0.078 C 
ATOM      2  C1  UNL d   1       2.753   4.399   5.731  0.00  0.00    -0.077 A 
ATOM      3  C2  UNL d   1       2.742   3.025   5.999  0.00  0.00    -0.001 A 
ATOM      4  C3  UNL d   1       3.877   2.249   5.758  0.00  0.00     0.003 A 
ATOM      5  C4  UNL d   1       5.032   2.839   5.249  0.00  0.00    -0.005 A 
ATOM      6  C5  UNL d   1       5.054   4.206   4.981  0.00  0.00     0.003 A 
ATOM      7  C6  UNL d   1       3.920   4.983   5.221  0.00  0.00    -0.001 A 
ENDROOT
TORSDOF 0
ENDMDL
