MODEL 1
REMARK minimizedAffinity 3.66953516
REMARK minimizedRMSD -1
REMARK  0 active torsions:
REMARK  status: ('A' for Active; 'I' for Inactive)
ROOT
ATOM      1  C   UNL d   1       3.411   0.395   5.612  0.00  0.00     0.078 C 
ATOM      2  C1  UNL d   1       4.041   1.756   5.626  0.00  0.00    -0.077 A 
ATOM      3  C2  UNL d   1       3.306   2.887   6.000  0.00  0.00    -0.001 A 
ATOM      4  C3  UNL d   1       3.903   4.149   6.000  0.00  0.00     0.003 A 
ATOM      5  C4  UNL d   1       5.237   4.291   5.626  0.00  0.00    -0.005 A 
ATOM      6  C5  UNL d   1       5.977   3.171   5.250  0.00  0.00     0.003 A 
ATOM      7  C6  UNL d   1       5.381   1.909   5.250  0.00  0.00    -0.001 A 
ENDROOT
TORSDOF 0
ENDMDL
