MODEL 1
REMARK minimizedAffinity 10.0964136
REMARK minimizedRMSD -1
REMARK  0 active torsions:
REMARK  status: ('A' for Active; 'I' for Inactive)
ROOT
ATOM      1  C   UNL d   1      -5.987  -0.053  -5.267  0.00  0.00     0.078 C 
ATOM      2  C1  UNL d   1      -5.259   1.162  -4.776  0.00  0.00    -0.077 A 
ATOM      3  C2  UNL d   1      -3.866   1.161  -4.636  0.00  0.00    -0.001 A 
ATOM      4  C3  UNL d   1      -3.202   2.296  -4.169  0.00  0.00     0.003 A 
ATOM      5  C4  UNL d   1      -3.923   3.441  -3.837  0.00  0.00    -0.005 A 
ATOM      6  C5  UNL d   1      -5.310   3.451  -3.971  0.00  0.00     0.003 A 
ATOM      7  C6  UNL d   1      -5.976   2.317  -4.438  0.00  0.00    -0.001 A 
ENDROOT
TORSDOF 0
ENDMDL
