MODEL 1
REMARK minimizedAffinity 7.81468582
REMARK minimizedRMSD -1
REMARK  0 active torsions:
REMARK  status: ('A' for Active; 'I' for Inactive)
ROOT
ATOM      1  C   UNL d   1       2.724   4.335   5.999  0.00  0.00     0.078 C 
ATOM      2  C1  UNL d   1       3.779   3.955   5.004  0.00  0.00    -0.077 A 
ATOM      3  C2  UNL d   1       3.725   2.731   4.326  0.00  0.00    -0.001 A 
ATOM      4  C3  UNL d   1       4.719   2.387   3.409  0.00  0.00     0.003 A 
ATOM      5  C4  UNL d   1       5.776   3.260   3.163  0.00  0.00    -0.005 A 
ATOM      6  C5  UNL d   1       5.841   4.479   3.834  0.00  0.00     0.003 A 
ATOM      7  C6  UNL d   1       4.847   4.826   4.751  0.00  0.00    -0.001 A 
ENDROOT
TORSDOF 0
ENDMDL
