MODEL 1
REMARK minimizedAffinity -3.75205326
REMARK minimizedRMSD -1
REMARK  0 active torsions:
REMARK  status: ('A' for Active; 'I' for Inactive)
ROOT
ATOM      1  C   UNL d   1       3.594   0.739   5.647  0.00  0.00     0.078 C 
ATOM      2  C1  UNL d   1       3.816   2.222   5.629  0.00  0.00    -0.077 A 
ATOM      3  C2  UNL d   1       5.054   2.761   5.258  0.00  0.00    -0.001 A 
ATOM      4  C3  UNL d   1       5.249   4.143   5.255  0.00  0.00     0.003 A 
ATOM      5  C4  UNL d   1       4.211   4.997   5.624  0.00  0.00    -0.005 A 
ATOM      6  C5  UNL d   1       2.977   4.469   5.997  0.00  0.00     0.003 A 
ATOM      7  C6  UNL d   1       2.780   3.088   6.000  0.00  0.00    -0.001 A 
ENDROOT
TORSDOF 0
ENDMDL
