MODEL 1
REMARK minimizedAffinity 1.76126194
REMARK minimizedRMSD -1
REMARK  0 active torsions:
REMARK  status: ('A' for Active; 'I' for Inactive)
ROOT
ATOM      1  C   UNL d   1       5.191   2.986   1.963  0.00  0.00     0.078 C 
ATOM      2  C1  UNL d   1       4.766   3.265   3.374  0.00  0.00    -0.077 A 
ATOM      3  C2  UNL d   1       5.152   2.422   4.423  0.00  0.00    -0.001 A 
ATOM      4  C3  UNL d   1       4.741   2.688   5.730  0.00  0.00     0.003 A 
ATOM      5  C4  UNL d   1       3.942   3.797   6.000  0.00  0.00    -0.005 A 
ATOM      6  C5  UNL d   1       3.551   4.641   4.962  0.00  0.00     0.003 A 
ATOM      7  C6  UNL d   1       3.961   4.376   3.654  0.00  0.00    -0.001 A 
ENDROOT
TORSDOF 0
ENDMDL
