MODEL 1
REMARK minimizedAffinity 2.04702544
REMARK minimizedRMSD -1
REMARK  0 active torsions:
REMARK  status: ('A' for Active; 'I' for Inactive)
ROOT
ATOM      1  C   UNL d   1       5.501   3.732   3.132  0.00  0.00     0.078 C 
ATOM      2  C1  UNL d   1       4.510   3.220   4.134  0.00  0.00    -0.077 A 
ATOM      3  C2  UNL d   1       4.320   1.845   4.323  0.00  0.00    -0.001 A 
ATOM      4  C3  UNL d   1       3.387   1.383   5.253  0.00  0.00     0.003 A 
ATOM      5  C4  UNL d   1       2.636   2.288   6.000  0.00  0.00    -0.005 A 
ATOM      6  C5  UNL d   1       2.817   3.658   5.818  0.00  0.00     0.003 A 
ATOM      7  C6  UNL d   1       3.750   4.122   4.889  0.00  0.00    -0.001 A 
ENDROOT
TORSDOF 0
ENDMDL
