MODEL 1
REMARK minimizedAffinity -4.00525951
REMARK minimizedRMSD -1
REMARK  1 active torsions:
REMARK  status: ('A' for Active; 'I' for Inactive)
REMARK    1  A    between atoms: N_2  and  C1_3 
ROOT
ATOM      1  C1  UNL d   1      -5.120   1.199   2.000  0.00  0.00     0.143 A 
ATOM      2  C2  UNL d   1      -3.762   0.921   1.806  0.00  0.00    -0.057 A 
ATOM      3  C3  UNL d   1      -2.908   0.682   2.890  0.00  0.00     0.033 A 
ATOM      4  C4  UNL d   1      -3.393   0.745   4.192  0.00  0.00    -0.042 A 
ATOM      5  C5  UNL d   1      -4.733   1.044   4.410  0.00  0.00     0.033 A 
ATOM      6  C6  UNL d   1      -5.582   1.276   3.323  0.00  0.00    -0.057 A 
ENDROOT
BRANCH   1   7
ATOM      7  N   UNL d   1      -5.998   1.543   0.970  0.00  0.00    -0.732 N 
ATOM      8  C   UNL d   1      -5.695   1.198  -0.403  0.00  0.00     0.284 C 
ATOM      9  H3  UNL d   1      -6.972   1.406   1.228  0.00  0.00     0.395 HD
ENDBRANCH   1   7
TORSDOF 1
ENDMDL
