MODEL 1
REMARK minimizedAffinity -2.12722397
REMARK minimizedRMSD -1
REMARK  1 active torsions:
REMARK  status: ('A' for Active; 'I' for Inactive)
REMARK    1  A    between atoms: N_2  and  C1_3 
ROOT
ATOM      1  C1  UNL d   1       0.170  -5.018  -4.899  0.00  0.00     0.143 A 
ATOM      2  C2  UNL d   1      -0.655  -4.354  -3.985  0.00  0.00    -0.057 A 
ATOM      3  C3  UNL d   1      -2.049  -4.478  -4.042  0.00  0.00     0.033 A 
ATOM      4  C4  UNL d   1      -2.645  -5.250  -5.034  0.00  0.00    -0.042 A 
ATOM      5  C5  UNL d   1      -1.845  -5.899  -5.968  0.00  0.00     0.033 A 
ATOM      6  C6  UNL d   1      -0.454  -5.776  -5.902  0.00  0.00    -0.057 A 
ENDROOT
BRANCH   1   7
ATOM      7  N   UNL d   1       1.556  -4.856  -4.955  0.00  0.00    -0.732 N 
ATOM      8  C   UNL d   1       2.438  -5.994  -4.808  0.00  0.00     0.284 C 
ATOM      9  H3  UNL d   1       1.841  -4.200  -5.679  0.00  0.00     0.395 HD
ENDBRANCH   1   7
TORSDOF 1
ENDMDL
