MODEL 1
REMARK minimizedAffinity 2.60453296
REMARK minimizedRMSD -1
REMARK  1 active torsions:
REMARK  status: ('A' for Active; 'I' for Inactive)
REMARK    1  A    between atoms: N_2  and  C1_3 
ROOT
ATOM      1  C1  UNL d   1      -1.044  -0.509   3.276  0.00  0.00     0.143 A 
ATOM      2  C2  UNL d   1      -1.110  -1.530   2.321  0.00  0.00    -0.057 A 
ATOM      3  C3  UNL d   1      -2.068  -1.509   1.300  0.00  0.00     0.033 A 
ATOM      4  C4  UNL d   1      -2.999  -0.477   1.233  0.00  0.00    -0.042 A 
ATOM      5  C5  UNL d   1      -2.968   0.535   2.186  0.00  0.00     0.033 A 
ATOM      6  C6  UNL d   1      -2.005   0.511   3.199  0.00  0.00    -0.057 A 
ENDROOT
BRANCH   1   7
ATOM      7  N   UNL d   1      -0.179  -0.524   4.372  0.00  0.00    -0.732 N 
ATOM      8  C   UNL d   1       0.829  -1.555   4.502  0.00  0.00     0.284 C 
ATOM      9  H3  UNL d   1       0.144   0.407   4.625  0.00  0.00     0.395 HD
ENDBRANCH   1   7
TORSDOF 1
ENDMDL
