MODEL 1
REMARK minimizedAffinity 5.74641132
REMARK minimizedRMSD -1
REMARK  1 active torsions:
REMARK  status: ('A' for Active; 'I' for Inactive)
REMARK    1  A    between atoms: N_2  and  C1_3 
ROOT
ATOM      1  C1  UNL d   1       3.284   4.409  -3.019  0.00  0.00     0.143 A 
ATOM      2  C2  UNL d   1       4.205   5.145  -2.266  0.00  0.00    -0.057 A 
ATOM      3  C3  UNL d   1       5.548   5.242  -2.653  0.00  0.00     0.033 A 
ATOM      4  C4  UNL d   1       6.000   4.577  -3.788  0.00  0.00    -0.042 A 
ATOM      5  C5  UNL d   1       5.108   3.819  -4.537  0.00  0.00     0.033 A 
ATOM      6  C6  UNL d   1       3.767   3.732  -4.149  0.00  0.00    -0.057 A 
ENDROOT
BRANCH   1   7
ATOM      7  N   UNL d   1       1.959   4.194  -2.633  0.00  0.00    -0.732 N 
ATOM      8  C   UNL d   1       1.009   5.286  -2.621  0.00  0.00     0.284 C 
ATOM      9  H3  UNL d   1       1.585   3.321  -2.997  0.00  0.00     0.395 HD
ENDBRANCH   1   7
TORSDOF 1
ENDMDL
