MODEL 1
REMARK minimizedAffinity 1.98582256
REMARK minimizedRMSD -1
REMARK  1 active torsions:
REMARK  status: ('A' for Active; 'I' for Inactive)
REMARK    1  A    between atoms: N_2  and  C1_3 
ROOT
ATOM      1  C1  UNL d   1      -3.329   1.312   2.696  0.00  0.00     0.143 A 
ATOM      2  C2  UNL d   1      -3.621   1.064   1.351  0.00  0.00    -0.057 A 
ATOM      3  C3  UNL d   1      -2.916   0.099   0.621  0.00  0.00     0.033 A 
ATOM      4  C4  UNL d   1      -1.884  -0.616   1.218  0.00  0.00    -0.042 A 
ATOM      5  C5  UNL d   1      -1.560  -0.369   2.547  0.00  0.00     0.033 A 
ATOM      6  C6  UNL d   1      -2.272   0.591   3.273  0.00  0.00    -0.057 A 
ENDROOT
BRANCH   1   7
ATOM      7  N   UNL d   1      -3.927   2.327   3.448  0.00  0.00    -0.732 N 
ATOM      8  C   UNL d   1      -5.347   2.299   3.725  0.00  0.00     0.284 C 
ATOM      9  H3  UNL d   1      -3.354   2.613   4.238  0.00  0.00     0.395 HD
ENDBRANCH   1   7
TORSDOF 1
ENDMDL
