MODEL 1
REMARK minimizedAffinity 3.18021488
REMARK minimizedRMSD -1
REMARK  1 active torsions:
REMARK  status: ('A' for Active; 'I' for Inactive)
REMARK    1  A    between atoms: N_2  and  C1_3 
ROOT
ATOM      1  C1  UNL d   1      -2.098  -0.830   1.678  0.00  0.00     0.143 A 
ATOM      2  C2  UNL d   1      -3.316  -0.725   0.998  0.00  0.00    -0.057 A 
ATOM      3  C3  UNL d   1      -4.209   0.319   1.266  0.00  0.00     0.033 A 
ATOM      4  C4  UNL d   1      -3.911   1.263   2.243  0.00  0.00    -0.042 A 
ATOM      5  C5  UNL d   1      -2.718   1.164   2.949  0.00  0.00     0.033 A 
ATOM      6  C6  UNL d   1      -1.827   0.123   2.672  0.00  0.00    -0.057 A 
ENDROOT
BRANCH   1   7
ATOM      7  N   UNL d   1      -1.212  -1.900   1.526  0.00  0.00    -0.732 N 
ATOM      8  C   UNL d   1      -0.086  -2.058   2.422  0.00  0.00     0.284 C 
ATOM      9  H3  UNL d   1      -1.689  -2.770   1.301  0.00  0.00     0.395 HD
ENDBRANCH   1   7
TORSDOF 1
ENDMDL
