MODEL 1
REMARK minimizedAffinity 3.89740443
REMARK minimizedRMSD -1
REMARK  1 active torsions:
REMARK  status: ('A' for Active; 'I' for Inactive)
REMARK    1  A    between atoms: N_2  and  C1_3 
ROOT
ATOM      1  C1  UNL d   1      -2.974  -0.329   1.176  0.00  0.00     0.143 A 
ATOM      2  C2  UNL d   1      -4.169   0.386   1.038  0.00  0.00    -0.057 A 
ATOM      3  C3  UNL d   1      -4.850   0.434  -0.184  0.00  0.00     0.033 A 
ATOM      4  C4  UNL d   1      -4.332  -0.211  -1.302  0.00  0.00    -0.042 A 
ATOM      5  C5  UNL d   1      -3.133  -0.908  -1.195  0.00  0.00     0.033 A 
ATOM      6  C6  UNL d   1      -2.461  -0.958   0.030  0.00  0.00    -0.057 A 
ENDROOT
BRANCH   1   7
ATOM      7  N   UNL d   1      -2.199  -0.334   2.338  0.00  0.00    -0.732 N 
ATOM      8  C   UNL d   1      -2.225   0.794   3.245  0.00  0.00     0.284 C 
ATOM      9  H3  UNL d   1      -2.199  -1.240   2.801  0.00  0.00     0.395 HD
ENDBRANCH   1   7
TORSDOF 1
ENDMDL
