MODEL 1
REMARK minimizedAffinity 6.00400448
REMARK minimizedRMSD -1
REMARK  1 active torsions:
REMARK  status: ('A' for Active; 'I' for Inactive)
REMARK    1  A    between atoms: N_2  and  C1_3 
ROOT
ATOM      1  C1  UNL d   1      -1.789   0.164   3.118  0.00  0.00     0.143 A 
ATOM      2  C2  UNL d   1      -0.490  -0.125   2.686  0.00  0.00    -0.057 A 
ATOM      3  C3  UNL d   1      -0.247  -1.116   1.727  0.00  0.00     0.033 A 
ATOM      4  C4  UNL d   1      -1.300  -1.859   1.204  0.00  0.00    -0.042 A 
ATOM      5  C5  UNL d   1      -2.596  -1.607   1.637  0.00  0.00     0.033 A 
ATOM      6  C6  UNL d   1      -2.834  -0.611   2.590  0.00  0.00    -0.057 A 
ENDROOT
BRANCH   1   7
ATOM      7  N   UNL d   1      -2.086   1.069   4.139  0.00  0.00    -0.732 N 
ATOM      8  C   UNL d   1      -2.516   0.599   5.439  0.00  0.00     0.284 C 
ATOM      9  H3  UNL d   1      -1.428   1.845   4.174  0.00  0.00     0.395 HD
ENDBRANCH   1   7
TORSDOF 1
ENDMDL
