MODEL 1
REMARK minimizedAffinity 5.80977964
REMARK minimizedRMSD -1
REMARK  1 active torsions:
REMARK  status: ('A' for Active; 'I' for Inactive)
REMARK    1  A    between atoms: N_2  and  C1_3 
ROOT
ATOM      1  C1  UNL d   1       1.518   1.689  -1.450  0.00  0.00     0.143 A 
ATOM      2  C2  UNL d   1       2.905   1.539  -1.555  0.00  0.00    -0.057 A 
ATOM      3  C3  UNL d   1       3.683   1.186  -0.446  0.00  0.00     0.033 A 
ATOM      4  C4  UNL d   1       3.090   1.005   0.799  0.00  0.00    -0.042 A 
ATOM      5  C5  UNL d   1       1.716   1.174   0.932  0.00  0.00     0.033 A 
ATOM      6  C6  UNL d   1       0.943   1.520  -0.181  0.00  0.00    -0.057 A 
ENDROOT
BRANCH   1   7
ATOM      7  N   UNL d   1       0.703   2.134  -2.493  0.00  0.00    -0.732 N 
ATOM      8  C   UNL d   1       0.957   3.406  -3.136  0.00  0.00     0.284 C 
ATOM      9  H3  UNL d   1       0.451   1.387  -3.136  0.00  0.00     0.395 HD
ENDBRANCH   1   7
TORSDOF 1
ENDMDL
