MODEL 1
REMARK minimizedAffinity 5.84921694
REMARK minimizedRMSD -1
REMARK  1 active torsions:
REMARK  status: ('A' for Active; 'I' for Inactive)
REMARK    1  A    between atoms: N_2  and  C1_3 
ROOT
ATOM      1  C1  UNL d   1      -4.537   0.185   5.532  0.00  0.00     0.143 A 
ATOM      2  C2  UNL d   1      -4.885   1.467   5.970  0.00  0.00    -0.057 A 
ATOM      3  C3  UNL d   1      -4.176   2.598   5.545  0.00  0.00     0.033 A 
ATOM      4  C4  UNL d   1      -3.085   2.462   4.694  0.00  0.00    -0.042 A 
ATOM      5  C5  UNL d   1      -2.705   1.195   4.265  0.00  0.00     0.033 A 
ATOM      6  C6  UNL d   1      -3.421   0.071   4.687  0.00  0.00    -0.057 A 
ENDROOT
BRANCH   1   7
ATOM      7  N   UNL d   1      -5.140  -0.986   5.995  0.00  0.00    -0.732 N 
ATOM      8  C   UNL d   1      -5.139  -2.186   5.186  0.00  0.00     0.284 C 
ATOM      9  H3  UNL d   1      -4.961  -1.150   6.983  0.00  0.00     0.395 HD
ENDBRANCH   1   7
TORSDOF 1
ENDMDL
