MODEL 1
REMARK minimizedAffinity 5.09105778
REMARK minimizedRMSD -1
REMARK  1 active torsions:
REMARK  status: ('A' for Active; 'I' for Inactive)
REMARK    1  A    between atoms: N_2  and  C1_3 
ROOT
ATOM      1  C1  UNL d   1      -4.448   5.228  -3.498  0.00  0.00     0.143 A 
ATOM      2  C2  UNL d   1      -5.258   5.586  -4.581  0.00  0.00    -0.057 A 
ATOM      3  C3  UNL d   1      -4.706   5.915  -5.825  0.00  0.00     0.033 A 
ATOM      4  C4  UNL d   1      -3.326   5.921  -5.999  0.00  0.00    -0.042 A 
ATOM      5  C5  UNL d   1      -2.499   5.593  -4.930  0.00  0.00     0.033 A 
ATOM      6  C6  UNL d   1      -3.058   5.259  -3.693  0.00  0.00    -0.057 A 
ENDROOT
BRANCH   1   7
ATOM      7  N   UNL d   1      -4.932   4.986  -2.211  0.00  0.00    -0.732 N 
ATOM      8  C   UNL d   1      -6.000   4.034  -1.991  0.00  0.00     0.284 C 
ATOM      9  H3  UNL d   1      -4.188   4.944  -1.518  0.00  0.00     0.395 HD
ENDBRANCH   1   7
TORSDOF 1
ENDMDL
