MODEL 1
REMARK minimizedAffinity 2.62767482
REMARK minimizedRMSD -1
REMARK  1 active torsions:
REMARK  status: ('A' for Active; 'I' for Inactive)
REMARK    1  A    between atoms: N_2  and  C1_3 
ROOT
ATOM      1  C1  UNL d   1       0.632  -5.470  -5.083  0.00  0.00     0.143 A 
ATOM      2  C2  UNL d   1      -0.293  -5.998  -5.991  0.00  0.00    -0.057 A 
ATOM      3  C3  UNL d   1      -1.627  -5.572  -6.000  0.00  0.00     0.033 A 
ATOM      4  C4  UNL d   1      -2.067  -4.627  -5.079  0.00  0.00    -0.042 A 
ATOM      5  C5  UNL d   1      -1.172  -4.107  -4.151  0.00  0.00     0.033 A 
ATOM      6  C6  UNL d   1       0.160  -4.531  -4.152  0.00  0.00    -0.057 A 
ENDROOT
BRANCH   1   7
ATOM      7  N   UNL d   1       1.947  -5.924  -4.960  0.00  0.00    -0.732 N 
ATOM      8  C   UNL d   1       2.583  -5.995  -3.662  0.00  0.00     0.284 C 
ATOM      9  H3  UNL d   1       2.141  -6.721  -5.562  0.00  0.00     0.395 HD
ENDBRANCH   1   7
TORSDOF 1
ENDMDL
