MODEL 1
REMARK minimizedAffinity -0.130466744
REMARK minimizedRMSD -1
REMARK  0 active torsions:
REMARK  status: ('A' for Active; 'I' for Inactive)
ROOT
ATOM      1  C1  DEN d   1       5.056  -2.259   2.660  0.00  0.00     0.130 A 
ATOM      2  C2  DEN d   1       5.935  -2.552   3.788  0.00  0.00    -0.031 A 
ATOM      3  C3  DEN d   1       5.093  -2.959   4.931  0.00  0.00     0.027 A 
ATOM      4  C4  DEN d   1       2.525  -3.167   5.060  0.00  0.00     0.027 A 
ATOM      5  C5  DEN d   1       1.350  -3.013   4.359  0.00  0.00    -0.003 A 
ATOM      6  C6  DEN d   1       1.325  -2.568   3.064  0.00  0.00     0.001 A 
ATOM      7  C7  DEN d   1       2.502  -2.304   2.414  0.00  0.00     0.017 A 
ATOM      8  C8  DEN d   1       3.691  -2.450   3.117  0.00  0.00    -0.094 A 
ATOM      9  C9  DEN d   1       3.695  -2.913   4.422  0.00  0.00    -0.072 A 
ENDROOT
TORSDOF 0
ENDMDL
