MODEL 1
REMARK minimizedAffinity 10.5373573
REMARK minimizedRMSD -1
REMARK  0 active torsions:
REMARK  status: ('A' for Active; 'I' for Inactive)
ROOT
ATOM      1  C1  DEN d   1      -2.280   2.253   1.489  0.00  0.00     0.130 A 
ATOM      2  C2  DEN d   1      -1.562   2.551   0.253  0.00  0.00    -0.031 A 
ATOM      3  C3  DEN d   1      -2.401   3.459  -0.555  0.00  0.00     0.027 A 
ATOM      4  C4  DEN d   1      -4.727   4.431  -0.012  0.00  0.00     0.027 A 
ATOM      5  C5  DEN d   1      -5.746   4.455   0.915  0.00  0.00    -0.003 A 
ATOM      6  C6  DEN d   1      -5.695   3.726   2.074  0.00  0.00     0.001 A 
ATOM      7  C7  DEN d   1      -4.584   2.977   2.356  0.00  0.00     0.017 A 
ATOM      8  C8  DEN d   1      -3.556   2.942   1.423  0.00  0.00    -0.094 A 
ATOM      9  C9  DEN d   1      -3.621   3.696   0.263  0.00  0.00    -0.072 A 
ENDROOT
TORSDOF 0
ENDMDL
