MODEL 1
REMARK minimizedAffinity 5.505229
REMARK minimizedRMSD -1
REMARK  0 active torsions:
REMARK  status: ('A' for Active; 'I' for Inactive)
ROOT
ATOM      1  C1  DEN d   1       5.463  -2.075   4.075  0.00  0.00     0.130 A 
ATOM      2  C2  DEN d   1       5.581  -2.657   5.409  0.00  0.00    -0.031 A 
ATOM      3  C3  DEN d   1       4.217  -2.881   5.931  0.00  0.00     0.027 A 
ATOM      4  C4  DEN d   1       1.949  -2.390   4.806  0.00  0.00     0.027 A 
ATOM      5  C5  DEN d   1       1.341  -1.885   3.678  0.00  0.00    -0.003 A 
ATOM      6  C6  DEN d   1       2.058  -1.380   2.626  0.00  0.00     0.001 A 
ATOM      7  C7  DEN d   1       3.428  -1.411   2.661  0.00  0.00     0.017 A 
ATOM      8  C8  DEN d   1       4.047  -1.912   3.798  0.00  0.00    -0.094 A 
ATOM      9  C9  DEN d   1       3.305  -2.429   4.846  0.00  0.00    -0.072 A 
ENDROOT
TORSDOF 0
ENDMDL
