MODEL 1
REMARK minimizedAffinity 14.6883764
REMARK minimizedRMSD -1
REMARK  0 active torsions:
REMARK  status: ('A' for Active; 'I' for Inactive)
ROOT
ATOM      1  C1  DEN d   1       2.349   3.030   3.477  0.00  0.00     0.130 A 
ATOM      2  C2  DEN d   1       3.527   2.174   3.582  0.00  0.00    -0.031 A 
ATOM      3  C3  DEN d   1       3.783   1.585   2.253  0.00  0.00     0.027 A 
ATOM      4  C4  DEN d   1       2.479   1.917   0.053  0.00  0.00     0.027 A 
ATOM      5  C5  DEN d   1       1.398   2.543  -0.528  0.00  0.00    -0.003 A 
ATOM      6  C6  DEN d   1       0.546   3.342   0.187  0.00  0.00     0.001 A 
ATOM      7  C7  DEN d   1       0.786   3.572   1.516  0.00  0.00     0.017 A 
ATOM      8  C8  DEN d   1       1.869   2.938   2.110  0.00  0.00    -0.094 A 
ATOM      9  C9  DEN d   1       2.726   2.144   1.367  0.00  0.00    -0.072 A 
ENDROOT
TORSDOF 0
ENDMDL
