MODEL 1
REMARK minimizedAffinity 20.7605591
REMARK minimizedRMSD -1
REMARK  0 active torsions:
REMARK  status: ('A' for Active; 'I' for Inactive)
ROOT
ATOM      1  C1  DEN d   1       4.600  -0.014  -2.240  0.00  0.00     0.130 A 
ATOM      2  C2  DEN d   1       5.056   0.138  -3.619  0.00  0.00    -0.031 A 
ATOM      3  C3  DEN d   1       4.040  -0.465  -4.505  0.00  0.00     0.027 A 
ATOM      4  C4  DEN d   1       1.815  -1.608  -3.879  0.00  0.00     0.027 A 
ATOM      5  C5  DEN d   1       1.002  -1.986  -2.833  0.00  0.00    -0.003 A 
ATOM      6  C6  DEN d   1       1.345  -1.765  -1.526  0.00  0.00     0.001 A 
ATOM      7  C7  DEN d   1       2.511  -1.109  -1.231  0.00  0.00     0.017 A 
ATOM      8  C8  DEN d   1       3.339  -0.732  -2.280  0.00  0.00    -0.094 A 
ATOM      9  C9  DEN d   1       2.969  -0.953  -3.596  0.00  0.00    -0.072 A 
ENDROOT
TORSDOF 0
ENDMDL
