MODEL 1
REMARK minimizedAffinity 6.83710623
REMARK minimizedRMSD -1
REMARK  0 active torsions:
REMARK  status: ('A' for Active; 'I' for Inactive)
ROOT
ATOM      1  C1  DEN d   1      -0.612  -0.837  -0.197  0.00  0.00     0.130 A 
ATOM      2  C2  DEN d   1       0.649  -1.028  -0.908  0.00  0.00    -0.031 A 
ATOM      3  C3  DEN d   1       1.362   0.265  -0.930  0.00  0.00     0.027 A 
ATOM      4  C4  DEN d   1       0.641   2.532   0.066  0.00  0.00     0.027 A 
ATOM      5  C5  DEN d   1      -0.355   3.191   0.753  0.00  0.00    -0.003 A 
ATOM      6  C6  DEN d   1      -1.512   2.567   1.138  0.00  0.00     0.001 A 
ATOM      7  C7  DEN d   1      -1.682   1.233   0.878  0.00  0.00     0.017 A 
ATOM      8  C8  DEN d   1      -0.686   0.563   0.180  0.00  0.00    -0.094 A 
ATOM      9  C9  DEN d   1       0.482   1.209  -0.190  0.00  0.00    -0.072 A 
ENDROOT
TORSDOF 0
ENDMDL
