MODEL 1
REMARK minimizedAffinity 17.2314796
REMARK minimizedRMSD -1
REMARK  0 active torsions:
REMARK  status: ('A' for Active; 'I' for Inactive)
ROOT
ATOM      1  C1  DEN d   1      -0.298  -0.859  -2.810  0.00  0.00     0.130 A 
ATOM      2  C2  DEN d   1      -0.978   0.021  -3.756  0.00  0.00    -0.031 A 
ATOM      3  C3  DEN d   1      -1.249   1.302  -3.074  0.00  0.00     0.027 A 
ATOM      4  C4  DEN d   1      -0.680   2.006  -0.658  0.00  0.00     0.027 A 
ATOM      5  C5  DEN d   1      -0.115   1.593   0.528  0.00  0.00    -0.003 A 
ATOM      6  C6  DEN d   1       0.395   0.332   0.693  0.00  0.00     0.001 A 
ATOM      7  C7  DEN d   1       0.390  -0.546  -0.358  0.00  0.00     0.017 A 
ATOM      8  C8  DEN d   1      -0.186  -0.139  -1.555  0.00  0.00    -0.094 A 
ATOM      9  C9  DEN d   1      -0.684   1.144  -1.706  0.00  0.00    -0.072 A 
ENDROOT
TORSDOF 0
ENDMDL
