MODEL 1
REMARK minimizedAffinity 11.7917795
REMARK minimizedRMSD -1
REMARK  0 active torsions:
REMARK  status: ('A' for Active; 'I' for Inactive)
ROOT
ATOM      1  C1  DEN d   1       1.138  -0.188   2.972  0.00  0.00     0.130 A 
ATOM      2  C2  DEN d   1       1.840  -0.099   1.695  0.00  0.00    -0.031 A 
ATOM      3  C3  DEN d   1       2.579  -1.361   1.490  0.00  0.00     0.027 A 
ATOM      4  C4  DEN d   1       2.699  -3.436   3.017  0.00  0.00     0.027 A 
ATOM      5  C5  DEN d   1       2.279  -3.976   4.213  0.00  0.00    -0.003 A 
ATOM      6  C6  DEN d   1       1.484  -3.283   5.087  0.00  0.00     0.001 A 
ATOM      7  C7  DEN d   1       1.046  -2.028   4.758  0.00  0.00     0.017 A 
ATOM      8  C8  DEN d   1       1.471  -1.474   3.558  0.00  0.00    -0.094 A 
ATOM      9  C9  DEN d   1       2.265  -2.195   2.682  0.00  0.00    -0.072 A 
ENDROOT
TORSDOF 0
ENDMDL
