MODEL 1
REMARK minimizedAffinity 11.9026899
REMARK minimizedRMSD -1
REMARK  0 active torsions:
REMARK  status: ('A' for Active; 'I' for Inactive)
ROOT
ATOM      1  C1  DEN d   1       5.198  -1.198   3.659  0.00  0.00     0.130 A 
ATOM      2  C2  DEN d   1       5.991  -2.084   4.506  0.00  0.00    -0.031 A 
ATOM      3  C3  DEN d   1       5.087  -3.103   5.075  0.00  0.00     0.027 A 
ATOM      4  C4  DEN d   1       2.549  -3.398   4.722  0.00  0.00     0.027 A 
ATOM      5  C5  DEN d   1       1.435  -2.883   4.097  0.00  0.00    -0.003 A 
ATOM      6  C6  DEN d   1       1.491  -1.760   3.315  0.00  0.00     0.001 A 
ATOM      7  C7  DEN d   1       2.694  -1.140   3.102  0.00  0.00     0.017 A 
ATOM      8  C8  DEN d   1       3.820  -1.649   3.735  0.00  0.00    -0.094 A 
ATOM      9  C9  DEN d   1       3.745  -2.793   4.512  0.00  0.00    -0.072 A 
ENDROOT
TORSDOF 0
ENDMDL
