MODEL 1
REMARK minimizedAffinity 13.7080393
REMARK minimizedRMSD -1
REMARK  0 active torsions:
REMARK  status: ('A' for Active; 'I' for Inactive)
ROOT
ATOM      1  C1  DEN d   1       1.727  -1.045   3.199  0.00  0.00     0.130 A 
ATOM      2  C2  DEN d   1       2.764  -2.061   3.360  0.00  0.00    -0.031 A 
ATOM      3  C3  DEN d   1       2.806  -2.870   2.125  0.00  0.00     0.027 A 
ATOM      4  C4  DEN d   1       1.378  -2.646  -0.011  0.00  0.00     0.027 A 
ATOM      5  C5  DEN d   1       0.360  -1.940  -0.611  0.00  0.00    -0.003 A 
ATOM      6  C6  DEN d   1      -0.292  -0.916   0.024  0.00  0.00     0.001 A 
ATOM      7  C7  DEN d   1       0.099  -0.539   1.282  0.00  0.00     0.017 A 
ATOM      8  C8  DEN d   1       1.120  -1.252   1.897  0.00  0.00    -0.094 A 
ATOM      9  C9  DEN d   1       1.774  -2.276   1.233  0.00  0.00    -0.072 A 
ENDROOT
TORSDOF 0
ENDMDL
