MODEL 1
REMARK minimizedAffinity 1.59349835
REMARK minimizedRMSD -1
REMARK  0 active torsions:
REMARK  status: ('A' for Active; 'I' for Inactive)
ROOT
ATOM      1  C1  DEN d   1       1.934  -1.711   4.638  0.00  0.00     0.130 A 
ATOM      2  C2  DEN d   1       1.842  -1.129   3.302  0.00  0.00    -0.031 A 
ATOM      3  C3  DEN d   1       3.198  -1.112   2.717  0.00  0.00     0.027 A 
ATOM      4  C4  DEN d   1       5.418  -1.930   3.743  0.00  0.00     0.027 A 
ATOM      5  C5  DEN d   1       6.000  -2.489   4.859  0.00  0.00    -0.003 A 
ATOM      6  C6  DEN d   1       5.279  -2.794   5.983  0.00  0.00     0.001 A 
ATOM      7  C7  DEN d   1       3.926  -2.583   6.000  0.00  0.00     0.017 A 
ATOM      8  C8  DEN d   1       3.333  -2.013   4.881  0.00  0.00    -0.094 A 
ATOM      9  C9  DEN d   1       4.077  -1.723   3.750  0.00  0.00    -0.072 A 
ENDROOT
TORSDOF 0
ENDMDL
