MODEL 1
REMARK minimizedAffinity 10.21173
REMARK minimizedRMSD -1
REMARK  0 active torsions:
REMARK  status: ('A' for Active; 'I' for Inactive)
ROOT
ATOM      1  C1  DEN d   1       4.780  -3.922   5.949  0.00  0.00     0.130 A 
ATOM      2  C2  DEN d   1       6.000  -3.121   6.000  0.00  0.00    -0.031 A 
ATOM      3  C3  DEN d   1       5.748  -1.858   5.278  0.00  0.00     0.027 A 
ATOM      4  C4  DEN d   1       3.596  -1.067   4.096  0.00  0.00     0.027 A 
ATOM      5  C5  DEN d   1       2.301  -1.409   3.776  0.00  0.00    -0.003 A 
ATOM      6  C6  DEN d   1       1.756  -2.616   4.125  0.00  0.00     0.001 A 
ATOM      7  C7  DEN d   1       2.496  -3.508   4.856  0.00  0.00     0.017 A 
ATOM      8  C8  DEN d   1       3.805  -3.174   5.176  0.00  0.00    -0.094 A 
ATOM      9  C9  DEN d   1       4.333  -1.943   4.824  0.00  0.00    -0.072 A 
ENDROOT
TORSDOF 0
ENDMDL
