MODEL 1
REMARK minimizedAffinity 14.9610434
REMARK minimizedRMSD -1
REMARK  0 active torsions:
REMARK  status: ('A' for Active; 'I' for Inactive)
ROOT
ATOM      1  C   UNL d   1      -5.180  -2.450  -2.473  0.00  0.00     0.124 A 
ATOM      2  C1  UNL d   1      -5.534  -3.744  -2.116  0.00  0.00     0.062 A 
ATOM      3  C2  UNL d   1      -5.531  -4.759  -3.068  0.00  0.00     0.162 A 
ATOM      4  C3  UNL d   1      -5.172  -4.484  -4.388  0.00  0.00    -0.034 A 
ATOM      5  C4  UNL d   1      -4.818  -3.180  -4.740  0.00  0.00     0.162 A 
ATOM      6  C5  UNL d   1      -4.823  -2.170  -3.784  0.00  0.00     0.062 A 
ATOM      7  F   UNL d   1      -4.481  -0.920  -4.131  0.00  0.00    -0.097 F 
ATOM      8  F1  UNL d   1      -4.468  -2.882  -5.999  0.00  0.00    -0.096 F 
ATOM      9  I   UNL d   1      -5.166  -5.999  -5.815  0.00  0.00    -0.060 I 
ATOM     10  F2  UNL d   1      -5.877  -6.000  -2.695  0.00  0.00    -0.096 F 
ATOM     11  F3  UNL d   1      -5.881  -4.017  -0.850  0.00  0.00    -0.097 F 
ATOM     12  F4  UNL d   1      -5.185  -1.476  -1.554  0.00  0.00    -0.092 F 
ENDROOT
TORSDOF 0
ENDMDL
