MODEL 1
REMARK minimizedAffinity 17.4246254
REMARK minimizedRMSD -1
REMARK  0 active torsions:
REMARK  status: ('A' for Active; 'I' for Inactive)
ROOT
ATOM      1  C   UNL d   1       4.855  -3.376   3.996  0.00  0.00     0.124 A 
ATOM      2  C1  UNL d   1       4.855  -2.971   2.668  0.00  0.00     0.062 A 
ATOM      3  C2  UNL d   1       3.670  -2.566   2.060  0.00  0.00     0.162 A 
ATOM      4  C3  UNL d   1       2.475  -2.564   2.779  0.00  0.00    -0.034 A 
ATOM      5  C4  UNL d   1       2.483  -2.974   4.114  0.00  0.00     0.162 A 
ATOM      6  C5  UNL d   1       3.670  -3.378   4.717  0.00  0.00     0.062 A 
ATOM      7  F   UNL d   1       3.668  -3.769   6.000  0.00  0.00    -0.097 F 
ATOM      8  F1  UNL d   1       1.352  -2.985   4.835  0.00  0.00    -0.096 F 
ATOM      9  I   UNL d   1       0.701  -1.960   1.874  0.00  0.00    -0.060 I 
ATOM     10  F2  UNL d   1       3.699  -2.179   0.776  0.00  0.00    -0.096 F 
ATOM     11  F3  UNL d   1       5.999  -2.969   1.969  0.00  0.00    -0.097 F 
ATOM     12  F4  UNL d   1       5.996  -3.766   4.578  0.00  0.00    -0.092 F 
ENDROOT
TORSDOF 0
ENDMDL
