MODEL 1
REMARK minimizedAffinity 10.6636496
REMARK minimizedRMSD -1
REMARK  0 active torsions:
REMARK  status: ('A' for Active; 'I' for Inactive)
ROOT
ATOM      1  C   UNL d   1       0.789  -3.615   2.474  0.00  0.00     0.124 A 
ATOM      2  C1  UNL d   1       1.166  -3.012   3.666  0.00  0.00     0.062 A 
ATOM      3  C2  UNL d   1       1.462  -1.652   3.699  0.00  0.00     0.162 A 
ATOM      4  C3  UNL d   1       1.381  -0.886   2.536  0.00  0.00    -0.034 A 
ATOM      5  C4  UNL d   1       1.003  -1.500   1.341  0.00  0.00     0.162 A 
ATOM      6  C5  UNL d   1       0.708  -2.859   1.313  0.00  0.00     0.062 A 
ATOM      7  F   UNL d   1       0.344  -3.441   0.161  0.00  0.00    -0.097 F 
ATOM      8  F1  UNL d   1       0.915  -0.793   0.205  0.00  0.00    -0.096 F 
ATOM      9  I   UNL d   1       1.823   1.147   2.581  0.00  0.00    -0.060 I 
ATOM     10  F2  UNL d   1       1.823  -1.096   4.864  0.00  0.00    -0.096 F 
ATOM     11  F3  UNL d   1       1.245  -3.740   4.789  0.00  0.00    -0.097 F 
ATOM     12  F4  UNL d   1       0.505  -4.924   2.445  0.00  0.00    -0.092 F 
ENDROOT
TORSDOF 0
ENDMDL
