MODEL 1
REMARK minimizedAffinity 4.86431789
REMARK minimizedRMSD -1
REMARK  0 active torsions:
REMARK  status: ('A' for Active; 'I' for Inactive)
ROOT
ATOM      1  C   UNL d   1      -5.411  -2.315  -2.622  0.00  0.00     0.124 A 
ATOM      2  C1  UNL d   1      -5.531  -3.672  -2.357  0.00  0.00     0.062 A 
ATOM      3  C2  UNL d   1      -5.166  -4.609  -3.319  0.00  0.00     0.162 A 
ATOM      4  C3  UNL d   1      -4.677  -4.192  -4.557  0.00  0.00    -0.034 A 
ATOM      5  C4  UNL d   1      -4.561  -2.825  -4.818  0.00  0.00     0.162 A 
ATOM      6  C5  UNL d   1      -4.927  -1.893  -3.852  0.00  0.00     0.062 A 
ATOM      7  F   UNL d   1      -4.811  -0.582  -4.111  0.00  0.00    -0.097 F 
ATOM      8  F1  UNL d   1      -4.095  -2.390  -5.998  0.00  0.00    -0.096 F 
ATOM      9  I   UNL d   1      -4.131  -5.589  -6.000  0.00  0.00    -0.060 I 
ATOM     10  F2  UNL d   1      -5.292  -5.914  -3.035  0.00  0.00    -0.096 F 
ATOM     11  F3  UNL d   1      -6.000  -4.083  -1.169  0.00  0.00    -0.097 F 
ATOM     12  F4  UNL d   1      -5.764  -1.416  -1.695  0.00  0.00    -0.092 F 
ENDROOT
TORSDOF 0
ENDMDL
