MODEL 1
REMARK minimizedAffinity 12.3164368
REMARK minimizedRMSD -1
REMARK  0 active torsions:
REMARK  status: ('A' for Active; 'I' for Inactive)
ROOT
ATOM      1  C   UNL d   1       1.488   0.295   3.571  0.00  0.00     0.124 A 
ATOM      2  C1  UNL d   1       1.018  -0.799   4.284  0.00  0.00     0.062 A 
ATOM      3  C2  UNL d   1       0.760  -2.001   3.632  0.00  0.00     0.162 A 
ATOM      4  C3  UNL d   1       0.972  -2.116   2.258  0.00  0.00    -0.034 A 
ATOM      5  C4  UNL d   1       1.444  -1.011   1.547  0.00  0.00     0.162 A 
ATOM      6  C5  UNL d   1       1.700   0.188   2.204  0.00  0.00     0.062 A 
ATOM      7  F   UNL d   1       2.154   1.244   1.513  0.00  0.00    -0.097 F 
ATOM      8  F1  UNL d   1       1.659  -1.088   0.226  0.00  0.00    -0.096 F 
ATOM      9  I   UNL d   1       0.587  -3.912   1.279  0.00  0.00    -0.060 I 
ATOM     10  F2  UNL d   1       0.306  -3.042   4.346  0.00  0.00    -0.096 F 
ATOM     11  F3  UNL d   1       0.811  -0.698   5.605  0.00  0.00    -0.097 F 
ATOM     12  F4  UNL d   1       1.734   1.451   4.201  0.00  0.00    -0.092 F 
ENDROOT
TORSDOF 0
ENDMDL
