MODEL 1
REMARK minimizedAffinity 15.6299515
REMARK minimizedRMSD -1
REMARK  0 active torsions:
REMARK  status: ('A' for Active; 'I' for Inactive)
ROOT
ATOM      1  C   UNL d   1       1.364  -2.149   3.203  0.00  0.00     0.124 A 
ATOM      2  C1  UNL d   1       1.902  -1.741   1.991  0.00  0.00     0.062 A 
ATOM      3  C2  UNL d   1       3.226  -2.038   1.678  0.00  0.00     0.162 A 
ATOM      4  C3  UNL d   1       4.020  -2.747   2.578  0.00  0.00    -0.034 A 
ATOM      5  C4  UNL d   1       3.472  -3.153   3.796  0.00  0.00     0.162 A 
ATOM      6  C5  UNL d   1       2.149  -2.854   4.105  0.00  0.00     0.062 A 
ATOM      7  F   UNL d   1       1.631  -3.249   5.277  0.00  0.00    -0.097 F 
ATOM      8  F1  UNL d   1       4.208  -3.836   4.685  0.00  0.00    -0.096 F 
ATOM      9  I   UNL d   1       6.000  -3.192   2.114  0.00  0.00    -0.060 I 
ATOM     10  F2  UNL d   1       3.720  -1.631   0.499  0.00  0.00    -0.096 F 
ATOM     11  F3  UNL d   1       1.146  -1.059   1.119  0.00  0.00    -0.097 F 
ATOM     12  F4  UNL d   1       0.091  -1.862   3.503  0.00  0.00    -0.092 F 
ENDROOT
TORSDOF 0
ENDMDL
