MODEL 1
REMARK minimizedAffinity 8.59033012
REMARK minimizedRMSD -1
REMARK  0 active torsions:
REMARK  status: ('A' for Active; 'I' for Inactive)
ROOT
ATOM      1  C   UNL d   1       0.518  -4.103   2.100  0.00  0.00     0.124 A 
ATOM      2  C1  UNL d   1       0.531  -3.436   3.317  0.00  0.00     0.062 A 
ATOM      3  C2  UNL d   1       0.802  -2.071   3.364  0.00  0.00     0.162 A 
ATOM      4  C3  UNL d   1       1.061  -1.364   2.189  0.00  0.00    -0.034 A 
ATOM      5  C4  UNL d   1       1.047  -2.043   0.969  0.00  0.00     0.162 A 
ATOM      6  C5  UNL d   1       0.776  -3.407   0.928  0.00  0.00     0.062 A 
ATOM      7  F   UNL d   1       0.763  -4.050  -0.249  0.00  0.00    -0.097 F 
ATOM      8  F1  UNL d   1       1.291  -1.394  -0.179  0.00  0.00    -0.096 F 
ATOM      9  I   UNL d   1       1.465   0.676   2.255  0.00  0.00    -0.060 I 
ATOM     10  F2  UNL d   1       0.808  -1.452   4.553  0.00  0.00    -0.096 F 
ATOM     11  F3  UNL d   1       0.284  -4.107   4.451  0.00  0.00    -0.097 F 
ATOM     12  F4  UNL d   1       0.258  -5.417   2.058  0.00  0.00    -0.092 F 
ENDROOT
TORSDOF 0
ENDMDL
