MODEL 1
REMARK minimizedAffinity 15.138237
REMARK minimizedRMSD -1
REMARK  0 active torsions:
REMARK  status: ('A' for Active; 'I' for Inactive)
ROOT
ATOM      1  C   UNL d   1      -4.898  -4.695  -3.752  0.00  0.00     0.124 A 
ATOM      2  C1  UNL d   1      -5.291  -4.122  -2.551  0.00  0.00     0.062 A 
ATOM      3  C2  UNL d   1      -5.004  -2.786  -2.286  0.00  0.00     0.162 A 
ATOM      4  C3  UNL d   1      -4.320  -2.013  -3.225  0.00  0.00    -0.034 A 
ATOM      5  C4  UNL d   1      -3.927  -2.598  -4.431  0.00  0.00     0.162 A 
ATOM      6  C5  UNL d   1      -4.216  -3.933  -4.691  0.00  0.00     0.062 A 
ATOM      7  F   UNL d   1      -3.835  -4.486  -5.851  0.00  0.00    -0.097 F 
ATOM      8  F1  UNL d   1      -3.268  -1.884  -5.355  0.00  0.00    -0.096 F 
ATOM      9  I   UNL d   1      -3.889  -0.015  -2.833  0.00  0.00    -0.060 I 
ATOM     10  F2  UNL d   1      -5.396  -2.258  -1.117  0.00  0.00    -0.096 F 
ATOM     11  F3  UNL d   1      -5.949  -4.856  -1.642  0.00  0.00    -0.097 F 
ATOM     12  F4  UNL d   1      -5.174  -5.981  -4.004  0.00  0.00    -0.092 F 
ENDROOT
TORSDOF 0
ENDMDL
