MODEL 1
REMARK minimizedAffinity 15.3672018
REMARK minimizedRMSD -1
REMARK  0 active torsions:
REMARK  status: ('A' for Active; 'I' for Inactive)
ROOT
ATOM      1  C   UNL d   1      -5.042  -2.627  -2.409  0.00  0.00     0.124 A 
ATOM      2  C1  UNL d   1      -5.323  -2.364  -3.743  0.00  0.00     0.062 A 
ATOM      3  C2  UNL d   1      -5.063  -3.325  -4.716  0.00  0.00     0.162 A 
ATOM      4  C3  UNL d   1      -4.521  -4.559  -4.359  0.00  0.00    -0.034 A 
ATOM      5  C4  UNL d   1      -4.240  -4.816  -3.015  0.00  0.00     0.162 A 
ATOM      6  C5  UNL d   1      -4.501  -3.852  -2.047  0.00  0.00     0.062 A 
ATOM      7  F   UNL d   1      -4.229  -4.108  -0.759  0.00  0.00    -0.097 F 
ATOM      8  F1  UNL d   1      -3.718  -5.992  -2.637  0.00  0.00    -0.096 F 
ATOM      9  I   UNL d   1      -4.131  -5.999  -5.810  0.00  0.00    -0.060 I 
ATOM     10  F2  UNL d   1      -5.345  -3.043  -5.997  0.00  0.00    -0.096 F 
ATOM     11  F3  UNL d   1      -5.845  -1.180  -4.096  0.00  0.00    -0.097 F 
ATOM     12  F4  UNL d   1      -5.292  -1.700  -1.476  0.00  0.00    -0.092 F 
ENDROOT
TORSDOF 0
ENDMDL
