MODEL 1
REMARK minimizedAffinity 13.3639088
REMARK minimizedRMSD -1
REMARK  0 active torsions:
REMARK  status: ('A' for Active; 'I' for Inactive)
ROOT
ATOM      1  C   UNL d   1      -4.991  -2.383  -4.282  0.00  0.00     0.124 A 
ATOM      2  C1  UNL d   1      -4.862  -3.701  -4.697  0.00  0.00     0.062 A 
ATOM      3  C2  UNL d   1      -4.905  -4.735  -3.767  0.00  0.00     0.162 A 
ATOM      4  C3  UNL d   1      -5.078  -4.456  -2.411  0.00  0.00    -0.034 A 
ATOM      5  C4  UNL d   1      -5.206  -3.127  -2.001  0.00  0.00     0.162 A 
ATOM      6  C5  UNL d   1      -5.162  -2.097  -2.935  0.00  0.00     0.062 A 
ATOM      7  F   UNL d   1      -5.287  -0.824  -2.532  0.00  0.00    -0.097 F 
ATOM      8  F1  UNL d   1      -5.374  -2.823  -0.705  0.00  0.00    -0.096 F 
ATOM      9  I   UNL d   1      -5.143  -6.000  -1.017  0.00  0.00    -0.060 I 
ATOM     10  F2  UNL d   1      -4.778  -5.999  -4.197  0.00  0.00    -0.096 F 
ATOM     11  F3  UNL d   1      -4.695  -3.979  -5.998  0.00  0.00    -0.097 F 
ATOM     12  F4  UNL d   1      -4.948  -1.389  -5.179  0.00  0.00    -0.092 F 
ENDROOT
TORSDOF 0
ENDMDL
