MODEL 1
REMARK minimizedAffinity 20.0552902
REMARK minimizedRMSD -1
REMARK  0 active torsions:
REMARK  status: ('A' for Active; 'I' for Inactive)
ROOT
ATOM      1  C   UNL d   1      -3.467   0.961  -3.008  0.00  0.00     0.124 A 
ATOM      2  C1  UNL d   1      -3.267   1.231  -1.661  0.00  0.00     0.062 A 
ATOM      3  C2  UNL d   1      -3.988   2.244  -1.035  0.00  0.00     0.162 A 
ATOM      4  C3  UNL d   1      -4.918   2.994  -1.756  0.00  0.00    -0.034 A 
ATOM      5  C4  UNL d   1      -5.113   2.718  -3.110  0.00  0.00     0.162 A 
ATOM      6  C5  UNL d   1      -4.389   1.704  -3.731  0.00  0.00     0.062 A 
ATOM      7  F   UNL d   1      -4.584   1.445  -5.032  0.00  0.00    -0.097 F 
ATOM      8  F1  UNL d   1      -5.998   3.420  -3.832  0.00  0.00    -0.096 F 
ATOM      9  I   UNL d   1      -5.998   4.510  -0.824  0.00  0.00    -0.060 I 
ATOM     10  F2  UNL d   1      -3.774   2.483   0.267  0.00  0.00    -0.096 F 
ATOM     11  F3  UNL d   1      -2.376   0.515  -0.960  0.00  0.00    -0.097 F 
ATOM     12  F4  UNL d   1      -2.771  -0.013  -3.607  0.00  0.00    -0.092 F 
ENDROOT
TORSDOF 0
ENDMDL
