MODEL 1
REMARK minimizedAffinity -0.805111885
REMARK minimizedRMSD -1
REMARK  1 active torsions:
REMARK  status: ('A' for Active; 'I' for Inactive)
REMARK    1  A    between atoms: N_2  and  C1_3 
ROOT
ATOM      1  C1  UNL d   1      -3.038  -5.908   2.314  0.00  0.00     0.143 A 
ATOM      2  C2  UNL d   1      -3.157  -5.892   0.920  0.00  0.00    -0.057 A 
ATOM      3  C3  UNL d   1      -4.412  -5.903   0.298  0.00  0.00     0.033 A 
ATOM      4  C4  UNL d   1      -5.573  -5.959   1.062  0.00  0.00    -0.042 A 
ATOM      5  C5  UNL d   1      -5.478  -6.000   2.449  0.00  0.00     0.033 A 
ATOM      6  C6  UNL d   1      -4.222  -5.982   3.064  0.00  0.00    -0.057 A 
ENDROOT
BRANCH   1   7
ATOM      7  N   UNL d   1      -1.818  -5.998   2.989  0.00  0.00    -0.732 N 
ATOM      8  C   UNL d   1      -0.568  -5.958   2.261  0.00  0.00     0.284 C 
ATOM      9  H3  UNL d   1      -1.813  -5.463   3.854  0.00  0.00     0.395 HD
ENDBRANCH   1   7
TORSDOF 1
ENDMDL
