MODEL 1
REMARK minimizedAffinity 4.63243484
REMARK minimizedRMSD -1
REMARK  1 active torsions:
REMARK  status: ('A' for Active; 'I' for Inactive)
REMARK    1  A    between atoms: N_2  and  C1_3 
ROOT
ATOM      1  C1  UNL d   1      -5.062  -1.037   3.834  0.00  0.00     0.143 A 
ATOM      2  C2  UNL d   1      -5.901  -1.609   2.872  0.00  0.00    -0.057 A 
ATOM      3  C3  UNL d   1      -5.379  -2.246   1.740  0.00  0.00     0.033 A 
ATOM      4  C4  UNL d   1      -4.004  -2.297   1.535  0.00  0.00    -0.042 A 
ATOM      5  C5  UNL d   1      -3.152  -1.713   2.465  0.00  0.00     0.033 A 
ATOM      6  C6  UNL d   1      -3.679  -1.084   3.597  0.00  0.00    -0.057 A 
ENDROOT
BRANCH   1   7
ATOM      7  N   UNL d   1      -5.522  -0.303   4.931  0.00  0.00    -0.732 N 
ATOM      8  C   UNL d   1      -5.550   1.143   4.891  0.00  0.00     0.284 C 
ATOM      9  H3  UNL d   1      -6.342  -0.723   5.362  0.00  0.00     0.395 HD
ENDBRANCH   1   7
TORSDOF 1
ENDMDL
