MODEL 1
REMARK minimizedAffinity 3.24287391
REMARK minimizedRMSD -1
REMARK  1 active torsions:
REMARK  status: ('A' for Active; 'I' for Inactive)
REMARK    1  A    between atoms: N_2  and  C1_3 
ROOT
ATOM      1  C1  UNL d   1      -0.379  -4.688   2.279  0.00  0.00     0.143 A 
ATOM      2  C2  UNL d   1      -1.489  -4.458   1.460  0.00  0.00    -0.057 A 
ATOM      3  C3  UNL d   1      -2.167  -3.233   1.483  0.00  0.00     0.033 A 
ATOM      4  C4  UNL d   1      -1.762  -2.223   2.349  0.00  0.00    -0.042 A 
ATOM      5  C5  UNL d   1      -0.676  -2.439   3.191  0.00  0.00     0.033 A 
ATOM      6  C6  UNL d   1       0.001  -3.662   3.158  0.00  0.00    -0.057 A 
ENDROOT
BRANCH   1   7
ATOM      7  N   UNL d   1       0.276  -5.919   2.373  0.00  0.00    -0.732 N 
ATOM      8  C   UNL d   1       1.717  -5.997   2.265  0.00  0.00     0.284 C 
ATOM      9  H3  UNL d   1      -0.120  -6.515   3.097  0.00  0.00     0.395 HD
ENDBRANCH   1   7
TORSDOF 1
ENDMDL
