MODEL 1
REMARK minimizedAffinity 15.2838049
REMARK minimizedRMSD -1
REMARK  1 active torsions:
REMARK  status: ('A' for Active; 'I' for Inactive)
REMARK    1  A    between atoms: N_2  and  C1_3 
ROOT
ATOM      1  C1  UNL d   1       4.406  -3.424   2.267  0.00  0.00     0.143 A 
ATOM      2  C2  UNL d   1       4.991  -2.209   1.897  0.00  0.00    -0.057 A 
ATOM      3  C3  UNL d   1       4.446  -1.422   0.876  0.00  0.00     0.033 A 
ATOM      4  C4  UNL d   1       3.317  -1.851   0.186  0.00  0.00    -0.042 A 
ATOM      5  C5  UNL d   1       2.732  -3.067   0.520  0.00  0.00     0.033 A 
ATOM      6  C6  UNL d   1       3.278  -3.846   1.545  0.00  0.00    -0.057 A 
ENDROOT
BRANCH   1   7
ATOM      7  N   UNL d   1       4.957  -4.299   3.207  0.00  0.00    -0.732 N 
ATOM      8  C   UNL d   1       4.290  -5.540   3.539  0.00  0.00     0.284 C 
ATOM      9  H3  UNL d   1       5.967  -4.382   3.115  0.00  0.00     0.395 HD
ENDBRANCH   1   7
TORSDOF 1
ENDMDL
