MODEL 1
REMARK minimizedAffinity 12.6662416
REMARK minimizedRMSD -1
REMARK  1 active torsions:
REMARK  status: ('A' for Active; 'I' for Inactive)
REMARK    1  A    between atoms: N_2  and  C1_3 
ROOT
ATOM      1  C1  UNL d   1      -0.793  -5.473   0.964  0.00  0.00     0.143 A 
ATOM      2  C2  UNL d   1      -0.805  -6.000  -0.332  0.00  0.00    -0.057 A 
ATOM      3  C3  UNL d   1      -0.121  -5.369  -1.378  0.00  0.00     0.033 A 
ATOM      4  C4  UNL d   1       0.565  -4.181  -1.152  0.00  0.00    -0.042 A 
ATOM      5  C5  UNL d   1       0.570  -3.625   0.123  0.00  0.00     0.033 A 
ATOM      6  C6  UNL d   1      -0.109  -4.264   1.165  0.00  0.00    -0.057 A 
ENDROOT
BRANCH   1   7
ATOM      7  N   UNL d   1      -1.534  -6.000   2.025  0.00  0.00    -0.732 N 
ATOM      8  C   UNL d   1      -1.022  -5.952   3.378  0.00  0.00     0.284 C 
ATOM      9  H3  UNL d   1      -2.526  -5.788   1.948  0.00  0.00     0.395 HD
ENDBRANCH   1   7
TORSDOF 1
ENDMDL
