MODEL 1
REMARK minimizedAffinity 6.86339045
REMARK minimizedRMSD -1
REMARK  1 active torsions:
REMARK  status: ('A' for Active; 'I' for Inactive)
REMARK    1  A    between atoms: N_2  and  C1_3 
ROOT
ATOM      1  C1  UNL d   1       1.771  -5.701   5.085  0.00  0.00     0.143 A 
ATOM      2  C2  UNL d   1       1.937  -5.267   3.766  0.00  0.00    -0.057 A 
ATOM      3  C3  UNL d   1       0.838  -5.086   2.918  0.00  0.00     0.033 A 
ATOM      4  C4  UNL d   1      -0.449  -5.365   3.367  0.00  0.00    -0.042 A 
ATOM      5  C5  UNL d   1      -0.635  -5.822   4.667  0.00  0.00     0.033 A 
ATOM      6  C6  UNL d   1       0.466  -5.994   5.511  0.00  0.00    -0.057 A 
ENDROOT
BRANCH   1   7
ATOM      7  N   UNL d   1       2.831  -5.994   5.947  0.00  0.00    -0.732 N 
ATOM      8  C   UNL d   1       4.195  -5.995   5.463  0.00  0.00     0.284 C 
ATOM      9  H3  UNL d   1       2.715  -5.569   6.864  0.00  0.00     0.395 HD
ENDBRANCH   1   7
TORSDOF 1
ENDMDL
