MODEL 1
REMARK minimizedAffinity 1.42991078
REMARK minimizedRMSD -1
REMARK  1 active torsions:
REMARK  status: ('A' for Active; 'I' for Inactive)
REMARK    1  A    between atoms: N_2  and  C1_3 
ROOT
ATOM      1  C1  UNL d   1      -1.021  -0.214  -0.686  0.00  0.00     0.143 A 
ATOM      2  C2  UNL d   1      -1.376  -1.518  -0.324  0.00  0.00    -0.057 A 
ATOM      3  C3  UNL d   1      -2.153  -2.319  -1.169  0.00  0.00     0.033 A 
ATOM      4  C4  UNL d   1      -2.614  -1.818  -2.383  0.00  0.00    -0.042 A 
ATOM      5  C5  UNL d   1      -2.294  -0.517  -2.751  0.00  0.00     0.033 A 
ATOM      6  C6  UNL d   1      -1.512   0.277  -1.906  0.00  0.00    -0.057 A 
ENDROOT
BRANCH   1   7
ATOM      7  N   UNL d   1      -0.334   0.666   0.154  0.00  0.00    -0.732 N 
ATOM      8  C   UNL d   1      -0.802   0.918   1.500  0.00  0.00     0.284 C 
ATOM      9  H3  UNL d   1       0.676   0.568   0.077  0.00  0.00     0.395 HD
ENDBRANCH   1   7
TORSDOF 1
ENDMDL
