MODEL 1
REMARK minimizedAffinity 4.58008242
REMARK minimizedRMSD -1
REMARK  1 active torsions:
REMARK  status: ('A' for Active; 'I' for Inactive)
REMARK    1  A    between atoms: N_2  and  C1_3 
ROOT
ATOM      1  C1  UNL d   1      -0.823  -0.721  -0.617  0.00  0.00     0.143 A 
ATOM      2  C2  UNL d   1      -2.112  -1.245  -0.762  0.00  0.00    -0.057 A 
ATOM      3  C3  UNL d   1      -2.432  -2.099  -1.824  0.00  0.00     0.033 A 
ATOM      4  C4  UNL d   1      -1.474  -2.422  -2.779  0.00  0.00    -0.042 A 
ATOM      5  C5  UNL d   1      -0.193  -1.892  -2.669  0.00  0.00     0.033 A 
ATOM      6  C6  UNL d   1       0.123  -1.045  -1.602  0.00  0.00    -0.057 A 
ENDROOT
BRANCH   1   7
ATOM      7  N   UNL d   1      -0.468   0.212   0.361  0.00  0.00    -0.732 N 
ATOM      8  C   UNL d   1       0.648   1.109   0.154  0.00  0.00     0.284 C 
ATOM      9  H3  UNL d   1      -1.279   0.650   0.792  0.00  0.00     0.395 HD
ENDBRANCH   1   7
TORSDOF 1
ENDMDL
