MODEL 1
REMARK minimizedAffinity 2.12090373
REMARK minimizedRMSD -1
REMARK  1 active torsions:
REMARK  status: ('A' for Active; 'I' for Inactive)
REMARK    1  A    between atoms: N_2  and  C1_3 
ROOT
ATOM      1  C1  UNL d   1      -0.343  -1.530   0.716  0.00  0.00     0.143 A 
ATOM      2  C2  UNL d   1       0.520  -0.834  -0.137  0.00  0.00    -0.057 A 
ATOM      3  C3  UNL d   1       0.976   0.451   0.182  0.00  0.00     0.033 A 
ATOM      4  C4  UNL d   1       0.552   1.076   1.350  0.00  0.00    -0.042 A 
ATOM      5  C5  UNL d   1      -0.325   0.413   2.201  0.00  0.00     0.033 A 
ATOM      6  C6  UNL d   1      -0.771  -0.873   1.880  0.00  0.00    -0.057 A 
ENDROOT
BRANCH   1   7
ATOM      7  N   UNL d   1      -0.909  -2.769   0.408  0.00  0.00    -0.732 N 
ATOM      8  C   UNL d   1      -2.273  -2.859  -0.066  0.00  0.00     0.284 C 
ATOM      9  H3  UNL d   1      -0.258  -3.383  -0.077  0.00  0.00     0.395 HD
ENDBRANCH   1   7
TORSDOF 1
ENDMDL
