MODEL 1
REMARK minimizedAffinity 7.99817848
REMARK minimizedRMSD -1
REMARK  1 active torsions:
REMARK  status: ('A' for Active; 'I' for Inactive)
REMARK    1  A    between atoms: N_2  and  C1_3 
ROOT
ATOM      1  C1  UNL d   1      -3.607  -6.000   0.241  0.00  0.00     0.143 A 
ATOM      2  C2  UNL d   1      -3.160  -5.939  -1.084  0.00  0.00    -0.057 A 
ATOM      3  C3  UNL d   1      -1.794  -5.910  -1.388  0.00  0.00     0.033 A 
ATOM      4  C4  UNL d   1      -0.847  -5.913  -0.369  0.00  0.00    -0.042 A 
ATOM      5  C5  UNL d   1      -1.269  -5.948   0.956  0.00  0.00     0.033 A 
ATOM      6  C6  UNL d   1      -2.635  -5.983   1.253  0.00  0.00    -0.057 A 
ENDROOT
BRANCH   1   7
ATOM      7  N   UNL d   1      -4.952  -5.931   0.612  0.00  0.00    -0.732 N 
ATOM      8  C   UNL d   1      -5.337  -5.999   2.005  0.00  0.00     0.284 C 
ATOM      9  H3  UNL d   1      -5.469  -5.242   0.071  0.00  0.00     0.395 HD
ENDBRANCH   1   7
TORSDOF 1
ENDMDL
