MODEL 1
REMARK minimizedAffinity 1.25047874
REMARK minimizedRMSD -1
REMARK  0 active torsions:
REMARK  status: ('A' for Active; 'I' for Inactive)
ROOT
ATOM      1  C4' PXY d   1      -2.743   2.473   2.601  0.00  0.00     0.077 C 
ATOM      2  C1' PXY d   1       1.537  -0.703   0.365  0.00  0.00     0.077 C 
ATOM      3  C1  PXY d   1       0.408   0.119   0.953  0.00  0.00    -0.082 A 
ATOM      4  C2  PXY d   1       0.274   1.389   0.607  0.00  0.00     0.003 A 
ATOM      5  C3  PXY d   1      -0.722   2.156   1.155  0.00  0.00     0.003 A 
ATOM      6  C4  PXY d   1      -1.623   1.603   2.025  0.00  0.00    -0.082 A 
ATOM      7  C5  PXY d   1      -1.500   0.305   2.374  0.00  0.00     0.003 A 
ATOM      8  C6  PXY d   1      -0.457  -0.446   1.839  0.00  0.00     0.003 A 
ENDROOT
TORSDOF 0
ENDMDL
