MODEL 1
REMARK minimizedAffinity -1.58904862
REMARK minimizedRMSD -1
REMARK  0 active torsions:
REMARK  status: ('A' for Active; 'I' for Inactive)
ROOT
ATOM      1  C4' PXY d   1       2.124   1.015   0.734  0.00  0.00     0.077 C 
ATOM      2  C1' PXY d   1      -3.376   0.819   2.503  0.00  0.00     0.077 C 
ATOM      3  C1  PXY d   1      -1.931   0.859   2.045  0.00  0.00    -0.082 A 
ATOM      4  C2  PXY d   1      -1.378   2.019   1.729  0.00  0.00     0.003 A 
ATOM      5  C3  PXY d   1      -0.082   2.069   1.282  0.00  0.00     0.003 A 
ATOM      6  C4  PXY d   1       0.671   0.928   1.210  0.00  0.00    -0.082 A 
ATOM      7  C5  PXY d   1       0.117  -0.257   1.542  0.00  0.00     0.003 A 
ATOM      8  C6  PXY d   1      -1.213  -0.292   1.953  0.00  0.00     0.003 A 
ENDROOT
TORSDOF 0
ENDMDL
