MODEL 1
REMARK minimizedAffinity -0.254705906
REMARK minimizedRMSD -1
REMARK  0 active torsions:
REMARK  status: ('A' for Active; 'I' for Inactive)
ROOT
ATOM      1  C4' PXY d   1      -3.025   0.736   2.430  0.00  0.00     0.077 C 
ATOM      2  C1' PXY d   1       2.254   0.679   0.076  0.00  0.00     0.077 C 
ATOM      3  C1  PXY d   1       0.870   0.707   0.694  0.00  0.00    -0.082 A 
ATOM      4  C2  PXY d   1       0.428  -0.349   1.356  0.00  0.00     0.003 A 
ATOM      5  C3  PXY d   1      -0.834  -0.353   1.893  0.00  0.00     0.003 A 
ATOM      6  C4  PXY d   1      -1.631   0.756   1.798  0.00  0.00    -0.082 A 
ATOM      7  C5  PXY d   1      -1.182   1.842   1.134  0.00  0.00     0.003 A 
ATOM      8  C6  PXY d   1       0.086   1.811   0.560  0.00  0.00     0.003 A 
ENDROOT
TORSDOF 0
ENDMDL
