MODEL 1
REMARK minimizedAffinity 4.60479116
REMARK minimizedRMSD -1
REMARK  0 active torsions:
REMARK  status: ('A' for Active; 'I' for Inactive)
ROOT
ATOM      1  C4' PXY d   1      -1.528   4.134   0.711  0.00  0.00     0.077 C 
ATOM      2  C1' PXY d   1       0.861  -1.050   1.623  0.00  0.00     0.077 C 
ATOM      3  C1  PXY d   1       0.246   0.315   1.381  0.00  0.00    -0.082 A 
ATOM      4  C2  PXY d   1      -0.893   0.633   1.973  0.00  0.00     0.003 A 
ATOM      5  C3  PXY d   1      -1.480   1.850   1.740  0.00  0.00     0.003 A 
ATOM      6  C4  PXY d   1      -0.866   2.772   0.934  0.00  0.00    -0.082 A 
ATOM      7  C5  PXY d   1       0.302   2.458   0.334  0.00  0.00     0.003 A 
ATOM      8  C6  PXY d   1       0.860   1.202   0.551  0.00  0.00     0.003 A 
ENDROOT
TORSDOF 0
ENDMDL
