MODEL 1
REMARK minimizedAffinity -1.99407029
REMARK minimizedRMSD -1
REMARK  0 active torsions:
REMARK  status: ('A' for Active; 'I' for Inactive)
ROOT
ATOM      1  C4' PXY d   1       1.831   0.780  -0.044  0.00  0.00     0.077 C 
ATOM      2  C1' PXY d   1      -3.163  -0.398   2.617  0.00  0.00     0.077 C 
ATOM      3  C1  PXY d   1      -1.859  -0.078   1.915  0.00  0.00    -0.082 A 
ATOM      4  C2  PXY d   1      -1.009  -1.054   1.637  0.00  0.00     0.003 A 
ATOM      5  C3  PXY d   1       0.189  -0.778   1.031  0.00  0.00     0.003 A 
ATOM      6  C4  PXY d   1       0.498   0.502   0.656  0.00  0.00    -0.082 A 
ATOM      7  C5  PXY d   1      -0.368   1.501   0.926  0.00  0.00     0.003 A 
ATOM      8  C6  PXY d   1      -1.562   1.206   1.580  0.00  0.00     0.003 A 
ENDROOT
TORSDOF 0
ENDMDL
