MODEL 1
REMARK minimizedAffinity 3.80144358
REMARK minimizedRMSD -1
REMARK  0 active torsions:
REMARK  status: ('A' for Active; 'I' for Inactive)
ROOT
ATOM      1  C4' PXY d   1       1.705  -0.408   0.652  0.00  0.00     0.077 C 
ATOM      2  C1' PXY d   1      -2.985   2.669   2.047  0.00  0.00     0.077 C 
ATOM      3  C1  PXY d   1      -1.761   1.851   1.686  0.00  0.00    -0.082 A 
ATOM      4  C2  PXY d   1      -0.586   2.448   1.573  0.00  0.00     0.003 A 
ATOM      5  C3  PXY d   1       0.526   1.729   1.216  0.00  0.00     0.003 A 
ATOM      6  C4  PXY d   1       0.444   0.376   1.024  0.00  0.00    -0.082 A 
ATOM      7  C5  PXY d   1      -0.750  -0.242   1.147  0.00  0.00     0.003 A 
ATOM      8  C6  PXY d   1      -1.874   0.512   1.470  0.00  0.00     0.003 A 
ENDROOT
TORSDOF 0
ENDMDL
