MODEL 1
REMARK minimizedAffinity -0.106686875
REMARK minimizedRMSD -1
REMARK  0 active torsions:
REMARK  status: ('A' for Active; 'I' for Inactive)
ROOT
ATOM      1  C4' PXY d   1       2.261  -0.545   0.579  0.00  0.00     0.077 C 
ATOM      2  C1' PXY d   1      -2.331   2.794   1.662  0.00  0.00     0.077 C 
ATOM      3  C1  PXY d   1      -1.131   1.910   1.387  0.00  0.00    -0.082 A 
ATOM      4  C2  PXY d   1      -0.029   2.441   0.882  0.00  0.00     0.003 A 
ATOM      5  C3  PXY d   1       1.054   1.650   0.597  0.00  0.00     0.003 A 
ATOM      6  C4  PXY d   1       1.029   0.311   0.882  0.00  0.00    -0.082 A 
ATOM      7  C5  PXY d   1      -0.088  -0.236   1.407  0.00  0.00     0.003 A 
ATOM      8  C6  PXY d   1      -1.192   0.576   1.651  0.00  0.00     0.003 A 
ENDROOT
TORSDOF 0
ENDMDL
