MODEL 1
REMARK minimizedAffinity 9.6238184
REMARK minimizedRMSD -1
REMARK  0 active torsions:
REMARK  status: ('A' for Active; 'I' for Inactive)
ROOT
ATOM      1  C4' PXY d   1       3.497  -0.561   2.352  0.00  0.00     0.077 C 
ATOM      2  C1' PXY d   1      -1.514   2.308   2.071  0.00  0.00     0.077 C 
ATOM      3  C1  PXY d   1      -0.202   1.553   2.158  0.00  0.00    -0.082 A 
ATOM      4  C2  PXY d   1       0.761   1.812   1.287  0.00  0.00     0.003 A 
ATOM      5  C3  PXY d   1       1.942   1.117   1.331  0.00  0.00     0.003 A 
ATOM      6  C4  PXY d   1       2.160   0.183   2.309  0.00  0.00    -0.082 A 
ATOM      7  C5  PXY d   1       1.187  -0.080   3.207  0.00  0.00     0.003 A 
ATOM      8  C6  PXY d   1      -0.020   0.608   3.120  0.00  0.00     0.003 A 
ENDROOT
TORSDOF 0
ENDMDL
