MODEL 1
REMARK minimizedAffinity 1.86160326
REMARK minimizedRMSD -1
REMARK  0 active torsions:
REMARK  status: ('A' for Active; 'I' for Inactive)
ROOT
ATOM      1  C4' PXY d   1      -3.082  -0.963   1.714  0.00  0.00     0.077 C 
ATOM      2  C1' PXY d   1       1.666   2.214   0.828  0.00  0.00     0.077 C 
ATOM      3  C1  PXY d   1       0.428   1.370   1.061  0.00  0.00    -0.082 A 
ATOM      4  C2  PXY d   1      -0.754   1.820   0.670  0.00  0.00     0.003 A 
ATOM      5  C3  PXY d   1      -1.887   1.084   0.902  0.00  0.00     0.003 A 
ATOM      6  C4  PXY d   1      -1.804  -0.149   1.491  0.00  0.00    -0.082 A 
ATOM      7  C5  PXY d   1      -0.601  -0.620   1.883  0.00  0.00     0.003 A 
ATOM      8  C6  PXY d   1       0.532   0.161   1.676  0.00  0.00     0.003 A 
ENDROOT
TORSDOF 0
ENDMDL
