MODEL 1
REMARK minimizedAffinity 0.484073192
REMARK minimizedRMSD -1
REMARK  0 active torsions:
REMARK  status: ('A' for Active; 'I' for Inactive)
ROOT
ATOM      1  C4' PXY d   1      -3.542   1.960   3.396  0.00  0.00     0.077 C 
ATOM      2  C1' PXY d   1       1.223   0.448   0.495  0.00  0.00     0.077 C 
ATOM      3  C1  PXY d   1      -0.032   0.833   1.252  0.00  0.00    -0.082 A 
ATOM      4  C2  PXY d   1      -0.284   2.109   1.494  0.00  0.00     0.003 A 
ATOM      5  C3  PXY d   1      -1.399   2.473   2.205  0.00  0.00     0.003 A 
ATOM      6  C4  PXY d   1      -2.292   1.525   2.627  0.00  0.00    -0.082 A 
ATOM      7  C5  PXY d   1      -2.047   0.222   2.375  0.00  0.00     0.003 A 
ATOM      8  C6  PXY d   1      -0.889  -0.130   1.687  0.00  0.00     0.003 A 
ENDROOT
TORSDOF 0
ENDMDL
