MODEL 1
REMARK minimizedAffinity 0.537507415
REMARK minimizedRMSD -1
REMARK  0 active torsions:
REMARK  status: ('A' for Active; 'I' for Inactive)
ROOT
ATOM      1  C4' PXY d   1       1.415  -0.772   0.293  0.00  0.00     0.077 C 
ATOM      2  C1' PXY d   1      -2.633   2.542   2.753  0.00  0.00     0.077 C 
ATOM      3  C1  PXY d   1      -1.575   1.663   2.115  0.00  0.00    -0.082 A 
ATOM      4  C2  PXY d   1      -0.478   2.213   1.621  0.00  0.00     0.003 A 
ATOM      5  C3  PXY d   1       0.474   1.436   1.012  0.00  0.00     0.003 A 
ATOM      6  C4  PXY d   1       0.325   0.076   0.955  0.00  0.00    -0.082 A 
ATOM      7  C5  PXY d   1      -0.787  -0.494   1.466  0.00  0.00     0.003 A 
ATOM      8  C6  PXY d   1      -1.760   0.316   2.043  0.00  0.00     0.003 A 
ENDROOT
TORSDOF 0
ENDMDL
