MODEL 1
REMARK minimizedAffinity -1.99722195
REMARK minimizedRMSD -1
REMARK  0 active torsions:
REMARK  status: ('A' for Active; 'I' for Inactive)
ROOT
ATOM      1  C4' PXY d   1      -2.827   1.980   2.417  0.00  0.00     0.077 C 
ATOM      2  C1' PXY d   1       2.077  -0.300   0.375  0.00  0.00     0.077 C 
ATOM      3  C1  PXY d   1       0.784   0.288   0.906  0.00  0.00    -0.082 A 
ATOM      4  C2  PXY d   1       0.699   1.590   1.126  0.00  0.00     0.003 A 
ATOM      5  C3  PXY d   1      -0.452   2.134   1.636  0.00  0.00     0.003 A 
ATOM      6  C4  PXY d   1      -1.545   1.344   1.873  0.00  0.00    -0.082 A 
ATOM      7  C5  PXY d   1      -1.470   0.016   1.640  0.00  0.00     0.003 A 
ATOM      8  C6  PXY d   1      -0.279  -0.522   1.162  0.00  0.00     0.003 A 
ENDROOT
TORSDOF 0
ENDMDL
