MODEL 1
REMARK minimizedAffinity -2.49386477
REMARK minimizedRMSD -1
REMARK  0 active torsions:
REMARK  status: ('A' for Active; 'I' for Inactive)
ROOT
ATOM      1  C4' PXY d   1       0.839  -0.528   2.186  0.00  0.00     0.077 C 
ATOM      2  C1' PXY d   1      -2.014   4.266   0.671  0.00  0.00     0.077 C 
ATOM      3  C1  PXY d   1      -1.275   3.007   1.078  0.00  0.00    -0.082 A 
ATOM      4  C2  PXY d   1       0.006   2.874   0.775  0.00  0.00     0.003 A 
ATOM      5  C3  PXY d   1       0.682   1.728   1.107  0.00  0.00     0.003 A 
ATOM      6  C4  PXY d   1       0.054   0.731   1.803  0.00  0.00    -0.082 A 
ATOM      7  C5  PXY d   1      -1.250   0.863   2.126  0.00  0.00     0.003 A 
ATOM      8  C6  PXY d   1      -1.929   2.017   1.743  0.00  0.00     0.003 A 
ENDROOT
TORSDOF 0
ENDMDL
