MODEL 1
REMARK minimizedAffinity 5.74909878
REMARK minimizedRMSD -1
REMARK  0 active torsions:
REMARK  status: ('A' for Active; 'I' for Inactive)
ROOT
ATOM      1  C4' PXY d   1      -3.357  -5.270  -0.695  0.00  0.00     0.077 C 
ATOM      2  C1' PXY d   1      -3.382   0.149  -2.707  0.00  0.00     0.077 C 
ATOM      3  C1  PXY d   1      -3.370  -1.268  -2.168  0.00  0.00    -0.082 A 
ATOM      4  C2  PXY d   1      -3.395  -2.288  -3.010  0.00  0.00     0.003 A 
ATOM      5  C3  PXY d   1      -3.416  -3.576  -2.540  0.00  0.00     0.003 A 
ATOM      6  C4  PXY d   1      -3.358  -3.823  -1.194  0.00  0.00    -0.082 A 
ATOM      7  C5  PXY d   1      -3.322  -2.787  -0.329  0.00  0.00     0.003 A 
ATOM      8  C6  PXY d   1      -3.343  -1.487  -0.825  0.00  0.00     0.003 A 
ENDROOT
TORSDOF 0
ENDMDL
