MODEL 1
REMARK minimizedAffinity 3.07810426
REMARK minimizedRMSD -1
REMARK  0 active torsions:
REMARK  status: ('A' for Active; 'I' for Inactive)
ROOT
ATOM      1  C4' PXY d   1       3.380   0.815  -3.451  0.00  0.00     0.077 C 
ATOM      2  C1' PXY d   1       3.597   5.999  -5.999  0.00  0.00     0.077 C 
ATOM      3  C1  PXY d   1       3.528   4.642  -5.327  0.00  0.00    -0.082 A 
ATOM      4  C2  PXY d   1       4.644   4.046  -4.940  0.00  0.00     0.003 A 
ATOM      5  C3  PXY d   1       4.602   2.805  -4.360  0.00  0.00     0.003 A 
ATOM      6  C4  PXY d   1       3.401   2.190  -4.125  0.00  0.00    -0.082 A 
ATOM      7  C5  PXY d   1       2.257   2.796  -4.507  0.00  0.00     0.003 A 
ATOM      8  C6  PXY d   1       2.324   4.038  -5.132  0.00  0.00     0.003 A 
ENDROOT
TORSDOF 0
ENDMDL
