MODEL 1
REMARK minimizedAffinity 3.3046813
REMARK minimizedRMSD -1
REMARK  0 active torsions:
REMARK  status: ('A' for Active; 'I' for Inactive)
ROOT
ATOM      1  C4' PXY d   1      -3.369   2.119   3.542  0.00  0.00     0.077 C 
ATOM      2  C1' PXY d   1       0.899   2.359  -0.349  0.00  0.00     0.077 C 
ATOM      3  C1  PXY d   1      -0.221   2.309   0.672  0.00  0.00    -0.082 A 
ATOM      4  C2  PXY d   1      -0.356   1.242   1.443  0.00  0.00     0.003 A 
ATOM      5  C3  PXY d   1      -1.383   1.167   2.349  0.00  0.00     0.003 A 
ATOM      6  C4  PXY d   1      -2.247   2.217   2.504  0.00  0.00    -0.082 A 
ATOM      7  C5  PXY d   1      -2.110   3.313   1.729  0.00  0.00     0.003 A 
ATOM      8  C6  PXY d   1      -1.086   3.353   0.787  0.00  0.00     0.003 A 
ENDROOT
TORSDOF 0
ENDMDL
