MODEL 1
REMARK minimizedAffinity -1.22172546
REMARK minimizedRMSD -1
REMARK  0 active torsions:
REMARK  status: ('A' for Active; 'I' for Inactive)
ROOT
ATOM      1  C4' PXY d   1      -2.429  -0.803   2.585  0.00  0.00     0.077 C 
ATOM      2  C1' PXY d   1       0.451   3.908   0.873  0.00  0.00     0.077 C 
ATOM      3  C1  PXY d   1      -0.313   2.680   1.327  0.00  0.00    -0.082 A 
ATOM      4  C2  PXY d   1       0.324   1.530   1.475  0.00  0.00     0.003 A 
ATOM      5  C3  PXY d   1      -0.358   0.403   1.854  0.00  0.00     0.003 A 
ATOM      6  C4  PXY d   1      -1.696   0.465   2.137  0.00  0.00    -0.082 A 
ATOM      7  C5  PXY d   1      -2.351   1.637   2.000  0.00  0.00     0.003 A 
ATOM      8  C6  PXY d   1      -1.649   2.760   1.573  0.00  0.00     0.003 A 
ENDROOT
TORSDOF 0
ENDMDL
