MODEL 1
REMARK minimizedAffinity 0.841433525
REMARK minimizedRMSD -1
REMARK  0 active torsions:
REMARK  status: ('A' for Active; 'I' for Inactive)
ROOT
ATOM      1  C4' PXY d   1       2.215   3.453   0.662  0.00  0.00     0.077 C 
ATOM      2  C1' PXY d   1      -2.775   0.972   2.199  0.00  0.00     0.077 C 
ATOM      3  C1  PXY d   1      -1.460   1.616   1.805  0.00  0.00    -0.082 A 
ATOM      4  C2  PXY d   1      -1.463   2.790   1.196  0.00  0.00     0.003 A 
ATOM      5  C3  PXY d   1      -0.285   3.372   0.804  0.00  0.00     0.003 A 
ATOM      6  C4  PXY d   1       0.912   2.770   1.086  0.00  0.00    -0.082 A 
ATOM      7  C5  PXY d   1       0.925   1.577   1.717  0.00  0.00     0.003 A 
ATOM      8  C6  PXY d   1      -0.284   0.984   2.069  0.00  0.00     0.003 A 
ENDROOT
TORSDOF 0
ENDMDL
