MODEL 1
REMARK minimizedAffinity 6.33098602
REMARK minimizedRMSD -1
REMARK  0 active torsions:
REMARK  status: ('A' for Active; 'I' for Inactive)
ROOT
ATOM      1  N1  IND d   1      -1.491  -4.463   0.233  0.00  0.00    -0.196 N 
ATOM      2  C2  IND d   1      -1.348  -3.126   0.479  0.00  0.00     0.054 A 
ATOM      3  C3  IND d   1      -2.553  -2.560   0.713  0.00  0.00    -0.031 A 
ATOM      4  C4  IND d   1      -4.879  -3.657   0.843  0.00  0.00     0.051 A 
ATOM      5  C5  IND d   1      -5.519  -4.849   0.654  0.00  0.00    -0.031 A 
ATOM      6  C6  IND d   1      -4.836  -5.998   0.310  0.00  0.00     0.015 A 
ATOM      7  C7  IND d   1      -3.478  -5.999   0.154  0.00  0.00    -0.016 A 
ATOM      8  C8  IND d   1      -2.826  -4.788   0.338  0.00  0.00    -0.047 A 
ATOM      9  C9  IND d   1      -3.519  -3.611   0.645  0.00  0.00    -0.096 A 
ATOM     10  HN1 IND d   1      -0.854  -5.009   0.044  0.00  0.00     0.298 HD
ENDROOT
TORSDOF 0
ENDMDL
