MODEL 1
REMARK minimizedAffinity 12.9677687
REMARK minimizedRMSD -1
REMARK  0 active torsions:
REMARK  status: ('A' for Active; 'I' for Inactive)
ROOT
ATOM      1  N1  IND d   1       5.950   0.464   1.916  0.00  0.00    -0.196 N 
ATOM      2  C2  IND d   1       5.222   0.442   3.073  0.00  0.00     0.054 A 
ATOM      3  C3  IND d   1       4.373   1.493   3.115  0.00  0.00    -0.031 A 
ATOM      4  C4  IND d   1       3.938   3.315   1.349  0.00  0.00     0.051 A 
ATOM      5  C5  IND d   1       4.386   3.775   0.143  0.00  0.00    -0.031 A 
ATOM      6  C6  IND d   1       5.397   3.140  -0.550  0.00  0.00     0.015 A 
ATOM      7  C7  IND d   1       5.992   2.010  -0.065  0.00  0.00    -0.016 A 
ATOM      8  C8  IND d   1       5.545   1.544   1.164  0.00  0.00    -0.047 A 
ATOM      9  C9  IND d   1       4.549   2.209   1.891  0.00  0.00    -0.096 A 
ATOM     10  HN1 IND d   1       6.558  -0.102   1.695  0.00  0.00     0.298 HD
ENDROOT
TORSDOF 0
ENDMDL
