MODEL 1
REMARK minimizedAffinity 17.8391705
REMARK minimizedRMSD -1
REMARK  0 active torsions:
REMARK  status: ('A' for Active; 'I' for Inactive)
ROOT
ATOM      1  N1  IND d   1      -0.889  -5.368   2.766  0.00  0.00    -0.196 N 
ATOM      2  C2  IND d   1      -0.353  -5.996   1.676  0.00  0.00     0.054 A 
ATOM      3  C3  IND d   1      -0.490  -5.225   0.575  0.00  0.00    -0.031 A 
ATOM      4  C4  IND d   1      -1.468  -2.854   0.349  0.00  0.00     0.051 A 
ATOM      5  C5  IND d   1      -2.114  -1.883   1.061  0.00  0.00    -0.031 A 
ATOM      6  C6  IND d   1      -2.387  -2.025   2.406  0.00  0.00     0.015 A 
ATOM      7  C7  IND d   1      -2.013  -3.145   3.094  0.00  0.00    -0.016 A 
ATOM      8  C8  IND d   1      -1.364  -4.136   2.373  0.00  0.00    -0.047 A 
ATOM      9  C9  IND d   1      -1.122  -4.016   0.998  0.00  0.00    -0.096 A 
ATOM     10  HN1 IND d   1      -0.923  -5.689   3.563  0.00  0.00     0.298 HD
ENDROOT
TORSDOF 0
ENDMDL
