MODEL 1
REMARK minimizedAffinity 16.1737404
REMARK minimizedRMSD -1
REMARK  0 active torsions:
REMARK  status: ('A' for Active; 'I' for Inactive)
ROOT
ATOM      1  N1  IND d   1       2.953  -0.700  -2.141  0.00  0.00    -0.196 N 
ATOM      2  C2  IND d   1       2.299   0.373  -1.604  0.00  0.00     0.054 A 
ATOM      3  C3  IND d   1       2.943   1.520  -1.915  0.00  0.00    -0.031 A 
ATOM      4  C4  IND d   1       5.030   1.879  -3.380  0.00  0.00     0.051 A 
ATOM      5  C5  IND d   1       5.999   1.196  -4.060  0.00  0.00    -0.031 A 
ATOM      6  C6  IND d   1       6.000  -0.182  -4.140  0.00  0.00     0.015 A 
ATOM      7  C7  IND d   1       5.022  -0.930  -3.549  0.00  0.00    -0.016 A 
ATOM      8  C8  IND d   1       4.041  -0.241  -2.851  0.00  0.00    -0.047 A 
ATOM      9  C9  IND d   1       4.058   1.155  -2.731  0.00  0.00    -0.096 A 
ATOM     10  HN1 IND d   1       2.723  -1.524  -2.052  0.00  0.00     0.298 HD
ENDROOT
TORSDOF 0
ENDMDL
