MODEL 1
REMARK minimizedAffinity 9.87213802
REMARK minimizedRMSD -1
REMARK  0 active torsions:
REMARK  status: ('A' for Active; 'I' for Inactive)
ROOT
ATOM      1  N1  IND d   1       4.984   3.251   3.231  0.00  0.00    -0.196 N 
ATOM      2  C2  IND d   1       4.437   2.417   4.167  0.00  0.00     0.054 A 
ATOM      3  C3  IND d   1       3.474   1.650   3.608  0.00  0.00    -0.031 A 
ATOM      4  C4  IND d   1       2.699   1.527   1.156  0.00  0.00     0.051 A 
ATOM      5  C5  IND d   1       2.877   2.122  -0.061  0.00  0.00    -0.031 A 
ATOM      6  C6  IND d   1       3.787   3.142  -0.248  0.00  0.00     0.015 A 
ATOM      7  C7  IND d   1       4.564   3.600   0.778  0.00  0.00    -0.016 A 
ATOM      8  C8  IND d   1       4.381   3.003   2.018  0.00  0.00    -0.047 A 
ATOM      9  C9  IND d   1       3.429   1.996   2.222  0.00  0.00    -0.096 A 
ATOM     10  HN1 IND d   1       5.600   3.832   3.377  0.00  0.00     0.298 HD
ENDROOT
TORSDOF 0
ENDMDL
