MODEL 1
REMARK minimizedAffinity 9.22248173
REMARK minimizedRMSD -1
REMARK  0 active torsions:
REMARK  status: ('A' for Active; 'I' for Inactive)
ROOT
ATOM      1  N1  IND d   1      -1.082  -2.686  -1.318  0.00  0.00    -0.196 N 
ATOM      2  C2  IND d   1      -1.908  -1.791  -1.938  0.00  0.00     0.054 A 
ATOM      3  C3  IND d   1      -2.612  -1.089  -1.022  0.00  0.00    -0.031 A 
ATOM      4  C4  IND d   1      -2.492  -1.173   1.549  0.00  0.00     0.051 A 
ATOM      5  C5  IND d   1      -1.912  -1.860   2.578  0.00  0.00    -0.031 A 
ATOM      6  C6  IND d   1      -1.004  -2.876   2.357  0.00  0.00     0.015 A 
ATOM      7  C7  IND d   1      -0.634  -3.237   1.092  0.00  0.00    -0.016 A 
ATOM      8  C8  IND d   1      -1.226  -2.547   0.045  0.00  0.00    -0.047 A 
ATOM      9  C9  IND d   1      -2.180  -1.544   0.262  0.00  0.00    -0.096 A 
ATOM     10  HN1 IND d   1      -0.559  -3.244  -1.713  0.00  0.00     0.298 HD
ENDROOT
TORSDOF 0
ENDMDL
