MODEL 1
REMARK minimizedAffinity 10.6409578
REMARK minimizedRMSD -1
REMARK  0 active torsions:
REMARK  status: ('A' for Active; 'I' for Inactive)
ROOT
ATOM      1  N1  IND d   1       2.899   1.396  -2.282  0.00  0.00    -0.196 N 
ATOM      2  C2  IND d   1       2.206   0.443  -1.588  0.00  0.00     0.054 A 
ATOM      3  C3  IND d   1       2.820  -0.757  -1.695  0.00  0.00    -0.031 A 
ATOM      4  C4  IND d   1       5.026  -1.366  -2.875  0.00  0.00     0.051 A 
ATOM      5  C5  IND d   1       6.000  -0.839  -3.676  0.00  0.00    -0.031 A 
ATOM      6  C6  IND d   1       5.992   0.487  -4.058  0.00  0.00     0.015 A 
ATOM      7  C7  IND d   1       5.010   1.342  -3.643  0.00  0.00    -0.016 A 
ATOM      8  C8  IND d   1       4.016   0.809  -2.835  0.00  0.00    -0.047 A 
ATOM      9  C9  IND d   1       3.996  -0.545  -2.479  0.00  0.00    -0.096 A 
ATOM     10  HN1 IND d   1       2.675   2.222  -2.359  0.00  0.00     0.298 HD
ENDROOT
TORSDOF 0
ENDMDL
