MODEL 1
REMARK minimizedAffinity 4.55881596
REMARK minimizedRMSD -1
REMARK  0 active torsions:
REMARK  status: ('A' for Active; 'I' for Inactive)
ROOT
ATOM      1  N1  IND d   1      -3.791   5.239  -1.716  0.00  0.00    -0.196 N 
ATOM      2  C2  IND d   1      -4.828   6.000  -2.180  0.00  0.00     0.054 A 
ATOM      3  C3  IND d   1      -5.850   5.992  -1.295  0.00  0.00    -0.031 A 
ATOM      4  C4  IND d   1      -5.998   4.880   1.022  0.00  0.00     0.051 A 
ATOM      5  C5  IND d   1      -5.315   4.048   1.863  0.00  0.00    -0.031 A 
ATOM      6  C6  IND d   1      -4.062   3.562   1.549  0.00  0.00     0.015 A 
ATOM      7  C7  IND d   1      -3.438   3.901   0.382  0.00  0.00    -0.016 A 
ATOM      8  C8  IND d   1      -4.133   4.741  -0.478  0.00  0.00    -0.047 A 
ATOM      9  C9  IND d   1      -5.422   5.203  -0.183  0.00  0.00    -0.096 A 
ATOM     10  HN1 IND d   1      -3.051   5.095  -2.129  0.00  0.00     0.298 HD
ENDROOT
TORSDOF 0
ENDMDL
