MODEL 1
REMARK minimizedAffinity 14.9704857
REMARK minimizedRMSD -1
REMARK  0 active torsions:
REMARK  status: ('A' for Active; 'I' for Inactive)
ROOT
ATOM      1  N1  IND d   1      -0.126  -4.269   0.359  0.00  0.00    -0.196 N 
ATOM      2  C2  IND d   1      -0.349  -4.884   1.559  0.00  0.00     0.054 A 
ATOM      3  C3  IND d   1      -1.205  -4.154   2.310  0.00  0.00    -0.031 A 
ATOM      4  C4  IND d   1      -2.442  -1.973   1.725  0.00  0.00     0.051 A 
ATOM      5  C5  IND d   1      -2.533  -1.013   0.757  0.00  0.00    -0.031 A 
ATOM      6  C6  IND d   1      -1.814  -1.092  -0.418  0.00  0.00     0.015 A 
ATOM      7  C7  IND d   1      -0.982  -2.144  -0.675  0.00  0.00    -0.016 A 
ATOM      8  C8  IND d   1      -0.882  -3.118   0.309  0.00  0.00    -0.047 A 
ATOM      9  C9  IND d   1      -1.576  -3.022   1.522  0.00  0.00    -0.096 A 
ATOM     10  HN1 IND d   1       0.398  -4.553  -0.261  0.00  0.00     0.298 HD
ENDROOT
TORSDOF 0
ENDMDL
