MODEL 1
REMARK minimizedAffinity 11.7002754
REMARK minimizedRMSD -1
REMARK  0 active torsions:
REMARK  status: ('A' for Active; 'I' for Inactive)
ROOT
ATOM      1  N1  IND d   1      -1.212  -0.758  -0.134  0.00  0.00    -0.196 N 
ATOM      2  C2  IND d   1      -2.203  -1.539  -0.661  0.00  0.00     0.054 A 
ATOM      3  C3  IND d   1      -1.963  -1.785  -1.968  0.00  0.00    -0.031 A 
ATOM      4  C4  IND d   1       0.046  -1.093  -3.420  0.00  0.00     0.051 A 
ATOM      5  C5  IND d   1       1.188  -0.342  -3.392  0.00  0.00    -0.031 A 
ATOM      6  C6  IND d   1       1.598   0.319  -2.253  0.00  0.00     0.015 A 
ATOM      7  C7  IND d   1       0.884   0.245  -1.090  0.00  0.00    -0.016 A 
ATOM      8  C8  IND d   1      -0.280  -0.510  -1.117  0.00  0.00    -0.047 A 
ATOM      9  C9  IND d   1      -0.723  -1.149  -2.283  0.00  0.00    -0.096 A 
ATOM     10  HN1 IND d   1      -1.177  -0.470   0.676  0.00  0.00     0.298 HD
ENDROOT
TORSDOF 0
ENDMDL
