MODEL 1
REMARK minimizedAffinity 16.534853
REMARK minimizedRMSD -1
REMARK  0 active torsions:
REMARK  status: ('A' for Active; 'I' for Inactive)
ROOT
ATOM      1  N1  IND d   1       4.766   5.277   2.207  0.00  0.00    -0.196 N 
ATOM      2  C2  IND d   1       4.927   6.000   1.058  0.00  0.00     0.054 A 
ATOM      3  C3  IND d   1       4.783   5.202  -0.024  0.00  0.00    -0.031 A 
ATOM      4  C4  IND d   1       4.181   2.701  -0.143  0.00  0.00     0.051 A 
ATOM      5  C5  IND d   1       3.973   1.605   0.645  0.00  0.00    -0.031 A 
ATOM      6  C6  IND d   1       4.018   1.678   2.023  0.00  0.00     0.015 A 
ATOM      7  C7  IND d   1       4.261   2.859   2.666  0.00  0.00    -0.016 A 
ATOM      8  C8  IND d   1       4.479   3.973   1.868  0.00  0.00    -0.047 A 
ATOM      9  C9  IND d   1       4.478   3.896   0.469  0.00  0.00    -0.096 A 
ATOM     10  HN1 IND d   1       4.833   5.585   3.007  0.00  0.00     0.298 HD
ENDROOT
TORSDOF 0
ENDMDL
