MODEL 1
REMARK minimizedAffinity 23.7112904
REMARK minimizedRMSD -1
REMARK  0 active torsions:
REMARK  status: ('A' for Active; 'I' for Inactive)
ROOT
ATOM      1  N1  IND d   1       4.723   5.229   1.823  0.00  0.00    -0.196 N 
ATOM      2  C2  IND d   1       5.175   6.000   0.788  0.00  0.00     0.054 A 
ATOM      3  C3  IND d   1       4.974   5.368  -0.391  0.00  0.00    -0.031 A 
ATOM      4  C4  IND d   1       3.830   3.112  -0.864  0.00  0.00     0.051 A 
ATOM      5  C5  IND d   1       3.287   2.027  -0.235  0.00  0.00    -0.031 A 
ATOM      6  C6  IND d   1       3.190   1.953   1.140  0.00  0.00     0.015 A 
ATOM      7  C7  IND d   1       3.625   2.972   1.940  0.00  0.00    -0.016 A 
ATOM      8  C8  IND d   1       4.183   4.072   1.305  0.00  0.00    -0.047 A 
ATOM      9  C9  IND d   1       4.323   4.134  -0.088  0.00  0.00    -0.096 A 
ATOM     10  HN1 IND d   1       4.768   5.433   2.657  0.00  0.00     0.298 HD
ENDROOT
TORSDOF 0
ENDMDL
