MODEL 1
REMARK minimizedAffinity 19.542572
REMARK minimizedRMSD -1
REMARK  0 active torsions:
REMARK  status: ('A' for Active; 'I' for Inactive)
ROOT
ATOM      1  N1  IND d   1      -2.556   4.004  -3.783  0.00  0.00    -0.196 N 
ATOM      2  C2  IND d   1      -2.387   2.739  -4.273  0.00  0.00     0.054 A 
ATOM      3  C3  IND d   1      -3.404   2.417  -5.103  0.00  0.00    -0.031 A 
ATOM      4  C4  IND d   1      -5.397   3.848  -5.880  0.00  0.00     0.051 A 
ATOM      5  C5  IND d   1      -5.999   5.058  -5.676  0.00  0.00    -0.031 A 
ATOM      6  C6  IND d   1      -5.472   5.999  -4.815  0.00  0.00     0.015 A 
ATOM      7  C7  IND d   1      -4.312   5.767  -4.132  0.00  0.00    -0.016 A 
ATOM      8  C8  IND d   1      -3.702   4.537  -4.331  0.00  0.00    -0.047 A 
ATOM      9  C9  IND d   1      -4.255   3.562  -5.171  0.00  0.00    -0.096 A 
ATOM     10  HN1 IND d   1      -2.034   4.400  -3.226  0.00  0.00     0.298 HD
ENDROOT
TORSDOF 0
ENDMDL
