MODEL 1
REMARK minimizedAffinity 15.4557123
REMARK minimizedRMSD -1
REMARK  0 active torsions:
REMARK  status: ('A' for Active; 'I' for Inactive)
ROOT
ATOM      1  N1  IND d   1      -0.430  -4.916  -1.547  0.00  0.00    -0.196 N 
ATOM      2  C2  IND d   1      -0.246  -5.839  -0.556  0.00  0.00     0.054 A 
ATOM      3  C3  IND d   1      -0.585  -5.314   0.644  0.00  0.00    -0.031 A 
ATOM      4  C4  IND d   1      -1.561  -2.998   1.199  0.00  0.00     0.051 A 
ATOM      5  C5  IND d   1      -1.873  -1.795   0.628  0.00  0.00    -0.031 A 
ATOM      6  C6  IND d   1      -1.719  -1.568  -0.724  0.00  0.00     0.015 A 
ATOM      7  C7  IND d   1      -1.256  -2.543  -1.562  0.00  0.00    -0.016 A 
ATOM      8  C8  IND d   1      -0.932  -3.763  -0.985  0.00  0.00    -0.047 A 
ATOM      9  C9  IND d   1      -1.046  -3.985   0.393  0.00  0.00    -0.096 A 
ATOM     10  HN1 IND d   1      -0.260  -5.035  -2.382  0.00  0.00     0.298 HD
ENDROOT
TORSDOF 0
ENDMDL
