MODEL 1
REMARK minimizedAffinity 22.6176777
REMARK minimizedRMSD -1
REMARK  0 active torsions:
REMARK  status: ('A' for Active; 'I' for Inactive)
ROOT
ATOM      1  N1  IND d   1       3.950   2.614   5.982  0.00  0.00    -0.196 N 
ATOM      2  C2  IND d   1       3.368   3.850   6.000  0.00  0.00     0.054 A 
ATOM      3  C3  IND d   1       2.816   4.128   4.797  0.00  0.00    -0.031 A 
ATOM      4  C4  IND d   1       2.662   2.657   2.690  0.00  0.00     0.051 A 
ATOM      5  C5  IND d   1       3.079   1.460   2.179  0.00  0.00    -0.031 A 
ATOM      6  C6  IND d   1       3.821   0.567   2.926  0.00  0.00     0.015 A 
ATOM      7  C7  IND d   1       4.164   0.834   4.221  0.00  0.00    -0.016 A 
ATOM      8  C8  IND d   1       3.749   2.052   4.741  0.00  0.00    -0.047 A 
ATOM      9  C9  IND d   1       3.032   2.980   3.974  0.00  0.00    -0.096 A 
ATOM     10  HN1 IND d   1       4.372   2.248   6.636  0.00  0.00     0.298 HD
ENDROOT
TORSDOF 0
ENDMDL
