MODEL 1
REMARK minimizedAffinity 25.2524109
REMARK minimizedRMSD -1
REMARK  0 active torsions:
REMARK  status: ('A' for Active; 'I' for Inactive)
ROOT
ATOM      1  N1  IND d   1       0.110  -4.546   0.817  0.00  0.00    -0.196 N 
ATOM      2  C2  IND d   1      -0.006  -5.046   2.084  0.00  0.00     0.054 A 
ATOM      3  C3  IND d   1      -1.037  -4.456   2.730  0.00  0.00    -0.031 A 
ATOM      4  C4  IND d   1      -2.730  -2.719   1.866  0.00  0.00     0.051 A 
ATOM      5  C5  IND d   1      -3.008  -1.933   0.784  0.00  0.00    -0.031 A 
ATOM      6  C6  IND d   1      -2.248  -1.980  -0.367  0.00  0.00     0.015 A 
ATOM      7  C7  IND d   1      -1.183  -2.828  -0.483  0.00  0.00    -0.016 A 
ATOM      8  C8  IND d   1      -0.893  -3.623   0.617  0.00  0.00    -0.047 A 
ATOM      9  C9  IND d   1      -1.635  -3.549   1.803  0.00  0.00    -0.096 A 
ATOM     10  HN1 IND d   1       0.708  -4.770   0.242  0.00  0.00     0.298 HD
ENDROOT
TORSDOF 0
ENDMDL
