MODEL 1
REMARK minimizedAffinity 23.9207458
REMARK minimizedRMSD -1
REMARK  0 active torsions:
REMARK  status: ('A' for Active; 'I' for Inactive)
ROOT
ATOM      1  C   UNL d   1      -5.994  -5.988  -4.646  0.00  0.00    -0.002 A 
ATOM      2  C1  UNL d   1      -5.680  -5.981  -3.295  0.00  0.00     0.010 A 
ATOM      3  C2  UNL d   1      -4.349  -5.952  -2.874  0.00  0.00     0.041 A 
ATOM      4  C3  UNL d   1      -3.328  -5.927  -3.845  0.00  0.00    -0.075 A 
ATOM      5  S   UNL d   1      -1.628  -5.889  -3.564  0.00  0.00     0.015 SA
ATOM      6  C4  UNL d   1      -1.277  -5.879  -5.232  0.00  0.00     0.022 A 
ATOM      7  C5  UNL d   1      -2.418  -5.905  -5.999  0.00  0.00     0.026 A 
ATOM      8  C6  UNL d   1      -3.619  -5.933  -5.212  0.00  0.00    -0.082 A 
ATOM      9  C7  UNL d   1      -4.978  -5.964  -5.606  0.00  0.00     0.045 A 
ENDROOT
TORSDOF 0
ENDMDL
