MODEL 1
REMARK minimizedAffinity 24.517519
REMARK minimizedRMSD -1
REMARK  0 active torsions:
REMARK  status: ('A' for Active; 'I' for Inactive)
ROOT
ATOM      1  C   UNL d   1       2.374  -1.452   5.297  0.00  0.00    -0.002 A 
ATOM      2  C1  UNL d   1       1.925  -2.199   4.217  0.00  0.00     0.010 A 
ATOM      3  C2  UNL d   1       2.656  -3.297   3.760  0.00  0.00     0.041 A 
ATOM      4  C3  UNL d   1       3.857  -3.636   4.414  0.00  0.00    -0.075 A 
ATOM      5  S   UNL d   1       4.918  -4.939   4.030  0.00  0.00     0.015 SA
ATOM      6  C4  UNL d   1       5.992  -4.536   5.290  0.00  0.00     0.022 A 
ATOM      7  C5  UNL d   1       5.567  -3.436   5.997  0.00  0.00     0.026 A 
ATOM      8  C6  UNL d   1       4.330  -2.899   5.504  0.00  0.00    -0.082 A 
ATOM      9  C7  UNL d   1       3.566  -1.791   5.943  0.00  0.00     0.045 A 
ENDROOT
TORSDOF 0
ENDMDL
