MODEL 1
REMARK minimizedAffinity -0.283313751
REMARK minimizedRMSD -1
REMARK  0 active torsions:
REMARK  status: ('A' for Active; 'I' for Inactive)
ROOT
ATOM      1  C   UNL d   1       0.391   1.910   3.091  0.00  0.00    -0.002 A 
ATOM      2  C1  UNL d   1      -0.421   0.979   2.459  0.00  0.00     0.010 A 
ATOM      3  C2  UNL d   1      -0.752   1.125   1.110  0.00  0.00     0.041 A 
ATOM      4  C3  UNL d   1      -0.247   2.231   0.400  0.00  0.00    -0.075 A 
ATOM      5  S   UNL d   1      -0.518   2.614  -1.259  0.00  0.00     0.015 SA
ATOM      6  C4  UNL d   1       0.438   4.022  -1.168  0.00  0.00     0.022 A 
ATOM      7  C5  UNL d   1       0.960   4.211   0.090  0.00  0.00     0.026 A 
ATOM      8  C6  UNL d   1       0.574   3.182   1.015  0.00  0.00    -0.082 A 
ATOM      9  C7  UNL d   1       0.890   3.006   2.383  0.00  0.00     0.045 A 
ENDROOT
TORSDOF 0
ENDMDL
