MODEL 1
REMARK minimizedAffinity -0.260046095
REMARK minimizedRMSD -1
REMARK  0 active torsions:
REMARK  status: ('A' for Active; 'I' for Inactive)
ROOT
ATOM      1  C   UNL d   1       5.663  -3.680  -2.224  0.00  0.00    -0.002 A 
ATOM      2  C1  UNL d   1       5.247  -4.893  -2.756  0.00  0.00     0.010 A 
ATOM      3  C2  UNL d   1       3.906  -5.277  -2.684  0.00  0.00     0.041 A 
ATOM      4  C3  UNL d   1       2.982  -4.413  -2.065  0.00  0.00    -0.075 A 
ATOM      5  S   UNL d   1       1.290  -4.674  -1.863  0.00  0.00     0.015 SA
ATOM      6  C4  UNL d   1       1.079  -3.181  -1.067  0.00  0.00     0.022 A 
ATOM      7  C5  UNL d   1       2.261  -2.488  -0.949  0.00  0.00     0.026 A 
ATOM      8  C6  UNL d   1       3.377  -3.186  -1.523  0.00  0.00    -0.082 A 
ATOM      9  C7  UNL d   1       4.743  -2.826  -1.611  0.00  0.00     0.045 A 
ENDROOT
TORSDOF 0
ENDMDL
