MODEL 1
REMARK minimizedAffinity 14.7426577
REMARK minimizedRMSD -1
REMARK  0 active torsions:
REMARK  status: ('A' for Active; 'I' for Inactive)
ROOT
ATOM      1  C   UNL d   1      -1.761   2.952   1.959  0.00  0.00    -0.002 A 
ATOM      2  C1  UNL d   1      -1.103   2.403   3.050  0.00  0.00     0.010 A 
ATOM      3  C2  UNL d   1       0.280   2.538   3.187  0.00  0.00     0.041 A 
ATOM      4  C3  UNL d   1       0.997   3.244   2.200  0.00  0.00    -0.075 A 
ATOM      5  S   UNL d   1       2.695   3.537   2.159  0.00  0.00     0.015 SA
ATOM      6  C4  UNL d   1       2.587   4.399   0.693  0.00  0.00     0.022 A 
ATOM      7  C5  UNL d   1       1.294   4.470   0.232  0.00  0.00     0.026 A 
ATOM      8  C6  UNL d   1       0.356   3.806   1.093  0.00  0.00    -0.082 A 
ATOM      9  C7  UNL d   1      -1.047   3.651   0.982  0.00  0.00     0.045 A 
ENDROOT
TORSDOF 0
ENDMDL
