MODEL 1
REMARK minimizedAffinity 3.5286622
REMARK minimizedRMSD -1
REMARK  0 active torsions:
REMARK  status: ('A' for Active; 'I' for Inactive)
ROOT
ATOM      1  C   UNL d   1      -0.287   3.732  -1.478  0.00  0.00    -0.002 A 
ATOM      2  C1  UNL d   1      -0.030   3.003  -0.326  0.00  0.00     0.010 A 
ATOM      3  C2  UNL d   1      -0.731   3.264   0.853  0.00  0.00     0.041 A 
ATOM      4  C3  UNL d   1      -1.707   4.280   0.854  0.00  0.00    -0.075 A 
ATOM      5  S   UNL d   1      -2.691   4.776   2.180  0.00  0.00     0.015 SA
ATOM      6  C4  UNL d   1      -3.477   5.967   1.249  0.00  0.00     0.022 A 
ATOM      7  C5  UNL d   1      -3.013   6.000  -0.045  0.00  0.00     0.026 A 
ATOM      8  C6  UNL d   1      -1.985   5.028  -0.294  0.00  0.00    -0.082 A 
ATOM      9  C7  UNL d   1      -1.256   4.739  -1.473  0.00  0.00     0.045 A 
ENDROOT
TORSDOF 0
ENDMDL
