MODEL 1
REMARK minimizedAffinity 23.8069897
REMARK minimizedRMSD -1
REMARK  0 active torsions:
REMARK  status: ('A' for Active; 'I' for Inactive)
ROOT
ATOM      1  C   UNL d   1       1.613   2.753   1.036  0.00  0.00    -0.002 A 
ATOM      2  C1  UNL d   1       1.376   2.036   2.201  0.00  0.00     0.010 A 
ATOM      3  C2  UNL d   1       0.195   2.222   2.921  0.00  0.00     0.041 A 
ATOM      4  C3  UNL d   1      -0.755   3.148   2.446  0.00  0.00    -0.075 A 
ATOM      5  S   UNL d   1      -2.273   3.539   3.162  0.00  0.00     0.015 SA
ATOM      6  C4  UNL d   1      -2.644   4.667   1.938  0.00  0.00     0.022 A 
ATOM      7  C5  UNL d   1      -1.644   4.755   0.998  0.00  0.00     0.026 A 
ATOM      8  C6  UNL d   1      -0.539   3.880   1.275  0.00  0.00    -0.082 A 
ATOM      9  C7  UNL d   1       0.669   3.670   0.568  0.00  0.00     0.045 A 
ENDROOT
TORSDOF 0
ENDMDL
