MODEL 1
REMARK minimizedAffinity 0.446728289
REMARK minimizedRMSD -1
REMARK  0 active torsions:
REMARK  status: ('A' for Active; 'I' for Inactive)
ROOT
ATOM      1  C   UNL d   1       4.226  -0.989  -1.939  0.00  0.00     0.077 C 
ATOM      2  C1  UNL d   1       3.162  -0.638  -0.942  0.00  0.00    -0.074 A 
ATOM      3  C2  UNL d   1       2.606  -1.615  -0.110  0.00  0.00    -0.005 A 
ATOM      4  C3  UNL d   1       1.624  -1.272   0.819  0.00  0.00     0.006 A 
ATOM      5  C4  UNL d   1       1.189   0.050   0.926  0.00  0.00    -0.005 A 
ATOM      6  C5  UNL d   1       1.734   1.041   0.103  0.00  0.00    -0.074 A 
ATOM      7  C6  UNL d   1       1.284   2.467   0.211  0.00  0.00     0.077 C 
ATOM      8  C7  UNL d   1       2.725   0.689  -0.824  0.00  0.00    -0.001 A 
ENDROOT
TORSDOF 0
ENDMDL
