MODEL 1
REMARK minimizedAffinity 3.26802444
REMARK minimizedRMSD -1
REMARK  0 active torsions:
REMARK  status: ('A' for Active; 'I' for Inactive)
ROOT
ATOM      1  C   UNL d   1       3.125   0.430  -1.306  0.00  0.00     0.077 C 
ATOM      2  C1  UNL d   1       2.295  -0.444  -0.414  0.00  0.00    -0.074 A 
ATOM      3  C2  UNL d   1       2.731  -1.723  -0.053  0.00  0.00    -0.005 A 
ATOM      4  C3  UNL d   1       1.952  -2.521   0.785  0.00  0.00     0.006 A 
ATOM      5  C4  UNL d   1       0.732  -2.049   1.270  0.00  0.00    -0.005 A 
ATOM      6  C5  UNL d   1       0.280  -0.773   0.921  0.00  0.00    -0.074 A 
ATOM      7  C6  UNL d   1      -1.025  -0.246   1.441  0.00  0.00     0.077 C 
ATOM      8  C7  UNL d   1       1.071   0.026   0.084  0.00  0.00    -0.001 A 
ENDROOT
TORSDOF 0
ENDMDL
