MODEL 1
REMARK minimizedAffinity 1.94320095
REMARK minimizedRMSD -1
REMARK  0 active torsions:
REMARK  status: ('A' for Active; 'I' for Inactive)
ROOT
ATOM      1  C   UNL d   1      -4.498  -3.751   5.367  0.00  0.00     0.077 C 
ATOM      2  C1  UNL d   1      -4.247  -4.271   3.983  0.00  0.00    -0.074 A 
ATOM      3  C2  UNL d   1      -4.705  -5.534   3.595  0.00  0.00    -0.005 A 
ATOM      4  C3  UNL d   1      -4.473  -6.000   2.301  0.00  0.00     0.006 A 
ATOM      5  C4  UNL d   1      -3.781  -5.208   1.383  0.00  0.00    -0.005 A 
ATOM      6  C5  UNL d   1      -3.316  -3.942   1.752  0.00  0.00    -0.074 A 
ATOM      7  C6  UNL d   1      -2.580  -3.075   0.775  0.00  0.00     0.077 C 
ATOM      8  C7  UNL d   1      -3.560  -3.478   3.052  0.00  0.00    -0.001 A 
ENDROOT
TORSDOF 0
ENDMDL
