MODEL 1
REMARK minimizedAffinity 2.08016777
REMARK minimizedRMSD -1
REMARK  0 active torsions:
REMARK  status: ('A' for Active; 'I' for Inactive)
ROOT
ATOM      1  C   UNL d   1       3.028   0.087  -1.641  0.00  0.00     0.077 C 
ATOM      2  C1  UNL d   1       2.471  -0.665  -0.470  0.00  0.00    -0.074 A 
ATOM      3  C2  UNL d   1       3.130  -1.788   0.043  0.00  0.00    -0.005 A 
ATOM      4  C3  UNL d   1       2.604  -2.472   1.139  0.00  0.00     0.006 A 
ATOM      5  C4  UNL d   1       1.417  -2.042   1.733  0.00  0.00    -0.005 A 
ATOM      6  C5  UNL d   1       0.745  -0.921   1.234  0.00  0.00    -0.074 A 
ATOM      7  C6  UNL d   1      -0.527  -0.439   1.867  0.00  0.00     0.077 C 
ATOM      8  C7  UNL d   1       1.283  -0.235   0.137  0.00  0.00    -0.001 A 
ENDROOT
TORSDOF 0
ENDMDL
