MODEL 1
REMARK minimizedAffinity 6.22993183
REMARK minimizedRMSD -1
REMARK  0 active torsions:
REMARK  status: ('A' for Active; 'I' for Inactive)
ROOT
ATOM      1  C   UNL d   1      -2.824  -3.318   0.565  0.00  0.00     0.077 C 
ATOM      2  C1  UNL d   1      -3.047  -1.839   0.672  0.00  0.00    -0.074 A 
ATOM      3  C2  UNL d   1      -2.884  -1.173   1.891  0.00  0.00    -0.005 A 
ATOM      4  C3  UNL d   1      -3.086   0.204   1.973  0.00  0.00     0.006 A 
ATOM      5  C4  UNL d   1      -3.453   0.929   0.838  0.00  0.00    -0.005 A 
ATOM      6  C5  UNL d   1      -3.620   0.281  -0.390  0.00  0.00    -0.074 A 
ATOM      7  C6  UNL d   1      -4.004   1.047  -1.621  0.00  0.00     0.077 C 
ATOM      8  C7  UNL d   1      -3.408  -1.102  -0.465  0.00  0.00    -0.001 A 
ENDROOT
TORSDOF 0
ENDMDL
