MODEL 1
REMARK minimizedAffinity 7.47761202
REMARK minimizedRMSD -1
REMARK  0 active torsions:
REMARK  status: ('A' for Active; 'I' for Inactive)
ROOT
ATOM      1  C   UNL d   1       1.834  -0.141   1.752  0.00  0.00     0.077 C 
ATOM      2  C1  UNL d   1       2.222  -0.754   0.439  0.00  0.00    -0.074 A 
ATOM      3  C2  UNL d   1       1.828  -2.055   0.109  0.00  0.00    -0.005 A 
ATOM      4  C3  UNL d   1       2.188  -2.608  -1.120  0.00  0.00     0.006 A 
ATOM      5  C4  UNL d   1       2.944  -1.867  -2.029  0.00  0.00    -0.005 A 
ATOM      6  C5  UNL d   1       3.345  -0.565  -1.717  0.00  0.00    -0.074 A 
ATOM      7  C6  UNL d   1       4.149   0.249  -2.688  0.00  0.00     0.077 C 
ATOM      8  C7  UNL d   1       2.974  -0.013  -0.484  0.00  0.00    -0.001 A 
ENDROOT
TORSDOF 0
ENDMDL
