MODEL 1
REMARK minimizedAffinity 3.45224118
REMARK minimizedRMSD -1
REMARK  0 active torsions:
REMARK  status: ('A' for Active; 'I' for Inactive)
ROOT
ATOM      1  C   UNL d   1      -2.761  -0.806  -1.004  0.00  0.00     0.077 C 
ATOM      2  C1  UNL d   1      -3.170   0.517  -1.582  0.00  0.00    -0.074 A 
ATOM      3  C2  UNL d   1      -4.411   1.083  -1.274  0.00  0.00    -0.005 A 
ATOM      4  C3  UNL d   1      -4.774   2.318  -1.811  0.00  0.00     0.006 A 
ATOM      5  C4  UNL d   1      -3.900   2.999  -2.660  0.00  0.00    -0.005 A 
ATOM      6  C5  UNL d   1      -2.655   2.449  -2.979  0.00  0.00    -0.074 A 
ATOM      7  C6  UNL d   1      -1.700   3.172  -3.882  0.00  0.00     0.077 C 
ATOM      8  C7  UNL d   1      -2.295   1.210  -2.429  0.00  0.00    -0.001 A 
ENDROOT
TORSDOF 0
ENDMDL
