MODEL 1
REMARK minimizedAffinity -4.2504158
REMARK minimizedRMSD -1
REMARK  0 active torsions:
REMARK  status: ('A' for Active; 'I' for Inactive)
ROOT
ATOM      1  C   UNL d   1       3.050  -5.989   5.194  0.00  0.00     0.077 C 
ATOM      2  C1  UNL d   1       2.020  -5.074   4.601  0.00  0.00    -0.074 A 
ATOM      3  C2  UNL d   1       0.655  -5.308   4.792  0.00  0.00    -0.005 A 
ATOM      4  C3  UNL d   1      -0.291  -4.443   4.242  0.00  0.00     0.006 A 
ATOM      5  C4  UNL d   1       0.118  -3.337   3.497  0.00  0.00    -0.005 A 
ATOM      6  C5  UNL d   1       1.479  -3.086   3.296  0.00  0.00    -0.074 A 
ATOM      7  C6  UNL d   1       1.936  -1.896   2.506  0.00  0.00     0.077 C 
ATOM      8  C7  UNL d   1       2.424  -3.956   3.858  0.00  0.00    -0.001 A 
ENDROOT
TORSDOF 0
ENDMDL
