MODEL 1
REMARK minimizedAffinity -0.803515971
REMARK minimizedRMSD -1
REMARK  0 active torsions:
REMARK  status: ('A' for Active; 'I' for Inactive)
ROOT
ATOM      1  C   UNL d   1       2.310  -1.861  -0.282  0.00  0.00     0.077 C 
ATOM      2  C1  UNL d   1       2.953  -1.567   1.041  0.00  0.00    -0.074 A 
ATOM      3  C2  UNL d   1       4.246  -1.037   1.110  0.00  0.00    -0.005 A 
ATOM      4  C3  UNL d   1       4.827  -0.760   2.347  0.00  0.00     0.006 A 
ATOM      5  C4  UNL d   1       4.123  -1.010   3.526  0.00  0.00    -0.005 A 
ATOM      6  C5  UNL d   1       2.829  -1.538   3.477  0.00  0.00    -0.074 A 
ATOM      7  C6  UNL d   1       2.055  -1.803   4.734  0.00  0.00     0.077 C 
ATOM      8  C7  UNL d   1       2.249  -1.808   2.229  0.00  0.00    -0.001 A 
ENDROOT
TORSDOF 0
ENDMDL
