MODEL 1
REMARK minimizedAffinity 7.80664015
REMARK minimizedRMSD -1
REMARK  0 active torsions:
REMARK  status: ('A' for Active; 'I' for Inactive)
ROOT
ATOM      1  C   UNL d   1       4.180   2.674  -0.934  0.00  0.00     0.077 C 
ATOM      2  C1  UNL d   1       3.338   1.486  -0.573  0.00  0.00    -0.074 A 
ATOM      3  C2  UNL d   1       3.770   0.186  -0.858  0.00  0.00    -0.005 A 
ATOM      4  C3  UNL d   1       2.981  -0.909  -0.508  0.00  0.00     0.006 A 
ATOM      5  C4  UNL d   1       1.754  -0.717   0.130  0.00  0.00    -0.005 A 
ATOM      6  C5  UNL d   1       1.307   0.575   0.423  0.00  0.00    -0.074 A 
ATOM      7  C6  UNL d   1      -0.004   0.800   1.117  0.00  0.00     0.077 C 
ATOM      8  C7  UNL d   1       2.109   1.671   0.074  0.00  0.00    -0.001 A 
ENDROOT
TORSDOF 0
ENDMDL
