MODEL 1
REMARK minimizedAffinity 1.48752201
REMARK minimizedRMSD -1
REMARK  0 active torsions:
REMARK  status: ('A' for Active; 'I' for Inactive)
ROOT
ATOM      1  C   UNL d   1      -3.224  -5.851  -4.488  0.00  0.00     0.077 C 
ATOM      2  C1  UNL d   1      -3.953  -5.810  -3.177  0.00  0.00    -0.074 A 
ATOM      3  C2  UNL d   1      -5.337  -6.000  -3.119  0.00  0.00    -0.005 A 
ATOM      4  C3  UNL d   1      -6.000  -5.969  -1.892  0.00  0.00     0.006 A 
ATOM      5  C4  UNL d   1      -5.287  -5.747  -0.713  0.00  0.00    -0.005 A 
ATOM      6  C5  UNL d   1      -3.902  -5.555  -0.752  0.00  0.00    -0.074 A 
ATOM      7  C6  UNL d   1      -3.119  -5.326   0.506  0.00  0.00     0.077 C 
ATOM      8  C7  UNL d   1      -3.242  -5.595  -1.988  0.00  0.00    -0.001 A 
ENDROOT
TORSDOF 0
ENDMDL
