MODEL 1
REMARK minimizedAffinity -3.54580426
REMARK minimizedRMSD -1
REMARK  0 active torsions:
REMARK  status: ('A' for Active; 'I' for Inactive)
ROOT
ATOM      1  C   UNL d   1      -1.860  -5.979  -1.764  0.00  0.00     0.077 C 
ATOM      2  C1  UNL d   1      -2.977  -5.980  -0.763  0.00  0.00    -0.074 A 
ATOM      3  C2  UNL d   1      -4.313  -5.990  -1.177  0.00  0.00    -0.005 A 
ATOM      4  C3  UNL d   1      -5.341  -6.000  -0.235  0.00  0.00     0.006 A 
ATOM      5  C4  UNL d   1      -5.044  -6.000   1.129  0.00  0.00    -0.005 A 
ATOM      6  C5  UNL d   1      -3.714  -5.990   1.561  0.00  0.00    -0.074 A 
ATOM      7  C6  UNL d   1      -3.378  -6.000   3.023  0.00  0.00     0.077 C 
ATOM      8  C7  UNL d   1      -2.687  -5.987   0.608  0.00  0.00    -0.001 A 
ENDROOT
TORSDOF 0
ENDMDL
