MODEL 1
REMARK minimizedAffinity 1.63274086
REMARK minimizedRMSD -1
REMARK  0 active torsions:
REMARK  status: ('A' for Active; 'I' for Inactive)
ROOT
ATOM      1  C   UNL d   1      -4.992  -5.890  -1.490  0.00  0.00     0.077 C 
ATOM      2  C1  UNL d   1      -4.130  -5.292  -0.418  0.00  0.00    -0.074 A 
ATOM      3  C2  UNL d   1      -2.998  -4.538  -0.743  0.00  0.00    -0.005 A 
ATOM      4  C3  UNL d   1      -2.212  -3.980   0.265  0.00  0.00     0.006 A 
ATOM      5  C4  UNL d   1      -2.549  -4.171   1.606  0.00  0.00    -0.005 A 
ATOM      6  C5  UNL d   1      -3.678  -4.921   1.950  0.00  0.00    -0.074 A 
ATOM      7  C6  UNL d   1      -4.060  -5.127   3.385  0.00  0.00     0.077 C 
ATOM      8  C7  UNL d   1      -4.467  -5.472   0.931  0.00  0.00    -0.001 A 
ENDROOT
TORSDOF 0
ENDMDL
