MODEL 1
REMARK minimizedAffinity 5.7692771
REMARK minimizedRMSD -1
REMARK  0 active torsions:
REMARK  status: ('A' for Active; 'I' for Inactive)
ROOT
ATOM      1  C   UNL d   1      -5.730  -6.000  -0.234  0.00  0.00     0.077 C 
ATOM      2  C1  UNL d   1      -4.555  -5.235   0.299  0.00  0.00    -0.074 A 
ATOM      3  C2  UNL d   1      -3.653  -4.607  -0.566  0.00  0.00    -0.005 A 
ATOM      4  C3  UNL d   1      -2.571  -3.892  -0.055  0.00  0.00     0.006 A 
ATOM      5  C4  UNL d   1      -2.379  -3.797   1.324  0.00  0.00    -0.005 A 
ATOM      6  C5  UNL d   1      -3.271  -4.417   2.205  0.00  0.00    -0.074 A 
ATOM      7  C6  UNL d   1      -3.085  -4.316   3.690  0.00  0.00     0.077 C 
ATOM      8  C7  UNL d   1      -4.360  -5.128   1.684  0.00  0.00    -0.001 A 
ENDROOT
TORSDOF 0
ENDMDL
