MODEL 1
REMARK minimizedAffinity 5.34578705
REMARK minimizedRMSD -1
REMARK  0 active torsions:
REMARK  status: ('A' for Active; 'I' for Inactive)
ROOT
ATOM      1  C   UNL d   1       1.735  -4.875  -2.412  0.00  0.00     0.077 C 
ATOM      2  C1  UNL d   1       0.964  -5.248  -3.643  0.00  0.00    -0.074 A 
ATOM      3  C2  UNL d   1       1.614  -5.446  -4.865  0.00  0.00    -0.005 A 
ATOM      4  C3  UNL d   1       0.884  -5.802  -6.000  0.00  0.00     0.006 A 
ATOM      5  C4  UNL d   1      -0.499  -5.964  -5.923  0.00  0.00    -0.005 A 
ATOM      6  C5  UNL d   1      -1.166  -5.771  -4.709  0.00  0.00    -0.074 A 
ATOM      7  C6  UNL d   1      -2.652  -5.950  -4.607  0.00  0.00     0.077 C 
ATOM      8  C7  UNL d   1      -0.425  -5.420  -3.572  0.00  0.00    -0.001 A 
ENDROOT
TORSDOF 0
ENDMDL
