MODEL 1
REMARK minimizedAffinity 7.29452801
REMARK minimizedRMSD -1
REMARK  0 active torsions:
REMARK  status: ('A' for Active; 'I' for Inactive)
ROOT
ATOM      1  C   UNL d   1      -2.153  -3.925   0.624  0.00  0.00     0.077 C 
ATOM      2  C1  UNL d   1      -1.026  -3.015   0.235  0.00  0.00    -0.074 A 
ATOM      3  C2  UNL d   1       0.162  -3.529  -0.294  0.00  0.00    -0.005 A 
ATOM      4  C3  UNL d   1       1.199  -2.671  -0.660  0.00  0.00     0.006 A 
ATOM      5  C4  UNL d   1       1.058  -1.291  -0.500  0.00  0.00    -0.005 A 
ATOM      6  C5  UNL d   1      -0.123  -0.759   0.027  0.00  0.00    -0.074 A 
ATOM      7  C6  UNL d   1      -0.295   0.721   0.196  0.00  0.00     0.077 C 
ATOM      8  C7  UNL d   1      -1.163  -1.628   0.386  0.00  0.00    -0.001 A 
ENDROOT
TORSDOF 0
ENDMDL
