MODEL 1
REMARK minimizedAffinity 1.80991852
REMARK minimizedRMSD -1
REMARK  0 active torsions:
REMARK  status: ('A' for Active; 'I' for Inactive)
ROOT
ATOM      1  C   UNL d   1      -2.997  -5.977  -2.978  0.00  0.00     0.077 C 
ATOM      2  C1  UNL d   1      -1.560  -5.622  -3.219  0.00  0.00    -0.074 A 
ATOM      3  C2  UNL d   1      -0.804  -4.978  -2.235  0.00  0.00    -0.005 A 
ATOM      4  C3  UNL d   1       0.534  -4.662  -2.470  0.00  0.00     0.006 A 
ATOM      5  C4  UNL d   1       1.128  -4.987  -3.691  0.00  0.00    -0.005 A 
ATOM      6  C5  UNL d   1       0.388  -5.632  -4.686  0.00  0.00    -0.074 A 
ATOM      7  C6  UNL d   1       1.014  -5.998  -5.999  0.00  0.00     0.077 C 
ATOM      8  C7  UNL d   1      -0.954  -5.952  -4.439  0.00  0.00    -0.001 A 
ENDROOT
TORSDOF 0
ENDMDL
