MODEL 1
REMARK minimizedAffinity 3.733881
REMARK minimizedRMSD -1
REMARK  0 active torsions:
REMARK  status: ('A' for Active; 'I' for Inactive)
ROOT
ATOM      1  C   UNL d   1       0.043   0.265   1.337  0.00  0.00     0.077 C 
ATOM      2  C1  UNL d   1       0.470   0.354  -0.098  0.00  0.00    -0.074 A 
ATOM      3  C2  UNL d   1       1.668  -0.225  -0.529  0.00  0.00    -0.005 A 
ATOM      4  C3  UNL d   1       2.047  -0.143  -1.868  0.00  0.00     0.006 A 
ATOM      5  C4  UNL d   1       1.234   0.519  -2.790  0.00  0.00    -0.005 A 
ATOM      6  C5  UNL d   1       0.032   1.103  -2.378  0.00  0.00    -0.074 A 
ATOM      7  C6  UNL d   1      -0.858   1.809  -3.357  0.00  0.00     0.077 C 
ATOM      8  C7  UNL d   1      -0.345   1.010  -1.031  0.00  0.00    -0.001 A 
ENDROOT
TORSDOF 0
ENDMDL
