MODEL 1
REMARK minimizedAffinity 1.99608374
REMARK minimizedRMSD -1
REMARK  0 active torsions:
REMARK  status: ('A' for Active; 'I' for Inactive)
ROOT
ATOM      1  C   UNL d   1      -2.698  -2.078  -0.032  0.00  0.00     0.077 C 
ATOM      2  C1  UNL d   1      -2.331  -0.624  -0.022  0.00  0.00    -0.074 A 
ATOM      3  C2  UNL d   1      -1.925   0.007   1.158  0.00  0.00    -0.005 A 
ATOM      4  C3  UNL d   1      -1.577   1.358   1.150  0.00  0.00     0.006 A 
ATOM      5  C4  UNL d   1      -1.631   2.090  -0.036  0.00  0.00    -0.005 A 
ATOM      6  C5  UNL d   1      -2.034   1.477  -1.226  0.00  0.00    -0.074 A 
ATOM      7  C6  UNL d   1      -2.089   2.247  -2.512  0.00  0.00     0.077 C 
ATOM      8  C7  UNL d   1      -2.375   0.117  -1.212  0.00  0.00    -0.001 A 
ENDROOT
TORSDOF 0
ENDMDL
