MODEL 1
REMARK minimizedAffinity -4.91825485
REMARK minimizedRMSD -1
REMARK  0 active torsions:
REMARK  status: ('A' for Active; 'I' for Inactive)
ROOT
ATOM      1  C1  BNZ d   1       0.469   0.111   0.772  0.00  0.00     0.000 A 
ATOM      2  C2  BNZ d   1      -0.489  -0.465   1.563  0.00  0.00     0.000 A 
ATOM      3  C3  BNZ d   1      -1.470   0.293   2.139  0.00  0.00     0.000 A 
ATOM      4  C4  BNZ d   1      -1.468   1.630   1.956  0.00  0.00     0.000 A 
ATOM      5  C5  BNZ d   1      -0.504   2.226   1.169  0.00  0.00     0.000 A 
ATOM      6  C6  BNZ d   1       0.459   1.455   0.559  0.00  0.00     0.000 A 
ENDROOT
TORSDOF 0
ENDMDL
