MODEL 1
REMARK minimizedAffinity -2.71532631
REMARK minimizedRMSD -1
REMARK  0 active torsions:
REMARK  status: ('A' for Active; 'I' for Inactive)
ROOT
ATOM      1  C1  BNZ d   1      -0.811  -0.427   1.517  0.00  0.00     0.000 A 
ATOM      2  C2  BNZ d   1       0.276   0.396   1.400  0.00  0.00     0.000 A 
ATOM      3  C3  BNZ d   1       0.215   1.699   1.808  0.00  0.00     0.000 A 
ATOM      4  C4  BNZ d   1      -0.945   2.188   2.294  0.00  0.00     0.000 A 
ATOM      5  C5  BNZ d   1      -2.053   1.372   2.409  0.00  0.00     0.000 A 
ATOM      6  C6  BNZ d   1      -1.976   0.051   2.034  0.00  0.00     0.000 A 
ENDROOT
TORSDOF 0
ENDMDL
