MODEL 1
REMARK minimizedAffinity -2.92061472
REMARK minimizedRMSD -1
REMARK  0 active torsions:
REMARK  status: ('A' for Active; 'I' for Inactive)
ROOT
ATOM      1  C1  BNZ d   1       0.146   2.027   0.802  0.00  0.00     0.000 A 
ATOM      2  C2  BNZ d   1       0.524   0.713   0.877  0.00  0.00     0.000 A 
ATOM      3  C3  BNZ d   1      -0.134  -0.158   1.701  0.00  0.00     0.000 A 
ATOM      4  C4  BNZ d   1      -1.140   0.295   2.476  0.00  0.00     0.000 A 
ATOM      5  C5  BNZ d   1      -1.526   1.619   2.418  0.00  0.00     0.000 A 
ATOM      6  C6  BNZ d   1      -0.888   2.484   1.560  0.00  0.00     0.000 A 
ENDROOT
TORSDOF 0
ENDMDL
