MODEL 1
REMARK minimizedAffinity -5.41267967
REMARK minimizedRMSD -1
REMARK  0 active torsions:
REMARK  status: ('A' for Active; 'I' for Inactive)
ROOT
ATOM      1  C1  BNZ d   1      -1.089   2.041   2.064  0.00  0.00     0.000 A 
ATOM      2  C2  BNZ d   1      -0.781   0.853   1.456  0.00  0.00     0.000 A 
ATOM      3  C3  BNZ d   1      -1.568  -0.251   1.637  0.00  0.00     0.000 A 
ATOM      4  C4  BNZ d   1      -2.636  -0.175   2.457  0.00  0.00     0.000 A 
ATOM      5  C5  BNZ d   1      -2.954   1.013   3.084  0.00  0.00     0.000 A 
ATOM      6  C6  BNZ d   1      -2.182   2.131   2.869  0.00  0.00     0.000 A 
ENDROOT
TORSDOF 0
ENDMDL
