MODEL 1
REMARK minimizedAffinity -2.53205848
REMARK minimizedRMSD -1
REMARK  0 active torsions:
REMARK  status: ('A' for Active; 'I' for Inactive)
ROOT
ATOM      1  C1  BNZ d   1       0.756  -0.180   0.995  0.00  0.00     0.000 A 
ATOM      2  C2  BNZ d   1      -0.325  -0.822   1.537  0.00  0.00     0.000 A 
ATOM      3  C3  BNZ d   1      -1.532  -0.191   1.645  0.00  0.00     0.000 A 
ATOM      4  C4  BNZ d   1      -1.647   1.093   1.249  0.00  0.00     0.000 A 
ATOM      5  C5  BNZ d   1      -0.564   1.757   0.709  0.00  0.00     0.000 A 
ATOM      6  C6  BNZ d   1       0.640   1.106   0.566  0.00  0.00     0.000 A 
ENDROOT
TORSDOF 0
ENDMDL
