MODEL 1
REMARK minimizedAffinity -1.8007679
REMARK minimizedRMSD -1
REMARK  0 active torsions:
REMARK  status: ('A' for Active; 'I' for Inactive)
ROOT
ATOM      1  C1  BNZ d   1       0.389   1.335   0.867  0.00  0.00     0.000 A 
ATOM      2  C2  BNZ d   1       0.096  -0.001   0.790  0.00  0.00     0.000 A 
ATOM      3  C3  BNZ d   1      -0.956  -0.529   1.485  0.00  0.00     0.000 A 
ATOM      4  C4  BNZ d   1      -1.688   0.271   2.286  0.00  0.00     0.000 A 
ATOM      5  C5  BNZ d   1      -1.401   1.618   2.382  0.00  0.00     0.000 A 
ATOM      6  C6  BNZ d   1      -0.365   2.153   1.650  0.00  0.00     0.000 A 
ENDROOT
TORSDOF 0
ENDMDL
