MODEL 1
REMARK minimizedAffinity -1.8409009
REMARK minimizedRMSD -1
REMARK  0 active torsions:
REMARK  status: ('A' for Active; 'I' for Inactive)
ROOT
ATOM      1  C1  BNZ d   1      -2.010   2.579   2.171  0.00  0.00     0.000 A 
ATOM      2  C2  BNZ d   1      -0.813   2.822   1.552  0.00  0.00     0.000 A 
ATOM      3  C3  BNZ d   1       0.053   1.800   1.278  0.00  0.00     0.000 A 
ATOM      4  C4  BNZ d   1      -0.260   0.545   1.660  0.00  0.00     0.000 A 
ATOM      5  C5  BNZ d   1      -1.458   0.286   2.294  0.00  0.00     0.000 A 
ATOM      6  C6  BNZ d   1      -2.345   1.310   2.533  0.00  0.00     0.000 A 
ENDROOT
TORSDOF 0
ENDMDL
