MODEL 1
REMARK minimizedAffinity -0.0269116387
REMARK minimizedRMSD -1
REMARK  0 active torsions:
REMARK  status: ('A' for Active; 'I' for Inactive)
ROOT
ATOM      1  C1  BNZ d   1      -1.199   2.058   2.362  0.00  0.00     0.000 A 
ATOM      2  C2  BNZ d   1      -0.099   2.374   1.610  0.00  0.00     0.000 A 
ATOM      3  C3  BNZ d   1       0.661   1.393   1.035  0.00  0.00     0.000 A 
ATOM      4  C4  BNZ d   1       0.344   0.100   1.246  0.00  0.00     0.000 A 
ATOM      5  C5  BNZ d   1      -0.757  -0.235   2.009  0.00  0.00     0.000 A 
ATOM      6  C6  BNZ d   1      -1.542   0.756   2.554  0.00  0.00     0.000 A 
ENDROOT
TORSDOF 0
ENDMDL
