MODEL 1
REMARK minimizedAffinity -1.98220432
REMARK minimizedRMSD -1
REMARK  0 active torsions:
REMARK  status: ('A' for Active; 'I' for Inactive)
ROOT
ATOM      1  C1  BNZ d   1      -2.098   0.888   2.255  0.00  0.00     0.000 A 
ATOM      2  C2  BNZ d   1      -1.538  -0.141   1.546  0.00  0.00     0.000 A 
ATOM      3  C3  BNZ d   1      -0.302  -0.008   0.977  0.00  0.00     0.000 A 
ATOM      4  C4  BNZ d   1       0.353   1.166   1.083  0.00  0.00     0.000 A 
ATOM      5  C5  BNZ d   1      -0.202   2.216   1.787  0.00  0.00     0.000 A 
ATOM      6  C6  BNZ d   1      -1.429   2.065   2.391  0.00  0.00     0.000 A 
ENDROOT
TORSDOF 0
ENDMDL
