MODEL 1
REMARK minimizedAffinity -1.38794696
REMARK minimizedRMSD -1
REMARK  0 active torsions:
REMARK  status: ('A' for Active; 'I' for Inactive)
ROOT
ATOM      1  C1  BNZ d   1       3.025  -0.921  -0.403  0.00  0.00     0.000 A 
ATOM      2  C2  BNZ d   1       2.160  -0.894   0.658  0.00  0.00     0.000 A 
ATOM      3  C3  BNZ d   1       1.448   0.236   0.952  0.00  0.00     0.000 A 
ATOM      4  C4  BNZ d   1       1.632   1.347   0.210  0.00  0.00     0.000 A 
ATOM      5  C5  BNZ d   1       2.508   1.338  -0.857  0.00  0.00     0.000 A 
ATOM      6  C6  BNZ d   1       3.193   0.188  -1.174  0.00  0.00     0.000 A 
ENDROOT
TORSDOF 0
ENDMDL
