MODEL 1
REMARK minimizedAffinity -2.63721442
REMARK minimizedRMSD -1
REMARK  0 active torsions:
REMARK  status: ('A' for Active; 'I' for Inactive)
ROOT
ATOM      1  C1  BNZ d   1       2.345   0.923   0.027  0.00  0.00     0.000 A 
ATOM      2  C2  BNZ d   1       2.486   1.525  -1.195  0.00  0.00     0.000 A 
ATOM      3  C3  BNZ d   1       2.970   0.829  -2.267  0.00  0.00     0.000 A 
ATOM      4  C4  BNZ d   1       3.349  -0.456  -2.107  0.00  0.00     0.000 A 
ATOM      5  C5  BNZ d   1       3.221  -1.074  -0.879  0.00  0.00     0.000 A 
ATOM      6  C6  BNZ d   1       2.698  -0.382   0.188  0.00  0.00     0.000 A 
ENDROOT
TORSDOF 0
ENDMDL
