MODEL 1
REMARK minimizedAffinity -5.40781355
REMARK minimizedRMSD -1
REMARK  0 active torsions:
REMARK  status: ('A' for Active; 'I' for Inactive)
ROOT
ATOM      1  C1  BNZ d   1      -0.800   0.008   0.940  0.00  0.00     0.000 A 
ATOM      2  C2  BNZ d   1      -1.655   0.560   1.856  0.00  0.00     0.000 A 
ATOM      3  C3  BNZ d   1      -1.425   1.808   2.364  0.00  0.00     0.000 A 
ATOM      4  C4  BNZ d   1      -0.321   2.485   1.987  0.00  0.00     0.000 A 
ATOM      5  C5  BNZ d   1       0.555   1.938   1.071  0.00  0.00     0.000 A 
ATOM      6  C6  BNZ d   1       0.300   0.698   0.532  0.00  0.00     0.000 A 
ENDROOT
TORSDOF 0
ENDMDL
