MODEL 1
REMARK minimizedAffinity -3.34839964
REMARK minimizedRMSD -1
REMARK  0 active torsions:
REMARK  status: ('A' for Active; 'I' for Inactive)
ROOT
ATOM      1  C1  BNZ d   1      -0.515   2.264   1.731  0.00  0.00     0.000 A 
ATOM      2  C2  BNZ d   1      -1.552   1.432   2.060  0.00  0.00     0.000 A 
ATOM      3  C3  BNZ d   1      -1.389   0.075   2.056  0.00  0.00     0.000 A 
ATOM      4  C4  BNZ d   1      -0.203  -0.449   1.686  0.00  0.00     0.000 A 
ATOM      5  C5  BNZ d   1       0.849   0.376   1.342  0.00  0.00     0.000 A 
ATOM      6  C6  BNZ d   1       0.693   1.743   1.384  0.00  0.00     0.000 A 
ENDROOT
TORSDOF 0
ENDMDL
