MODEL 1
REMARK minimizedAffinity -3.56491089
REMARK minimizedRMSD -1
REMARK  0 active torsions:
REMARK  status: ('A' for Active; 'I' for Inactive)
ROOT
ATOM      1  C1  BNZ d   1      -0.946   0.239   0.802  0.00  0.00     0.000 A 
ATOM      2  C2  BNZ d   1      -1.657   1.238   1.412  0.00  0.00     0.000 A 
ATOM      3  C3  BNZ d   1      -1.017   2.277   2.028  0.00  0.00     0.000 A 
ATOM      4  C4  BNZ d   1       0.331   2.295   2.069  0.00  0.00     0.000 A 
ATOM      5  C5  BNZ d   1       1.062   1.290   1.467  0.00  0.00     0.000 A 
ATOM      6  C6  BNZ d   1       0.415   0.266   0.814  0.00  0.00     0.000 A 
ENDROOT
TORSDOF 0
ENDMDL
