MODEL 1
REMARK minimizedAffinity -4.26962996
REMARK minimizedRMSD -1
REMARK  0 active torsions:
REMARK  status: ('A' for Active; 'I' for Inactive)
ROOT
ATOM      1  C1  BNZ d   1       0.214   0.716   0.437  0.00  0.00     0.000 A 
ATOM      2  C2  BNZ d   1       0.428   2.068   0.466  0.00  0.00     0.000 A 
ATOM      3  C3  BNZ d   1      -0.296   2.874   1.299  0.00  0.00     0.000 A 
ATOM      4  C4  BNZ d   1      -1.260   2.333   2.072  0.00  0.00     0.000 A 
ATOM      5  C5  BNZ d   1      -1.494   0.972   2.048  0.00  0.00     0.000 A 
ATOM      6  C6  BNZ d   1      -0.737   0.159   1.236  0.00  0.00     0.000 A 
ENDROOT
TORSDOF 0
ENDMDL
