MODEL 1
REMARK minimizedAffinity 0.00191643217
REMARK minimizedRMSD -1
REMARK  0 active torsions:
REMARK  status: ('A' for Active; 'I' for Inactive)
ROOT
ATOM      1  C1  BNZ d   1      -0.253   1.597   2.167  0.00  0.00     0.000 A 
ATOM      2  C2  BNZ d   1      -1.073   2.162   3.107  0.00  0.00     0.000 A 
ATOM      3  C3  BNZ d   1      -2.353   1.713   3.279  0.00  0.00     0.000 A 
ATOM      4  C4  BNZ d   1      -2.823   0.729   2.486  0.00  0.00     0.000 A 
ATOM      5  C5  BNZ d   1      -2.011   0.156   1.527  0.00  0.00     0.000 A 
ATOM      6  C6  BNZ d   1      -0.711   0.584   1.383  0.00  0.00     0.000 A 
ENDROOT
TORSDOF 0
ENDMDL
