MODEL 1
REMARK minimizedAffinity 1.08664238
REMARK minimizedRMSD -1
REMARK  0 active torsions:
REMARK  status: ('A' for Active; 'I' for Inactive)
ROOT
ATOM      1  C1  BNZ d   1       0.047   2.707   2.014  0.00  0.00     0.000 A 
ATOM      2  C2  BNZ d   1      -1.202   3.265   2.088  0.00  0.00     0.000 A 
ATOM      3  C3  BNZ d   1      -2.286   2.510   2.441  0.00  0.00     0.000 A 
ATOM      4  C4  BNZ d   1      -2.127   1.192   2.680  0.00  0.00     0.000 A 
ATOM      5  C5  BNZ d   1      -0.876   0.614   2.600  0.00  0.00     0.000 A 
ATOM      6  C6  BNZ d   1       0.219   1.384   2.283  0.00  0.00     0.000 A 
ENDROOT
TORSDOF 0
ENDMDL
