MODEL 1
REMARK minimizedAffinity -4.89445829
REMARK minimizedRMSD -1
REMARK  0 active torsions:
REMARK  status: ('A' for Active; 'I' for Inactive)
ROOT
ATOM      1  C   UNL d   1       0.489  -0.355  -2.495  0.00  0.00     0.077 C 
ATOM      2  C1  UNL d   1       0.773  -0.219  -1.029  0.00  0.00    -0.074 A 
ATOM      3  C2  UNL d   1       1.770  -0.985  -0.415  0.00  0.00    -0.005 A 
ATOM      4  C3  UNL d   1       2.029  -0.840   0.947  0.00  0.00     0.006 A 
ATOM      5  C4  UNL d   1       1.296   0.070   1.710  0.00  0.00    -0.005 A 
ATOM      6  C5  UNL d   1       0.296   0.845   1.114  0.00  0.00    -0.074 A 
ATOM      7  C6  UNL d   1      -0.495   1.835   1.916  0.00  0.00     0.077 C 
ATOM      8  C7  UNL d   1       0.046   0.699  -0.258  0.00  0.00    -0.001 A 
ENDROOT
TORSDOF 0
ENDMDL
