MODEL 1
REMARK minimizedAffinity -4.58672428
REMARK minimizedRMSD -1
REMARK  0 active torsions:
REMARK  status: ('A' for Active; 'I' for Inactive)
ROOT
ATOM      1  C   UNL d   1       1.442   0.092  -1.801  0.00  0.00     0.077 C 
ATOM      2  C1  UNL d   1       0.271   0.057  -0.864  0.00  0.00    -0.074 A 
ATOM      3  C2  UNL d   1      -0.868  -0.697  -1.165  0.00  0.00    -0.005 A 
ATOM      4  C3  UNL d   1      -1.946  -0.727  -0.280  0.00  0.00     0.006 A 
ATOM      5  C4  UNL d   1      -1.895  -0.005   0.913  0.00  0.00    -0.005 A 
ATOM      6  C5  UNL d   1      -0.764   0.753   1.232  0.00  0.00    -0.074 A 
ATOM      7  C6  UNL d   1      -0.689   1.527   2.515  0.00  0.00     0.077 C 
ATOM      8  C7  UNL d   1       0.317   0.773   0.340  0.00  0.00    -0.001 A 
ENDROOT
TORSDOF 0
ENDMDL
