MODEL 1
REMARK minimizedAffinity -3.40144134
REMARK minimizedRMSD -1
REMARK  0 active torsions:
REMARK  status: ('A' for Active; 'I' for Inactive)
ROOT
ATOM      1  C   UNL d   1       1.517  -1.178  -1.201  0.00  0.00     0.077 C 
ATOM      2  C1  UNL d   1       0.363  -0.568  -0.462  0.00  0.00    -0.074 A 
ATOM      3  C2  UNL d   1      -0.955  -0.814  -0.858  0.00  0.00    -0.005 A 
ATOM      4  C3  UNL d   1      -2.018  -0.248  -0.155  0.00  0.00     0.006 A 
ATOM      5  C4  UNL d   1      -1.774   0.569   0.949  0.00  0.00    -0.005 A 
ATOM      6  C5  UNL d   1      -0.463   0.826   1.361  0.00  0.00    -0.074 A 
ATOM      7  C6  UNL d   1      -0.183   1.693   2.552  0.00  0.00     0.077 C 
ATOM      8  C7  UNL d   1       0.600   0.247   0.654  0.00  0.00    -0.001 A 
ENDROOT
TORSDOF 0
ENDMDL
