MODEL 1
REMARK minimizedAffinity -1.61780035
REMARK minimizedRMSD -1
REMARK  0 active torsions:
REMARK  status: ('A' for Active; 'I' for Inactive)
ROOT
ATOM      1  C   UNL d   1      -1.309   1.532   2.214  0.00  0.00     0.077 C 
ATOM      2  C1  UNL d   1      -0.341   0.788   1.344  0.00  0.00    -0.074 A 
ATOM      3  C2  UNL d   1       0.949   0.490   1.796  0.00  0.00    -0.005 A 
ATOM      4  C3  UNL d   1       1.836  -0.212   0.979  0.00  0.00     0.006 A 
ATOM      5  C4  UNL d   1       1.442  -0.622  -0.296  0.00  0.00    -0.005 A 
ATOM      6  C5  UNL d   1       0.156  -0.334  -0.764  0.00  0.00    -0.074 A 
ATOM      7  C6  UNL d   1      -0.286  -0.775  -2.127  0.00  0.00     0.077 C 
ATOM      8  C7  UNL d   1      -0.731   0.366   0.066  0.00  0.00    -0.001 A 
ENDROOT
TORSDOF 0
ENDMDL
