MODEL 1
REMARK minimizedAffinity -6.14032269
REMARK minimizedRMSD -1
REMARK  0 active torsions:
REMARK  status: ('A' for Active; 'I' for Inactive)
ROOT
ATOM      1  C   UNL d   1      -2.640  -0.062  -0.970  0.00  0.00     0.077 C 
ATOM      2  C1  UNL d   1      -1.510   0.087   0.005  0.00  0.00    -0.074 A 
ATOM      3  C2  UNL d   1      -0.224  -0.361  -0.312  0.00  0.00    -0.005 A 
ATOM      4  C3  UNL d   1       0.820  -0.206   0.600  0.00  0.00     0.006 A 
ATOM      5  C4  UNL d   1       0.588   0.396   1.837  0.00  0.00    -0.005 A 
ATOM      6  C5  UNL d   1      -0.692   0.851   2.172  0.00  0.00    -0.074 A 
ATOM      7  C6  UNL d   1      -0.956   1.510   3.493  0.00  0.00     0.077 C 
ATOM      8  C7  UNL d   1      -1.733   0.699   1.246  0.00  0.00    -0.001 A 
ENDROOT
TORSDOF 0
ENDMDL
