MODEL 1
REMARK minimizedAffinity -3.12077141
REMARK minimizedRMSD -1
REMARK  0 active torsions:
REMARK  status: ('A' for Active; 'I' for Inactive)
ROOT
ATOM      1  C   UNL d   1      -1.130   1.373   1.440  0.00  0.00     0.077 C 
ATOM      2  C1  UNL d   1      -0.280   0.618   0.462  0.00  0.00    -0.074 A 
ATOM      3  C2  UNL d   1       0.275  -0.621   0.798  0.00  0.00    -0.005 A 
ATOM      4  C3  UNL d   1       1.055  -1.316  -0.125  0.00  0.00     0.006 A 
ATOM      5  C4  UNL d   1       1.289  -0.780  -1.392  0.00  0.00    -0.005 A 
ATOM      6  C5  UNL d   1       0.743   0.458  -1.746  0.00  0.00    -0.074 A 
ATOM      7  C6  UNL d   1       0.977   1.044  -3.107  0.00  0.00     0.077 C 
ATOM      8  C7  UNL d   1      -0.046   1.147  -0.815  0.00  0.00    -0.001 A 
ENDROOT
TORSDOF 0
ENDMDL
