MODEL 1
REMARK minimizedAffinity -4.13639545
REMARK minimizedRMSD -1
REMARK  0 active torsions:
REMARK  status: ('A' for Active; 'I' for Inactive)
ROOT
ATOM      1  C   UNL d   1      -0.828   1.756   1.905  0.00  0.00     0.077 C 
ATOM      2  C1  UNL d   1      -0.644   0.799   0.765  0.00  0.00    -0.074 A 
ATOM      3  C2  UNL d   1      -1.413  -0.366   0.673  0.00  0.00    -0.005 A 
ATOM      4  C3  UNL d   1      -1.237  -1.241  -0.398  0.00  0.00     0.006 A 
ATOM      5  C4  UNL d   1      -0.294  -0.962  -1.387  0.00  0.00    -0.005 A 
ATOM      6  C5  UNL d   1       0.483   0.199  -1.313  0.00  0.00    -0.074 A 
ATOM      7  C6  UNL d   1       1.495   0.520  -2.373  0.00  0.00     0.077 C 
ATOM      8  C7  UNL d   1       0.296   1.077  -0.237  0.00  0.00    -0.001 A 
ENDROOT
TORSDOF 0
ENDMDL
