MODEL 1
REMARK minimizedAffinity -4.18275452
REMARK minimizedRMSD -1
REMARK  0 active torsions:
REMARK  status: ('A' for Active; 'I' for Inactive)
ROOT
ATOM      1  C   UNL d   1      -0.000  -1.420  -2.013  0.00  0.00     0.077 C 
ATOM      2  C1  UNL d   1       0.327  -0.793  -0.691  0.00  0.00    -0.074 A 
ATOM      3  C2  UNL d   1       1.582  -0.972  -0.101  0.00  0.00    -0.005 A 
ATOM      4  C3  UNL d   1       1.875  -0.375   1.125  0.00  0.00     0.006 A 
ATOM      5  C4  UNL d   1       0.918   0.407   1.772  0.00  0.00    -0.005 A 
ATOM      6  C5  UNL d   1      -0.343   0.598   1.197  0.00  0.00    -0.074 A 
ATOM      7  C6  UNL d   1      -1.380   1.443   1.875  0.00  0.00     0.077 C 
ATOM      8  C7  UNL d   1      -0.627   0.000  -0.038  0.00  0.00    -0.001 A 
ENDROOT
TORSDOF 0
ENDMDL
