MODEL 1
REMARK minimizedAffinity -0.671304822
REMARK minimizedRMSD -1
REMARK  0 active torsions:
REMARK  status: ('A' for Active; 'I' for Inactive)
ROOT
ATOM      1  C   UNL d   1      -1.495   1.122   2.643  0.00  0.00     0.077 C 
ATOM      2  C1  UNL d   1      -0.774   0.505   1.482  0.00  0.00    -0.074 A 
ATOM      3  C2  UNL d   1      -1.372   0.435   0.219  0.00  0.00    -0.005 A 
ATOM      4  C3  UNL d   1      -0.686  -0.133  -0.854  0.00  0.00     0.006 A 
ATOM      5  C4  UNL d   1       0.603  -0.637  -0.676  0.00  0.00    -0.005 A 
ATOM      6  C5  UNL d   1       1.218  -0.576   0.579  0.00  0.00    -0.074 A 
ATOM      7  C6  UNL d   1       2.606  -1.104   0.785  0.00  0.00     0.077 C 
ATOM      8  C7  UNL d   1       0.524   0.003   1.651  0.00  0.00    -0.001 A 
ENDROOT
TORSDOF 0
ENDMDL
