MODEL 1
REMARK minimizedAffinity 21.9521313
REMARK minimizedRMSD -1
REMARK  0 active torsions:
REMARK  status: ('A' for Active; 'I' for Inactive)
ROOT
ATOM      1  C   UNL d   1       4.066  -2.917   1.520  0.00  0.00    -0.002 A 
ATOM      2  C1  UNL d   1       4.764  -1.779   1.898  0.00  0.00     0.010 A 
ATOM      3  C2  UNL d   1       4.664  -0.604   1.150  0.00  0.00     0.041 A 
ATOM      4  C3  UNL d   1       3.843  -0.592   0.006  0.00  0.00    -0.075 A 
ATOM      5  S   UNL d   1       3.567   0.733  -1.062  0.00  0.00     0.015 SA
ATOM      6  C4  UNL d   1       2.516  -0.181  -2.045  0.00  0.00     0.022 A 
ATOM      7  C5  UNL d   1       2.368  -1.467  -1.584  0.00  0.00     0.026 A 
ATOM      8  C6  UNL d   1       3.130  -1.726  -0.394  0.00  0.00    -0.082 A 
ATOM      9  C7  UNL d   1       3.252  -2.901   0.385  0.00  0.00     0.045 A 
ENDROOT
TORSDOF 0
ENDMDL
