MODEL 1
REMARK minimizedAffinity 7.8780818
REMARK minimizedRMSD -1
REMARK  0 active torsions:
REMARK  status: ('A' for Active; 'I' for Inactive)
ROOT
ATOM      1  C   UNL d   1       3.003   5.781   5.987  0.00  0.00    -0.002 A 
ATOM      2  C1  UNL d   1       4.389   5.853   5.993  0.00  0.00     0.010 A 
ATOM      3  C2  UNL d   1       5.160   4.689   5.995  0.00  0.00     0.041 A 
ATOM      4  C3  UNL d   1       4.509   3.440   5.988  0.00  0.00    -0.075 A 
ATOM      5  S   UNL d   1       5.249   1.883   5.987  0.00  0.00     0.015 SA
ATOM      6  C4  UNL d   1       3.743   1.085   5.977  0.00  0.00     0.022 A 
ATOM      7  C5  UNL d   1       2.691   1.970   5.974  0.00  0.00     0.026 A 
ATOM      8  C6  UNL d   1       3.115   3.342   5.980  0.00  0.00    -0.082 A 
ATOM      9  C7  UNL d   1       2.361   4.540   5.979  0.00  0.00     0.045 A 
ENDROOT
TORSDOF 0
ENDMDL
