MODEL 1
REMARK minimizedAffinity 8.77231693
REMARK minimizedRMSD -1
REMARK  0 active torsions:
REMARK  status: ('A' for Active; 'I' for Inactive)
ROOT
ATOM      1  C   UNL d   1      -4.930   0.561   0.466  0.00  0.00    -0.002 A 
ATOM      2  C1  UNL d   1      -4.199   1.518   1.155  0.00  0.00     0.010 A 
ATOM      3  C2  UNL d   1      -2.929   1.896   0.712  0.00  0.00     0.041 A 
ATOM      4  C3  UNL d   1      -2.404   1.291  -0.446  0.00  0.00    -0.075 A 
ATOM      5  S   UNL d   1      -0.871   1.597  -1.174  0.00  0.00     0.015 SA
ATOM      6  C4  UNL d   1      -1.152   0.465  -2.417  0.00  0.00     0.022 A 
ATOM      7  C5  UNL d   1      -2.380  -0.141  -2.295  0.00  0.00     0.026 A 
ATOM      8  C6  UNL d   1      -3.122   0.325  -1.157  0.00  0.00    -0.082 A 
ATOM      9  C7  UNL d   1      -4.405  -0.037  -0.683  0.00  0.00     0.045 A 
ENDROOT
TORSDOF 0
ENDMDL
