MODEL 1
REMARK minimizedAffinity 12.8217516
REMARK minimizedRMSD -1
REMARK  0 active torsions:
REMARK  status: ('A' for Active; 'I' for Inactive)
ROOT
ATOM      1  C   UNL d   1       2.636   2.139  -0.200  0.00  0.00    -0.002 A 
ATOM      2  C1  UNL d   1       3.032   1.840   1.096  0.00  0.00     0.010 A 
ATOM      3  C2  UNL d   1       3.212   0.514   1.496  0.00  0.00     0.041 A 
ATOM      4  C3  UNL d   1       2.988  -0.516   0.561  0.00  0.00    -0.075 A 
ATOM      5  S   UNL d   1       3.147  -2.212   0.826  0.00  0.00     0.015 SA
ATOM      6  C4  UNL d   1       2.694  -2.580  -0.776  0.00  0.00     0.022 A 
ATOM      7  C5  UNL d   1       2.424  -1.448  -1.508  0.00  0.00     0.026 A 
ATOM      8  C6  UNL d   1       2.590  -0.240  -0.750  0.00  0.00    -0.082 A 
ATOM      9  C7  UNL d   1       2.414   1.114  -1.124  0.00  0.00     0.045 A 
ENDROOT
TORSDOF 0
ENDMDL
