MODEL 1
REMARK minimizedAffinity 2.39599633
REMARK minimizedRMSD -1
REMARK  0 active torsions:
REMARK  status: ('A' for Active; 'I' for Inactive)
ROOT
ATOM      1  C   UNL d   1      -0.250   3.656   3.706  0.00  0.00    -0.002 A 
ATOM      2  C1  UNL d   1      -1.139   4.167   4.641  0.00  0.00     0.010 A 
ATOM      3  C2  UNL d   1      -2.507   3.910   4.534  0.00  0.00     0.041 A 
ATOM      4  C3  UNL d   1      -2.971   3.122   3.463  0.00  0.00    -0.075 A 
ATOM      5  S   UNL d   1      -4.603   2.676   3.131  0.00  0.00     0.015 SA
ATOM      6  C4  UNL d   1      -4.158   1.796   1.740  0.00  0.00     0.022 A 
ATOM      7  C5  UNL d   1      -2.802   1.831   1.520  0.00  0.00     0.026 A 
ATOM      8  C6  UNL d   1      -2.095   2.595   2.509  0.00  0.00    -0.082 A 
ATOM      9  C7  UNL d   1      -0.714   2.874   2.645  0.00  0.00     0.045 A 
ENDROOT
TORSDOF 0
ENDMDL
