MODEL 1
REMARK minimizedAffinity 8.62615108
REMARK minimizedRMSD -1
REMARK  0 active torsions:
REMARK  status: ('A' for Active; 'I' for Inactive)
ROOT
ATOM      1  C   UNL d   1      -2.918   2.080   3.719  0.00  0.00     0.023 A 
ATOM      2  C1  UNL d   1      -2.679   1.237   2.633  0.00  0.00     0.003 A 
ATOM      3  C2  UNL d   1      -3.562   0.193   2.350  0.00  0.00     0.048 A 
ATOM      4  C3  UNL d   1      -4.683  -0.002   3.155  0.00  0.00     0.023 A 
ATOM      5  C4  UNL d   1      -4.928   0.840   4.242  0.00  0.00     0.048 A 
ATOM      6  C5  UNL d   1      -4.041   1.881   4.522  0.00  0.00     0.003 A 
ATOM      7  I   UNL d   1      -5.999  -1.554   2.735  0.00  0.00    -0.146 I 
ENDROOT
TORSDOF 0
ENDMDL
