MODEL 1
REMARK minimizedAffinity 10.3892298
REMARK minimizedRMSD -1
REMARK  0 active torsions:
REMARK  status: ('A' for Active; 'I' for Inactive)
ROOT
ATOM      1  C   UNL d   1      -0.099  -0.769  -3.072  0.00  0.00     0.023 A 
ATOM      2  C1  UNL d   1       0.273  -2.107  -3.209  0.00  0.00     0.003 A 
ATOM      3  C2  UNL d   1      -0.705  -3.093  -3.351  0.00  0.00     0.048 A 
ATOM      4  C3  UNL d   1      -2.053  -2.735  -3.357  0.00  0.00     0.023 A 
ATOM      5  C4  UNL d   1      -2.429  -1.397  -3.222  0.00  0.00     0.048 A 
ATOM      6  C5  UNL d   1      -1.448  -0.415  -3.079  0.00  0.00     0.003 A 
ATOM      7  I   UNL d   1      -3.511  -4.201  -3.569  0.00  0.00    -0.146 I 
ENDROOT
TORSDOF 0
ENDMDL
