MODEL 1
REMARK minimizedAffinity -0.313534975
REMARK minimizedRMSD -1
REMARK  0 active torsions:
REMARK  status: ('A' for Active; 'I' for Inactive)
ROOT
ATOM      1  C   UNL d   1      -1.608  -4.103  -4.092  0.00  0.00     0.023 A 
ATOM      2  C1  UNL d   1      -1.849  -3.846  -5.442  0.00  0.00     0.003 A 
ATOM      3  C2  UNL d   1      -3.106  -4.111  -5.991  0.00  0.00     0.048 A 
ATOM      4  C3  UNL d   1      -4.117  -4.630  -5.184  0.00  0.00     0.023 A 
ATOM      5  C4  UNL d   1      -3.881  -4.888  -3.832  0.00  0.00     0.048 A 
ATOM      6  C5  UNL d   1      -2.623  -4.623  -3.288  0.00  0.00     0.003 A 
ATOM      7  I   UNL d   1      -5.988  -5.024  -5.998  0.00  0.00    -0.146 I 
ENDROOT
TORSDOF 0
ENDMDL
