MODEL 1
REMARK minimizedAffinity 9.53318882
REMARK minimizedRMSD -1
REMARK  0 active torsions:
REMARK  status: ('A' for Active; 'I' for Inactive)
ROOT
ATOM      1  C   UNL d   1      -3.061   0.111   1.499  0.00  0.00     0.023 A 
ATOM      2  C1  UNL d   1      -2.137   0.402   2.503  0.00  0.00     0.003 A 
ATOM      3  C2  UNL d   1      -2.291  -0.150   3.776  0.00  0.00     0.048 A 
ATOM      4  C3  UNL d   1      -3.370  -0.994   4.038  0.00  0.00     0.023 A 
ATOM      5  C4  UNL d   1      -4.296  -1.289   3.036  0.00  0.00     0.048 A 
ATOM      6  C5  UNL d   1      -4.139  -0.733   1.765  0.00  0.00     0.003 A 
ATOM      7  I   UNL d   1      -3.601  -1.817   5.933  0.00  0.00    -0.146 I 
ENDROOT
TORSDOF 0
ENDMDL
