MODEL 1
REMARK minimizedAffinity 12.4697876
REMARK minimizedRMSD -1
REMARK  0 active torsions:
REMARK  status: ('A' for Active; 'I' for Inactive)
ROOT
ATOM      1  C   UNL d   1      -1.058  -3.762  -3.804  0.00  0.00     0.023 A 
ATOM      2  C1  UNL d   1      -1.094  -3.374  -5.143  0.00  0.00     0.003 A 
ATOM      3  C2  UNL d   1      -2.320  -3.156  -5.775  0.00  0.00     0.048 A 
ATOM      4  C3  UNL d   1      -3.506  -3.327  -5.061  0.00  0.00     0.023 A 
ATOM      5  C4  UNL d   1      -3.475  -3.715  -3.721  0.00  0.00     0.048 A 
ATOM      6  C5  UNL d   1      -2.247  -3.932  -3.093  0.00  0.00     0.003 A 
ATOM      7  I   UNL d   1      -5.332  -3.003  -6.000  0.00  0.00    -0.146 I 
ENDROOT
TORSDOF 0
ENDMDL
