MODEL 1
REMARK minimizedAffinity 16.4559479
REMARK minimizedRMSD -1
REMARK  0 active torsions:
REMARK  status: ('A' for Active; 'I' for Inactive)
ROOT
ATOM      1  C   UNL d   1      -1.861   1.161  -4.053  0.00  0.00     0.023 A 
ATOM      2  C1  UNL d   1      -2.189   2.234  -3.224  0.00  0.00     0.003 A 
ATOM      3  C2  UNL d   1      -2.524   3.470  -3.780  0.00  0.00     0.048 A 
ATOM      4  C3  UNL d   1      -2.530   3.627  -5.165  0.00  0.00     0.023 A 
ATOM      5  C4  UNL d   1      -2.204   2.556  -5.999  0.00  0.00     0.048 A 
ATOM      6  C5  UNL d   1      -1.869   1.322  -5.439  0.00  0.00     0.003 A 
ATOM      7  I   UNL d   1      -3.028   5.466  -5.995  0.00  0.00    -0.146 I 
ENDROOT
TORSDOF 0
ENDMDL
