MODEL 1
REMARK minimizedAffinity 14.125411
REMARK minimizedRMSD -1
REMARK  0 active torsions:
REMARK  status: ('A' for Active; 'I' for Inactive)
ROOT
ATOM      1  C   UNL d   1       2.224  -5.999  -1.876  0.00  0.00     0.023 A 
ATOM      2  C1  UNL d   1       1.462  -5.236  -2.761  0.00  0.00     0.003 A 
ATOM      3  C2  UNL d   1       1.490  -3.842  -2.686  0.00  0.00     0.048 A 
ATOM      4  C3  UNL d   1       2.282  -3.218  -1.723  0.00  0.00     0.023 A 
ATOM      5  C4  UNL d   1       3.047  -3.977  -0.836  0.00  0.00     0.048 A 
ATOM      6  C5  UNL d   1       3.016  -5.370  -0.915  0.00  0.00     0.003 A 
ATOM      7  I   UNL d   1       2.325  -1.143  -1.609  0.00  0.00    -0.146 I 
ENDROOT
TORSDOF 0
ENDMDL
