MODEL 1
REMARK minimizedAffinity 7.54801035
REMARK minimizedRMSD -1
REMARK  0 active torsions:
REMARK  status: ('A' for Active; 'I' for Inactive)
ROOT
ATOM      1  C   UNL d   1      -6.000  -3.904  -6.000  0.00  0.00     0.023 A 
ATOM      2  C1  UNL d   1      -5.633  -5.250  -5.976  0.00  0.00     0.003 A 
ATOM      3  C2  UNL d   1      -4.504  -5.654  -5.260  0.00  0.00     0.048 A 
ATOM      4  C3  UNL d   1      -3.747  -4.708  -4.570  0.00  0.00     0.023 A 
ATOM      5  C4  UNL d   1      -4.111  -3.360  -4.590  0.00  0.00     0.048 A 
ATOM      6  C5  UNL d   1      -5.240  -2.961  -5.308  0.00  0.00     0.003 A 
ATOM      7  I   UNL d   1      -2.067  -5.307  -3.504  0.00  0.00    -0.146 I 
ENDROOT
TORSDOF 0
ENDMDL
