MODEL 1
REMARK minimizedAffinity 19.2362862
REMARK minimizedRMSD -1
REMARK  0 active torsions:
REMARK  status: ('A' for Active; 'I' for Inactive)
ROOT
ATOM      1  C   UNL d   1      -3.756  -0.423   1.744  0.00  0.00     0.023 A 
ATOM      2  C1  UNL d   1      -3.010   0.755   1.767  0.00  0.00     0.003 A 
ATOM      3  C2  UNL d   1      -2.649   1.331   2.987  0.00  0.00     0.048 A 
ATOM      4  C3  UNL d   1      -3.038   0.722   4.180  0.00  0.00     0.023 A 
ATOM      5  C4  UNL d   1      -3.784  -0.457   4.162  0.00  0.00     0.048 A 
ATOM      6  C5  UNL d   1      -4.143  -1.029   2.939  0.00  0.00     0.003 A 
ATOM      7  I   UNL d   1      -2.502   1.577   5.998  0.00  0.00    -0.146 I 
ENDROOT
TORSDOF 0
ENDMDL
