MODEL 1
REMARK minimizedAffinity 3.59876204
REMARK minimizedRMSD -1
REMARK  0 active torsions:
REMARK  status: ('A' for Active; 'I' for Inactive)
ROOT
ATOM      1  C   UNL d   1      -0.774  -4.895  -2.735  0.00  0.00     0.023 A 
ATOM      2  C1  UNL d   1      -2.042  -5.395  -2.437  0.00  0.00     0.003 A 
ATOM      3  C2  UNL d   1      -3.144  -5.008  -3.203  0.00  0.00     0.048 A 
ATOM      4  C3  UNL d   1      -2.971  -4.123  -4.266  0.00  0.00     0.023 A 
ATOM      5  C4  UNL d   1      -1.704  -3.621  -4.568  0.00  0.00     0.048 A 
ATOM      6  C5  UNL d   1      -0.605  -4.009  -3.799  0.00  0.00     0.003 A 
ATOM      7  I   UNL d   1      -4.609  -3.546  -5.407  0.00  0.00    -0.146 I 
ENDROOT
TORSDOF 0
ENDMDL
