MODEL 1
REMARK minimizedAffinity 10.8741503
REMARK minimizedRMSD -1
REMARK  0 active torsions:
REMARK  status: ('A' for Active; 'I' for Inactive)
ROOT
ATOM      1  C   UNL d   1      -0.485   0.588   2.853  0.00  0.00     0.023 A 
ATOM      2  C1  UNL d   1      -0.657  -0.797   2.847  0.00  0.00     0.003 A 
ATOM      3  C2  UNL d   1      -1.912  -1.345   2.574  0.00  0.00     0.048 A 
ATOM      4  C3  UNL d   1      -2.991  -0.502   2.307  0.00  0.00     0.023 A 
ATOM      5  C4  UNL d   1      -2.823   0.883   2.311  0.00  0.00     0.048 A 
ATOM      6  C5  UNL d   1      -1.567   1.427   2.585  0.00  0.00     0.003 A 
ATOM      7  I   UNL d   1      -4.860  -1.316   1.901  0.00  0.00    -0.146 I 
ENDROOT
TORSDOF 0
ENDMDL
