MODEL 1
REMARK minimizedAffinity -0.175199419
REMARK minimizedRMSD -1
REMARK  0 active torsions:
REMARK  status: ('A' for Active; 'I' for Inactive)
ROOT
ATOM      1  C   UNL d   1      -1.339  -4.498  -3.729  0.00  0.00     0.023 A 
ATOM      2  C1  UNL d   1      -2.526  -4.875  -3.101  0.00  0.00     0.003 A 
ATOM      3  C2  UNL d   1      -3.749  -4.697  -3.751  0.00  0.00     0.048 A 
ATOM      4  C3  UNL d   1      -3.777  -4.140  -5.030  0.00  0.00     0.023 A 
ATOM      5  C4  UNL d   1      -2.592  -3.762  -5.662  0.00  0.00     0.048 A 
ATOM      6  C5  UNL d   1      -1.372  -3.942  -5.008  0.00  0.00     0.003 A 
ATOM      7  I   UNL d   1      -5.596  -3.874  -6.000  0.00  0.00    -0.146 I 
ENDROOT
TORSDOF 0
ENDMDL
