MODEL 1
REMARK minimizedAffinity 0.714393675
REMARK minimizedRMSD -1
REMARK  0 active torsions:
REMARK  status: ('A' for Active; 'I' for Inactive)
ROOT
ATOM      1  C   UNL d   1      -4.319  -4.299  -5.012  0.00  0.00     0.023 A 
ATOM      2  C1  UNL d   1      -3.237  -3.844  -5.765  0.00  0.00     0.003 A 
ATOM      3  C2  UNL d   1      -1.941  -3.932  -5.253  0.00  0.00     0.048 A 
ATOM      4  C3  UNL d   1      -1.733  -4.478  -3.987  0.00  0.00     0.023 A 
ATOM      5  C4  UNL d   1      -2.813  -4.936  -3.229  0.00  0.00     0.048 A 
ATOM      6  C5  UNL d   1      -4.107  -4.844  -3.745  0.00  0.00     0.003 A 
ATOM      7  I   UNL d   1       0.195  -4.610  -3.223  0.00  0.00    -0.146 I 
ENDROOT
TORSDOF 0
ENDMDL
