MODEL 1
REMARK minimizedAffinity 6.54837561
REMARK minimizedRMSD -1
REMARK  0 active torsions:
REMARK  status: ('A' for Active; 'I' for Inactive)
ROOT
ATOM      1  C   UNL d   1      -1.924  -4.032  -2.913  0.00  0.00     0.023 A 
ATOM      2  C1  UNL d   1      -2.904  -5.025  -2.901  0.00  0.00     0.003 A 
ATOM      3  C2  UNL d   1      -4.047  -4.889  -3.690  0.00  0.00     0.048 A 
ATOM      4  C3  UNL d   1      -4.205  -3.757  -4.491  0.00  0.00     0.023 A 
ATOM      5  C4  UNL d   1      -3.227  -2.762  -4.507  0.00  0.00     0.048 A 
ATOM      6  C5  UNL d   1      -2.085  -2.902  -3.715  0.00  0.00     0.003 A 
ATOM      7  I   UNL d   1      -5.906  -3.552  -5.667  0.00  0.00    -0.146 I 
ENDROOT
TORSDOF 0
ENDMDL
