MODEL 1
REMARK minimizedAffinity 5.29070807
REMARK minimizedRMSD -1
REMARK  0 active torsions:
REMARK  status: ('A' for Active; 'I' for Inactive)
ROOT
ATOM      1  C   UNL d   1      -1.751  -4.869  -3.702  0.00  0.00     0.023 A 
ATOM      2  C1  UNL d   1      -1.603  -3.738  -4.504  0.00  0.00     0.003 A 
ATOM      3  C2  UNL d   1      -2.710  -3.198  -5.162  0.00  0.00     0.048 A 
ATOM      4  C3  UNL d   1      -3.962  -3.794  -5.014  0.00  0.00     0.023 A 
ATOM      5  C4  UNL d   1      -4.114  -4.926  -4.212  0.00  0.00     0.048 A 
ATOM      6  C5  UNL d   1      -3.005  -5.463  -3.556  0.00  0.00     0.003 A 
ATOM      7  I   UNL d   1      -5.610  -2.992  -5.993  0.00  0.00    -0.146 I 
ENDROOT
TORSDOF 0
ENDMDL
