MODEL 1
REMARK minimizedAffinity 10.0265455
REMARK minimizedRMSD -1
REMARK  0 active torsions:
REMARK  status: ('A' for Active; 'I' for Inactive)
ROOT
ATOM      1  C   UNL d   1      -5.998  -4.096  -6.000  0.00  0.00     0.023 A 
ATOM      2  C1  UNL d   1      -5.573  -3.258  -4.968  0.00  0.00     0.003 A 
ATOM      3  C2  UNL d   1      -4.787  -3.767  -3.932  0.00  0.00     0.048 A 
ATOM      4  C3  UNL d   1      -4.429  -5.114  -3.934  0.00  0.00     0.023 A 
ATOM      5  C4  UNL d   1      -4.851  -5.957  -4.964  0.00  0.00     0.048 A 
ATOM      6  C5  UNL d   1      -5.637  -5.444  -5.997  0.00  0.00     0.003 A 
ATOM      7  I   UNL d   1      -3.259  -5.874  -2.393  0.00  0.00    -0.146 I 
ENDROOT
TORSDOF 0
ENDMDL
