MODEL 1
REMARK minimizedAffinity 13.7564421
REMARK minimizedRMSD -1
REMARK  0 active torsions:
REMARK  status: ('A' for Active; 'I' for Inactive)
ROOT
ATOM      1  C   UNL d   1       0.299   2.008   5.998  0.00  0.00     0.023 A 
ATOM      2  C1  UNL d   1       0.628   0.653   5.975  0.00  0.00     0.003 A 
ATOM      3  C2  UNL d   1       0.682  -0.034   4.760  0.00  0.00     0.048 A 
ATOM      4  C3  UNL d   1       0.407   0.641   3.572  0.00  0.00     0.023 A 
ATOM      5  C4  UNL d   1       0.079   1.997   3.589  0.00  0.00     0.048 A 
ATOM      6  C5  UNL d   1       0.025   2.680   4.806  0.00  0.00     0.003 A 
ATOM      7  I   UNL d   1       0.488  -0.379   1.763  0.00  0.00    -0.146 I 
ENDROOT
TORSDOF 0
ENDMDL
