MODEL 1
REMARK minimizedAffinity 2.03632903
REMARK minimizedRMSD -1
REMARK  0 active torsions:
REMARK  status: ('A' for Active; 'I' for Inactive)
ROOT
ATOM      1  C   UNL d   1       2.663  -5.868  -2.649  0.00  0.00     0.023 A 
ATOM      2  C1  UNL d   1       1.588  -5.072  -3.046  0.00  0.00     0.003 A 
ATOM      3  C2  UNL d   1       1.444  -3.783  -2.528  0.00  0.00     0.048 A 
ATOM      4  C3  UNL d   1       2.378  -3.296  -1.616  0.00  0.00     0.023 A 
ATOM      5  C4  UNL d   1       3.456  -4.088  -1.216  0.00  0.00     0.048 A 
ATOM      6  C5  UNL d   1       3.596  -5.376  -1.735  0.00  0.00     0.003 A 
ATOM      7  I   UNL d   1       2.165  -1.377  -0.845  0.00  0.00    -0.146 I 
ENDROOT
TORSDOF 0
ENDMDL
