MODEL 1
REMARK minimizedAffinity 4.65948296
REMARK minimizedRMSD -1
REMARK  0 active torsions:
REMARK  status: ('A' for Active; 'I' for Inactive)
ROOT
ATOM      1  C2' OXE d   1       2.589  -3.702  -0.577  0.00  0.00     0.078 C 
ATOM      2  C1' OXE d   1       4.729  -5.258   0.362  0.00  0.00     0.078 C 
ATOM      3  C1  OXE d   1       4.834  -4.683  -1.029  0.00  0.00    -0.078 A 
ATOM      4  C2  OXE d   1       3.763  -3.962  -1.497  0.00  0.00    -0.078 A 
ATOM      5  C3  OXE d   1       3.830  -3.363  -2.752  0.00  0.00     0.003 A 
ATOM      6  C4  OXE d   1       4.915  -3.616  -3.600  0.00  0.00    -0.002 A 
ATOM      7  C5  OXE d   1       5.999  -4.381  -3.158  0.00  0.00    -0.002 A 
ATOM      8  C6  OXE d   1       5.994  -4.885  -1.862  0.00  0.00     0.003 A 
ENDROOT
TORSDOF 0
ENDMDL
