MODEL 1
REMARK minimizedAffinity 4.6010685
REMARK minimizedRMSD -1
REMARK  0 active torsions:
REMARK  status: ('A' for Active; 'I' for Inactive)
ROOT
ATOM      1  C2' OXE d   1      -1.497   1.405   1.623  0.00  0.00     0.078 C 
ATOM      2  C1' OXE d   1       0.754   2.298   3.043  0.00  0.00     0.078 C 
ATOM      3  C1  OXE d   1       0.397   3.016   1.765  0.00  0.00    -0.078 A 
ATOM      4  C2  OXE d   1      -0.679   2.543   1.053  0.00  0.00    -0.078 A 
ATOM      5  C3  OXE d   1      -1.084   3.202  -0.104  0.00  0.00     0.003 A 
ATOM      6  C4  OXE d   1      -0.315   4.248  -0.630  0.00  0.00    -0.002 A 
ATOM      7  C5  OXE d   1       0.807   4.720   0.059  0.00  0.00    -0.002 A 
ATOM      8  C6  OXE d   1       1.151   4.144   1.277  0.00  0.00     0.003 A 
ENDROOT
TORSDOF 0
ENDMDL
