MODEL 1
REMARK minimizedAffinity 4.2123661
REMARK minimizedRMSD -1
REMARK  0 active torsions:
REMARK  status: ('A' for Active; 'I' for Inactive)
ROOT
ATOM      1  C2' OXE d   1      -1.002   2.303   0.427  0.00  0.00     0.078 C 
ATOM      2  C1' OXE d   1       0.654   0.225  -0.478  0.00  0.00     0.078 C 
ATOM      3  C1  OXE d   1       0.568   0.458   1.010  0.00  0.00    -0.078 A 
ATOM      4  C2  OXE d   1      -0.209   1.507   1.441  0.00  0.00    -0.078 A 
ATOM      5  C3  OXE d   1      -0.367   1.732   2.805  0.00  0.00     0.003 A 
ATOM      6  C4  OXE d   1       0.378   0.998   3.736  0.00  0.00    -0.002 A 
ATOM      7  C5  OXE d   1       1.206  -0.049   3.316  0.00  0.00    -0.002 A 
ATOM      8  C6  OXE d   1       1.279  -0.358   1.962  0.00  0.00     0.003 A 
ENDROOT
TORSDOF 0
ENDMDL
