MODEL 1
REMARK minimizedAffinity 0.045335155
REMARK minimizedRMSD -1
REMARK  0 active torsions:
REMARK  status: ('A' for Active; 'I' for Inactive)
ROOT
ATOM      1  C2' OXE d   1       1.215   1.704  -1.084  0.00  0.00     0.078 C 
ATOM      2  C1' OXE d   1       0.071   4.248  -0.763  0.00  0.00     0.078 C 
ATOM      3  C1  OXE d   1      -0.492   3.115   0.058  0.00  0.00    -0.078 A 
ATOM      4  C2  OXE d   1       0.043   1.864  -0.140  0.00  0.00    -0.078 A 
ATOM      5  C3  OXE d   1      -0.403   0.794   0.631  0.00  0.00     0.003 A 
ATOM      6  C4  OXE d   1      -1.494   0.949   1.495  0.00  0.00    -0.002 A 
ATOM      7  C5  OXE d   1      -2.079   2.206   1.682  0.00  0.00    -0.002 A 
ATOM      8  C6  OXE d   1      -1.563   3.305   1.004  0.00  0.00     0.003 A 
ENDROOT
TORSDOF 0
ENDMDL
