MODEL 1
REMARK minimizedAffinity 2.79820395
REMARK minimizedRMSD -1
REMARK  0 active torsions:
REMARK  status: ('A' for Active; 'I' for Inactive)
ROOT
ATOM      1  C2' OXE d   1       2.834   0.217   0.371  0.00  0.00     0.078 C 
ATOM      2  C1' OXE d   1       1.391   1.467  -1.687  0.00  0.00     0.078 C 
ATOM      3  C1  OXE d   1       0.761   1.414  -0.318  0.00  0.00    -0.078 A 
ATOM      4  C2  OXE d   1       1.453   0.759   0.672  0.00  0.00    -0.078 A 
ATOM      5  C3  OXE d   1       0.942   0.729   1.966  0.00  0.00     0.003 A 
ATOM      6  C4  OXE d   1      -0.340   1.223   2.234  0.00  0.00    -0.002 A 
ATOM      7  C5  OXE d   1      -1.080   1.859   1.230  0.00  0.00    -0.002 A 
ATOM      8  C6  OXE d   1      -0.527   2.000  -0.038  0.00  0.00     0.003 A 
ENDROOT
TORSDOF 0
ENDMDL
