MODEL 1
REMARK minimizedAffinity 4.20873642
REMARK minimizedRMSD -1
REMARK  0 active torsions:
REMARK  status: ('A' for Active; 'I' for Inactive)
ROOT
ATOM      1  C2' OXE d   1       1.307   0.292   1.964  0.00  0.00     0.078 C 
ATOM      2  C1' OXE d   1      -0.935  -1.122   2.888  0.00  0.00     0.078 C 
ATOM      3  C1  OXE d   1      -1.174   0.171   2.149  0.00  0.00    -0.078 A 
ATOM      4  C2  OXE d   1      -0.070   0.880   1.741  0.00  0.00    -0.078 A 
ATOM      5  C3  OXE d   1      -0.234   2.051   1.008  0.00  0.00     0.003 A 
ATOM      6  C4  OXE d   1      -1.511   2.593   0.814  0.00  0.00    -0.002 A 
ATOM      7  C5  OXE d   1      -2.647   1.907   1.256  0.00  0.00    -0.002 A 
ATOM      8  C6  OXE d   1      -2.499   0.677   1.886  0.00  0.00     0.003 A 
ENDROOT
TORSDOF 0
ENDMDL
