MODEL 1
REMARK minimizedAffinity 0.977888405
REMARK minimizedRMSD -1
REMARK  0 active torsions:
REMARK  status: ('A' for Active; 'I' for Inactive)
ROOT
ATOM      1  C2' OXE d   1       0.175   0.765   1.784  0.00  0.00     0.078 C 
ATOM      2  C1' OXE d   1      -2.381   0.372   2.876  0.00  0.00     0.078 C 
ATOM      3  C1  OXE d   1      -2.183   1.551   1.958  0.00  0.00    -0.078 A 
ATOM      4  C2  OXE d   1      -0.918   1.763   1.465  0.00  0.00    -0.078 A 
ATOM      5  C3  OXE d   1      -0.692   2.805   0.569  0.00  0.00     0.003 A 
ATOM      6  C4  OXE d   1      -1.705   3.729   0.287  0.00  0.00    -0.002 A 
ATOM      7  C5  OXE d   1      -2.991   3.554   0.810  0.00  0.00    -0.002 A 
ATOM      8  C6  OXE d   1      -3.257   2.449   1.611  0.00  0.00     0.003 A 
ENDROOT
TORSDOF 0
ENDMDL
