MODEL 1
REMARK minimizedAffinity 0.402258694
REMARK minimizedRMSD -1
REMARK  0 active torsions:
REMARK  status: ('A' for Active; 'I' for Inactive)
ROOT
ATOM      1  C2' OXE d   1       0.269   0.323   1.404  0.00  0.00     0.078 C 
ATOM      2  C1' OXE d   1      -2.196   0.051   2.719  0.00  0.00     0.078 C 
ATOM      3  C1  OXE d   1      -2.025   1.217   1.778  0.00  0.00    -0.078 A 
ATOM      4  C2  OXE d   1      -0.800   1.369   1.174  0.00  0.00    -0.078 A 
ATOM      5  C3  OXE d   1      -0.607   2.396   0.255  0.00  0.00     0.003 A 
ATOM      6  C4  OXE d   1      -1.598   3.365   0.055  0.00  0.00    -0.002 A 
ATOM      7  C5  OXE d   1      -2.839   3.252   0.691  0.00  0.00    -0.002 A 
ATOM      8  C6  OXE d   1      -3.083   2.163   1.520  0.00  0.00     0.003 A 
ENDROOT
TORSDOF 0
ENDMDL
