MODEL 1
REMARK minimizedAffinity 2.66089749
REMARK minimizedRMSD -1
REMARK  0 active torsions:
REMARK  status: ('A' for Active; 'I' for Inactive)
ROOT
ATOM      1  C2' OXE d   1       1.184   0.947  -1.331  0.00  0.00     0.078 C 
ATOM      2  C1' OXE d   1      -0.132   3.403  -0.986  0.00  0.00     0.078 C 
ATOM      3  C1  OXE d   1      -0.373   2.325   0.041  0.00  0.00    -0.078 A 
ATOM      4  C2  OXE d   1       0.238   1.111  -0.161  0.00  0.00    -0.078 A 
ATOM      5  C3  OXE d   1       0.094   0.100   0.785  0.00  0.00     0.003 A 
ATOM      6  C4  OXE d   1      -0.790   0.256   1.860  0.00  0.00    -0.002 A 
ATOM      7  C5  OXE d   1      -1.454   1.471   2.063  0.00  0.00    -0.002 A 
ATOM      8  C6  OXE d   1      -1.223   2.528   1.188  0.00  0.00     0.003 A 
ENDROOT
TORSDOF 0
ENDMDL
