MODEL 1
REMARK minimizedAffinity 8.23993301
REMARK minimizedRMSD -1
REMARK  0 active torsions:
REMARK  status: ('A' for Active; 'I' for Inactive)
ROOT
ATOM      1  C2' OXE d   1       0.224   4.928  -0.225  0.00  0.00     0.078 C 
ATOM      2  C1' OXE d   1       0.585   2.739  -1.944  0.00  0.00     0.078 C 
ATOM      3  C1  OXE d   1      -0.290   2.544  -0.731  0.00  0.00    -0.078 A 
ATOM      4  C2  OXE d   1      -0.424   3.607   0.129  0.00  0.00    -0.078 A 
ATOM      5  C3  OXE d   1      -1.263   3.498   1.234  0.00  0.00     0.003 A 
ATOM      6  C4  OXE d   1      -1.850   2.269   1.560  0.00  0.00    -0.002 A 
ATOM      7  C5  OXE d   1      -1.695   1.163   0.718  0.00  0.00    -0.002 A 
ATOM      8  C6  OXE d   1      -0.954   1.295  -0.451  0.00  0.00     0.003 A 
ENDROOT
TORSDOF 0
ENDMDL
