MODEL 1
REMARK minimizedAffinity 4.47691202
REMARK minimizedRMSD -1
REMARK  0 active torsions:
REMARK  status: ('A' for Active; 'I' for Inactive)
ROOT
ATOM      1  C2' OXE d   1      -1.870  -0.978   3.050  0.00  0.00     0.078 C 
ATOM      2  C1' OXE d   1       0.697  -0.130   2.294  0.00  0.00     0.078 C 
ATOM      3  C1  OXE d   1      -0.479   0.703   1.848  0.00  0.00    -0.078 A 
ATOM      4  C2  OXE d   1      -1.734   0.256   2.183  0.00  0.00    -0.078 A 
ATOM      5  C3  OXE d   1      -2.850   1.015   1.844  0.00  0.00     0.003 A 
ATOM      6  C4  OXE d   1      -2.716   2.149   1.034  0.00  0.00    -0.002 A 
ATOM      7  C5  OXE d   1      -1.449   2.600   0.648  0.00  0.00    -0.002 A 
ATOM      8  C6  OXE d   1      -0.320   1.914   1.082  0.00  0.00     0.003 A 
ENDROOT
TORSDOF 0
ENDMDL
