MODEL 1
REMARK minimizedAffinity 5.57505083
REMARK minimizedRMSD -1
REMARK  0 active torsions:
REMARK  status: ('A' for Active; 'I' for Inactive)
ROOT
ATOM      1  C2' OXE d   1      -3.970  -2.262   5.575  0.00  0.00     0.078 C 
ATOM      2  C1' OXE d   1      -2.629  -1.378   3.272  0.00  0.00     0.078 C 
ATOM      3  C1  OXE d   1      -1.982  -2.470   4.088  0.00  0.00    -0.078 A 
ATOM      4  C2  OXE d   1      -2.623  -2.863   5.239  0.00  0.00    -0.078 A 
ATOM      5  C3  OXE d   1      -2.097  -3.904   5.999  0.00  0.00     0.003 A 
ATOM      6  C4  OXE d   1      -0.845  -4.448   5.687  0.00  0.00    -0.002 A 
ATOM      7  C5  OXE d   1      -0.157  -4.034   4.541  0.00  0.00    -0.002 A 
ATOM      8  C6  OXE d   1      -0.730  -3.078   3.710  0.00  0.00     0.003 A 
ENDROOT
TORSDOF 0
ENDMDL
