MODEL 1
REMARK minimizedAffinity 6.88819885
REMARK minimizedRMSD -1
REMARK  0 active torsions:
REMARK  status: ('A' for Active; 'I' for Inactive)
ROOT
ATOM      1  C2' OXE d   1      -4.244  -2.417   5.622  0.00  0.00     0.078 C 
ATOM      2  C1' OXE d   1      -2.874  -1.340   3.421  0.00  0.00     0.078 C 
ATOM      3  C1  OXE d   1      -2.209  -2.456   4.187  0.00  0.00    -0.078 A 
ATOM      4  C2  OXE d   1      -2.865  -2.945   5.290  0.00  0.00    -0.078 A 
ATOM      5  C3  OXE d   1      -2.321  -4.011   6.000  0.00  0.00     0.003 A 
ATOM      6  C4  OXE d   1      -1.041  -4.487   5.693  0.00  0.00    -0.002 A 
ATOM      7  C5  OXE d   1      -0.337  -3.976   4.597  0.00  0.00    -0.002 A 
ATOM      8  C6  OXE d   1      -0.924  -2.992   3.810  0.00  0.00     0.003 A 
ENDROOT
TORSDOF 0
ENDMDL
