MODEL 1
REMARK minimizedAffinity 5.8472929
REMARK minimizedRMSD -1
REMARK  0 active torsions:
REMARK  status: ('A' for Active; 'I' for Inactive)
ROOT
ATOM      1  C2' OXE d   1       1.953   0.039   1.122  0.00  0.00     0.078 C 
ATOM      2  C1' OXE d   1       0.687   0.794  -1.266  0.00  0.00     0.078 C 
ATOM      3  C1  OXE d   1       0.222   1.445   0.012  0.00  0.00    -0.078 A 
ATOM      4  C2  OXE d   1       0.815   1.035   1.182  0.00  0.00    -0.078 A 
ATOM      5  C3  OXE d   1       0.462   1.643   2.384  0.00  0.00     0.003 A 
ATOM      6  C4  OXE d   1      -0.598   2.556   2.432  0.00  0.00    -0.002 A 
ATOM      7  C5  OXE d   1      -1.243   2.957   1.257  0.00  0.00    -0.002 A 
ATOM      8  C6  OXE d   1      -0.817   2.444   0.037  0.00  0.00     0.003 A 
ENDROOT
TORSDOF 0
ENDMDL
