MODEL 1
REMARK minimizedAffinity 7.21373081
REMARK minimizedRMSD -1
REMARK  0 active torsions:
REMARK  status: ('A' for Active; 'I' for Inactive)
ROOT
ATOM      1  C2' OXE d   1       2.345  -0.309   0.798  0.00  0.00     0.078 C 
ATOM      2  C1' OXE d   1       0.675   0.977  -1.055  0.00  0.00     0.078 C 
ATOM      3  C1  OXE d   1       0.416   1.219   0.411  0.00  0.00    -0.078 A 
ATOM      4  C2  OXE d   1       1.209   0.549   1.311  0.00  0.00    -0.078 A 
ATOM      5  C3  OXE d   1       1.048   0.778   2.675  0.00  0.00     0.003 A 
ATOM      6  C4  OXE d   1      -0.011   1.566   3.142  0.00  0.00    -0.002 A 
ATOM      7  C5  OXE d   1      -0.855   2.226   2.242  0.00  0.00    -0.002 A 
ATOM      8  C6  OXE d   1      -0.628   2.098   0.876  0.00  0.00     0.003 A 
ENDROOT
TORSDOF 0
ENDMDL
