MODEL 1
REMARK minimizedAffinity 5.96503973
REMARK minimizedRMSD -1
REMARK  0 active torsions:
REMARK  status: ('A' for Active; 'I' for Inactive)
ROOT
ATOM      1  C2' OXE d   1       0.093   0.455  -0.548  0.00  0.00     0.078 C 
ATOM      2  C1' OXE d   1       2.046  -0.301   1.321  0.00  0.00     0.078 C 
ATOM      3  C1  OXE d   1       0.973   0.659   1.773  0.00  0.00    -0.078 A 
ATOM      4  C2  OXE d   1       0.049   1.059   0.839  0.00  0.00    -0.078 A 
ATOM      5  C3  OXE d   1      -0.993   1.901   1.217  0.00  0.00     0.003 A 
ATOM      6  C4  OXE d   1      -1.021   2.463   2.499  0.00  0.00    -0.002 A 
ATOM      7  C5  OXE d   1      -0.066   2.099   3.454  0.00  0.00    -0.002 A 
ATOM      8  C6  OXE d   1       0.911   1.167   3.121  0.00  0.00     0.003 A 
ENDROOT
TORSDOF 0
ENDMDL
