MODEL 1
REMARK minimizedAffinity 13.8902073
REMARK minimizedRMSD -1
REMARK  0 active torsions:
REMARK  status: ('A' for Active; 'I' for Inactive)
ROOT
ATOM      1  C2' OXE d   1       1.506  -0.025   1.202  0.00  0.00     0.078 C 
ATOM      2  C1' OXE d   1      -0.970  -0.768   2.295  0.00  0.00     0.078 C 
ATOM      3  C1  OXE d   1      -0.572   0.685   2.378  0.00  0.00    -0.078 A 
ATOM      4  C2  OXE d   1       0.662   1.031   1.882  0.00  0.00    -0.078 A 
ATOM      5  C3  OXE d   1       1.056   2.366   1.884  0.00  0.00     0.003 A 
ATOM      6  C4  OXE d   1       0.273   3.335   2.525  0.00  0.00    -0.002 A 
ATOM      7  C5  OXE d   1      -0.969   2.996   3.072  0.00  0.00    -0.002 A 
ATOM      8  C6  OXE d   1      -1.424   1.686   2.969  0.00  0.00     0.003 A 
ENDROOT
TORSDOF 0
ENDMDL
