MODEL 1
REMARK minimizedAffinity 5.97910452
REMARK minimizedRMSD -1
REMARK  0 active torsions:
REMARK  status: ('A' for Active; 'I' for Inactive)
ROOT
ATOM      1  C   UNL d   1      -3.236  -2.290   3.276  0.00  0.00     0.172 C 
ATOM      2  N   UNL d   1      -1.901  -1.743   3.344  0.00  0.00    -0.070 N 
ATOM      3  C1  UNL d   1      -1.210  -1.463   4.493  0.00  0.00    -0.004 A 
ATOM      4  C2  UNL d   1       0.020  -0.958   4.133  0.00  0.00    -0.047 A 
ATOM      5  C3  UNL d   1       0.070  -0.931   2.718  0.00  0.00    -0.047 A 
ATOM      6  C4  UNL d   1      -1.132  -1.423   2.256  0.00  0.00    -0.004 A 
ENDROOT
TORSDOF 0
ENDMDL
