MODEL 1
REMARK minimizedAffinity 1.38950801
REMARK minimizedRMSD -1
REMARK  0 active torsions:
REMARK  status: ('A' for Active; 'I' for Inactive)
ROOT
ATOM      1  C   UNL d   1       1.643  -2.845   1.019  0.00  0.00     0.172 C 
ATOM      2  N   UNL d   1       0.856  -2.503   2.181  0.00  0.00    -0.070 N 
ATOM      3  C1  UNL d   1       0.520  -3.357   3.197  0.00  0.00    -0.004 A 
ATOM      4  C2  UNL d   1      -0.232  -2.651   4.110  0.00  0.00    -0.047 A 
ATOM      5  C3  UNL d   1      -0.353  -1.327   3.626  0.00  0.00    -0.047 A 
ATOM      6  C4  UNL d   1       0.330  -1.263   2.430  0.00  0.00    -0.004 A 
ENDROOT
TORSDOF 0
ENDMDL
