MODEL 1
REMARK minimizedAffinity 1.11847901
REMARK minimizedRMSD -1
REMARK  0 active torsions:
REMARK  status: ('A' for Active; 'I' for Inactive)
ROOT
ATOM      1  C   UNL d   1      -3.103  -2.878   1.696  0.00  0.00     0.172 C 
ATOM      2  N   UNL d   1      -1.988  -2.128   2.224  0.00  0.00    -0.070 N 
ATOM      3  C1  UNL d   1      -0.862  -1.776   1.528  0.00  0.00    -0.004 A 
ATOM      4  C2  UNL d   1      -0.042  -1.071   2.382  0.00  0.00    -0.047 A 
ATOM      5  C3  UNL d   1      -0.697  -0.998   3.635  0.00  0.00    -0.047 A 
ATOM      6  C4  UNL d   1      -1.899  -1.660   3.508  0.00  0.00    -0.004 A 
ENDROOT
TORSDOF 0
ENDMDL
