MODEL 1
REMARK minimizedAffinity 10.9618406
REMARK minimizedRMSD -1
REMARK  0 active torsions:
REMARK  status: ('A' for Active; 'I' for Inactive)
ROOT
ATOM      1  C   UNL d   1       0.733  -5.349   2.888  0.00  0.00     0.172 C 
ATOM      2  N   UNL d   1       0.570  -4.129   2.132  0.00  0.00    -0.070 N 
ATOM      3  C1  UNL d   1       0.975  -3.931   0.839  0.00  0.00    -0.004 A 
ATOM      4  C2  UNL d   1       0.639  -2.642   0.484  0.00  0.00    -0.047 A 
ATOM      5  C3  UNL d   1       0.011  -2.045   1.603  0.00  0.00    -0.047 A 
ATOM      6  C4  UNL d   1      -0.018  -2.988   2.609  0.00  0.00    -0.004 A 
ENDROOT
TORSDOF 0
ENDMDL
