MODEL 1
REMARK minimizedAffinity 11.0615902
REMARK minimizedRMSD -1
REMARK  0 active torsions:
REMARK  status: ('A' for Active; 'I' for Inactive)
ROOT
ATOM      1  C   UNL d   1      -3.962  -4.902  -0.904  0.00  0.00     0.172 C 
ATOM      2  N   UNL d   1      -3.890  -4.470   0.472  0.00  0.00    -0.070 N 
ATOM      3  C1  UNL d   1      -3.502  -5.245   1.533  0.00  0.00    -0.004 A 
ATOM      4  C2  UNL d   1      -3.568  -4.468   2.669  0.00  0.00    -0.047 A 
ATOM      5  C3  UNL d   1      -4.011  -3.182   2.278  0.00  0.00    -0.047 A 
ATOM      6  C4  UNL d   1      -4.202  -3.211   0.913  0.00  0.00    -0.004 A 
ENDROOT
TORSDOF 0
ENDMDL
