MODEL 1
REMARK minimizedAffinity 7.50075293
REMARK minimizedRMSD -1
REMARK  0 active torsions:
REMARK  status: ('A' for Active; 'I' for Inactive)
ROOT
ATOM      1  C   UNL d   1       1.109   5.908   0.191  0.00  0.00     0.172 C 
ATOM      2  N   UNL d   1       1.094   4.468   0.081  0.00  0.00    -0.070 N 
ATOM      3  C1  UNL d   1       0.092   3.721  -0.478  0.00  0.00    -0.004 A 
ATOM      4  C2  UNL d   1       0.455   2.394  -0.390  0.00  0.00    -0.047 A 
ATOM      5  C3  UNL d   1       1.718   2.343   0.246  0.00  0.00    -0.047 A 
ATOM      6  C4  UNL d   1       2.090   3.641   0.526  0.00  0.00    -0.004 A 
ENDROOT
TORSDOF 0
ENDMDL
