MODEL 1
REMARK minimizedAffinity 2.6743803
REMARK minimizedRMSD -1
REMARK  0 active torsions:
REMARK  status: ('A' for Active; 'I' for Inactive)
ROOT
ATOM      1  C   UNL d   1      -3.787  -5.998   3.301  0.00  0.00     0.172 C 
ATOM      2  N   UNL d   1      -4.518  -5.254   4.300  0.00  0.00    -0.070 N 
ATOM      3  C1  UNL d   1      -4.279  -3.955   4.663  0.00  0.00    -0.004 A 
ATOM      4  C2  UNL d   1      -5.187  -3.616   5.642  0.00  0.00    -0.047 A 
ATOM      5  C3  UNL d   1      -6.000  -4.751   5.877  0.00  0.00    -0.047 A 
ATOM      6  C4  UNL d   1      -5.564  -5.750   5.033  0.00  0.00    -0.004 A 
ENDROOT
TORSDOF 0
ENDMDL
