MODEL 1
REMARK minimizedAffinity 7.9056592
REMARK minimizedRMSD -1
REMARK  0 active torsions:
REMARK  status: ('A' for Active; 'I' for Inactive)
ROOT
ATOM      1  C   UNL d   1       0.489  -4.364   1.906  0.00  0.00     0.172 C 
ATOM      2  N   UNL d   1       0.153  -2.960   1.950  0.00  0.00    -0.070 N 
ATOM      3  C1  UNL d   1       0.899  -1.943   1.418  0.00  0.00    -0.004 A 
ATOM      4  C2  UNL d   1       0.240  -0.759   1.669  0.00  0.00    -0.047 A 
ATOM      5  C3  UNL d   1      -0.943  -1.076   2.378  0.00  0.00    -0.047 A 
ATOM      6  C4  UNL d   1      -0.972  -2.445   2.539  0.00  0.00    -0.004 A 
ENDROOT
TORSDOF 0
ENDMDL
