MODEL 1
REMARK minimizedAffinity 5.59809494
REMARK minimizedRMSD -1
REMARK  0 active torsions:
REMARK  status: ('A' for Active; 'I' for Inactive)
ROOT
ATOM      1  C   UNL d   1      -2.796  -2.656   2.463  0.00  0.00     0.172 C 
ATOM      2  N   UNL d   1      -1.542  -1.941   2.425  0.00  0.00    -0.070 N 
ATOM      3  C1  UNL d   1      -1.161  -0.950   3.290  0.00  0.00    -0.004 A 
ATOM      4  C2  UNL d   1       0.097  -0.527   2.919  0.00  0.00    -0.047 A 
ATOM      5  C3  UNL d   1       0.486  -1.290   1.793  0.00  0.00    -0.047 A 
ATOM      6  C4  UNL d   1      -0.547  -2.157   1.508  0.00  0.00    -0.004 A 
ENDROOT
TORSDOF 0
ENDMDL
