MODEL 1
REMARK minimizedAffinity 10.3980694
REMARK minimizedRMSD -1
REMARK  0 active torsions:
REMARK  status: ('A' for Active; 'I' for Inactive)
ROOT
ATOM      1  C   UNL d   1       2.513   0.103   1.836  0.00  0.00     0.172 C 
ATOM      2  N   UNL d   1       1.335  -0.713   2.013  0.00  0.00    -0.070 N 
ATOM      3  C1  UNL d   1       1.104  -1.923   1.414  0.00  0.00    -0.004 A 
ATOM      4  C2  UNL d   1      -0.126  -2.376   1.840  0.00  0.00    -0.047 A 
ATOM      5  C3  UNL d   1      -0.653  -1.404   2.724  0.00  0.00    -0.047 A 
ATOM      6  C4  UNL d   1       0.272  -0.386   2.813  0.00  0.00    -0.004 A 
ENDROOT
TORSDOF 0
ENDMDL
