MODEL 1
REMARK minimizedAffinity 10.3146725
REMARK minimizedRMSD -1
REMARK  0 active torsions:
REMARK  status: ('A' for Active; 'I' for Inactive)
ROOT
ATOM      1  C   UNL d   1       0.378   2.567  -0.229  0.00  0.00     0.172 C 
ATOM      2  N   UNL d   1       0.740   3.964  -0.294  0.00  0.00    -0.070 N 
ATOM      3  C1  UNL d   1       1.164   4.729   0.759  0.00  0.00    -0.004 A 
ATOM      4  C2  UNL d   1       1.408   6.000   0.287  0.00  0.00    -0.047 A 
ATOM      5  C3  UNL d   1       1.119   5.999  -1.099  0.00  0.00    -0.047 A 
ATOM      6  C4  UNL d   1       0.707   4.726  -1.432  0.00  0.00    -0.004 A 
ENDROOT
TORSDOF 0
ENDMDL
