MODEL 1
REMARK minimizedAffinity 7.85301018
REMARK minimizedRMSD -1
REMARK  0 active torsions:
REMARK  status: ('A' for Active; 'I' for Inactive)
ROOT
ATOM      1  C   UNL d   1       2.229  -2.873  -0.138  0.00  0.00     0.172 C 
ATOM      2  N   UNL d   1       1.396  -2.169   0.808  0.00  0.00    -0.070 N 
ATOM      3  C1  UNL d   1       0.363  -2.714   1.523  0.00  0.00    -0.004 A 
ATOM      4  C2  UNL d   1      -0.177  -1.720   2.310  0.00  0.00    -0.047 A 
ATOM      5  C3  UNL d   1       0.557  -0.536   2.059  0.00  0.00    -0.047 A 
ATOM      6  C4  UNL d   1       1.524  -0.842   1.125  0.00  0.00    -0.004 A 
ENDROOT
TORSDOF 0
ENDMDL
