MODEL 1
REMARK minimizedAffinity 2.02402425
REMARK minimizedRMSD -1
REMARK  0 active torsions:
REMARK  status: ('A' for Active; 'I' for Inactive)
ROOT
ATOM      1  C   UNL d   1       3.750  -3.007  -6.000  0.00  0.00     0.172 C 
ATOM      2  N   UNL d   1       2.734  -4.025  -5.870  0.00  0.00    -0.070 N 
ATOM      3  C1  UNL d   1       2.933  -5.373  -5.999  0.00  0.00    -0.004 A 
ATOM      4  C2  UNL d   1       1.722  -6.000  -5.804  0.00  0.00    -0.047 A 
ATOM      5  C3  UNL d   1       0.760  -4.993  -5.551  0.00  0.00    -0.047 A 
ATOM      6  C4  UNL d   1       1.414  -3.780  -5.598  0.00  0.00    -0.004 A 
ENDROOT
TORSDOF 0
ENDMDL
