MODEL 1
REMARK minimizedAffinity 4.18453121
REMARK minimizedRMSD -1
REMARK  0 active torsions:
REMARK  status: ('A' for Active; 'I' for Inactive)
ROOT
ATOM      1  C   UNL d   1      -1.927   4.495  -5.690  0.00  0.00     0.172 C 
ATOM      2  N   UNL d   1      -2.334   4.626  -4.311  0.00  0.00    -0.070 N 
ATOM      3  C1  UNL d   1      -2.858   3.627  -3.535  0.00  0.00    -0.004 A 
ATOM      4  C2  UNL d   1      -3.114   4.153  -2.287  0.00  0.00    -0.047 A 
ATOM      5  C3  UNL d   1      -2.732   5.516  -2.315  0.00  0.00    -0.047 A 
ATOM      6  C4  UNL d   1      -2.253   5.782  -3.580  0.00  0.00    -0.004 A 
ENDROOT
TORSDOF 0
ENDMDL
