MODEL 1
REMARK minimizedAffinity 7.27604485
REMARK minimizedRMSD -1
REMARK  0 active torsions:
REMARK  status: ('A' for Active; 'I' for Inactive)
ROOT
ATOM      1  C   UNL d   1      -3.761   4.123  -1.853  0.00  0.00     0.172 C 
ATOM      2  N   UNL d   1      -2.882   4.628  -2.882  0.00  0.00    -0.070 N 
ATOM      3  C1  UNL d   1      -2.478   5.929  -3.019  0.00  0.00    -0.004 A 
ATOM      4  C2  UNL d   1      -1.648   6.000  -4.117  0.00  0.00    -0.047 A 
ATOM      5  C3  UNL d   1      -1.550   4.696  -4.659  0.00  0.00    -0.047 A 
ATOM      6  C4  UNL d   1      -2.324   3.867  -3.874  0.00  0.00    -0.004 A 
ENDROOT
TORSDOF 0
ENDMDL
