MODEL 1
REMARK minimizedAffinity 0.963388741
REMARK minimizedRMSD -1
REMARK  0 active torsions:
REMARK  status: ('A' for Active; 'I' for Inactive)
ROOT
ATOM      1  C   UNL d   1      -3.981  -4.880  -0.323  0.00  0.00     0.172 C 
ATOM      2  N   UNL d   1      -4.047  -4.706   1.109  0.00  0.00    -0.070 N 
ATOM      3  C1  UNL d   1      -4.389  -5.673   2.016  0.00  0.00    -0.004 A 
ATOM      4  C2  UNL d   1      -4.332  -5.112   3.273  0.00  0.00    -0.047 A 
ATOM      5  C3  UNL d   1      -3.943  -3.760   3.116  0.00  0.00    -0.047 A 
ATOM      6  C4  UNL d   1      -3.773  -3.536   1.767  0.00  0.00    -0.004 A 
ENDROOT
TORSDOF 0
ENDMDL
