MODEL 1
REMARK minimizedAffinity -2.01287389
REMARK minimizedRMSD -1
REMARK  0 active torsions:
REMARK  status: ('A' for Active; 'I' for Inactive)
ROOT
ATOM      1  C   UNL d   1      -2.587   0.973  -1.329  0.00  0.00     0.172 C 
ATOM      2  N   UNL d   1      -2.908   2.160  -2.086  0.00  0.00    -0.070 N 
ATOM      3  C1  UNL d   1      -2.711   2.326  -3.431  0.00  0.00    -0.004 A 
ATOM      4  C2  UNL d   1      -3.146   3.590  -3.767  0.00  0.00    -0.047 A 
ATOM      5  C3  UNL d   1      -3.619   4.205  -2.584  0.00  0.00    -0.047 A 
ATOM      6  C4  UNL d   1      -3.460   3.297  -1.558  0.00  0.00    -0.004 A 
ENDROOT
TORSDOF 0
ENDMDL
