MODEL 1
REMARK minimizedAffinity -3.69993711
REMARK minimizedRMSD -1
REMARK  0 active torsions:
REMARK  status: ('A' for Active; 'I' for Inactive)
ROOT
ATOM      1  C   UNL d   1      -0.070  -0.028  -0.077  0.00  0.00     0.172 C 
ATOM      2  N   UNL d   1       1.098  -0.638   0.514  0.00  0.00    -0.070 N 
ATOM      3  C1  UNL d   1       2.391  -0.444   0.109  0.00  0.00    -0.004 A 
ATOM      4  C2  UNL d   1       3.206  -1.199   0.924  0.00  0.00    -0.047 A 
ATOM      5  C3  UNL d   1       2.374  -1.872   1.850  0.00  0.00    -0.047 A 
ATOM      6  C4  UNL d   1       1.073  -1.506   1.574  0.00  0.00    -0.004 A 
ENDROOT
TORSDOF 0
ENDMDL
