MODEL 1
REMARK minimizedAffinity -3.87771511
REMARK minimizedRMSD -1
REMARK  0 active torsions:
REMARK  status: ('A' for Active; 'I' for Inactive)
ROOT
ATOM      1  C   UNL d   1       0.193  -0.392   0.289  0.00  0.00     0.172 C 
ATOM      2  N   UNL d   1       1.214  -1.142   0.981  0.00  0.00    -0.070 N 
ATOM      3  C1  UNL d   1       2.499  -0.723   1.205  0.00  0.00    -0.004 A 
ATOM      4  C2  UNL d   1       3.154  -1.720   1.895  0.00  0.00    -0.047 A 
ATOM      5  C3  UNL d   1       2.231  -2.775   2.092  0.00  0.00    -0.047 A 
ATOM      6  C4  UNL d   1       1.038  -2.390   1.516  0.00  0.00    -0.004 A 
ENDROOT
TORSDOF 0
ENDMDL
