MODEL 1
REMARK minimizedAffinity -3.79138136
REMARK minimizedRMSD -1
REMARK  0 active torsions:
REMARK  status: ('A' for Active; 'I' for Inactive)
ROOT
ATOM      1  C   UNL d   1      -0.812  -0.583   0.283  0.00  0.00     0.172 C 
ATOM      2  N   UNL d   1       0.601  -0.550   0.582  0.00  0.00    -0.070 N 
ATOM      3  C1  UNL d   1       1.343  -1.604   1.045  0.00  0.00    -0.004 A 
ATOM      4  C2  UNL d   1       2.641  -1.168   1.204  0.00  0.00    -0.047 A 
ATOM      5  C3  UNL d   1       2.679   0.195   0.824  0.00  0.00    -0.047 A 
ATOM      6  C4  UNL d   1       1.403   0.552   0.444  0.00  0.00    -0.004 A 
ENDROOT
TORSDOF 0
ENDMDL
