MODEL 1
REMARK minimizedAffinity -3.74653697
REMARK minimizedRMSD -1
REMARK  0 active torsions:
REMARK  status: ('A' for Active; 'I' for Inactive)
ROOT
ATOM      1  C   UNL d   1      -0.021   1.262   0.264  0.00  0.00     0.172 C 
ATOM      2  N   UNL d   1       1.002   0.303   0.610  0.00  0.00    -0.070 N 
ATOM      3  C1  UNL d   1       0.788  -0.915   1.197  0.00  0.00    -0.004 A 
ATOM      4  C2  UNL d   1       2.013  -1.526   1.361  0.00  0.00    -0.047 A 
ATOM      5  C3  UNL d   1       2.997  -0.643   0.855  0.00  0.00    -0.047 A 
ATOM      6  C4  UNL d   1       2.343   0.481   0.396  0.00  0.00    -0.004 A 
ENDROOT
TORSDOF 0
ENDMDL
