MODEL 1
REMARK minimizedAffinity -2.43517137
REMARK minimizedRMSD -1
REMARK  0 active torsions:
REMARK  status: ('A' for Active; 'I' for Inactive)
ROOT
ATOM      1  C   UNL d   1      -1.114   0.211  -0.446  0.00  0.00     0.172 C 
ATOM      2  N   UNL d   1      -2.182   0.124  -1.414  0.00  0.00    -0.070 N 
ATOM      3  C1  UNL d   1      -2.606   1.140  -2.228  0.00  0.00    -0.004 A 
ATOM      4  C2  UNL d   1      -3.639   0.657  -3.002  0.00  0.00    -0.047 A 
ATOM      5  C3  UNL d   1      -3.843  -0.696  -2.640  0.00  0.00    -0.047 A 
ATOM      6  C4  UNL d   1      -2.928  -1.000  -1.655  0.00  0.00    -0.004 A 
ENDROOT
TORSDOF 0
ENDMDL
