MODEL 1
REMARK minimizedAffinity -3.93456197
REMARK minimizedRMSD -1
REMARK  0 active torsions:
REMARK  status: ('A' for Active; 'I' for Inactive)
ROOT
ATOM      1  N1  IND d   1       1.699  -0.286   2.082  0.00  0.00    -0.196 N 
ATOM      2  C2  IND d   1       1.015  -0.551   3.235  0.00  0.00     0.054 A 
ATOM      3  C3  IND d   1      -0.318  -0.495   3.015  0.00  0.00    -0.031 A 
ATOM      4  C4  IND d   1      -1.597  -0.085   0.819  0.00  0.00     0.051 A 
ATOM      5  C5  IND d   1      -1.406   0.241  -0.494  0.00  0.00    -0.031 A 
ATOM      6  C6  IND d   1      -0.145   0.410  -1.027  0.00  0.00     0.015 A 
ATOM      7  C7  IND d   1       0.978   0.246  -0.266  0.00  0.00    -0.016 A 
ATOM      8  C8  IND d   1       0.788  -0.079   1.069  0.00  0.00    -0.047 A 
ATOM      9  C9  IND d   1      -0.491  -0.209   1.626  0.00  0.00    -0.096 A 
ATOM     10  HN1 IND d   1       2.554  -0.253   2.002  0.00  0.00     0.298 HD
ENDROOT
TORSDOF 0
ENDMDL
