MODEL 1
REMARK minimizedAffinity -2.60956287
REMARK minimizedRMSD -1
REMARK  0 active torsions:
REMARK  status: ('A' for Active; 'I' for Inactive)
ROOT
ATOM      1  N1  IND d   1       2.081  -1.394   1.718  0.00  0.00    -0.196 N 
ATOM      2  C2  IND d   1       1.432  -1.365   2.920  0.00  0.00     0.054 A 
ATOM      3  C3  IND d   1       0.193  -0.843   2.773  0.00  0.00    -0.031 A 
ATOM      4  C4  IND d   1      -1.012  -0.068   0.634  0.00  0.00     0.051 A 
ATOM      5  C5  IND d   1      -0.811   0.131  -0.703  0.00  0.00    -0.031 A 
ATOM      6  C6  IND d   1       0.387  -0.177  -1.315  0.00  0.00     0.015 A 
ATOM      7  C7  IND d   1       1.430  -0.708  -0.611  0.00  0.00    -0.016 A 
ATOM      8  C8  IND d   1       1.232  -0.905   0.749  0.00  0.00    -0.047 A 
ATOM      9  C9  IND d   1       0.033  -0.555   1.383  0.00  0.00    -0.096 A 
ATOM     10  HN1 IND d   1       2.885  -1.671   1.588  0.00  0.00     0.298 HD
ENDROOT
TORSDOF 0
ENDMDL
