MODEL 1
REMARK minimizedAffinity -5.57507849
REMARK minimizedRMSD -1
REMARK  0 active torsions:
REMARK  status: ('A' for Active; 'I' for Inactive)
ROOT
ATOM      1  N1  IND d   1       1.492  -0.712   2.984  0.00  0.00    -0.196 N 
ATOM      2  C2  IND d   1       2.603  -0.283   2.314  0.00  0.00     0.054 A 
ATOM      3  C3  IND d   1       2.295   0.010   1.031  0.00  0.00    -0.031 A 
ATOM      4  C4  IND d   1       0.012  -0.042  -0.156  0.00  0.00     0.051 A 
ATOM      5  C5  IND d   1      -1.293  -0.401   0.034  0.00  0.00    -0.031 A 
ATOM      6  C6  IND d   1      -1.746  -0.890   1.243  0.00  0.00     0.015 A 
ATOM      7  C7  IND d   1      -0.910  -1.027   2.314  0.00  0.00    -0.016 A 
ATOM      8  C8  IND d   1       0.417  -0.670   2.123  0.00  0.00    -0.047 A 
ATOM      9  C9  IND d   1       0.892  -0.214   0.886  0.00  0.00    -0.096 A 
ATOM     10  HN1 IND d   1       1.467  -0.965   3.805  0.00  0.00     0.298 HD
ENDROOT
TORSDOF 0
ENDMDL
