MODEL 1
REMARK minimizedAffinity 4.71398544
REMARK minimizedRMSD -1
REMARK  0 active torsions:
REMARK  status: ('A' for Active; 'I' for Inactive)
ROOT
ATOM      1  C   UNL d   1       3.775   3.359   3.004  0.00  0.00     0.078 C 
ATOM      2  C1  UNL d   1       4.553   2.260   3.664  0.00  0.00    -0.077 A 
ATOM      3  C2  UNL d   1       4.570   0.967   3.127  0.00  0.00    -0.001 A 
ATOM      4  C3  UNL d   1       5.291  -0.049   3.757  0.00  0.00     0.003 A 
ATOM      5  C4  UNL d   1       5.999   0.217   4.927  0.00  0.00    -0.005 A 
ATOM      6  C5  UNL d   1       5.986   1.501   5.469  0.00  0.00     0.003 A 
ATOM      7  C6  UNL d   1       5.266   2.518   4.841  0.00  0.00    -0.001 A 
ENDROOT
TORSDOF 0
ENDMDL
