MODEL 1
REMARK minimizedAffinity 2.1691227
REMARK minimizedRMSD -1
REMARK  0 active torsions:
REMARK  status: ('A' for Active; 'I' for Inactive)
ROOT
ATOM      1  C   UNL d   1       3.747   2.714   2.249  0.00  0.00     0.078 C 
ATOM      2  C1  UNL d   1       4.426   1.696   3.116  0.00  0.00    -0.077 A 
ATOM      3  C2  UNL d   1       5.368   2.081   4.078  0.00  0.00    -0.001 A 
ATOM      4  C3  UNL d   1       6.000   1.122   4.871  0.00  0.00     0.003 A 
ATOM      5  C4  UNL d   1       5.698  -0.229   4.710  0.00  0.00    -0.005 A 
ATOM      6  C5  UNL d   1       4.763  -0.622   3.754  0.00  0.00     0.003 A 
ATOM      7  C6  UNL d   1       4.130   0.336   2.960  0.00  0.00    -0.001 A 
ENDROOT
TORSDOF 0
ENDMDL
