MODEL 1
REMARK minimizedAffinity -3.84799743
REMARK minimizedRMSD -1
REMARK  0 active torsions:
REMARK  status: ('A' for Active; 'I' for Inactive)
ROOT
ATOM      1  C   UNL d   1      -3.093   3.439  -0.162  0.00  0.00     0.078 C 
ATOM      2  C1  UNL d   1      -3.023   2.031   0.350  0.00  0.00    -0.077 A 
ATOM      3  C2  UNL d   1      -3.715   0.996  -0.290  0.00  0.00    -0.001 A 
ATOM      4  C3  UNL d   1      -3.648  -0.308   0.204  0.00  0.00     0.003 A 
ATOM      5  C4  UNL d   1      -2.892  -0.589   1.340  0.00  0.00    -0.005 A 
ATOM      6  C5  UNL d   1      -2.201   0.436   1.985  0.00  0.00     0.003 A 
ATOM      7  C6  UNL d   1      -2.267   1.740   1.493  0.00  0.00    -0.001 A 
ENDROOT
TORSDOF 0
ENDMDL
