MODEL 1
REMARK minimizedAffinity 2.579283
REMARK minimizedRMSD -1
REMARK  0 active torsions:
REMARK  status: ('A' for Active; 'I' for Inactive)
ROOT
ATOM      1  C   UNL d   1      -1.509  -1.728   0.214  0.00  0.00     0.078 C 
ATOM      2  C1  UNL d   1      -1.205  -0.351  -0.296  0.00  0.00    -0.077 A 
ATOM      3  C2  UNL d   1      -0.475  -0.163  -1.476  0.00  0.00    -0.001 A 
ATOM      4  C3  UNL d   1      -0.191   1.124  -1.934  0.00  0.00     0.003 A 
ATOM      5  C4  UNL d   1      -0.632   2.235  -1.217  0.00  0.00    -0.005 A 
ATOM      6  C5  UNL d   1      -1.357   2.058  -0.040  0.00  0.00     0.003 A 
ATOM      7  C6  UNL d   1      -1.642   0.772   0.419  0.00  0.00    -0.001 A 
ENDROOT
TORSDOF 0
ENDMDL
