MODEL 1
REMARK minimizedAffinity -0.199338391
REMARK minimizedRMSD -1
REMARK  0 active torsions:
REMARK  status: ('A' for Active; 'I' for Inactive)
ROOT
ATOM      1  C   UNL d   1      -0.229   2.262  -1.093  0.00  0.00     0.078 C 
ATOM      2  C1  UNL d   1      -1.572   2.691  -0.583  0.00  0.00    -0.077 A 
ATOM      3  C2  UNL d   1      -2.498   1.753  -0.111  0.00  0.00    -0.001 A 
ATOM      4  C3  UNL d   1      -3.748   2.165   0.352  0.00  0.00     0.003 A 
ATOM      5  C4  UNL d   1      -4.086   3.517   0.345  0.00  0.00    -0.005 A 
ATOM      6  C5  UNL d   1      -3.172   4.458  -0.126  0.00  0.00     0.003 A 
ATOM      7  C6  UNL d   1      -1.921   4.048  -0.589  0.00  0.00    -0.001 A 
ENDROOT
TORSDOF 0
ENDMDL
