MODEL 1
REMARK minimizedAffinity -3.78721523
REMARK minimizedRMSD -1
REMARK  0 active torsions:
REMARK  status: ('A' for Active; 'I' for Inactive)
ROOT
ATOM      1  C   UNL d   1      -2.636   3.331   1.128  0.00  0.00     0.078 C 
ATOM      2  C1  UNL d   1      -2.533   1.836   1.186  0.00  0.00    -0.077 A 
ATOM      3  C2  UNL d   1      -2.212   1.090   0.045  0.00  0.00    -0.001 A 
ATOM      4  C3  UNL d   1      -2.129  -0.301   0.111  0.00  0.00     0.003 A 
ATOM      5  C4  UNL d   1      -2.367  -0.960   1.315  0.00  0.00    -0.005 A 
ATOM      6  C5  UNL d   1      -2.689  -0.227   2.456  0.00  0.00     0.003 A 
ATOM      7  C6  UNL d   1      -2.773   1.165   2.392  0.00  0.00    -0.001 A 
ENDROOT
TORSDOF 0
ENDMDL
