MODEL 1
REMARK minimizedAffinity -2.67369413
REMARK minimizedRMSD -1
REMARK  0 active torsions:
REMARK  status: ('A' for Active; 'I' for Inactive)
ROOT
ATOM      1  C   UNL d   1      -2.765   2.192  -0.003  0.00  0.00     0.078 C 
ATOM      2  C1  UNL d   1      -2.619   1.114   1.029  0.00  0.00    -0.077 A 
ATOM      3  C2  UNL d   1      -3.149   1.271   2.316  0.00  0.00    -0.001 A 
ATOM      4  C3  UNL d   1      -2.998   0.263   3.270  0.00  0.00     0.003 A 
ATOM      5  C4  UNL d   1      -2.316  -0.908   2.948  0.00  0.00    -0.005 A 
ATOM      6  C5  UNL d   1      -1.783  -1.073   1.671  0.00  0.00     0.003 A 
ATOM      7  C6  UNL d   1      -1.933  -0.066   0.716  0.00  0.00    -0.001 A 
ENDROOT
TORSDOF 0
ENDMDL
