MODEL 1
REMARK minimizedAffinity -3.35734606
REMARK minimizedRMSD -1
REMARK  0 active torsions:
REMARK  status: ('A' for Active; 'I' for Inactive)
ROOT
ATOM      1  C   UNL d   1      -2.445   0.181   2.866  0.00  0.00     0.078 C 
ATOM      2  C1  UNL d   1      -2.902   1.177   1.843  0.00  0.00    -0.077 A 
ATOM      3  C2  UNL d   1      -2.805   2.553   2.083  0.00  0.00    -0.001 A 
ATOM      4  C3  UNL d   1      -3.244   3.469   1.125  0.00  0.00     0.003 A 
ATOM      5  C4  UNL d   1      -3.784   3.019  -0.078  0.00  0.00    -0.005 A 
ATOM      6  C5  UNL d   1      -3.887   1.652  -0.324  0.00  0.00     0.003 A 
ATOM      7  C6  UNL d   1      -3.448   0.734   0.632  0.00  0.00    -0.001 A 
ENDROOT
TORSDOF 0
ENDMDL
