MODEL 1
REMARK minimizedAffinity -0.498061031
REMARK minimizedRMSD -1
REMARK  0 active torsions:
REMARK  status: ('A' for Active; 'I' for Inactive)
ROOT
ATOM      1  C   UNL d   1       3.012  -1.360   2.283  0.00  0.00     0.078 C 
ATOM      2  C1  UNL d   1       3.988  -0.307   2.715  0.00  0.00    -0.077 A 
ATOM      3  C2  UNL d   1       3.837   1.025   2.313  0.00  0.00    -0.001 A 
ATOM      4  C3  UNL d   1       4.758   1.993   2.716  0.00  0.00     0.003 A 
ATOM      5  C4  UNL d   1       5.839   1.638   3.520  0.00  0.00    -0.005 A 
ATOM      6  C5  UNL d   1       6.000   0.314   3.923  0.00  0.00     0.003 A 
ATOM      7  C6  UNL d   1       5.079  -0.655   3.522  0.00  0.00    -0.001 A 
ENDROOT
TORSDOF 0
ENDMDL
