MODEL 1
REMARK minimizedAffinity 6.09788084
REMARK minimizedRMSD -1
REMARK  0 active torsions:
REMARK  status: ('A' for Active; 'I' for Inactive)
ROOT
ATOM      1  C   UNL d   1      -4.845   5.838   5.987  0.00  0.00     0.078 C 
ATOM      2  C1  UNL d   1      -4.855   5.684   4.495  0.00  0.00    -0.077 A 
ATOM      3  C2  UNL d   1      -5.995   5.223   3.825  0.00  0.00    -0.001 A 
ATOM      4  C3  UNL d   1      -5.986   5.075   2.437  0.00  0.00     0.003 A 
ATOM      5  C4  UNL d   1      -4.839   5.384   1.708  0.00  0.00    -0.005 A 
ATOM      6  C5  UNL d   1      -3.700   5.840   2.366  0.00  0.00     0.003 A 
ATOM      7  C6  UNL d   1      -3.706   5.989   3.754  0.00  0.00    -0.001 A 
ENDROOT
TORSDOF 0
ENDMDL
