MODEL 1
REMARK minimizedAffinity 1.09522724
REMARK minimizedRMSD -1
REMARK  0 active torsions:
REMARK  status: ('A' for Active; 'I' for Inactive)
ROOT
ATOM      1  C   UNL d   1       6.000   1.205   5.769  0.00  0.00     0.078 C 
ATOM      2  C1  UNL d   1       5.473   1.589   4.418  0.00  0.00    -0.077 A 
ATOM      3  C2  UNL d   1       5.629   2.891   3.926  0.00  0.00    -0.001 A 
ATOM      4  C3  UNL d   1       5.125   3.237   2.672  0.00  0.00     0.003 A 
ATOM      5  C4  UNL d   1       4.461   2.287   1.898  0.00  0.00    -0.005 A 
ATOM      6  C5  UNL d   1       4.299   0.989   2.380  0.00  0.00     0.003 A 
ATOM      7  C6  UNL d   1       4.803   0.642   3.634  0.00  0.00    -0.001 A 
ENDROOT
TORSDOF 0
ENDMDL
