MODEL 1
REMARK minimizedAffinity 0.341595143
REMARK minimizedRMSD -1
REMARK  0 active torsions:
REMARK  status: ('A' for Active; 'I' for Inactive)
ROOT
ATOM      1  C   UNL d   1      -3.346  -0.407   0.182  0.00  0.00     0.078 C 
ATOM      2  C1  UNL d   1      -3.187  -0.427   1.673  0.00  0.00    -0.077 A 
ATOM      3  C2  UNL d   1      -3.338   0.741   2.430  0.00  0.00    -0.001 A 
ATOM      4  C3  UNL d   1      -3.177   0.709   3.816  0.00  0.00     0.003 A 
ATOM      5  C4  UNL d   1      -2.863  -0.487   4.457  0.00  0.00    -0.005 A 
ATOM      6  C5  UNL d   1      -2.709  -1.654   3.712  0.00  0.00     0.003 A 
ATOM      7  C6  UNL d   1      -2.869  -1.625   2.325  0.00  0.00    -0.001 A 
ENDROOT
TORSDOF 0
ENDMDL
