MODEL 1
REMARK minimizedAffinity -2.15445924
REMARK minimizedRMSD -1
REMARK  0 active torsions:
REMARK  status: ('A' for Active; 'I' for Inactive)
ROOT
ATOM      1  C   UNL d   1       2.487  -1.487   1.127  0.00  0.00     0.078 C 
ATOM      2  C1  UNL d   1       3.378  -0.575   1.916  0.00  0.00    -0.077 A 
ATOM      3  C2  UNL d   1       3.191   0.813   1.893  0.00  0.00    -0.001 A 
ATOM      4  C3  UNL d   1       4.033   1.651   2.624  0.00  0.00     0.003 A 
ATOM      5  C4  UNL d   1       5.069   1.112   3.384  0.00  0.00    -0.005 A 
ATOM      6  C5  UNL d   1       5.264  -0.268   3.412  0.00  0.00     0.003 A 
ATOM      7  C6  UNL d   1       4.423  -1.108   2.681  0.00  0.00    -0.001 A 
ENDROOT
TORSDOF 0
ENDMDL
