MODEL 1
REMARK minimizedAffinity 2.38344932
REMARK minimizedRMSD -1
REMARK  0 active torsions:
REMARK  status: ('A' for Active; 'I' for Inactive)
ROOT
ATOM      1  C   UNL d   1       5.993   4.516   4.087  0.00  0.00     0.078 C 
ATOM      2  C1  UNL d   1       5.589   3.131   3.675  0.00  0.00    -0.077 A 
ATOM      3  C2  UNL d   1       4.798   2.919   2.539  0.00  0.00    -0.001 A 
ATOM      4  C3  UNL d   1       4.421   1.626   2.173  0.00  0.00     0.003 A 
ATOM      5  C4  UNL d   1       4.829   0.535   2.939  0.00  0.00    -0.005 A 
ATOM      6  C5  UNL d   1       5.614   0.737   4.072  0.00  0.00     0.003 A 
ATOM      7  C6  UNL d   1       5.992   2.029   4.440  0.00  0.00    -0.001 A 
ENDROOT
TORSDOF 0
ENDMDL
