MODEL 1
REMARK minimizedAffinity -0.414818108
REMARK minimizedRMSD -1
REMARK  0 active torsions:
REMARK  status: ('A' for Active; 'I' for Inactive)
ROOT
ATOM      1  C   UNL d   1       2.998  -1.875   3.745  0.00  0.00     0.078 C 
ATOM      2  C1  UNL d   1       3.949  -0.716   3.721  0.00  0.00    -0.077 A 
ATOM      3  C2  UNL d   1       5.128  -0.735   4.475  0.00  0.00    -0.001 A 
ATOM      4  C3  UNL d   1       5.999   0.356   4.451  0.00  0.00     0.003 A 
ATOM      5  C4  UNL d   1       5.699   1.474   3.675  0.00  0.00    -0.005 A 
ATOM      6  C5  UNL d   1       4.526   1.503   2.923  0.00  0.00     0.003 A 
ATOM      7  C6  UNL d   1       3.654   0.413   2.947  0.00  0.00    -0.001 A 
ENDROOT
TORSDOF 0
ENDMDL
