MODEL 1
REMARK minimizedAffinity 0.0806164443
REMARK minimizedRMSD -1
REMARK  0 active torsions:
REMARK  status: ('A' for Active; 'I' for Inactive)
ROOT
ATOM      1  C   UNL d   1       3.768   2.995   2.280  0.00  0.00     0.078 C 
ATOM      2  C1  UNL d   1       4.552   2.010   3.096  0.00  0.00    -0.077 A 
ATOM      3  C2  UNL d   1       4.867   0.743   2.589  0.00  0.00    -0.001 A 
ATOM      4  C3  UNL d   1       5.588  -0.168   3.363  0.00  0.00     0.003 A 
ATOM      5  C4  UNL d   1       6.000   0.178   4.648  0.00  0.00    -0.005 A 
ATOM      6  C5  UNL d   1       5.689   1.436   5.162  0.00  0.00     0.003 A 
ATOM      7  C6  UNL d   1       4.968   2.348   4.389  0.00  0.00    -0.001 A 
ENDROOT
TORSDOF 0
ENDMDL
