MODEL 1
REMARK minimizedAffinity 10.3982506
REMARK minimizedRMSD -1
REMARK  0 active torsions:
REMARK  status: ('A' for Active; 'I' for Inactive)
ROOT
ATOM      1  C   UNL d   1       3.202   2.995   1.658  0.00  0.00     0.078 C 
ATOM      2  C1  UNL d   1       4.163   2.297   2.574  0.00  0.00    -0.077 A 
ATOM      3  C2  UNL d   1       5.082   3.021   3.343  0.00  0.00    -0.001 A 
ATOM      4  C3  UNL d   1       5.977   2.358   4.184  0.00  0.00     0.003 A 
ATOM      5  C4  UNL d   1       5.963   0.967   4.263  0.00  0.00    -0.005 A 
ATOM      6  C5  UNL d   1       5.053   0.237   3.500  0.00  0.00     0.003 A 
ATOM      7  C6  UNL d   1       4.158   0.899   2.659  0.00  0.00    -0.001 A 
ENDROOT
TORSDOF 0
ENDMDL
