MODEL 1
REMARK minimizedAffinity -2.75422287
REMARK minimizedRMSD -1
REMARK  0 active torsions:
REMARK  status: ('A' for Active; 'I' for Inactive)
ROOT
ATOM      1  C   UNL d   1      -1.876  -1.840   0.170  0.00  0.00     0.078 C 
ATOM      2  C1  UNL d   1      -2.492  -1.313   1.431  0.00  0.00    -0.077 A 
ATOM      3  C2  UNL d   1      -1.727  -0.606   2.367  0.00  0.00    -0.001 A 
ATOM      4  C3  UNL d   1      -2.311  -0.130   3.542  0.00  0.00     0.003 A 
ATOM      5  C4  UNL d   1      -3.663  -0.356   3.792  0.00  0.00    -0.005 A 
ATOM      6  C5  UNL d   1      -4.432  -1.061   2.868  0.00  0.00     0.003 A 
ATOM      7  C6  UNL d   1      -3.849  -1.538   1.693  0.00  0.00    -0.001 A 
ENDROOT
TORSDOF 0
ENDMDL
