MODEL 1
REMARK minimizedAffinity -5.82518244
REMARK minimizedRMSD -1
REMARK  2 active torsions:
REMARK  status: ('A' for Active; 'I' for Inactive)
REMARK    1  A    between atoms: C2'_3  and  C1'_4 
REMARK    2  A    between atoms: C1'_4  and  C1_5 
ROOT
ATOM      1  C1  I4B d   1       0.112  -0.032  -0.024  0.00  0.00    -0.075 A 
ATOM      2  C2  I4B d   1       1.146  -0.874   0.303  0.00  0.00     0.003 A 
ATOM      3  C3  I4B d   1       2.422  -0.347   0.619  0.00  0.00     0.002 A 
ATOM      4  C4  I4B d   1       2.631   1.015   0.546  0.00  0.00    -0.004 A 
ATOM      5  C5  I4B d   1       1.576   1.869   0.236  0.00  0.00     0.002 A 
ATOM      6  C6  I4B d   1       0.305   1.343  -0.038  0.00  0.00     0.003 A 
ENDROOT
BRANCH   1   7
ATOM      7  C1' I4B d   1      -1.213  -0.625  -0.384  0.00  0.00     0.060 C 
BRANCH   7   8
ATOM      8  C2' I4B d   1      -1.679   0.021  -1.673  0.00  0.00    -0.013 C 
ATOM      9  C4' I4B d   1      -1.791  -0.992  -2.781  0.00  0.00     0.013 C 
ATOM     10  C3' I4B d   1      -2.998   0.683  -1.409  0.00  0.00     0.013 C 
ENDBRANCH   7   8
ENDBRANCH   1   7
TORSDOF 2
ENDMDL
