MODEL 1
REMARK minimizedAffinity -3.26495481
REMARK minimizedRMSD -1
REMARK  2 active torsions:
REMARK  status: ('A' for Active; 'I' for Inactive)
REMARK    1  A    between atoms: C2'_3  and  C1'_4 
REMARK    2  A    between atoms: C1'_4  and  C1_5 
ROOT
ATOM      1  C1  I4B d   1      -0.647   0.217  -0.004  0.00  0.00    -0.075 A 
ATOM      2  C2  I4B d   1       0.094  -0.846   0.448  0.00  0.00     0.003 A 
ATOM      3  C3  I4B d   1       1.413  -0.646   0.923  0.00  0.00     0.002 A 
ATOM      4  C4  I4B d   1       1.965   0.618   0.881  0.00  0.00    -0.004 A 
ATOM      5  C5  I4B d   1       1.204   1.699   0.444  0.00  0.00     0.002 A 
ATOM      6  C6  I4B d   1      -0.114   1.499   0.010  0.00  0.00     0.003 A 
ENDROOT
BRANCH   1   7
ATOM      7  C1' I4B d   1      -2.024  -0.036  -0.530  0.00  0.00     0.060 C 
BRANCH   7   8
ATOM      8  C2' I4B d   1      -1.942  -0.104  -2.041  0.00  0.00    -0.013 C 
ATOM      9  C4' I4B d   1      -1.956  -1.531  -2.524  0.00  0.00     0.013 C 
ATOM     10  C3' I4B d   1      -3.098   0.668  -2.603  0.00  0.00     0.013 C 
ENDBRANCH   7   8
ENDBRANCH   1   7
TORSDOF 2
ENDMDL
