MODEL 1
REMARK minimizedAffinity -5.01211548
REMARK minimizedRMSD -1
REMARK  2 active torsions:
REMARK  status: ('A' for Active; 'I' for Inactive)
REMARK    1  A    between atoms: C2'_3  and  C1'_4 
REMARK    2  A    between atoms: C1'_4  and  C1_5 
ROOT
ATOM      1  C1  I4B d   1       0.008  -0.054   0.081  0.00  0.00    -0.075 A 
ATOM      2  C2  I4B d   1       0.675   1.107  -0.222  0.00  0.00     0.003 A 
ATOM      3  C3  I4B d   1       2.049   1.243   0.096  0.00  0.00     0.002 A 
ATOM      4  C4  I4B d   1       2.698   0.220   0.756  0.00  0.00    -0.004 A 
ATOM      5  C5  I4B d   1       2.026  -0.965   1.041  0.00  0.00     0.002 A 
ATOM      6  C6  I4B d   1       0.675  -1.108   0.690  0.00  0.00     0.003 A 
ENDROOT
BRANCH   1   7
ATOM      7  C1' I4B d   1      -1.450  -0.151  -0.239  0.00  0.00     0.060 C 
BRANCH   7   8
ATOM      8  C2' I4B d   1      -1.597  -0.173  -1.747  0.00  0.00    -0.013 C 
ATOM      9  C4' I4B d   1      -1.949  -1.552  -2.241  0.00  0.00     0.013 C 
ATOM     10  C3' I4B d   1      -2.652   0.823  -2.124  0.00  0.00     0.013 C 
ENDBRANCH   7   8
ENDBRANCH   1   7
TORSDOF 2
ENDMDL
