MODEL 1
REMARK minimizedAffinity 4.6943326
REMARK minimizedRMSD -1
REMARK  2 active torsions:
REMARK  status: ('A' for Active; 'I' for Inactive)
REMARK    1  A    between atoms: C2'_3  and  C1'_4 
REMARK    2  A    between atoms: C1'_4  and  C1_5 
ROOT
ATOM      1  C1  I4B d   1       0.361   0.464   0.429  0.00  0.00    -0.075 A 
ATOM      2  C2  I4B d   1      -0.532   1.506   0.399  0.00  0.00     0.003 A 
ATOM      3  C3  I4B d   1      -0.067   2.843   0.345  0.00  0.00     0.002 A 
ATOM      4  C4  I4B d   1       1.290   3.092   0.374  0.00  0.00    -0.004 A 
ATOM      5  C5  I4B d   1       2.194   2.033   0.382  0.00  0.00     0.002 A 
ATOM      6  C6  I4B d   1       1.727   0.711   0.397  0.00  0.00     0.003 A 
ENDROOT
BRANCH   1   7
ATOM      7  C1' I4B d   1      -0.165  -0.933   0.520  0.00  0.00     0.060 C 
BRANCH   7   8
ATOM      8  C2' I4B d   1       0.268  -1.676  -0.728  0.00  0.00    -0.013 C 
ATOM      9  C4' I4B d   1       1.079  -2.897  -0.382  0.00  0.00     0.013 C 
ATOM     10  C3' I4B d   1      -0.965  -2.045  -1.498  0.00  0.00     0.013 C 
ENDBRANCH   7   8
ENDBRANCH   1   7
TORSDOF 2
ENDMDL
