MODEL 1
REMARK minimizedAffinity 5.73112202
REMARK minimizedRMSD -1
REMARK  3 active torsions:
REMARK  status: ('A' for Active; 'I' for Inactive)
REMARK    1  A    between atoms: C3'_2  and  C2'_3 
REMARK    2  A    between atoms: C2'_3  and  C1'_4 
REMARK    3  A    between atoms: C1'_4  and  C1_5 
ROOT
ATOM      1  C1  N4B d   1       0.704  -0.902   3.168  0.00  0.00    -0.075 A 
ATOM      2  C2  N4B d   1       0.500   0.219   2.333  0.00  0.00     0.002 A 
ATOM      3  C3  N4B d   1      -0.775   0.644   2.054  0.00  0.00     0.002 A 
ATOM      4  C4  N4B d   1      -1.858  -0.045   2.579  0.00  0.00    -0.004 A 
ATOM      5  C5  N4B d   1      -1.652  -1.112   3.405  0.00  0.00     0.002 A 
ATOM      6  C6  N4B d   1      -0.376  -1.547   3.698  0.00  0.00     0.002 A 
ENDROOT
BRANCH   1   7
ATOM      7  C1' N4B d   1       2.078  -1.456   3.433  0.00  0.00     0.057 C 
BRANCH   7   8
ATOM      8  C2' N4B d   1       3.085  -0.748   2.531  0.00  0.00     0.009 C 
BRANCH   8   9
ATOM      9  C3' N4B d   1       4.518  -1.027   2.952  0.00  0.00     0.004 C 
ATOM     10  C4' N4B d   1       4.705  -2.414   3.490  0.00  0.00     0.003 C 
ENDBRANCH   8   9
ENDBRANCH   7   8
ENDBRANCH   1   7
TORSDOF 3
ENDMDL
