MODEL 1
REMARK minimizedAffinity 8.35948753
REMARK minimizedRMSD -1
REMARK  3 active torsions:
REMARK  status: ('A' for Active; 'I' for Inactive)
REMARK    1  A    between atoms: C3'_2  and  C2'_3 
REMARK    2  A    between atoms: C2'_3  and  C1'_4 
REMARK    3  A    between atoms: C1'_4  and  C1_5 
ROOT
ATOM      1  C1  N4B d   1      -1.306   0.336   1.972  0.00  0.00    -0.075 A 
ATOM      2  C2  N4B d   1      -2.333   0.530   2.922  0.00  0.00     0.002 A 
ATOM      3  C3  N4B d   1      -3.649   0.436   2.540  0.00  0.00     0.002 A 
ATOM      4  C4  N4B d   1      -3.961   0.168   1.216  0.00  0.00    -0.004 A 
ATOM      5  C5  N4B d   1      -2.963  -0.044   0.310  0.00  0.00     0.002 A 
ATOM      6  C6  N4B d   1      -1.636   0.044   0.681  0.00  0.00     0.002 A 
ENDROOT
BRANCH   1   7
ATOM      7  C1' N4B d   1       0.145   0.514   2.324  0.00  0.00     0.057 C 
BRANCH   7   8
ATOM      8  C2' N4B d   1       0.631   1.856   1.784  0.00  0.00     0.009 C 
BRANCH   8   9
ATOM      9  C3' N4B d   1       1.582   1.686   0.612  0.00  0.00     0.004 C 
ATOM     10  C4' N4B d   1       1.733   2.938  -0.200  0.00  0.00     0.003 C 
ENDBRANCH   8   9
ENDBRANCH   7   8
ENDBRANCH   1   7
TORSDOF 3
ENDMDL
