MODEL 1
REMARK minimizedAffinity 1.62775218
REMARK minimizedRMSD -1
REMARK  3 active torsions:
REMARK  status: ('A' for Active; 'I' for Inactive)
REMARK    1  A    between atoms: C3'_2  and  C2'_3 
REMARK    2  A    between atoms: C2'_3  and  C1'_4 
REMARK    3  A    between atoms: C1'_4  and  C1_5 
ROOT
ATOM      1  C1  N4B d   1      -1.500  -0.187   2.377  0.00  0.00    -0.075 A 
ATOM      2  C2  N4B d   1      -1.592  -0.296   0.972  0.00  0.00     0.002 A 
ATOM      3  C3  N4B d   1      -2.794  -0.080   0.343  0.00  0.00     0.002 A 
ATOM      4  C4  N4B d   1      -3.916   0.226   1.097  0.00  0.00    -0.004 A 
ATOM      5  C5  N4B d   1      -3.814   0.355   2.452  0.00  0.00     0.002 A 
ATOM      6  C6  N4B d   1      -2.611   0.144   3.096  0.00  0.00     0.002 A 
ENDROOT
BRANCH   1   7
ATOM      7  C1' N4B d   1      -0.227  -0.498   3.116  0.00  0.00     0.057 C 
BRANCH   7   8
ATOM      8  C2' N4B d   1       0.907   0.343   2.537  0.00  0.00     0.009 C 
BRANCH   8   9
ATOM      9  C3' N4B d   1       0.716   1.824   2.818  0.00  0.00     0.004 C 
ATOM     10  C4' N4B d   1       1.202   2.224   4.179  0.00  0.00     0.003 C 
ENDBRANCH   8   9
ENDBRANCH   7   8
ENDBRANCH   1   7
TORSDOF 3
ENDMDL
