MODEL 1
REMARK minimizedAffinity -3.73508191
REMARK minimizedRMSD -1
REMARK  3 active torsions:
REMARK  status: ('A' for Active; 'I' for Inactive)
REMARK    1  A    between atoms: C3'_2  and  C2'_3 
REMARK    2  A    between atoms: C2'_3  and  C1'_4 
REMARK    3  A    between atoms: C1'_4  and  C1_5 
ROOT
ATOM      1  C1  N4B d   1       0.179   0.699  -0.373  0.00  0.00    -0.075 A 
ATOM      2  C2  N4B d   1       1.553   0.480  -0.131  0.00  0.00     0.002 A 
ATOM      3  C3  N4B d   1       1.990   0.206   1.142  0.00  0.00     0.002 A 
ATOM      4  C4  N4B d   1       1.079   0.166   2.187  0.00  0.00    -0.004 A 
ATOM      5  C5  N4B d   1      -0.250   0.353   1.940  0.00  0.00     0.002 A 
ATOM      6  C6  N4B d   1      -0.704   0.625   0.665  0.00  0.00     0.002 A 
ENDROOT
BRANCH   1   7
ATOM      7  C1' N4B d   1      -0.336   1.086  -1.733  0.00  0.00     0.057 C 
BRANCH   7   8
ATOM      8  C2' N4B d   1       0.770   0.879  -2.764  0.00  0.00     0.009 C 
BRANCH   8   9
ATOM      9  C3' N4B d   1       0.694  -0.494  -3.411  0.00  0.00     0.004 C 
ATOM     10  C4' N4B d   1       1.961  -1.280  -3.255  0.00  0.00     0.003 C 
ENDBRANCH   8   9
ENDBRANCH   7   8
ENDBRANCH   1   7
TORSDOF 3
ENDMDL
