MODEL 1
REMARK minimizedAffinity 1.52487063
REMARK minimizedRMSD -1
REMARK  3 active torsions:
REMARK  status: ('A' for Active; 'I' for Inactive)
REMARK    1  A    between atoms: C3'_2  and  C2'_3 
REMARK    2  A    between atoms: C2'_3  and  C1'_4 
REMARK    3  A    between atoms: C1'_4  and  C1_5 
ROOT
ATOM      1  C1  N4B d   1      -0.929  -0.325   1.681  0.00  0.00    -0.075 A 
ATOM      2  C2  N4B d   1      -0.943  -0.888   2.976  0.00  0.00     0.002 A 
ATOM      3  C3  N4B d   1      -1.553  -0.218   4.009  0.00  0.00     0.002 A 
ATOM      4  C4  N4B d   1      -2.136   1.018   3.775  0.00  0.00    -0.004 A 
ATOM      5  C5  N4B d   1      -2.140   1.543   2.516  0.00  0.00     0.002 A 
ATOM      6  C6  N4B d   1      -1.534   0.879   1.468  0.00  0.00     0.002 A 
ENDROOT
BRANCH   1   7
ATOM      7  C1' N4B d   1      -0.200  -0.979   0.539  0.00  0.00     0.057 C 
BRANCH   7   8
ATOM      8  C2' N4B d   1       0.953  -0.080   0.100  0.00  0.00     0.009 C 
BRANCH   8   9
ATOM      9  C3' N4B d   1       1.406   0.848   1.214  0.00  0.00     0.004 C 
ATOM     10  C4' N4B d   1       1.969   2.139   0.701  0.00  0.00     0.003 C 
ENDBRANCH   8   9
ENDBRANCH   7   8
ENDBRANCH   1   7
TORSDOF 3
ENDMDL
