MODEL 1
REMARK minimizedAffinity 3.90852523
REMARK minimizedRMSD -1
REMARK  3 active torsions:
REMARK  status: ('A' for Active; 'I' for Inactive)
REMARK    1  A    between atoms: C3'_2  and  C2'_3 
REMARK    2  A    between atoms: C2'_3  and  C1'_4 
REMARK    3  A    between atoms: C1'_4  and  C1_5 
ROOT
ATOM      1  C1  N4B d   1      -0.176   0.545   1.363  0.00  0.00    -0.075 A 
ATOM      2  C2  N4B d   1       0.595   0.659   0.186  0.00  0.00     0.002 A 
ATOM      3  C3  N4B d   1       1.966   0.627   0.257  0.00  0.00     0.002 A 
ATOM      4  C4  N4B d   1       2.586   0.500   1.491  0.00  0.00    -0.004 A 
ATOM      5  C5  N4B d   1       1.833   0.364   2.621  0.00  0.00     0.002 A 
ATOM      6  C6  N4B d   1       0.455   0.391   2.564  0.00  0.00     0.002 A 
ENDROOT
BRANCH   1   7
ATOM      7  C1' N4B d   1      -1.676   0.661   1.345  0.00  0.00     0.057 C 
BRANCH   7   8
ATOM      8  C2' N4B d   1      -2.131   1.464   2.561  0.00  0.00     0.009 C 
BRANCH   8   9
ATOM      9  C3' N4B d   1      -3.587   1.201   2.903  0.00  0.00     0.004 C 
ATOM     10  C4' N4B d   1      -3.769   0.653   4.287  0.00  0.00     0.003 C 
ENDBRANCH   8   9
ENDBRANCH   7   8
ENDBRANCH   1   7
TORSDOF 3
ENDMDL
