MODEL 1
REMARK minimizedAffinity 6.1873107
REMARK minimizedRMSD -1
REMARK  1 active torsions:
REMARK  status: ('A' for Active; 'I' for Inactive)
REMARK    1  A    between atoms: C1_2  and  C2_3 
ROOT
ATOM      1  C2  UNL d   1      -0.787   2.317  -2.719  0.00  0.00    -0.076 A 
ATOM      2  C3  UNL d   1      -0.841   1.250  -1.805  0.00  0.00     0.004 A 
ATOM      3  C4  UNL d   1       0.287   0.478  -1.535  0.00  0.00    -0.003 A 
ATOM      4  C5  UNL d   1       1.489   0.761  -2.174  0.00  0.00     0.000 A 
ATOM      5  C6  UNL d   1       1.567   1.826  -3.070  0.00  0.00     0.000 A 
ATOM      6  C7  UNL d   1       0.442   2.625  -3.341  0.00  0.00    -0.073 A 
ATOM      7  C8  UNL d   1       0.581   3.758  -4.321  0.00  0.00     0.078 C 
ENDROOT
BRANCH   1   8
ATOM      8  C1  UNL d   1      -2.049   3.102  -2.992  0.00  0.00     0.053 C 
ATOM      9  C   UNL d   1      -3.302   2.367  -2.540  0.00  0.00     0.018 C 
ENDBRANCH   1   8
TORSDOF 1
ENDMDL
