MODEL 1
REMARK minimizedAffinity 8.24030876
REMARK minimizedRMSD -1
REMARK  1 active torsions:
REMARK  status: ('A' for Active; 'I' for Inactive)
REMARK    1  A    between atoms: C1_2  and  C2_3 
ROOT
ATOM      1  C2  UNL d   1      -1.392   3.161  -3.060  0.00  0.00    -0.076 A 
ATOM      2  C3  UNL d   1       0.012   3.182  -2.994  0.00  0.00     0.004 A 
ATOM      3  C4  UNL d   1       0.751   4.108  -3.727  0.00  0.00    -0.003 A 
ATOM      4  C5  UNL d   1       0.098   5.030  -4.538  0.00  0.00     0.000 A 
ATOM      5  C6  UNL d   1      -1.295   5.035  -4.602  0.00  0.00     0.000 A 
ATOM      6  C7  UNL d   1      -2.056   4.119  -3.857  0.00  0.00    -0.073 A 
ATOM      7  C8  UNL d   1      -3.555   4.166  -3.968  0.00  0.00     0.078 C 
ENDROOT
BRANCH   1   8
ATOM      8  C1  UNL d   1      -2.140   2.116  -2.263  0.00  0.00     0.053 C 
ATOM      9  C   UNL d   1      -1.222   1.033  -1.718  0.00  0.00     0.018 C 
ENDBRANCH   1   8
TORSDOF 1
ENDMDL
