MODEL 1
REMARK minimizedAffinity 8.79246521
REMARK minimizedRMSD -1
REMARK  1 active torsions:
REMARK  status: ('A' for Active; 'I' for Inactive)
REMARK    1  A    between atoms: C1_2  and  C2_3 
ROOT
ATOM      1  C2  UNL d   1       0.490  -2.023   1.382  0.00  0.00    -0.076 A 
ATOM      2  C3  UNL d   1       1.483  -2.304   2.337  0.00  0.00     0.004 A 
ATOM      3  C4  UNL d   1       2.830  -2.344   1.981  0.00  0.00    -0.003 A 
ATOM      4  C5  UNL d   1       3.206  -2.102   0.664  0.00  0.00     0.000 A 
ATOM      5  C6  UNL d   1       2.235  -1.805  -0.293  0.00  0.00     0.000 A 
ATOM      6  C7  UNL d   1       0.875  -1.744   0.053  0.00  0.00    -0.073 A 
ATOM      7  C8  UNL d   1      -0.130  -1.425  -1.020  0.00  0.00     0.078 C 
ENDROOT
BRANCH   1   8
ATOM      8  C1  UNL d   1      -0.957  -2.020   1.822  0.00  0.00     0.053 C 
ATOM      9  C   UNL d   1      -1.128  -1.566   3.263  0.00  0.00     0.018 C 
ENDBRANCH   1   8
TORSDOF 1
ENDMDL
