MODEL 1
REMARK minimizedAffinity 12.9208002
REMARK minimizedRMSD -1
REMARK  1 active torsions:
REMARK  status: ('A' for Active; 'I' for Inactive)
REMARK    1  A    between atoms: C1_2  and  C2_3 
ROOT
ATOM      1  C2  UNL d   1       1.327  -1.264   2.557  0.00  0.00    -0.076 A 
ATOM      2  C3  UNL d   1       2.324  -1.155   1.573  0.00  0.00     0.004 A 
ATOM      3  C4  UNL d   1       2.043  -1.420   0.234  0.00  0.00    -0.003 A 
ATOM      4  C5  UNL d   1       0.760  -1.800  -0.143  0.00  0.00     0.000 A 
ATOM      5  C6  UNL d   1      -0.247  -1.896   0.818  0.00  0.00     0.000 A 
ATOM      6  C7  UNL d   1       0.016  -1.616   2.170  0.00  0.00    -0.073 A 
ATOM      7  C8  UNL d   1      -1.106  -1.742   3.164  0.00  0.00     0.078 C 
ENDROOT
BRANCH   1   8
ATOM      8  C1  UNL d   1       1.697  -0.990   3.998  0.00  0.00     0.053 C 
ATOM      9  C   UNL d   1       2.971  -1.705   4.418  0.00  0.00     0.018 C 
ENDBRANCH   1   8
TORSDOF 1
ENDMDL
