MODEL 1
REMARK minimizedAffinity -0.37072131
REMARK minimizedRMSD -1
REMARK  1 active torsions:
REMARK  status: ('A' for Active; 'I' for Inactive)
REMARK    1  A    between atoms: C1_2  and  C2_3 
ROOT
ATOM      1  C2  UNL d   1       1.315   0.762  -1.818  0.00  0.00    -0.076 A 
ATOM      2  C3  UNL d   1       0.630  -0.364  -2.306  0.00  0.00     0.004 A 
ATOM      3  C4  UNL d   1       0.431  -1.487  -1.504  0.00  0.00    -0.003 A 
ATOM      4  C5  UNL d   1       0.914  -1.501  -0.200  0.00  0.00     0.000 A 
ATOM      5  C6  UNL d   1       1.580  -0.385   0.306  0.00  0.00     0.000 A 
ATOM      6  C7  UNL d   1       1.774   0.761  -0.484  0.00  0.00    -0.073 A 
ATOM      7  C8  UNL d   1       2.505   1.933   0.112  0.00  0.00     0.078 C 
ENDROOT
BRANCH   1   8
ATOM      8  C1  UNL d   1       1.524   1.940  -2.743  0.00  0.00     0.053 C 
ATOM      9  C   UNL d   1       0.259   2.763  -2.933  0.00  0.00     0.018 C 
ENDBRANCH   1   8
TORSDOF 1
ENDMDL
