MODEL 1
REMARK minimizedAffinity 9.50519753
REMARK minimizedRMSD -1
REMARK  1 active torsions:
REMARK  status: ('A' for Active; 'I' for Inactive)
REMARK    1  A    between atoms: C1_2  and  C2_3 
ROOT
ATOM      1  C2  UNL d   1       2.017   0.815  -2.541  0.00  0.00    -0.076 A 
ATOM      2  C3  UNL d   1       1.177   0.840  -3.667  0.00  0.00     0.004 A 
ATOM      3  C4  UNL d   1       0.122   1.747  -3.756  0.00  0.00    -0.003 A 
ATOM      4  C5  UNL d   1      -0.109   2.644  -2.719  0.00  0.00     0.000 A 
ATOM      5  C6  UNL d   1       0.725   2.645  -1.601  0.00  0.00     0.000 A 
ATOM      6  C7  UNL d   1       1.803   1.748  -1.504  0.00  0.00    -0.073 A 
ATOM      7  C8  UNL d   1       2.667   1.789  -0.273  0.00  0.00     0.078 C 
ENDROOT
BRANCH   1   8
ATOM      8  C1  UNL d   1       3.128  -0.209  -2.489  0.00  0.00     0.053 C 
ATOM      9  C   UNL d   1       4.089  -0.087  -3.661  0.00  0.00     0.018 C 
ENDBRANCH   1   8
TORSDOF 1
ENDMDL
