MODEL 1
REMARK minimizedAffinity 6.01030779
REMARK minimizedRMSD -1
REMARK  1 active torsions:
REMARK  status: ('A' for Active; 'I' for Inactive)
REMARK    1  A    between atoms: C3_4  and  O_7 
ROOT
ATOM      1  C   UNL d   1      -1.452  -5.571  -1.085  0.00  0.00    -0.033 A 
ATOM      2  C1  UNL d   1      -0.354  -5.851  -1.901  0.00  0.00     0.039 A 
ATOM      3  C2  UNL d   1       0.915  -6.000  -1.340  0.00  0.00    -0.080 A 
ATOM      4  C3  UNL d   1       1.073  -5.868   0.037  0.00  0.00     0.150 A 
ATOM      5  C4  UNL d   1      -0.017  -5.593   0.857  0.00  0.00    -0.007 A 
ATOM      6  C5  UNL d   1      -1.284  -5.444   0.294  0.00  0.00     0.039 A 
ENDROOT
BRANCH   4   7
ATOM      7  O   UNL d   1       2.294  -6.000   0.630  0.00  0.00    -0.526 OA
ATOM      8  H5  UNL d   1       2.957  -6.160  -0.062  0.00  0.00     0.418 HD
ENDBRANCH   4   7
TORSDOF 1
ENDMDL
