MODEL 1
REMARK minimizedAffinity 4.08882618
REMARK minimizedRMSD -1
REMARK  1 active torsions:
REMARK  status: ('A' for Active; 'I' for Inactive)
REMARK    1  A    between atoms: C3_4  and  O_7 
ROOT
ATOM      1  C   UNL d   1      -1.538   5.621   1.383  0.00  0.00    -0.033 A 
ATOM      2  C1  UNL d   1      -2.299   6.000   2.490  0.00  0.00     0.039 A 
ATOM      3  C2  UNL d   1      -3.676   5.771   2.505  0.00  0.00    -0.080 A 
ATOM      4  C3  UNL d   1      -4.279   5.163   1.407  0.00  0.00     0.150 A 
ATOM      5  C4  UNL d   1      -3.527   4.780   0.302  0.00  0.00    -0.007 A 
ATOM      6  C5  UNL d   1      -2.152   5.010   0.289  0.00  0.00     0.039 A 
ENDROOT
BRANCH   4   7
ATOM      7  O   UNL d   1      -5.621   4.924   1.373  0.00  0.00    -0.526 OA
ATOM      8  H5  UNL d   1      -6.016   5.268   2.192  0.00  0.00     0.418 HD
ENDBRANCH   4   7
TORSDOF 1
ENDMDL
