MODEL 1
REMARK minimizedAffinity 0.0509643443
REMARK minimizedRMSD -1
REMARK  1 active torsions:
REMARK  status: ('A' for Active; 'I' for Inactive)
REMARK    1  A    between atoms: C3_4  and  O_7 
ROOT
ATOM      1  C   UNL d   1      -1.846  -0.816   1.803  0.00  0.00    -0.033 A 
ATOM      2  C1  UNL d   1      -1.900  -1.529   0.604  0.00  0.00     0.039 A 
ATOM      3  C2  UNL d   1      -3.049  -1.481  -0.188  0.00  0.00    -0.080 A 
ATOM      4  C3  UNL d   1      -4.135  -0.717   0.230  0.00  0.00     0.150 A 
ATOM      5  C4  UNL d   1      -4.087  -0.001   1.422  0.00  0.00    -0.007 A 
ATOM      6  C5  UNL d   1      -2.939  -0.051   2.211  0.00  0.00     0.039 A 
ENDROOT
BRANCH   4   7
ATOM      7  O   UNL d   1      -5.280  -0.644  -0.507  0.00  0.00    -0.526 OA
ATOM      8  H5  UNL d   1      -5.180  -1.211  -1.289  0.00  0.00     0.418 HD
ENDBRANCH   4   7
TORSDOF 1
ENDMDL
