MODEL 1
REMARK minimizedAffinity 7.32630396
REMARK minimizedRMSD -1
REMARK  1 active torsions:
REMARK  status: ('A' for Active; 'I' for Inactive)
REMARK    1  A    between atoms: C3_4  and  O_7 
ROOT
ATOM      1  C   UNL d   1      -3.810  -0.164  -0.669  0.00  0.00    -0.033 A 
ATOM      2  C1  UNL d   1      -2.673  -0.925  -0.392  0.00  0.00     0.039 A 
ATOM      3  C2  UNL d   1      -2.349  -1.246   0.928  0.00  0.00    -0.080 A 
ATOM      4  C3  UNL d   1      -3.171  -0.801   1.960  0.00  0.00     0.150 A 
ATOM      5  C4  UNL d   1      -4.307  -0.045   1.691  0.00  0.00    -0.007 A 
ATOM      6  C5  UNL d   1      -4.628   0.275   0.373  0.00  0.00     0.039 A 
ENDROOT
BRANCH   4   7
ATOM      7  O   UNL d   1      -2.893  -1.084   3.265  0.00  0.00    -0.526 OA
ATOM      8  H5  UNL d   1      -2.063  -1.588   3.300  0.00  0.00     0.418 HD
ENDBRANCH   4   7
TORSDOF 1
ENDMDL
