MODEL 1
REMARK minimizedAffinity 3.83962655
REMARK minimizedRMSD -1
REMARK  1 active torsions:
REMARK  status: ('A' for Active; 'I' for Inactive)
REMARK    1  A    between atoms: C3_4  and  O_7 
ROOT
ATOM      1  C   UNL d   1      -4.824  -0.668   0.231  0.00  0.00    -0.033 A 
ATOM      2  C1  UNL d   1      -4.941  -1.839   0.982  0.00  0.00     0.039 A 
ATOM      3  C2  UNL d   1      -4.113  -2.048   2.087  0.00  0.00    -0.080 A 
ATOM      4  C3  UNL d   1      -3.174  -1.079   2.430  0.00  0.00     0.150 A 
ATOM      5  C4  UNL d   1      -3.054   0.092   1.689  0.00  0.00    -0.007 A 
ATOM      6  C5  UNL d   1      -3.881   0.298   0.585  0.00  0.00     0.039 A 
ENDROOT
BRANCH   4   7
ATOM      7  O   UNL d   1      -2.341  -1.241   3.497  0.00  0.00    -0.526 OA
ATOM      8  H5  UNL d   1      -2.518  -2.108   3.897  0.00  0.00     0.418 HD
ENDBRANCH   4   7
TORSDOF 1
ENDMDL
