MODEL 1
REMARK minimizedAffinity 5.30645037
REMARK minimizedRMSD -1
REMARK  1 active torsions:
REMARK  status: ('A' for Active; 'I' for Inactive)
REMARK    1  A    between atoms: C3_4  and  O_7 
ROOT
ATOM      1  C   UNL d   1       3.784   0.753  -0.276  0.00  0.00    -0.033 A 
ATOM      2  C1  UNL d   1       2.686  -0.074  -0.030  0.00  0.00     0.039 A 
ATOM      3  C2  UNL d   1       1.473   0.479   0.385  0.00  0.00    -0.080 A 
ATOM      4  C3  UNL d   1       1.371   1.857   0.550  0.00  0.00     0.150 A 
ATOM      5  C4  UNL d   1       2.459   2.687   0.303  0.00  0.00    -0.007 A 
ATOM      6  C5  UNL d   1       3.670   2.134  -0.111  0.00  0.00     0.039 A 
ENDROOT
BRANCH   4   7
ATOM      7  O   UNL d   1       0.209   2.442   0.959  0.00  0.00    -0.526 OA
ATOM      8  H5  UNL d   1      -0.448   1.744   1.118  0.00  0.00     0.418 HD
ENDBRANCH   4   7
TORSDOF 1
ENDMDL
