MODEL 1
REMARK minimizedAffinity 0.884098709
REMARK minimizedRMSD -1
REMARK  1 active torsions:
REMARK  status: ('A' for Active; 'I' for Inactive)
REMARK    1  A    between atoms: C3_4  and  O_7 
ROOT
ATOM      1  C   UNL d   1      -1.798  -3.386   6.000  0.00  0.00    -0.033 A 
ATOM      2  C1  UNL d   1      -0.506  -2.856   5.998  0.00  0.00     0.039 A 
ATOM      3  C2  UNL d   1       0.600  -3.707   5.997  0.00  0.00    -0.080 A 
ATOM      4  C3  UNL d   1       0.402  -5.085   5.996  0.00  0.00     0.150 A 
ATOM      5  C4  UNL d   1      -0.882  -5.621   5.994  0.00  0.00    -0.007 A 
ATOM      6  C5  UNL d   1      -1.985  -4.769   5.996  0.00  0.00     0.039 A 
ENDROOT
BRANCH   4   7
ATOM      7  O   UNL d   1       1.451  -5.956   5.999  0.00  0.00    -0.526 OA
ATOM      8  H5  UNL d   1       2.276  -5.444   6.030  0.00  0.00     0.418 HD
ENDBRANCH   4   7
TORSDOF 1
ENDMDL
