MODEL 1
REMARK minimizedAffinity 8.21902466
REMARK minimizedRMSD -1
REMARK  2 active torsions:
REMARK  status: ('A' for Active; 'I' for Inactive)
REMARK    1  A    between atoms: C2'_3  and  C1'_4 
REMARK    2  A    between atoms: C1'_4  and  C1_5 
ROOT
ATOM      1  C1  I4B d   1       1.031  -0.577   3.237  0.00  0.00    -0.075 A 
ATOM      2  C2  I4B d   1       0.139  -1.489   3.744  0.00  0.00     0.003 A 
ATOM      3  C3  I4B d   1      -1.221  -1.450   3.353  0.00  0.00     0.002 A 
ATOM      4  C4  I4B d   1      -1.654  -0.457   2.499  0.00  0.00    -0.004 A 
ATOM      5  C5  I4B d   1      -0.745   0.453   1.968  0.00  0.00     0.002 A 
ATOM      6  C6  I4B d   1       0.609   0.386   2.329  0.00  0.00     0.003 A 
ENDROOT
BRANCH   1   7
ATOM      7  C1' I4B d   1       2.453  -0.627   3.697  0.00  0.00     0.060 C 
BRANCH   7   8
ATOM      8  C2' I4B d   1       3.291  -1.179   2.561  0.00  0.00    -0.013 C 
ATOM      9  C4' I4B d   1       3.927  -0.070   1.765  0.00  0.00     0.013 C 
ATOM     10  C3' I4B d   1       4.329  -2.086   3.151  0.00  0.00     0.013 C 
ENDBRANCH   7   8
ENDBRANCH   1   7
TORSDOF 2
ENDMDL
