MODEL 1
REMARK minimizedAffinity -4.04180527
REMARK minimizedRMSD -1
REMARK  2 active torsions:
REMARK  status: ('A' for Active; 'I' for Inactive)
REMARK    1  A    between atoms: C2'_3  and  C1'_4 
REMARK    2  A    between atoms: C1'_4  and  C1_5 
ROOT
ATOM      1  C1  I4B d   1      -0.009   0.116  -0.197  0.00  0.00    -0.075 A 
ATOM      2  C2  I4B d   1       1.120   0.571   0.437  0.00  0.00     0.003 A 
ATOM      3  C3  I4B d   1       1.225   0.496   1.847  0.00  0.00     0.002 A 
ATOM      4  C4  I4B d   1       0.163   0.010   2.583  0.00  0.00    -0.004 A 
ATOM      5  C5  I4B d   1      -0.971  -0.472   1.937  0.00  0.00     0.002 A 
ATOM      6  C6  I4B d   1      -1.054  -0.430   0.537  0.00  0.00     0.003 A 
ENDROOT
BRANCH   1   7
ATOM      7  C1' I4B d   1      -0.100   0.240  -1.685  0.00  0.00     0.060 C 
BRANCH   7   8
ATOM      8  C2' I4B d   1       0.245  -1.107  -2.288  0.00  0.00    -0.013 C 
ATOM      9  C4' I4B d   1      -0.932  -1.695  -3.020  0.00  0.00     0.013 C 
ATOM     10  C3' I4B d   1       1.415  -0.916  -3.207  0.00  0.00     0.013 C 
ENDBRANCH   7   8
ENDBRANCH   1   7
TORSDOF 2
ENDMDL
