MODEL 1
REMARK minimizedAffinity 8.75734138
REMARK minimizedRMSD -1
REMARK  2 active torsions:
REMARK  status: ('A' for Active; 'I' for Inactive)
REMARK    1  A    between atoms: C2'_3  and  C1'_4 
REMARK    2  A    between atoms: C1'_4  and  C1_5 
ROOT
ATOM      1  C1  I4B d   1      -2.046   0.426   0.391  0.00  0.00    -0.075 A 
ATOM      2  C2  I4B d   1      -1.395   0.334   1.596  0.00  0.00     0.003 A 
ATOM      3  C3  I4B d   1      -2.121   0.439   2.807  0.00  0.00     0.002 A 
ATOM      4  C4  I4B d   1      -3.478   0.685   2.767  0.00  0.00    -0.004 A 
ATOM      5  C5  I4B d   1      -4.140   0.755   1.545  0.00  0.00     0.002 A 
ATOM      6  C6  I4B d   1      -3.421   0.613   0.349  0.00  0.00     0.003 A 
ENDROOT
BRANCH   1   7
ATOM      7  C1' I4B d   1      -1.244   0.343  -0.869  0.00  0.00     0.060 C 
BRANCH   7   8
ATOM      8  C2' I4B d   1      -0.365   1.575  -0.945  0.00  0.00    -0.013 C 
ATOM      9  C4' I4B d   1       1.076   1.234  -0.669  0.00  0.00     0.013 C 
ATOM     10  C3' I4B d   1      -0.528   2.177  -2.309  0.00  0.00     0.013 C 
ENDBRANCH   7   8
ENDBRANCH   1   7
TORSDOF 2
ENDMDL
