MODEL 1
REMARK minimizedAffinity 7.46238661
REMARK minimizedRMSD -1
REMARK  2 active torsions:
REMARK  status: ('A' for Active; 'I' for Inactive)
REMARK    1  A    between atoms: C2'_3  and  C1'_4 
REMARK    2  A    between atoms: C1'_4  and  C1_5 
ROOT
ATOM      1  C1  I4B d   1      -1.743   0.374   1.950  0.00  0.00    -0.075 A 
ATOM      2  C2  I4B d   1      -2.754  -0.186   2.690  0.00  0.00     0.003 A 
ATOM      3  C3  I4B d   1      -4.079  -0.203   2.190  0.00  0.00     0.002 A 
ATOM      4  C4  I4B d   1      -4.355   0.392   0.976  0.00  0.00    -0.004 A 
ATOM      5  C5  I4B d   1      -3.324   0.940   0.217  0.00  0.00     0.002 A 
ATOM      6  C6  I4B d   1      -2.008   0.920   0.701  0.00  0.00     0.003 A 
ENDROOT
BRANCH   1   7
ATOM      7  C1' I4B d   1      -0.362   0.404   2.523  0.00  0.00     0.060 C 
BRANCH   7   8
ATOM      8  C2' I4B d   1       0.140   1.832   2.456  0.00  0.00    -0.013 C 
ATOM      9  C4' I4B d   1       0.617   2.306   3.803  0.00  0.00     0.013 C 
ATOM     10  C3' I4B d   1       1.243   1.887   1.441  0.00  0.00     0.013 C 
ENDBRANCH   7   8
ENDBRANCH   1   7
TORSDOF 2
ENDMDL
