MODEL 1
REMARK minimizedAffinity 5.17301607
REMARK minimizedRMSD -1
REMARK  2 active torsions:
REMARK  status: ('A' for Active; 'I' for Inactive)
REMARK    1  A    between atoms: C2'_3  and  C1'_4 
REMARK    2  A    between atoms: C1'_4  and  C1_5 
ROOT
ATOM      1  C1  I4B d   1       0.499   0.808   0.679  0.00  0.00    -0.075 A 
ATOM      2  C2  I4B d   1       0.931   0.001   1.702  0.00  0.00     0.003 A 
ATOM      3  C3  I4B d   1       2.283   0.041   2.120  0.00  0.00     0.002 A 
ATOM      4  C4  I4B d   1       3.175   0.860   1.458  0.00  0.00    -0.004 A 
ATOM      5  C5  I4B d   1       2.731   1.694   0.436  0.00  0.00     0.002 A 
ATOM      6  C6  I4B d   1       1.382   1.678   0.052  0.00  0.00     0.003 A 
ENDROOT
BRANCH   1   7
ATOM      7  C1' I4B d   1      -0.928   0.716   0.241  0.00  0.00     0.060 C 
BRANCH   7   8
ATOM      8  C2' I4B d   1      -1.024  -0.366  -0.815  0.00  0.00    -0.013 C 
ATOM      9  C4' I4B d   1       0.340  -0.884  -1.190  0.00  0.00     0.013 C 
ATOM     10  C3' I4B d   1      -1.891  -1.464  -0.275  0.00  0.00     0.013 C 
ENDBRANCH   7   8
ENDBRANCH   1   7
TORSDOF 2
ENDMDL
