MODEL 1
REMARK minimizedAffinity 0.816793144
REMARK minimizedRMSD -1
REMARK  2 active torsions:
REMARK  status: ('A' for Active; 'I' for Inactive)
REMARK    1  A    between atoms: C2'_3  and  C1'_4 
REMARK    2  A    between atoms: C1'_4  and  C1_5 
ROOT
ATOM      1  C1  I4B d   1      -0.421   0.489   2.718  0.00  0.00    -0.075 A 
ATOM      2  C2  I4B d   1      -0.970   0.271   1.479  0.00  0.00     0.003 A 
ATOM      3  C3  I4B d   1      -0.134   0.116   0.347  0.00  0.00     0.002 A 
ATOM      4  C4  I4B d   1       1.233   0.236   0.490  0.00  0.00    -0.004 A 
ATOM      5  C5  I4B d   1       1.789   0.434   1.750  0.00  0.00     0.002 A 
ATOM      6  C6  I4B d   1       0.958   0.549   2.874  0.00  0.00     0.003 A 
ENDROOT
BRANCH   1   7
ATOM      7  C1' I4B d   1      -1.334   0.680   3.888  0.00  0.00     0.060 C 
BRANCH   7   8
ATOM      8  C2' I4B d   1      -2.171   1.916   3.629  0.00  0.00    -0.013 C 
ATOM      9  C4' I4B d   1      -3.486   1.847   4.359  0.00  0.00     0.013 C 
ATOM     10  C3' I4B d   1      -1.375   3.113   4.059  0.00  0.00     0.013 C 
ENDBRANCH   7   8
ENDBRANCH   1   7
TORSDOF 2
ENDMDL
