MODEL 1
REMARK minimizedAffinity 2.54348683
REMARK minimizedRMSD -1
REMARK  2 active torsions:
REMARK  status: ('A' for Active; 'I' for Inactive)
REMARK    1  A    between atoms: C2'_3  and  C1'_4 
REMARK    2  A    between atoms: C1'_4  and  C1_5 
ROOT
ATOM      1  C1  I4B d   1       0.275   0.508   0.051  0.00  0.00    -0.075 A 
ATOM      2  C2  I4B d   1      -0.792   0.734   0.884  0.00  0.00     0.003 A 
ATOM      3  C3  I4B d   1      -0.629   0.655   2.289  0.00  0.00     0.002 A 
ATOM      4  C4  I4B d   1       0.597   0.299   2.812  0.00  0.00    -0.004 A 
ATOM      5  C5  I4B d   1       1.684   0.091   1.966  0.00  0.00     0.002 A 
ATOM      6  C6  I4B d   1       1.525   0.208   0.578  0.00  0.00     0.003 A 
ENDROOT
BRANCH   1   7
ATOM      7  C1' I4B d   1       0.060   0.567  -1.428  0.00  0.00     0.060 C 
BRANCH   7   8
ATOM      8  C2' I4B d   1       0.903  -0.518  -2.067  0.00  0.00    -0.013 C 
ATOM      9  C4' I4B d   1       0.041  -1.537  -2.765  0.00  0.00     0.013 C 
ATOM     10  C3' I4B d   1       1.851   0.137  -3.025  0.00  0.00     0.013 C 
ENDBRANCH   7   8
ENDBRANCH   1   7
TORSDOF 2
ENDMDL
