MODEL 1
REMARK minimizedAffinity -4.21143627
REMARK minimizedRMSD -1
REMARK  2 active torsions:
REMARK  status: ('A' for Active; 'I' for Inactive)
REMARK    1  A    between atoms: C2'_3  and  C1'_4 
REMARK    2  A    between atoms: C1'_4  and  C1_5 
ROOT
ATOM      1  C1  I4B d   1      -0.308   0.126  -0.577  0.00  0.00    -0.075 A 
ATOM      2  C2  I4B d   1      -1.663   0.111  -0.357  0.00  0.00     0.003 A 
ATOM      3  C3  I4B d   1      -2.171  -0.086   0.951  0.00  0.00     0.002 A 
ATOM      4  C4  I4B d   1      -1.295  -0.313   1.993  0.00  0.00    -0.004 A 
ATOM      5  C5  I4B d   1       0.078  -0.276   1.771  0.00  0.00     0.002 A 
ATOM      6  C6  I4B d   1       0.576  -0.042   0.481  0.00  0.00     0.003 A 
ENDROOT
BRANCH   1   7
ATOM      7  C1' I4B d   1       0.193   0.304  -1.975  0.00  0.00     0.060 C 
BRANCH   7   8
ATOM      8  C2' I4B d   1       0.642  -1.050  -2.486  0.00  0.00    -0.013 C 
ATOM      9  C4' I4B d   1      -0.362  -1.631  -3.447  0.00  0.00     0.013 C 
ATOM     10  C3' I4B d   1       1.981  -0.878  -3.139  0.00  0.00     0.013 C 
ENDBRANCH   7   8
ENDBRANCH   1   7
TORSDOF 2
ENDMDL
