MODEL 1
REMARK minimizedAffinity 1.46010625
REMARK minimizedRMSD -1
REMARK  2 active torsions:
REMARK  status: ('A' for Active; 'I' for Inactive)
REMARK    1  A    between atoms: C2'_3  and  C1'_4 
REMARK    2  A    between atoms: C1'_4  and  C1_5 
ROOT
ATOM      1  C1  I4B d   1       0.269   0.273   1.828  0.00  0.00    -0.075 A 
ATOM      2  C2  I4B d   1      -0.621  -0.004   0.821  0.00  0.00     0.003 A 
ATOM      3  C3  I4B d   1      -0.273   0.248  -0.529  0.00  0.00     0.002 A 
ATOM      4  C4  I4B d   1       0.948   0.821  -0.819  0.00  0.00    -0.004 A 
ATOM      5  C5  I4B d   1       1.859   1.080   0.201  0.00  0.00     0.002 A 
ATOM      6  C6  I4B d   1       1.522   0.794   1.532  0.00  0.00     0.003 A 
ENDROOT
BRANCH   1   7
ATOM      7  C1' I4B d   1      -0.145   0.026   3.244  0.00  0.00     0.060 C 
BRANCH   7   8
ATOM      8  C2' I4B d   1      -1.048  -1.191   3.260  0.00  0.00    -0.013 C 
ATOM      9  C4' I4B d   1      -0.311  -2.423   2.805  0.00  0.00     0.013 C 
ATOM     10  C3' I4B d   1      -1.572  -1.359   4.655  0.00  0.00     0.013 C 
ENDBRANCH   7   8
ENDBRANCH   1   7
TORSDOF 2
ENDMDL
