MODEL 1
REMARK minimizedAffinity 9.68978214
REMARK minimizedRMSD -1
REMARK  2 active torsions:
REMARK  status: ('A' for Active; 'I' for Inactive)
REMARK    1  A    between atoms: C2'_3  and  C1'_4 
REMARK    2  A    between atoms: C1'_4  and  C1_5 
ROOT
ATOM      1  C1  I4B d   1       1.112  -1.813   2.983  0.00  0.00    -0.075 A 
ATOM      2  C2  I4B d   1      -0.019  -1.125   2.621  0.00  0.00     0.003 A 
ATOM      3  C3  I4B d   1      -1.058  -1.782   1.919  0.00  0.00     0.002 A 
ATOM      4  C4  I4B d   1      -0.904  -3.104   1.557  0.00  0.00    -0.004 A 
ATOM      5  C5  I4B d   1       0.234  -3.806   1.944  0.00  0.00     0.002 A 
ATOM      6  C6  I4B d   1       1.244  -3.160   2.672  0.00  0.00     0.003 A 
ENDROOT
BRANCH   1   7
ATOM      7  C1' I4B d   1       2.205  -1.079   3.695  0.00  0.00     0.060 C 
BRANCH   7   8
ATOM      8  C2' I4B d   1       1.853  -1.033   5.168  0.00  0.00    -0.013 C 
ATOM      9  C4' I4B d   1       2.864  -1.784   5.993  0.00  0.00     0.013 C 
ATOM     10  C3' I4B d   1       1.778   0.406   5.581  0.00  0.00     0.013 C 
ENDBRANCH   7   8
ENDBRANCH   1   7
TORSDOF 2
ENDMDL
