MODEL 1
REMARK minimizedAffinity 5.74027967
REMARK minimizedRMSD -1
REMARK  2 active torsions:
REMARK  status: ('A' for Active; 'I' for Inactive)
REMARK    1  A    between atoms: C2'_3  and  C1'_4 
REMARK    2  A    between atoms: C1'_4  and  C1_5 
ROOT
ATOM      1  C1  I4B d   1      -3.197   2.114  -2.964  0.00  0.00    -0.075 A 
ATOM      2  C2  I4B d   1      -3.093   1.941  -1.606  0.00  0.00     0.003 A 
ATOM      3  C3  I4B d   1      -2.560   0.739  -1.080  0.00  0.00     0.002 A 
ATOM      4  C4  I4B d   1      -2.193  -0.276  -1.940  0.00  0.00    -0.004 A 
ATOM      5  C5  I4B d   1      -2.278  -0.089  -3.317  0.00  0.00     0.002 A 
ATOM      6  C6  I4B d   1      -2.772   1.118  -3.833  0.00  0.00     0.003 A 
ENDROOT
BRANCH   1   7
ATOM      7  C1' I4B d   1      -3.796   3.383  -3.485  0.00  0.00     0.060 C 
BRANCH   7   8
ATOM      8  C2' I4B d   1      -4.408   4.125  -2.314  0.00  0.00    -0.013 C 
ATOM      9  C4' I4B d   1      -3.904   5.543  -2.244  0.00  0.00     0.013 C 
ATOM     10  C3' I4B d   1      -5.899   4.087  -2.470  0.00  0.00     0.013 C 
ENDBRANCH   7   8
ENDBRANCH   1   7
TORSDOF 2
ENDMDL
