MODEL 1
REMARK minimizedAffinity 9.58464909
REMARK minimizedRMSD -1
REMARK  2 active torsions:
REMARK  status: ('A' for Active; 'I' for Inactive)
REMARK    1  A    between atoms: C2'_3  and  C1'_4 
REMARK    2  A    between atoms: C1'_4  and  C1_5 
ROOT
ATOM      1  C1  I4B d   1      -2.932  -0.116  -3.528  0.00  0.00    -0.075 A 
ATOM      2  C2  I4B d   1      -1.851  -0.846  -3.100  0.00  0.00     0.003 A 
ATOM      3  C3  I4B d   1      -1.978  -2.237  -2.869  0.00  0.00     0.002 A 
ATOM      4  C4  I4B d   1      -3.207  -2.844  -3.029  0.00  0.00    -0.004 A 
ATOM      5  C5  I4B d   1      -4.296  -2.106  -3.485  0.00  0.00     0.002 A 
ATOM      6  C6  I4B d   1      -4.155  -0.736  -3.748  0.00  0.00     0.003 A 
ENDROOT
BRANCH   1   7
ATOM      7  C1' I4B d   1      -2.771   1.358  -3.730  0.00  0.00     0.060 C 
BRANCH   7   8
ATOM      8  C2' I4B d   1      -3.638   2.066  -2.710  0.00  0.00    -0.013 C 
ATOM      9  C4' I4B d   1      -2.977   2.093  -1.357  0.00  0.00     0.013 C 
ATOM     10  C3' I4B d   1      -3.902   3.455  -3.211  0.00  0.00     0.013 C 
ENDBRANCH   7   8
ENDBRANCH   1   7
TORSDOF 2
ENDMDL
