MODEL 1
REMARK minimizedAffinity 7.6214633
REMARK minimizedRMSD -1
REMARK  2 active torsions:
REMARK  status: ('A' for Active; 'I' for Inactive)
REMARK    1  A    between atoms: C2'_3  and  C1'_4 
REMARK    2  A    between atoms: C1'_4  and  C1_5 
ROOT
ATOM      1  C1  I4B d   1      -2.072   0.152  -1.611  0.00  0.00    -0.075 A 
ATOM      2  C2  I4B d   1      -2.471   1.168  -2.443  0.00  0.00     0.003 A 
ATOM      3  C3  I4B d   1      -2.853   0.888  -3.778  0.00  0.00     0.002 A 
ATOM      4  C4  I4B d   1      -2.773  -0.406  -4.250  0.00  0.00    -0.004 A 
ATOM      5  C5  I4B d   1      -2.390  -1.438  -3.398  0.00  0.00     0.002 A 
ATOM      6  C6  I4B d   1      -2.049  -1.160  -2.067  0.00  0.00     0.003 A 
ENDROOT
BRANCH   1   7
ATOM      7  C1' I4B d   1      -1.644   0.487  -0.218  0.00  0.00     0.060 C 
BRANCH   7   8
ATOM      8  C2' I4B d   1      -2.300  -0.502   0.724  0.00  0.00    -0.013 C 
ATOM      9  C4' I4B d   1      -1.281  -1.415   1.353  0.00  0.00     0.013 C 
ATOM     10  C3' I4B d   1      -3.048   0.276   1.766  0.00  0.00     0.013 C 
ENDBRANCH   7   8
ENDBRANCH   1   7
TORSDOF 2
ENDMDL
