MODEL 1
REMARK minimizedAffinity 23.0201435
REMARK minimizedRMSD -1
REMARK  2 active torsions:
REMARK  status: ('A' for Active; 'I' for Inactive)
REMARK    1  A    between atoms: C2'_3  and  C1'_4 
REMARK    2  A    between atoms: C1'_4  and  C1_5 
ROOT
ATOM      1  C1  I4B d   1      -1.444   0.753  -1.576  0.00  0.00    -0.075 A 
ATOM      2  C2  I4B d   1      -2.190   1.677  -2.265  0.00  0.00     0.003 A 
ATOM      3  C3  I4B d   1      -3.040   1.263  -3.319  0.00  0.00     0.002 A 
ATOM      4  C4  I4B d   1      -3.076  -0.068  -3.681  0.00  0.00    -0.004 A 
ATOM      5  C5  I4B d   1      -2.336  -1.006  -2.967  0.00  0.00     0.002 A 
ATOM      6  C6  I4B d   1      -1.525  -0.595  -1.899  0.00  0.00     0.003 A 
ENDROOT
BRANCH   1   7
ATOM      7  C1' I4B d   1      -0.532   1.229  -0.490  0.00  0.00     0.060 C 
BRANCH   7   8
ATOM      8  C2' I4B d   1      -1.386   1.842   0.601  0.00  0.00    -0.013 C 
ATOM      9  C4' I4B d   1      -1.934   0.786   1.524  0.00  0.00     0.013 C 
ATOM     10  C3' I4B d   1      -0.541   2.829   1.350  0.00  0.00     0.013 C 
ENDBRANCH   7   8
ENDBRANCH   1   7
TORSDOF 2
ENDMDL
