MODEL 1
REMARK minimizedAffinity 5.46203661
REMARK minimizedRMSD -1
REMARK  2 active torsions:
REMARK  status: ('A' for Active; 'I' for Inactive)
REMARK    1  A    between atoms: C2'_3  and  C1'_4 
REMARK    2  A    between atoms: C1'_4  and  C1_5 
ROOT
ATOM      1  C1  I4B d   1      -2.821   2.254  -3.115  0.00  0.00    -0.075 A 
ATOM      2  C2  I4B d   1      -2.834   1.256  -4.058  0.00  0.00     0.003 A 
ATOM      3  C3  I4B d   1      -2.314  -0.024  -3.748  0.00  0.00     0.002 A 
ATOM      4  C4  I4B d   1      -1.749  -0.247  -2.509  0.00  0.00    -0.004 A 
ATOM      5  C5  I4B d   1      -1.757   0.759  -1.547  0.00  0.00     0.002 A 
ATOM      6  C6  I4B d   1      -2.308   2.013  -1.847  0.00  0.00     0.003 A 
ENDROOT
BRANCH   1   7
ATOM      7  C1' I4B d   1      -3.348   3.603  -3.486  0.00  0.00     0.060 C 
BRANCH   7   8
ATOM      8  C2' I4B d   1      -3.929   4.237  -2.238  0.00  0.00    -0.013 C 
ATOM      9  C4' I4B d   1      -3.639   5.714  -2.191  0.00  0.00     0.013 C 
ATOM     10  C3' I4B d   1      -5.405   3.974  -2.230  0.00  0.00     0.013 C 
ENDBRANCH   7   8
ENDBRANCH   1   7
TORSDOF 2
ENDMDL
