MODEL 1
REMARK minimizedAffinity 4.46811152
REMARK minimizedRMSD -1
REMARK  1 active torsions:
REMARK  status: ('A' for Active; 'I' for Inactive)
REMARK    1  A    between atoms: C3_4  and  O_7 
ROOT
ATOM      1  C   UNL d   1      -2.112   1.845  -0.350  0.00  0.00    -0.033 A 
ATOM      2  C1  UNL d   1      -2.849   2.055  -1.517  0.00  0.00     0.039 A 
ATOM      3  C2  UNL d   1      -3.128   0.986  -2.370  0.00  0.00    -0.080 A 
ATOM      4  C3  UNL d   1      -2.666  -0.286  -2.045  0.00  0.00     0.150 A 
ATOM      5  C4  UNL d   1      -1.935  -0.503  -0.882  0.00  0.00    -0.007 A 
ATOM      6  C5  UNL d   1      -1.657   0.566  -0.031  0.00  0.00     0.039 A 
ENDROOT
BRANCH   4   7
ATOM      7  O   UNL d   1      -2.909  -1.360  -2.849  0.00  0.00    -0.526 OA
ATOM      8  H5  UNL d   1      -3.400  -1.054  -3.630  0.00  0.00     0.418 HD
ENDBRANCH   4   7
TORSDOF 1
ENDMDL
