MODEL 1
REMARK minimizedAffinity -0.190156937
REMARK minimizedRMSD -1
REMARK  1 active torsions:
REMARK  status: ('A' for Active; 'I' for Inactive)
REMARK    1  A    between atoms: C3_4  and  O_7 
ROOT
ATOM      1  C   UNL d   1       1.890  -3.942   3.455  0.00  0.00    -0.033 A 
ATOM      2  C1  UNL d   1       2.814  -3.511   2.500  0.00  0.00     0.039 A 
ATOM      3  C2  UNL d   1       2.798  -2.187   2.060  0.00  0.00    -0.080 A 
ATOM      4  C3  UNL d   1       1.857  -1.304   2.581  0.00  0.00     0.150 A 
ATOM      5  C4  UNL d   1       0.937  -1.725   3.536  0.00  0.00    -0.007 A 
ATOM      6  C5  UNL d   1       0.953  -3.048   3.974  0.00  0.00     0.039 A 
ENDROOT
BRANCH   4   7
ATOM      7  O   UNL d   1       1.800  -0.002   2.178  0.00  0.00    -0.526 OA
ATOM      8  H5  UNL d   1       2.477   0.138   1.495  0.00  0.00     0.418 HD
ENDBRANCH   4   7
TORSDOF 1
ENDMDL
