MODEL 1
REMARK minimizedAffinity 0.157937497
REMARK minimizedRMSD -1
REMARK  1 active torsions:
REMARK  status: ('A' for Active; 'I' for Inactive)
REMARK    1  A    between atoms: C3_4  and  O_7 
ROOT
ATOM      1  C   UNL d   1       5.389  -5.985  -3.554  0.00  0.00    -0.033 A 
ATOM      2  C1  UNL d   1       5.459  -5.952  -4.948  0.00  0.00     0.039 A 
ATOM      3  C2  UNL d   1       4.288  -5.936  -5.708  0.00  0.00    -0.080 A 
ATOM      4  C3  UNL d   1       3.055  -5.953  -5.063  0.00  0.00     0.150 A 
ATOM      5  C4  UNL d   1       2.977  -5.982  -3.674  0.00  0.00    -0.007 A 
ATOM      6  C5  UNL d   1       4.147  -5.999  -2.917  0.00  0.00     0.039 A 
ENDROOT
BRANCH   4   7
ATOM      7  O   UNL d   1       1.884  -5.943  -5.762  0.00  0.00    -0.526 OA
ATOM      8  H5  UNL d   1       2.093  -5.952  -6.711  0.00  0.00     0.418 HD
ENDBRANCH   4   7
TORSDOF 1
ENDMDL
