MODEL 1
REMARK minimizedAffinity -2.04978085
REMARK minimizedRMSD -1
REMARK  1 active torsions:
REMARK  status: ('A' for Active; 'I' for Inactive)
REMARK    1  A    between atoms: C3_4  and  O_7 
ROOT
ATOM      1  C   UNL d   1       5.856  -5.868  -3.429  0.00  0.00    -0.033 A 
ATOM      2  C1  UNL d   1       4.668  -5.904  -2.695  0.00  0.00     0.039 A 
ATOM      3  C2  UNL d   1       3.439  -5.949  -3.355  0.00  0.00    -0.080 A 
ATOM      4  C3  UNL d   1       3.411  -5.960  -4.747  0.00  0.00     0.150 A 
ATOM      5  C4  UNL d   1       4.590  -5.928  -5.484  0.00  0.00    -0.007 A 
ATOM      6  C5  UNL d   1       5.817  -5.882  -4.823  0.00  0.00     0.039 A 
ENDROOT
BRANCH   4   7
ATOM      7  O   UNL d   1       2.235  -5.999  -5.436  0.00  0.00    -0.526 OA
ATOM      8  H5  UNL d   1       1.503  -5.988  -4.796  0.00  0.00     0.418 HD
ENDBRANCH   4   7
TORSDOF 1
ENDMDL
