MODEL 1
REMARK minimizedAffinity 3.25963759
REMARK minimizedRMSD -1
REMARK  1 active torsions:
REMARK  status: ('A' for Active; 'I' for Inactive)
REMARK    1  A    between atoms: C3_4  and  O_7 
ROOT
ATOM      1  C   UNL d   1      -3.302   1.752  -2.896  0.00  0.00    -0.033 A 
ATOM      2  C1  UNL d   1      -3.763   1.922  -4.203  0.00  0.00     0.039 A 
ATOM      3  C2  UNL d   1      -3.823   0.830  -5.071  0.00  0.00    -0.080 A 
ATOM      4  C3  UNL d   1      -3.421  -0.424  -4.621  0.00  0.00     0.150 A 
ATOM      5  C4  UNL d   1      -2.965  -0.602  -3.319  0.00  0.00    -0.007 A 
ATOM      6  C5  UNL d   1      -2.905   0.490  -2.453  0.00  0.00     0.039 A 
ENDROOT
BRANCH   4   7
ATOM      7  O   UNL d   1      -3.458  -1.518  -5.433  0.00  0.00    -0.526 OA
ATOM      8  H5  UNL d   1      -3.767  -1.239  -6.311  0.00  0.00     0.418 HD
ENDBRANCH   4   7
TORSDOF 1
ENDMDL
