MODEL 1
REMARK minimizedAffinity 4.28686047
REMARK minimizedRMSD -1
REMARK  1 active torsions:
REMARK  status: ('A' for Active; 'I' for Inactive)
REMARK    1  A    between atoms: C3_4  and  O_7 
ROOT
ATOM      1  C   UNL d   1       1.187  -2.572   3.557  0.00  0.00    -0.033 A 
ATOM      2  C1  UNL d   1       1.446  -3.754   4.254  0.00  0.00     0.039 A 
ATOM      3  C2  UNL d   1       2.714  -4.337   4.196  0.00  0.00    -0.080 A 
ATOM      4  C3  UNL d   1       3.711  -3.728   3.439  0.00  0.00     0.150 A 
ATOM      5  C4  UNL d   1       3.461  -2.549   2.745  0.00  0.00    -0.007 A 
ATOM      6  C5  UNL d   1       2.194  -1.969   2.803  0.00  0.00     0.039 A 
ENDROOT
BRANCH   4   7
ATOM      7  O   UNL d   1       4.963  -4.262   3.348  0.00  0.00    -0.526 OA
ATOM      8  H5  UNL d   1       4.981  -5.091   3.855  0.00  0.00     0.418 HD
ENDBRANCH   4   7
TORSDOF 1
ENDMDL
