MODEL 1
REMARK minimizedAffinity 4.26481915
REMARK minimizedRMSD -1
REMARK  1 active torsions:
REMARK  status: ('A' for Active; 'I' for Inactive)
REMARK    1  A    between atoms: C3_4  and  O_7 
ROOT
ATOM      1  C   UNL d   1       1.787  -5.961  -3.100  0.00  0.00    -0.033 A 
ATOM      2  C1  UNL d   1       2.571  -5.987  -1.945  0.00  0.00     0.039 A 
ATOM      3  C2  UNL d   1       3.964  -5.999  -2.045  0.00  0.00    -0.080 A 
ATOM      4  C3  UNL d   1       4.559  -5.983  -3.303  0.00  0.00     0.150 A 
ATOM      5  C4  UNL d   1       3.785  -5.954  -4.458  0.00  0.00    -0.007 A 
ATOM      6  C5  UNL d   1       2.394  -5.943  -4.357  0.00  0.00     0.039 A 
ENDROOT
BRANCH   4   7
ATOM      7  O   UNL d   1       5.915  -5.999  -3.450  0.00  0.00    -0.526 OA
ATOM      8  H5  UNL d   1       6.320  -6.048  -2.568  0.00  0.00     0.418 HD
ENDBRANCH   4   7
TORSDOF 1
ENDMDL
