MODEL 1
REMARK minimizedAffinity 3.99837232
REMARK minimizedRMSD -1
REMARK  0 active torsions:
REMARK  status: ('A' for Active; 'I' for Inactive)
ROOT
ATOM      1  C1  BNZ d   1      -1.600   2.338   2.508  0.00  0.00     0.000 A 
ATOM      2  C2  BNZ d   1      -1.944   2.939   1.327  0.00  0.00     0.000 A 
ATOM      3  C3  BNZ d   1      -0.984   3.331   0.436  0.00  0.00     0.000 A 
ATOM      4  C4  BNZ d   1       0.317   3.158   0.745  0.00  0.00     0.000 A 
ATOM      5  C5  BNZ d   1       0.680   2.562   1.936  0.00  0.00     0.000 A 
ATOM      6  C6  BNZ d   1      -0.290   2.134   2.813  0.00  0.00     0.000 A 
ENDROOT
TORSDOF 0
ENDMDL
