MODEL 1
REMARK minimizedAffinity 8.83432293
REMARK minimizedRMSD -1
REMARK  0 active torsions:
REMARK  status: ('A' for Active; 'I' for Inactive)
ROOT
ATOM      1  C1  BNZ d   1      -0.271  -0.308   4.084  0.00  0.00     0.000 A 
ATOM      2  C2  BNZ d   1       0.962  -0.905   4.106  0.00  0.00     0.000 A 
ATOM      3  C3  BNZ d   1       1.268  -1.844   5.051  0.00  0.00     0.000 A 
ATOM      4  C4  BNZ d   1       0.357  -2.155   5.995  0.00  0.00     0.000 A 
ATOM      5  C5  BNZ d   1      -0.887  -1.556   5.992  0.00  0.00     0.000 A 
ATOM      6  C6  BNZ d   1      -1.205  -0.640   5.016  0.00  0.00     0.000 A 
ENDROOT
TORSDOF 0
ENDMDL
