MODEL 1
REMARK minimizedAffinity 2.67238951
REMARK minimizedRMSD -1
REMARK  0 active torsions:
REMARK  status: ('A' for Active; 'I' for Inactive)
ROOT
ATOM      1  C1  BNZ d   1       5.944  -3.200  -0.927  0.00  0.00     0.000 A 
ATOM      2  C2  BNZ d   1       5.001  -3.829  -0.157  0.00  0.00     0.000 A 
ATOM      3  C3  BNZ d   1       3.805  -3.227   0.115  0.00  0.00     0.000 A 
ATOM      4  C4  BNZ d   1       3.569  -1.982  -0.347  0.00  0.00     0.000 A 
ATOM      5  C5  BNZ d   1       4.512  -1.332  -1.117  0.00  0.00     0.000 A 
ATOM      6  C6  BNZ d   1       5.700  -1.956  -1.422  0.00  0.00     0.000 A 
ENDROOT
TORSDOF 0
ENDMDL
