MODEL 1
REMARK minimizedAffinity 7.75460005
REMARK minimizedRMSD -1
REMARK  0 active torsions:
REMARK  status: ('A' for Active; 'I' for Inactive)
ROOT
ATOM      1  C1  BNZ d   1      -1.661   1.258   2.258  0.00  0.00     0.000 A 
ATOM      2  C2  BNZ d   1      -2.056   1.522   0.973  0.00  0.00     0.000 A 
ATOM      3  C3  BNZ d   1      -1.189   2.081   0.076  0.00  0.00     0.000 A 
ATOM      4  C4  BNZ d   1       0.056   2.411   0.474  0.00  0.00     0.000 A 
ATOM      5  C5  BNZ d   1       0.467   2.159   1.768  0.00  0.00     0.000 A 
ATOM      6  C6  BNZ d   1      -0.396   1.561   2.658  0.00  0.00     0.000 A 
ENDROOT
TORSDOF 0
ENDMDL
