MODEL 1
REMARK minimizedAffinity 1.64606273
REMARK minimizedRMSD -1
REMARK  0 active torsions:
REMARK  status: ('A' for Active; 'I' for Inactive)
ROOT
ATOM      1  C1  BNZ d   1       3.333  -1.778  -0.184  0.00  0.00     0.000 A 
ATOM      2  C2  BNZ d   1       4.226  -1.020  -0.893  0.00  0.00     0.000 A 
ATOM      3  C3  BNZ d   1       5.344  -1.585  -1.440  0.00  0.00     0.000 A 
ATOM      4  C4  BNZ d   1       5.588  -2.897  -1.244  0.00  0.00     0.000 A 
ATOM      5  C5  BNZ d   1       4.702  -3.672  -0.523  0.00  0.00     0.000 A 
ATOM      6  C6  BNZ d   1       3.558  -3.108  -0.007  0.00  0.00     0.000 A 
ENDROOT
TORSDOF 0
ENDMDL
