MODEL 1
REMARK minimizedAffinity -2.17633271
REMARK minimizedRMSD -1
REMARK  1 active torsions:
REMARK  status: ('A' for Active; 'I' for Inactive)
REMARK    1  A    between atoms: N_2  and  C1_3 
ROOT
ATOM      1  C1  UNL d   1      -0.435   0.318  -0.047  0.00  0.00     0.143 A 
ATOM      2  C2  UNL d   1       0.886   0.026  -0.401  0.00  0.00    -0.057 A 
ATOM      3  C3  UNL d   1       1.505  -1.159   0.016  0.00  0.00     0.033 A 
ATOM      4  C4  UNL d   1       0.819  -2.061   0.822  0.00  0.00    -0.042 A 
ATOM      5  C5  UNL d   1      -0.487  -1.780   1.207  0.00  0.00     0.033 A 
ATOM      6  C6  UNL d   1      -1.101  -0.598   0.781  0.00  0.00    -0.057 A 
ENDROOT
BRANCH   1   7
ATOM      7  N   UNL d   1      -1.073   1.524  -0.349  0.00  0.00    -0.732 N 
ATOM      8  C   UNL d   1      -1.809   1.680  -1.585  0.00  0.00     0.284 C 
ATOM      9  H3  UNL d   1      -1.531   1.935   0.462  0.00  0.00     0.395 HD
ENDBRANCH   1   7
TORSDOF 1
ENDMDL
