MODEL 1
REMARK minimizedAffinity -2.30378056
REMARK minimizedRMSD -1
REMARK  1 active torsions:
REMARK  status: ('A' for Active; 'I' for Inactive)
REMARK    1  A    between atoms: N_2  and  C1_3 
ROOT
ATOM      1  C1  UNL d   1       0.345  -0.581  -0.509  0.00  0.00     0.143 A 
ATOM      2  C2  UNL d   1       0.138  -1.965  -0.526  0.00  0.00    -0.057 A 
ATOM      3  C3  UNL d   1       1.029  -2.840   0.108  0.00  0.00     0.033 A 
ATOM      4  C4  UNL d   1       2.162  -2.346   0.747  0.00  0.00    -0.042 A 
ATOM      5  C5  UNL d   1       2.400  -0.976   0.755  0.00  0.00     0.033 A 
ATOM      6  C6  UNL d   1       1.503  -0.107   0.126  0.00  0.00    -0.057 A 
ENDROOT
BRANCH   1   7
ATOM      7  N   UNL d   1      -0.451   0.332  -1.204  0.00  0.00    -0.732 N 
ATOM      8  C   UNL d   1      -0.703   1.651  -0.664  0.00  0.00     0.284 C 
ATOM      9  H3  UNL d   1      -0.272   0.321  -2.206  0.00  0.00     0.395 HD
ENDBRANCH   1   7
TORSDOF 1
ENDMDL
