MODEL 1
REMARK minimizedAffinity -3.94430923
REMARK minimizedRMSD -1
REMARK  1 active torsions:
REMARK  status: ('A' for Active; 'I' for Inactive)
REMARK    1  A    between atoms: N_2  and  C1_3 
ROOT
ATOM      1  C1  UNL d   1       1.204  -1.161   0.123  0.00  0.00     0.143 A 
ATOM      2  C2  UNL d   1      -0.108  -1.009   0.584  0.00  0.00    -0.057 A 
ATOM      3  C3  UNL d   1      -0.863   0.127   0.266  0.00  0.00     0.033 A 
ATOM      4  C4  UNL d   1      -0.306   1.147  -0.497  0.00  0.00    -0.042 A 
ATOM      5  C5  UNL d   1       1.005   1.029  -0.945  0.00  0.00     0.033 A 
ATOM      6  C6  UNL d   1       1.751  -0.110  -0.630  0.00  0.00    -0.057 A 
ENDROOT
BRANCH   1   7
ATOM      7  N   UNL d   1       2.038  -2.221   0.487  0.00  0.00    -0.732 N 
ATOM      8  C   UNL d   1       1.519  -3.344   1.237  0.00  0.00     0.284 C 
ATOM      9  H3  UNL d   1       2.684  -2.480  -0.256  0.00  0.00     0.395 HD
ENDBRANCH   1   7
TORSDOF 1
ENDMDL
