MODEL 1
REMARK minimizedAffinity -2.89806581
REMARK minimizedRMSD -1
REMARK  1 active torsions:
REMARK  status: ('A' for Active; 'I' for Inactive)
REMARK    1  A    between atoms: N_2  and  C1_3 
ROOT
ATOM      1  C1  UNL d   1      -0.123   0.391  -0.523  0.00  0.00     0.143 A 
ATOM      2  C2  UNL d   1      -0.690  -0.585   0.303  0.00  0.00    -0.057 A 
ATOM      3  C3  UNL d   1       0.069  -1.658   0.786  0.00  0.00     0.033 A 
ATOM      4  C4  UNL d   1       1.407  -1.789   0.426  0.00  0.00    -0.042 A 
ATOM      5  C5  UNL d   1       1.985  -0.845  -0.414  0.00  0.00     0.033 A 
ATOM      6  C6  UNL d   1       1.223   0.228  -0.888  0.00  0.00    -0.057 A 
ENDROOT
BRANCH   1   7
ATOM      7  N   UNL d   1      -0.850   1.427  -1.115  0.00  0.00    -0.732 N 
ATOM      8  C   UNL d   1      -1.786   1.153  -2.183  0.00  0.00     0.284 C 
ATOM      9  H3  UNL d   1      -1.182   2.106  -0.434  0.00  0.00     0.395 HD
ENDBRANCH   1   7
TORSDOF 1
ENDMDL
