MODEL 1
REMARK minimizedAffinity -4.48664045
REMARK minimizedRMSD -1
REMARK  1 active torsions:
REMARK  status: ('A' for Active; 'I' for Inactive)
REMARK    1  A    between atoms: N_2  and  C1_3 
ROOT
ATOM      1  C1  UNL d   1      -0.000  -0.199   0.241  0.00  0.00     0.143 A 
ATOM      2  C2  UNL d   1       1.284  -0.593  -0.151  0.00  0.00    -0.057 A 
ATOM      3  C3  UNL d   1       1.831  -1.810   0.272  0.00  0.00     0.033 A 
ATOM      4  C4  UNL d   1       1.111  -2.645   1.121  0.00  0.00    -0.042 A 
ATOM      5  C5  UNL d   1      -0.157  -2.263   1.543  0.00  0.00     0.033 A 
ATOM      6  C6  UNL d   1      -0.700  -1.048   1.113  0.00  0.00    -0.057 A 
ENDROOT
BRANCH   1   7
ATOM      7  N   UNL d   1      -0.560   1.044  -0.065  0.00  0.00    -0.732 N 
ATOM      8  C   UNL d   1      -1.168   1.280  -1.357  0.00  0.00     0.284 C 
ATOM      9  H3  UNL d   1      -1.077   1.440   0.717  0.00  0.00     0.395 HD
ENDBRANCH   1   7
TORSDOF 1
ENDMDL
