MODEL 1
REMARK minimizedAffinity 7.85395288
REMARK minimizedRMSD -1
REMARK  0 active torsions:
REMARK  status: ('A' for Active; 'I' for Inactive)
ROOT
ATOM      1  C   UNL d   1      -4.953  -3.972  -5.999  0.00  0.00    -0.002 A 
ATOM      2  C1  UNL d   1      -5.264  -5.325  -5.998  0.00  0.00     0.010 A 
ATOM      3  C2  UNL d   1      -5.493  -6.000  -4.797  0.00  0.00     0.041 A 
ATOM      4  C3  UNL d   1      -5.405  -5.285  -3.586  0.00  0.00    -0.075 A 
ATOM      5  S   UNL d   1      -5.646  -5.903  -1.995  0.00  0.00     0.015 SA
ATOM      6  C4  UNL d   1      -5.342  -4.387  -1.279  0.00  0.00     0.022 A 
ATOM      7  C5  UNL d   1      -5.062  -3.421  -2.217  0.00  0.00     0.026 A 
ATOM      8  C6  UNL d   1      -5.094  -3.923  -3.562  0.00  0.00    -0.082 A 
ATOM      9  C7  UNL d   1      -4.867  -3.267  -4.796  0.00  0.00     0.045 A 
ENDROOT
TORSDOF 0
ENDMDL
