MODEL 1
REMARK minimizedAffinity 3.37585115
REMARK minimizedRMSD -1
REMARK  0 active torsions:
REMARK  status: ('A' for Active; 'I' for Inactive)
ROOT
ATOM      1  C   UNL d   1      -4.388  -3.939  -5.909  0.00  0.00    -0.002 A 
ATOM      2  C1  UNL d   1      -4.665  -5.296  -5.999  0.00  0.00     0.010 A 
ATOM      3  C2  UNL d   1      -5.166  -5.993  -4.897  0.00  0.00     0.041 A 
ATOM      4  C3  UNL d   1      -5.389  -5.296  -3.694  0.00  0.00    -0.075 A 
ATOM      5  S   UNL d   1      -5.999  -5.941  -2.216  0.00  0.00     0.015 SA
ATOM      6  C4  UNL d   1      -5.908  -4.431  -1.432  0.00  0.00     0.022 A 
ATOM      7  C5  UNL d   1      -5.426  -3.447  -2.262  0.00  0.00     0.026 A 
ATOM      8  C6  UNL d   1      -5.120  -3.929  -3.580  0.00  0.00    -0.082 A 
ATOM      9  C7  UNL d   1      -4.611  -3.251  -4.714  0.00  0.00     0.045 A 
ENDROOT
TORSDOF 0
ENDMDL
