MODEL 1
REMARK minimizedAffinity 8.60962009
REMARK minimizedRMSD -1
REMARK  0 active torsions:
REMARK  status: ('A' for Active; 'I' for Inactive)
ROOT
ATOM      1  C   UNL d   1       5.885  -3.454   4.205  0.00  0.00    -0.002 A 
ATOM      2  C1  UNL d   1       5.940  -3.372   2.821  0.00  0.00     0.010 A 
ATOM      3  C2  UNL d   1       4.778  -3.164   2.075  0.00  0.00     0.041 A 
ATOM      4  C3  UNL d   1       3.548  -3.037   2.751  0.00  0.00    -0.075 A 
ATOM      5  S   UNL d   1       1.997  -2.777   2.045  0.00  0.00     0.015 SA
ATOM      6  C4  UNL d   1       1.225  -2.768   3.565  0.00  0.00     0.022 A 
ATOM      7  C5  UNL d   1       2.114  -2.958   4.596  0.00  0.00     0.026 A 
ATOM      8  C6  UNL d   1       3.468  -3.116   4.144  0.00  0.00    -0.082 A 
ATOM      9  C7  UNL d   1       4.664  -3.328   4.872  0.00  0.00     0.045 A 
ENDROOT
TORSDOF 0
ENDMDL
