MODEL 1
REMARK minimizedAffinity 13.0464134
REMARK minimizedRMSD -1
REMARK  0 active torsions:
REMARK  status: ('A' for Active; 'I' for Inactive)
ROOT
ATOM      1  C   UNL d   1      -5.263   2.424  -3.995  0.00  0.00    -0.002 A 
ATOM      2  C1  UNL d   1      -4.013   1.866  -3.768  0.00  0.00     0.010 A 
ATOM      3  C2  UNL d   1      -3.461   1.860  -2.486  0.00  0.00     0.041 A 
ATOM      4  C3  UNL d   1      -4.194   2.428  -1.425  0.00  0.00    -0.075 A 
ATOM      5  S   UNL d   1      -3.718   2.532   0.229  0.00  0.00     0.015 SA
ATOM      6  C4  UNL d   1      -5.163   3.319   0.672  0.00  0.00     0.022 A 
ATOM      7  C5  UNL d   1      -5.999   3.506  -0.403  0.00  0.00     0.026 A 
ATOM      8  C6  UNL d   1      -5.455   2.995  -1.629  0.00  0.00    -0.082 A 
ATOM      9  C7  UNL d   1      -5.987   2.987  -2.941  0.00  0.00     0.045 A 
ENDROOT
TORSDOF 0
ENDMDL
