MODEL 1
REMARK minimizedAffinity -3.9031136
REMARK minimizedRMSD -1
REMARK  0 active torsions:
REMARK  status: ('A' for Active; 'I' for Inactive)
ROOT
ATOM      1  C1  DEN d   1      -0.175  -0.870   3.078  0.00  0.00     0.130 A 
ATOM      2  C2  DEN d   1       1.173  -0.676   3.605  0.00  0.00    -0.031 A 
ATOM      3  C3  DEN d   1       2.037  -0.226   2.494  0.00  0.00     0.027 A 
ATOM      4  C4  DEN d   1       1.419   0.192   0.025  0.00  0.00     0.027 A 
ATOM      5  C5  DEN d   1       0.398   0.152  -0.899  0.00  0.00    -0.003 A 
ATOM      6  C6  DEN d   1      -0.866  -0.260  -0.572  0.00  0.00     0.001 A 
ATOM      7  C7  DEN d   1      -1.155  -0.607   0.721  0.00  0.00     0.017 A 
ATOM      8  C8  DEN d   1      -0.129  -0.576   1.657  0.00  0.00    -0.094 A 
ATOM      9  C9  DEN d   1       1.140  -0.144   1.310  0.00  0.00    -0.072 A 
ENDROOT
TORSDOF 0
ENDMDL
