MODEL 1
REMARK minimizedAffinity -5.60316849
REMARK minimizedRMSD -1
REMARK  0 active torsions:
REMARK  status: ('A' for Active; 'I' for Inactive)
ROOT
ATOM      1  C1  DEN d   1      -0.913   0.128   1.899  0.00  0.00     0.130 A 
ATOM      2  C2  DEN d   1       0.011  -0.137   2.998  0.00  0.00    -0.031 A 
ATOM      3  C3  DEN d   1       1.269  -0.655   2.423  0.00  0.00     0.027 A 
ATOM      4  C4  DEN d   1       1.874  -1.066  -0.051  0.00  0.00     0.027 A 
ATOM      5  C5  DEN d   1       1.409  -1.000  -1.346  0.00  0.00    -0.003 A 
ATOM      6  C6  DEN d   1       0.137  -0.590  -1.645  0.00  0.00     0.001 A 
ATOM      7  C7  DEN d   1      -0.700  -0.186  -0.639  0.00  0.00     0.017 A 
ATOM      8  C8  DEN d   1      -0.242  -0.256   0.670  0.00  0.00    -0.094 A 
ATOM      9  C9  DEN d   1       1.052  -0.662   0.951  0.00  0.00    -0.072 A 
ENDROOT
TORSDOF 0
ENDMDL
