MODEL 1
REMARK minimizedAffinity -4.0744853
REMARK minimizedRMSD -1
REMARK  0 active torsions:
REMARK  status: ('A' for Active; 'I' for Inactive)
ROOT
ATOM      1  C1  DEN d   1       0.439   0.019  -0.912  0.00  0.00     0.130 A 
ATOM      2  C2  DEN d   1      -1.014  -0.016  -1.059  0.00  0.00    -0.031 A 
ATOM      3  C3  DEN d   1      -1.595  -0.422   0.237  0.00  0.00     0.027 A 
ATOM      4  C4  DEN d   1      -0.392  -0.993   2.446  0.00  0.00     0.027 A 
ATOM      5  C5  DEN d   1       0.836  -1.115   3.056  0.00  0.00    -0.003 A 
ATOM      6  C6  DEN d   1       2.010  -0.903   2.383  0.00  0.00     0.001 A 
ATOM      7  C7  DEN d   1       1.979  -0.513   1.070  0.00  0.00     0.017 A 
ATOM      8  C8  DEN d   1       0.744  -0.395   0.446  0.00  0.00    -0.094 A 
ATOM      9  C9  DEN d   1      -0.432  -0.601   1.147  0.00  0.00    -0.072 A 
ENDROOT
TORSDOF 0
ENDMDL
