MODEL 1
REMARK minimizedAffinity -3.45910382
REMARK minimizedRMSD -1
REMARK  0 active torsions:
REMARK  status: ('A' for Active; 'I' for Inactive)
ROOT
ATOM      1  C1  DEN d   1       1.846   0.172   1.851  0.00  0.00     0.130 A 
ATOM      2  C2  DEN d   1       1.393  -0.794   2.849  0.00  0.00    -0.031 A 
ATOM      3  C3  DEN d   1       0.061  -1.281   2.441  0.00  0.00     0.027 A 
ATOM      4  C4  DEN d   1      -1.337  -0.642   0.370  0.00  0.00     0.027 A 
ATOM      5  C5  DEN d   1      -1.375   0.147  -0.759  0.00  0.00    -0.003 A 
ATOM      6  C6  DEN d   1      -0.366   1.017  -1.077  0.00  0.00     0.001 A 
ATOM      7  C7  DEN d   1       0.746   1.086  -0.280  0.00  0.00     0.017 A 
ATOM      8  C8  DEN d   1       0.788   0.300   0.864  0.00  0.00    -0.094 A 
ATOM      9  C9  DEN d   1      -0.237  -0.582   1.161  0.00  0.00    -0.072 A 
ENDROOT
TORSDOF 0
ENDMDL
