MODEL 1
REMARK minimizedAffinity -4.87831974
REMARK minimizedRMSD -1
REMARK  0 active torsions:
REMARK  status: ('A' for Active; 'I' for Inactive)
ROOT
ATOM      1  C1  DEN d   1       0.707  -1.233  -1.534  0.00  0.00     0.130 A 
ATOM      2  C2  DEN d   1      -0.248  -0.127  -1.528  0.00  0.00    -0.031 A 
ATOM      3  C3  DEN d   1      -0.208   0.503  -0.192  0.00  0.00     0.027 A 
ATOM      4  C4  DEN d   1       1.234  -0.121   1.853  0.00  0.00     0.027 A 
ATOM      5  C5  DEN d   1       2.185  -0.995   2.332  0.00  0.00    -0.003 A 
ATOM      6  C6  DEN d   1       2.681  -2.022   1.574  0.00  0.00     0.001 A 
ATOM      7  C7  DEN d   1       2.260  -2.173   0.279  0.00  0.00     0.017 A 
ATOM      8  C8  DEN d   1       1.297  -1.300  -0.209  0.00  0.00    -0.094 A 
ATOM      9  C9  DEN d   1       0.817  -0.261   0.570  0.00  0.00    -0.072 A 
ENDROOT
TORSDOF 0
ENDMDL
