MODEL 1
REMARK minimizedAffinity -1.85810363
REMARK minimizedRMSD -1
REMARK  2 active torsions:
REMARK  status: ('A' for Active; 'I' for Inactive)
REMARK    1  A    between atoms: C2'_3  and  C1'_4 
REMARK    2  A    between atoms: C1'_4  and  C1_5 
ROOT
ATOM      1  C1  I4B d   1       0.529   0.642  -0.692  0.00  0.00    -0.075 A 
ATOM      2  C2  I4B d   1      -0.831   0.473  -0.773  0.00  0.00     0.003 A 
ATOM      3  C3  I4B d   1      -1.480  -0.487   0.041  0.00  0.00     0.002 A 
ATOM      4  C4  I4B d   1      -0.729  -1.286   0.880  0.00  0.00    -0.004 A 
ATOM      5  C5  I4B d   1       0.647  -1.097   0.977  0.00  0.00     0.002 A 
ATOM      6  C6  I4B d   1       1.278  -0.119   0.195  0.00  0.00     0.003 A 
ENDROOT
BRANCH   1   7
ATOM      7  C1' I4B d   1       1.185   1.642  -1.591  0.00  0.00     0.060 C 
BRANCH   7   8
ATOM      8  C2' I4B d   1       0.364   1.739  -2.860  0.00  0.00    -0.013 C 
ATOM      9  C4' I4B d   1      -0.353   3.061  -2.946  0.00  0.00     0.013 C 
ATOM     10  C3' I4B d   1       1.288   1.547  -4.025  0.00  0.00     0.013 C 
ENDBRANCH   7   8
ENDBRANCH   1   7
TORSDOF 2
ENDMDL
