MODEL 1
REMARK minimizedAffinity -5.68126154
REMARK minimizedRMSD -1
REMARK  2 active torsions:
REMARK  status: ('A' for Active; 'I' for Inactive)
REMARK    1  A    between atoms: C2'_3  and  C1'_4 
REMARK    2  A    between atoms: C1'_4  and  C1_5 
ROOT
ATOM      1  C1  I4B d   1       0.149  -0.162   0.270  0.00  0.00    -0.075 A 
ATOM      2  C2  I4B d   1      -1.100   0.102   0.775  0.00  0.00     0.003 A 
ATOM      3  C3  I4B d   1      -1.498   1.437   1.030  0.00  0.00     0.002 A 
ATOM      4  C4  I4B d   1      -0.604   2.465   0.814  0.00  0.00    -0.004 A 
ATOM      5  C5  I4B d   1       0.654   2.197   0.281  0.00  0.00     0.002 A 
ATOM      6  C6  I4B d   1       1.029   0.877  -0.005  0.00  0.00     0.003 A 
ENDROOT
BRANCH   1   7
ATOM      7  C1' I4B d   1       0.549  -1.586   0.044  0.00  0.00     0.060 C 
BRANCH   7   8
ATOM      8  C2' I4B d   1       1.367  -2.036   1.237  0.00  0.00    -0.013 C 
ATOM      9  C4' I4B d   1       0.493  -2.652   2.297  0.00  0.00     0.013 C 
ATOM     10  C3' I4B d   1       2.397  -3.012   0.750  0.00  0.00     0.013 C 
ENDBRANCH   7   8
ENDBRANCH   1   7
TORSDOF 2
ENDMDL
