MODEL 1
REMARK minimizedAffinity -0.90989393
REMARK minimizedRMSD -1
REMARK  2 active torsions:
REMARK  status: ('A' for Active; 'I' for Inactive)
REMARK    1  A    between atoms: C2'_3  and  C1'_4 
REMARK    2  A    between atoms: C1'_4  and  C1_5 
ROOT
ATOM      1  C1  I4B d   1      -1.206  -0.655  -0.121  0.00  0.00    -0.075 A 
ATOM      2  C2  I4B d   1      -1.931   0.457   0.229  0.00  0.00     0.003 A 
ATOM      3  C3  I4B d   1      -1.378   1.750   0.063  0.00  0.00     0.002 A 
ATOM      4  C4  I4B d   1      -0.087   1.882  -0.406  0.00  0.00    -0.004 A 
ATOM      5  C5  I4B d   1       0.638   0.754  -0.781  0.00  0.00     0.002 A 
ATOM      6  C6  I4B d   1       0.071  -0.521  -0.650  0.00  0.00     0.003 A 
ENDROOT
BRANCH   1   7
ATOM      7  C1' I4B d   1      -1.809  -2.006   0.099  0.00  0.00     0.060 C 
BRANCH   7   8
ATOM      8  C2' I4B d   1      -1.953  -2.216   1.592  0.00  0.00    -0.013 C 
ATOM      9  C4' I4B d   1      -2.849  -3.388   1.894  0.00  0.00     0.013 C 
ATOM     10  C3' I4B d   1      -0.582  -2.421   2.165  0.00  0.00     0.013 C 
ENDBRANCH   7   8
ENDBRANCH   1   7
TORSDOF 2
ENDMDL
