MODEL 1
REMARK minimizedAffinity -1.56775784
REMARK minimizedRMSD -1
REMARK  2 active torsions:
REMARK  status: ('A' for Active; 'I' for Inactive)
REMARK    1  A    between atoms: C2'_3  and  C1'_4 
REMARK    2  A    between atoms: C1'_4  and  C1_5 
ROOT
ATOM      1  C1  I4B d   1      -0.255  -1.482   1.714  0.00  0.00    -0.075 A 
ATOM      2  C2  I4B d   1       0.069  -0.301   1.094  0.00  0.00     0.003 A 
ATOM      3  C3  I4B d   1      -0.750   0.842   1.263  0.00  0.00     0.002 A 
ATOM      4  C4  I4B d   1      -1.904   0.746   2.014  0.00  0.00    -0.004 A 
ATOM      5  C5  I4B d   1      -2.219  -0.446   2.660  0.00  0.00     0.002 A 
ATOM      6  C6  I4B d   1      -1.384  -1.564   2.520  0.00  0.00     0.003 A 
ENDROOT
BRANCH   1   7
ATOM      7  C1' I4B d   1       0.614  -2.678   1.488  0.00  0.00     0.060 C 
BRANCH   7   8
ATOM      8  C2' I4B d   1       1.571  -2.352   0.359  0.00  0.00    -0.013 C 
ATOM      9  C4' I4B d   1       2.658  -3.388   0.249  0.00  0.00     0.013 C 
ATOM     10  C3' I4B d   1       0.777  -2.265  -0.910  0.00  0.00     0.013 C 
ENDBRANCH   7   8
ENDBRANCH   1   7
TORSDOF 2
ENDMDL
