MODEL 1
REMARK minimizedAffinity -4.01503134
REMARK minimizedRMSD -1
REMARK  2 active torsions:
REMARK  status: ('A' for Active; 'I' for Inactive)
REMARK    1  A    between atoms: C2'_3  and  C1'_4 
REMARK    2  A    between atoms: C1'_4  and  C1_5 
ROOT
ATOM      1  C1  I4B d   1       0.324  -0.024  -0.021  0.00  0.00    -0.075 A 
ATOM      2  C2  I4B d   1       1.138  -1.005  -0.529  0.00  0.00     0.003 A 
ATOM      3  C3  I4B d   1       0.997  -2.345  -0.094  0.00  0.00     0.002 A 
ATOM      4  C4  I4B d   1       0.069  -2.648   0.881  0.00  0.00    -0.004 A 
ATOM      5  C5  I4B d   1      -0.772  -1.656   1.379  0.00  0.00     0.002 A 
ATOM      6  C6  I4B d   1      -0.652  -0.338   0.916  0.00  0.00     0.003 A 
ENDROOT
BRANCH   1   7
ATOM      7  C1' I4B d   1       0.523   1.386  -0.479  0.00  0.00     0.060 C 
BRANCH   7   8
ATOM      8  C2' I4B d   1       1.049   1.346  -1.899  0.00  0.00    -0.013 C 
ATOM      9  C4' I4B d   1       0.234   2.230  -2.807  0.00  0.00     0.013 C 
ATOM     10  C3' I4B d   1       2.486   1.774  -1.873  0.00  0.00     0.013 C 
ENDBRANCH   7   8
ENDBRANCH   1   7
TORSDOF 2
ENDMDL
