MODEL 1
REMARK minimizedAffinity -4.34902859
REMARK minimizedRMSD -1
REMARK  2 active torsions:
REMARK  status: ('A' for Active; 'I' for Inactive)
REMARK    1  A    between atoms: C2'_3  and  C1'_4 
REMARK    2  A    between atoms: C1'_4  and  C1_5 
ROOT
ATOM      1  C1  I4B d   1      -0.539  -0.475   0.355  0.00  0.00    -0.075 A 
ATOM      2  C2  I4B d   1      -1.464   0.340   0.958  0.00  0.00     0.003 A 
ATOM      3  C3  I4B d   1      -1.369   1.746   0.825  0.00  0.00     0.002 A 
ATOM      4  C4  I4B d   1      -0.312   2.293   0.127  0.00  0.00    -0.004 A 
ATOM      5  C5  I4B d   1       0.612   1.464  -0.503  0.00  0.00     0.002 A 
ATOM      6  C6  I4B d   1       0.492   0.071  -0.399  0.00  0.00     0.003 A 
ENDROOT
BRANCH   1   7
ATOM      7  C1' I4B d   1      -0.650  -1.955   0.544  0.00  0.00     0.060 C 
BRANCH   7   8
ATOM      8  C2' I4B d   1      -1.351  -2.206   1.864  0.00  0.00    -0.013 C 
ATOM      9  C4' I4B d   1      -2.431  -3.246   1.719  0.00  0.00     0.013 C 
ATOM     10  C3' I4B d   1      -0.318  -2.634   2.863  0.00  0.00     0.013 C 
ENDBRANCH   7   8
ENDBRANCH   1   7
TORSDOF 2
ENDMDL
