MODEL 1
REMARK minimizedAffinity -4.32531452
REMARK minimizedRMSD -1
REMARK  2 active torsions:
REMARK  status: ('A' for Active; 'I' for Inactive)
REMARK    1  A    between atoms: C2'_3  and  C1'_4 
REMARK    2  A    between atoms: C1'_4  and  C1_5 
ROOT
ATOM      1  C1  I4B d   1       0.240   1.029  -0.770  0.00  0.00    -0.075 A 
ATOM      2  C2  I4B d   1      -0.372   1.027  -1.998  0.00  0.00     0.003 A 
ATOM      3  C3  I4B d   1       0.256   1.639  -3.109  0.00  0.00     0.002 A 
ATOM      4  C4  I4B d   1       1.466   2.282  -2.937  0.00  0.00    -0.004 A 
ATOM      5  C5  I4B d   1       2.096   2.263  -1.696  0.00  0.00     0.002 A 
ATOM      6  C6  I4B d   1       1.486   1.622  -0.608  0.00  0.00     0.003 A 
ENDROOT
BRANCH   1   7
ATOM      7  C1' I4B d   1      -0.467   0.402   0.390  0.00  0.00     0.060 C 
BRANCH   7   8
ATOM      8  C2' I4B d   1      -0.074  -1.060   0.441  0.00  0.00    -0.013 C 
ATOM      9  C4' I4B d   1       1.254  -1.244   1.126  0.00  0.00     0.013 C 
ATOM     10  C3' I4B d   1      -1.161  -1.807   1.155  0.00  0.00     0.013 C 
ENDBRANCH   7   8
ENDBRANCH   1   7
TORSDOF 2
ENDMDL
