MODEL 1
REMARK minimizedAffinity -5.74169493
REMARK minimizedRMSD -1
REMARK  2 active torsions:
REMARK  status: ('A' for Active; 'I' for Inactive)
REMARK    1  A    between atoms: C2'_3  and  C1'_4 
REMARK    2  A    between atoms: C1'_4  and  C1_5 
ROOT
ATOM      1  C1  I4B d   1      -0.421   0.287   0.240  0.00  0.00    -0.075 A 
ATOM      2  C2  I4B d   1      -0.015  -1.022   0.164  0.00  0.00     0.003 A 
ATOM      3  C3  I4B d   1      -0.789  -2.044   0.766  0.00  0.00     0.002 A 
ATOM      4  C4  I4B d   1      -1.925  -1.709   1.473  0.00  0.00    -0.004 A 
ATOM      5  C5  I4B d   1      -2.347  -0.384   1.530  0.00  0.00     0.002 A 
ATOM      6  C6  I4B d   1      -1.597   0.619   0.899  0.00  0.00     0.003 A 
ENDROOT
BRANCH   1   7
ATOM      7  C1' I4B d   1       0.437   1.344  -0.379  0.00  0.00     0.060 C 
BRANCH   7   8
ATOM      8  C2' I4B d   1       0.498   1.082  -1.870  0.00  0.00    -0.013 C 
ATOM      9  C4' I4B d   1      -0.797   1.455  -2.543  0.00  0.00     0.013 C 
ATOM     10  C3' I4B d   1       1.645   1.867  -2.432  0.00  0.00     0.013 C 
ENDBRANCH   7   8
ENDBRANCH   1   7
TORSDOF 2
ENDMDL
