MODEL 1
REMARK minimizedAffinity -4.5809741
REMARK minimizedRMSD -1
REMARK  2 active torsions:
REMARK  status: ('A' for Active; 'I' for Inactive)
REMARK    1  A    between atoms: C2'_3  and  C1'_4 
REMARK    2  A    between atoms: C1'_4  and  C1_5 
ROOT
ATOM      1  C1  I4B d   1      -0.282   0.725  -0.172  0.00  0.00    -0.075 A 
ATOM      2  C2  I4B d   1       0.400  -0.459  -0.295  0.00  0.00     0.003 A 
ATOM      3  C3  I4B d   1      -0.237  -1.685   0.017  0.00  0.00     0.002 A 
ATOM      4  C4  I4B d   1      -1.532  -1.676   0.493  0.00  0.00    -0.004 A 
ATOM      5  C5  I4B d   1      -2.230  -0.476   0.595  0.00  0.00     0.002 A 
ATOM      6  C6  I4B d   1      -1.606   0.732   0.249  0.00  0.00     0.003 A 
ENDROOT
BRANCH   1   7
ATOM      7  C1' I4B d   1       0.432   2.004  -0.478  0.00  0.00     0.060 C 
BRANCH   7   8
ATOM      8  C2' I4B d   1       0.940   1.925  -1.903  0.00  0.00    -0.013 C 
ATOM      9  C4' I4B d   1       0.002   2.618  -2.856  0.00  0.00     0.013 C 
ATOM     10  C3' I4B d   1       2.306   2.542  -1.942  0.00  0.00     0.013 C 
ENDBRANCH   7   8
ENDBRANCH   1   7
TORSDOF 2
ENDMDL
