MODEL 1
REMARK minimizedAffinity -4.51637411
REMARK minimizedRMSD -1
REMARK  2 active torsions:
REMARK  status: ('A' for Active; 'I' for Inactive)
REMARK    1  A    between atoms: C2'_3  and  C1'_4 
REMARK    2  A    between atoms: C1'_4  and  C1_5 
ROOT
ATOM      1  C1  I4B d   1       0.271  -0.914   0.310  0.00  0.00    -0.075 A 
ATOM      2  C2  I4B d   1       0.638  -1.968   1.109  0.00  0.00     0.003 A 
ATOM      3  C3  I4B d   1      -0.323  -2.928   1.508  0.00  0.00     0.002 A 
ATOM      4  C4  I4B d   1      -1.641  -2.769   1.131  0.00  0.00    -0.004 A 
ATOM      5  C5  I4B d   1      -2.006  -1.712   0.302  0.00  0.00     0.002 A 
ATOM      6  C6  I4B d   1      -1.043  -0.785  -0.121  0.00  0.00     0.003 A 
ENDROOT
BRANCH   1   7
ATOM      7  C1' I4B d   1       1.305   0.099  -0.066  0.00  0.00     0.060 C 
BRANCH   7   8
ATOM      8  C2' I4B d   1       0.588   1.376  -0.453  0.00  0.00    -0.013 C 
ATOM      9  C4' I4B d   1       0.132   2.136   0.764  0.00  0.00     0.013 C 
ATOM     10  C3' I4B d   1       1.525   2.200  -1.286  0.00  0.00     0.013 C 
ENDBRANCH   7   8
ENDBRANCH   1   7
TORSDOF 2
ENDMDL
