MODEL 1
REMARK minimizedAffinity -4.21356964
REMARK minimizedRMSD -1
REMARK  2 active torsions:
REMARK  status: ('A' for Active; 'I' for Inactive)
REMARK    1  A    between atoms: C2'_3  and  C1'_4 
REMARK    2  A    between atoms: C1'_4  and  C1_5 
ROOT
ATOM      1  C1  I4B d   1       0.250   0.267  -0.119  0.00  0.00    -0.075 A 
ATOM      2  C2  I4B d   1       1.250  -0.653   0.070  0.00  0.00     0.003 A 
ATOM      3  C3  I4B d   1       0.939  -1.968   0.492  0.00  0.00     0.002 A 
ATOM      4  C4  I4B d   1      -0.373  -2.303   0.761  0.00  0.00    -0.004 A 
ATOM      5  C5  I4B d   1      -1.388  -1.375   0.547  0.00  0.00     0.002 A 
ATOM      6  C6  I4B d   1      -1.077  -0.086   0.093  0.00  0.00     0.003 A 
ENDROOT
BRANCH   1   7
ATOM      7  C1' I4B d   1       0.617   1.657  -0.533  0.00  0.00     0.060 C 
BRANCH   7   8
ATOM      8  C2' I4B d   1       1.303   1.575  -1.882  0.00  0.00    -0.013 C 
ATOM      9  C4' I4B d   1       0.481   2.242  -2.953  0.00  0.00     0.013 C 
ATOM     10  C3' I4B d   1       2.651   2.219  -1.755  0.00  0.00     0.013 C 
ENDBRANCH   7   8
ENDBRANCH   1   7
TORSDOF 2
ENDMDL
