MODEL 1
REMARK minimizedAffinity -5.65883064
REMARK minimizedRMSD -1
REMARK  2 active torsions:
REMARK  status: ('A' for Active; 'I' for Inactive)
REMARK    1  A    between atoms: C2'_3  and  C1'_4 
REMARK    2  A    between atoms: C1'_4  and  C1_5 
ROOT
ATOM      1  C1  I4B d   1       0.710   0.661  -1.134  0.00  0.00    -0.075 A 
ATOM      2  C2  I4B d   1       0.539   2.022  -1.135  0.00  0.00     0.003 A 
ATOM      3  C3  I4B d   1       0.819   2.775  -2.301  0.00  0.00     0.002 A 
ATOM      4  C4  I4B d   1       1.313   2.137  -3.420  0.00  0.00    -0.004 A 
ATOM      5  C5  I4B d   1       1.464   0.753  -3.425  0.00  0.00     0.002 A 
ATOM      6  C6  I4B d   1       1.149   0.008  -2.279  0.00  0.00     0.003 A 
ENDROOT
BRANCH   1   7
ATOM      7  C1' I4B d   1       0.437  -0.100   0.125  0.00  0.00     0.060 C 
BRANCH   7   8
ATOM      8  C2' I4B d   1      -0.732  -1.028  -0.135  0.00  0.00    -0.013 C 
ATOM      9  C4' I4B d   1      -0.346  -2.466   0.087  0.00  0.00     0.013 C 
ATOM     10  C3' I4B d   1      -1.856  -0.623   0.772  0.00  0.00     0.013 C 
ENDBRANCH   7   8
ENDBRANCH   1   7
TORSDOF 2
ENDMDL
