MODEL 1
REMARK minimizedAffinity 7.75367594
REMARK minimizedRMSD -1
REMARK  0 active torsions:
REMARK  status: ('A' for Active; 'I' for Inactive)
ROOT
ATOM      1  C2' OXE d   1      -1.571  -1.845  -1.152  0.00  0.00     0.078 C 
ATOM      2  C1' OXE d   1      -1.830  -3.616   1.011  0.00  0.00     0.078 C 
ATOM      3  C1  OXE d   1      -1.108  -2.313   1.251  0.00  0.00    -0.078 A 
ATOM      4  C2  OXE d   1      -0.946  -1.474   0.175  0.00  0.00    -0.078 A 
ATOM      5  C3  OXE d   1      -0.336  -0.235   0.354  0.00  0.00     0.003 A 
ATOM      6  C4  OXE d   1       0.249   0.097   1.582  0.00  0.00    -0.002 A 
ATOM      7  C5  OXE d   1       0.129  -0.762   2.680  0.00  0.00    -0.002 A 
ATOM      8  C6  OXE d   1      -0.582  -1.949   2.543  0.00  0.00     0.003 A 
ENDROOT
TORSDOF 0
ENDMDL
