MODEL 1
REMARK minimizedAffinity 10.540163
REMARK minimizedRMSD -1
REMARK  0 active torsions:
REMARK  status: ('A' for Active; 'I' for Inactive)
ROOT
ATOM      1  C2' OXE d   1      -3.732   3.242   2.638  0.00  0.00     0.078 C 
ATOM      2  C1' OXE d   1      -4.145   3.038   5.407  0.00  0.00     0.078 C 
ATOM      3  C1  OXE d   1      -4.652   1.916   4.536  0.00  0.00    -0.078 A 
ATOM      4  C2  OXE d   1      -4.487   2.046   3.178  0.00  0.00    -0.078 A 
ATOM      5  C3  OXE d   1      -4.888   1.015   2.333  0.00  0.00     0.003 A 
ATOM      6  C4  OXE d   1      -5.595  -0.082   2.839  0.00  0.00    -0.002 A 
ATOM      7  C5  OXE d   1      -5.808  -0.215   4.215  0.00  0.00    -0.002 A 
ATOM      8  C6  OXE d   1      -5.307   0.752   5.079  0.00  0.00     0.003 A 
ENDROOT
TORSDOF 0
ENDMDL
