MODEL 1
REMARK minimizedAffinity 6.21644878
REMARK minimizedRMSD -1
REMARK  0 active torsions:
REMARK  status: ('A' for Active; 'I' for Inactive)
ROOT
ATOM      1  C2' OXE d   1       2.554   0.075   1.870  0.00  0.00     0.078 C 
ATOM      2  C1' OXE d   1       4.722  -1.117   3.197  0.00  0.00     0.078 C 
ATOM      3  C1  OXE d   1       4.825  -0.936   1.703  0.00  0.00    -0.078 A 
ATOM      4  C2  OXE d   1       3.740  -0.395   1.056  0.00  0.00    -0.078 A 
ATOM      5  C3  OXE d   1       3.804  -0.156  -0.314  0.00  0.00     0.003 A 
ATOM      6  C4  OXE d   1       4.901  -0.602  -1.061  0.00  0.00    -0.002 A 
ATOM      7  C5  OXE d   1       5.999  -1.192  -0.427  0.00  0.00    -0.002 A 
ATOM      8  C6  OXE d   1       5.995  -1.328   0.957  0.00  0.00     0.003 A 
ENDROOT
TORSDOF 0
ENDMDL
