MODEL 1
REMARK minimizedAffinity 9.96099472
REMARK minimizedRMSD -1
REMARK  0 active torsions:
REMARK  status: ('A' for Active; 'I' for Inactive)
ROOT
ATOM      1  C2' OXE d   1      -4.497   3.304   5.490  0.00  0.00     0.078 C 
ATOM      2  C1' OXE d   1      -4.509   1.976   3.018  0.00  0.00     0.078 C 
ATOM      3  C1  OXE d   1      -5.020   3.394   3.056  0.00  0.00    -0.078 A 
ATOM      4  C2  OXE d   1      -5.054   4.021   4.279  0.00  0.00    -0.078 A 
ATOM      5  C3  OXE d   1      -5.466   5.348   4.362  0.00  0.00     0.003 A 
ATOM      6  C4  OXE d   1      -5.989   6.000   3.239  0.00  0.00    -0.002 A 
ATOM      7  C5  OXE d   1      -6.000   5.366   1.992  0.00  0.00    -0.002 A 
ATOM      8  C6  OXE d   1      -5.481   4.081   1.875  0.00  0.00     0.003 A 
ENDROOT
TORSDOF 0
ENDMDL
