MODEL 1
REMARK minimizedAffinity 2.30668497
REMARK minimizedRMSD -1
REMARK  0 active torsions:
REMARK  status: ('A' for Active; 'I' for Inactive)
ROOT
ATOM      1  C2' OXE d   1      -4.867  -0.012   2.740  0.00  0.00     0.078 C 
ATOM      2  C1' OXE d   1      -4.021   2.633   2.329  0.00  0.00     0.078 C 
ATOM      3  C1  OXE d   1      -4.698   2.306   3.636  0.00  0.00    -0.078 A 
ATOM      4  C2  OXE d   1      -5.150   1.020   3.810  0.00  0.00    -0.078 A 
ATOM      5  C3  OXE d   1      -5.733   0.652   5.019  0.00  0.00     0.003 A 
ATOM      6  C4  OXE d   1      -6.000   1.615   6.000  0.00  0.00    -0.002 A 
ATOM      7  C5  OXE d   1      -5.583   2.939   5.827  0.00  0.00    -0.002 A 
ATOM      8  C6  OXE d   1      -4.894   3.291   4.672  0.00  0.00     0.003 A 
ENDROOT
TORSDOF 0
ENDMDL
