MODEL 1
REMARK minimizedAffinity 3.66092229
REMARK minimizedRMSD -1
REMARK  0 active torsions:
REMARK  status: ('A' for Active; 'I' for Inactive)
ROOT
ATOM      1  C2' OXE d   1      -5.173   0.045   2.856  0.00  0.00     0.078 C 
ATOM      2  C1' OXE d   1      -5.999  -0.470   5.489  0.00  0.00     0.078 C 
ATOM      3  C1  OXE d   1      -5.777   0.967   5.090  0.00  0.00    -0.078 A 
ATOM      4  C2  OXE d   1      -5.328   1.207   3.813  0.00  0.00    -0.078 A 
ATOM      5  C3  OXE d   1      -5.160   2.517   3.376  0.00  0.00     0.003 A 
ATOM      6  C4  OXE d   1      -5.296   3.586   4.271  0.00  0.00    -0.002 A 
ATOM      7  C5  OXE d   1      -5.715   3.361   5.587  0.00  0.00    -0.002 A 
ATOM      8  C6  OXE d   1      -6.000   2.064   5.999  0.00  0.00     0.003 A 
ENDROOT
TORSDOF 0
ENDMDL
