MODEL 1
REMARK minimizedAffinity 12.2051344
REMARK minimizedRMSD -1
REMARK  0 active torsions:
REMARK  status: ('A' for Active; 'I' for Inactive)
ROOT
ATOM      1  C2' OXE d   1       2.966  -0.480   1.451  0.00  0.00     0.078 C 
ATOM      2  C1' OXE d   1       1.758   1.996   0.909  0.00  0.00     0.078 C 
ATOM      3  C1  OXE d   1       1.340   1.268   2.162  0.00  0.00    -0.078 A 
ATOM      4  C2  OXE d   1       1.901   0.036   2.395  0.00  0.00    -0.078 A 
ATOM      5  C3  OXE d   1       1.591  -0.653   3.564  0.00  0.00     0.003 A 
ATOM      6  C4  OXE d   1       0.598  -0.174   4.427  0.00  0.00    -0.002 A 
ATOM      7  C5  OXE d   1      -0.015   1.060   4.188  0.00  0.00    -0.002 A 
ATOM      8  C6  OXE d   1       0.374   1.812   3.085  0.00  0.00     0.003 A 
ENDROOT
TORSDOF 0
ENDMDL
