MODEL 1
REMARK minimizedAffinity 17.7452221
REMARK minimizedRMSD -1
REMARK  0 active torsions:
REMARK  status: ('A' for Active; 'I' for Inactive)
ROOT
ATOM      1  C2' OXE d   1       5.115  -0.328   0.500  0.00  0.00     0.078 C 
ATOM      2  C1' OXE d   1       4.688   1.916  -1.132  0.00  0.00     0.078 C 
ATOM      3  C1  OXE d   1       3.667   1.619  -0.063  0.00  0.00    -0.078 A 
ATOM      4  C2  OXE d   1       3.859   0.492   0.700  0.00  0.00    -0.078 A 
ATOM      5  C3  OXE d   1       2.976   0.202   1.736  0.00  0.00     0.003 A 
ATOM      6  C4  OXE d   1       1.812   0.960   1.909  0.00  0.00    -0.002 A 
ATOM      7  C5  OXE d   1       1.576   2.089   1.117  0.00  0.00    -0.002 A 
ATOM      8  C6  OXE d   1       2.513   2.456   0.157  0.00  0.00     0.003 A 
ENDROOT
TORSDOF 0
ENDMDL
