MODEL 1
REMARK minimizedAffinity 16.961031
REMARK minimizedRMSD -1
REMARK  0 active torsions:
REMARK  status: ('A' for Active; 'I' for Inactive)
ROOT
ATOM      1  C2' OXE d   1      -0.375  -5.445  -4.015  0.00  0.00     0.078 C 
ATOM      2  C1' OXE d   1      -2.476  -5.999  -2.238  0.00  0.00     0.078 C 
ATOM      3  C1  OXE d   1      -2.169  -4.553  -2.535  0.00  0.00    -0.078 A 
ATOM      4  C2  OXE d   1      -1.109  -4.290  -3.369  0.00  0.00    -0.078 A 
ATOM      5  C3  OXE d   1      -0.818  -2.975  -3.719  0.00  0.00     0.003 A 
ATOM      6  C4  OXE d   1      -1.495  -1.912  -3.110  0.00  0.00    -0.002 A 
ATOM      7  C5  OXE d   1      -2.552  -2.157  -2.227  0.00  0.00    -0.002 A 
ATOM      8  C6  OXE d   1      -2.929  -3.469  -1.962  0.00  0.00     0.003 A 
ENDROOT
TORSDOF 0
ENDMDL
