MODEL 1
REMARK minimizedAffinity 11.1698179
REMARK minimizedRMSD -1
REMARK  0 active torsions:
REMARK  status: ('A' for Active; 'I' for Inactive)
ROOT
ATOM      1  C2' OXE d   1      -5.667  -2.700  -3.961  0.00  0.00     0.078 C 
ATOM      2  C1' OXE d   1      -3.010  -2.578  -3.062  0.00  0.00     0.078 C 
ATOM      3  C1  OXE d   1      -3.868  -3.716  -2.569  0.00  0.00    -0.078 A 
ATOM      4  C2  OXE d   1      -5.180  -3.742  -2.977  0.00  0.00    -0.078 A 
ATOM      5  C3  OXE d   1      -6.000  -4.800  -2.596  0.00  0.00     0.003 A 
ATOM      6  C4  OXE d   1      -5.545  -5.754  -1.678  0.00  0.00    -0.002 A 
ATOM      7  C5  OXE d   1      -4.223  -5.724  -1.219  0.00  0.00    -0.002 A 
ATOM      8  C6  OXE d   1      -3.362  -4.738  -1.687  0.00  0.00     0.003 A 
ENDROOT
TORSDOF 0
ENDMDL
