MODEL 1
REMARK minimizedAffinity 13.3500118
REMARK minimizedRMSD -1
REMARK  0 active torsions:
REMARK  status: ('A' for Active; 'I' for Inactive)
ROOT
ATOM      1  C2' OXE d   1       3.748   5.983  -3.416  0.00  0.00     0.078 C 
ATOM      2  C1' OXE d   1       3.697   3.177  -3.432  0.00  0.00     0.078 C 
ATOM      3  C1  OXE d   1       2.741   3.903  -4.346  0.00  0.00    -0.078 A 
ATOM      4  C2  OXE d   1       2.741   5.276  -4.297  0.00  0.00    -0.078 A 
ATOM      5  C3  OXE d   1       1.918   5.996  -5.159  0.00  0.00     0.003 A 
ATOM      6  C4  OXE d   1       0.983   5.334  -5.964  0.00  0.00    -0.002 A 
ATOM      7  C5  OXE d   1       0.939   3.937  -5.999  0.00  0.00    -0.002 A 
ATOM      8  C6  OXE d   1       1.839   3.207  -5.230  0.00  0.00     0.003 A 
ENDROOT
TORSDOF 0
ENDMDL
