MODEL 1
REMARK minimizedAffinity 15.1998281
REMARK minimizedRMSD -1
REMARK  0 active torsions:
REMARK  status: ('A' for Active; 'I' for Inactive)
ROOT
ATOM      1  C2' OXE d   1      -5.630   3.331   2.190  0.00  0.00     0.078 C 
ATOM      2  C1' OXE d   1      -4.414   1.988   4.334  0.00  0.00     0.078 C 
ATOM      3  C1  OXE d   1      -4.918   3.389   4.576  0.00  0.00    -0.078 A 
ATOM      4  C2  OXE d   1      -5.469   4.056   3.508  0.00  0.00    -0.078 A 
ATOM      5  C3  OXE d   1      -6.000   5.330   3.690  0.00  0.00     0.003 A 
ATOM      6  C4  OXE d   1      -5.838   5.997   4.911  0.00  0.00    -0.002 A 
ATOM      7  C5  OXE d   1      -5.244   5.351   6.000  0.00  0.00    -0.002 A 
ATOM      8  C6  OXE d   1      -4.818   4.035   5.862  0.00  0.00     0.003 A 
ENDROOT
TORSDOF 0
ENDMDL
