MODEL 1
REMARK minimizedAffinity 18.1778927
REMARK minimizedRMSD -1
REMARK  0 active torsions:
REMARK  status: ('A' for Active; 'I' for Inactive)
ROOT
ATOM      1  C2' OXE d   1      -1.491  -2.497  -3.839  0.00  0.00     0.078 C 
ATOM      2  C1' OXE d   1      -3.757  -3.462  -2.493  0.00  0.00     0.078 C 
ATOM      3  C1  OXE d   1      -2.716  -2.732  -1.682  0.00  0.00    -0.078 A 
ATOM      4  C2  OXE d   1      -1.588  -2.305  -2.341  0.00  0.00    -0.078 A 
ATOM      5  C3  OXE d   1      -0.621  -1.578  -1.652  0.00  0.00     0.003 A 
ATOM      6  C4  OXE d   1      -0.714  -1.413  -0.264  0.00  0.00    -0.002 A 
ATOM      7  C5  OXE d   1      -1.835  -1.876   0.433  0.00  0.00    -0.002 A 
ATOM      8  C6  OXE d   1      -2.863  -2.498  -0.267  0.00  0.00     0.003 A 
ENDROOT
TORSDOF 0
ENDMDL
