MODEL 1
REMARK minimizedAffinity 16.0401287
REMARK minimizedRMSD -1
REMARK  0 active torsions:
REMARK  status: ('A' for Active; 'I' for Inactive)
ROOT
ATOM      1  C2' OXE d   1      -5.931  -5.997  -2.720  0.00  0.00     0.078 C 
ATOM      2  C1' OXE d   1      -5.950  -3.328  -3.592  0.00  0.00     0.078 C 
ATOM      3  C1  OXE d   1      -4.644  -3.897  -3.095  0.00  0.00    -0.078 A 
ATOM      4  C2  OXE d   1      -4.654  -5.188  -2.627  0.00  0.00    -0.078 A 
ATOM      5  C3  OXE d   1      -3.466  -5.779  -2.208  0.00  0.00     0.003 A 
ATOM      6  C4  OXE d   1      -2.292  -5.022  -2.116  0.00  0.00    -0.002 A 
ATOM      7  C5  OXE d   1      -2.269  -3.692  -2.551  0.00  0.00    -0.002 A 
ATOM      8  C6  OXE d   1      -3.424  -3.129  -3.082  0.00  0.00     0.003 A 
ENDROOT
TORSDOF 0
ENDMDL
