MODEL 1
REMARK minimizedAffinity 7.50689316
REMARK minimizedRMSD -1
REMARK  0 active torsions:
REMARK  status: ('A' for Active; 'I' for Inactive)
ROOT
ATOM      1  C2' OXE d   1       0.373  -3.353  -0.007  0.00  0.00     0.078 C 
ATOM      2  C1' OXE d   1      -2.252  -2.623  -0.686  0.00  0.00     0.078 C 
ATOM      3  C1  OXE d   1      -2.065  -3.804   0.233  0.00  0.00    -0.078 A 
ATOM      4  C2  OXE d   1      -0.777  -4.183   0.523  0.00  0.00    -0.078 A 
ATOM      5  C3  OXE d   1      -0.549  -5.231   1.410  0.00  0.00     0.003 A 
ATOM      6  C4  OXE d   1      -1.617  -6.000   1.888  0.00  0.00    -0.002 A 
ATOM      7  C5  OXE d   1      -2.936  -5.656   1.573  0.00  0.00    -0.002 A 
ATOM      8  C6  OXE d   1      -3.179  -4.538   0.783  0.00  0.00     0.003 A 
ENDROOT
TORSDOF 0
ENDMDL
