MODEL 1
REMARK minimizedAffinity 10.7988892
REMARK minimizedRMSD -1
REMARK  0 active torsions:
REMARK  status: ('A' for Active; 'I' for Inactive)
ROOT
ATOM      1  C2' OXE d   1       5.293  -0.931   0.689  0.00  0.00     0.078 C 
ATOM      2  C1' OXE d   1       4.482  -0.643   3.361  0.00  0.00     0.078 C 
ATOM      3  C1  OXE d   1       3.668   0.055   2.300  0.00  0.00    -0.078 A 
ATOM      4  C2  OXE d   1       4.100  -0.053   1.000  0.00  0.00    -0.078 A 
ATOM      5  C3  OXE d   1       3.355   0.525  -0.024  0.00  0.00     0.003 A 
ATOM      6  C4  OXE d   1       2.258   1.344   0.273  0.00  0.00    -0.002 A 
ATOM      7  C5  OXE d   1       1.825   1.499   1.594  0.00  0.00    -0.002 A 
ATOM      8  C6  OXE d   1       2.492   0.829   2.613  0.00  0.00     0.003 A 
ENDROOT
TORSDOF 0
ENDMDL
