MODEL 1
REMARK minimizedAffinity 18.8971386
REMARK minimizedRMSD -1
REMARK  0 active torsions:
REMARK  status: ('A' for Active; 'I' for Inactive)
ROOT
ATOM      1  C2' OXE d   1      -2.714  -2.228   0.204  0.00  0.00     0.078 C 
ATOM      2  C1' OXE d   1      -0.340  -0.953  -0.582  0.00  0.00     0.078 C 
ATOM      3  C1  OXE d   1      -1.202  -1.561  -1.660  0.00  0.00    -0.078 A 
ATOM      4  C2  OXE d   1      -2.339  -2.223  -1.262  0.00  0.00    -0.078 A 
ATOM      5  C3  OXE d   1      -3.198  -2.755  -2.220  0.00  0.00     0.003 A 
ATOM      6  C4  OXE d   1      -2.838  -2.755  -3.573  0.00  0.00    -0.002 A 
ATOM      7  C5  OXE d   1      -1.665  -2.120  -3.996  0.00  0.00    -0.002 A 
ATOM      8  C6  OXE d   1      -0.859  -1.483  -3.058  0.00  0.00     0.003 A 
ENDROOT
TORSDOF 0
ENDMDL
