MODEL 1
REMARK minimizedAffinity -4.81498814
REMARK minimizedRMSD -1
REMARK  0 active torsions:
REMARK  status: ('A' for Active; 'I' for Inactive)
ROOT
ATOM      1  C2' OXE d   1       2.779  -1.492   0.742  0.00  0.00     0.078 C 
ATOM      2  C1' OXE d   1       0.720  -2.688  -0.744  0.00  0.00     0.078 C 
ATOM      3  C1  OXE d   1       0.540  -1.251  -0.324  0.00  0.00    -0.078 A 
ATOM      4  C2  OXE d   1       1.532  -0.688   0.443  0.00  0.00    -0.078 A 
ATOM      5  C3  OXE d   1       1.442   0.652   0.812  0.00  0.00     0.003 A 
ATOM      6  C4  OXE d   1       0.281   1.385   0.539  0.00  0.00    -0.002 A 
ATOM      7  C5  OXE d   1      -0.759   0.818  -0.206  0.00  0.00    -0.002 A 
ATOM      8  C6  OXE d   1      -0.626  -0.482  -0.681  0.00  0.00     0.003 A 
ENDROOT
TORSDOF 0
ENDMDL
