MODEL 1
REMARK minimizedAffinity -5.05275536
REMARK minimizedRMSD -1
REMARK  0 active torsions:
REMARK  status: ('A' for Active; 'I' for Inactive)
ROOT
ATOM      1  C2' OXE d   1      -1.046   0.342  -0.109  0.00  0.00     0.078 C 
ATOM      2  C1' OXE d   1      -0.385  -2.349  -0.559  0.00  0.00     0.078 C 
ATOM      3  C1  OXE d   1       0.719  -1.416  -0.126  0.00  0.00    -0.078 A 
ATOM      4  C2  OXE d   1       0.396  -0.092   0.047  0.00  0.00    -0.078 A 
ATOM      5  C3  OXE d   1       1.364   0.800   0.498  0.00  0.00     0.003 A 
ATOM      6  C4  OXE d   1       2.697   0.393   0.630  0.00  0.00    -0.002 A 
ATOM      7  C5  OXE d   1       3.055  -0.943   0.421  0.00  0.00    -0.002 A 
ATOM      8  C6  OXE d   1       2.072  -1.867   0.084  0.00  0.00     0.003 A 
ENDROOT
TORSDOF 0
ENDMDL
