MODEL 1
REMARK minimizedAffinity -0.159866974
REMARK minimizedRMSD -1
REMARK  0 active torsions:
REMARK  status: ('A' for Active; 'I' for Inactive)
ROOT
ATOM      1  C2' OXE d   1      -0.057  -2.247  -1.078  0.00  0.00     0.078 C 
ATOM      2  C1' OXE d   1       2.432  -1.626   0.062  0.00  0.00     0.078 C 
ATOM      3  C1  OXE d   1       1.424  -0.512  -0.075  0.00  0.00    -0.078 A 
ATOM      4  C2  OXE d   1       0.226  -0.815  -0.677  0.00  0.00    -0.078 A 
ATOM      5  C3  OXE d   1      -0.760   0.162  -0.779  0.00  0.00     0.003 A 
ATOM      6  C4  OXE d   1      -0.487   1.486  -0.415  0.00  0.00    -0.002 A 
ATOM      7  C5  OXE d   1       0.741   1.824   0.163  0.00  0.00    -0.002 A 
ATOM      8  C6  OXE d   1       1.689   0.830   0.379  0.00  0.00     0.003 A 
ENDROOT
TORSDOF 0
ENDMDL
