MODEL 1
REMARK minimizedAffinity -1.8716507
REMARK minimizedRMSD -1
REMARK  0 active torsions:
REMARK  status: ('A' for Active; 'I' for Inactive)
ROOT
ATOM      1  C2' OXE d   1      -1.303   0.788  -0.048  0.00  0.00     0.078 C 
ATOM      2  C1' OXE d   1       1.133   2.183  -0.078  0.00  0.00     0.078 C 
ATOM      3  C1  OXE d   1       1.182   0.680  -0.187  0.00  0.00    -0.078 A 
ATOM      4  C2  OXE d   1      -0.012   0.002  -0.125  0.00  0.00    -0.078 A 
ATOM      5  C3  OXE d   1      -0.027  -1.382  -0.276  0.00  0.00     0.003 A 
ATOM      6  C4  OXE d   1       1.172  -2.102  -0.337  0.00  0.00    -0.002 A 
ATOM      7  C5  OXE d   1       2.401  -1.434  -0.361  0.00  0.00    -0.002 A 
ATOM      8  C6  OXE d   1       2.421  -0.044  -0.330  0.00  0.00     0.003 A 
ENDROOT
TORSDOF 0
ENDMDL
