MODEL 1
REMARK minimizedAffinity -2.75067997
REMARK minimizedRMSD -1
REMARK  0 active torsions:
REMARK  status: ('A' for Active; 'I' for Inactive)
ROOT
ATOM      1  C2' OXE d   1      -1.322   0.609  -0.334  0.00  0.00     0.078 C 
ATOM      2  C1' OXE d   1       0.950   2.254  -0.448  0.00  0.00     0.078 C 
ATOM      3  C1  OXE d   1       1.159   0.761  -0.510  0.00  0.00    -0.078 A 
ATOM      4  C2  OXE d   1       0.045  -0.037  -0.406  0.00  0.00    -0.078 A 
ATOM      5  C3  OXE d   1       0.175  -1.419  -0.511  0.00  0.00     0.003 A 
ATOM      6  C4  OXE d   1       1.443  -2.009  -0.568  0.00  0.00    -0.002 A 
ATOM      7  C5  OXE d   1       2.593  -1.216  -0.634  0.00  0.00    -0.002 A 
ATOM      8  C6  OXE d   1       2.466   0.169  -0.649  0.00  0.00     0.003 A 
ENDROOT
TORSDOF 0
ENDMDL
