MODEL 1
REMARK minimizedAffinity -4.85911465
REMARK minimizedRMSD -1
REMARK  0 active torsions:
REMARK  status: ('A' for Active; 'I' for Inactive)
ROOT
ATOM      1  C2' OXE d   1       2.831  -0.888   1.022  0.00  0.00     0.078 C 
ATOM      2  C1' OXE d   1       1.963   1.762   0.703  0.00  0.00     0.078 C 
ATOM      3  C1  OXE d   1       1.055   0.661   0.217  0.00  0.00    -0.078 A 
ATOM      4  C2  OXE d   1       1.508  -0.631   0.335  0.00  0.00    -0.078 A 
ATOM      5  C3  OXE d   1       0.686  -1.687  -0.048  0.00  0.00     0.003 A 
ATOM      6  C4  OXE d   1      -0.532  -1.440  -0.692  0.00  0.00    -0.002 A 
ATOM      7  C5  OXE d   1      -0.995  -0.131  -0.858  0.00  0.00    -0.002 A 
ATOM      8  C6  OXE d   1      -0.235   0.927  -0.372  0.00  0.00     0.003 A 
ENDROOT
TORSDOF 0
ENDMDL
