MODEL 1
REMARK minimizedAffinity -5.51492929
REMARK minimizedRMSD -1
REMARK  0 active torsions:
REMARK  status: ('A' for Active; 'I' for Inactive)
ROOT
ATOM      1  C2' OXE d   1       0.292  -2.159  -0.075  0.00  0.00     0.078 C 
ATOM      2  C1' OXE d   1       2.792  -1.400   0.951  0.00  0.00     0.078 C 
ATOM      3  C1  OXE d   1       1.862  -0.308   0.485  0.00  0.00    -0.078 A 
ATOM      4  C2  OXE d   1       0.660  -0.691  -0.059  0.00  0.00    -0.078 A 
ATOM      5  C3  OXE d   1      -0.258   0.278  -0.454  0.00  0.00     0.003 A 
ATOM      6  C4  OXE d   1       0.094   1.634  -0.445  0.00  0.00    -0.002 A 
ATOM      7  C5  OXE d   1       1.329   2.043   0.068  0.00  0.00    -0.002 A 
ATOM      8  C6  OXE d   1       2.206   1.090   0.575  0.00  0.00     0.003 A 
ENDROOT
TORSDOF 0
ENDMDL
