MODEL 1
REMARK minimizedAffinity -3.82054687
REMARK minimizedRMSD -1
REMARK  0 active torsions:
REMARK  status: ('A' for Active; 'I' for Inactive)
ROOT
ATOM      1  C2' OXE d   1      -0.751  -0.444  -1.575  0.00  0.00     0.078 C 
ATOM      2  C1' OXE d   1      -0.879   1.125   0.749  0.00  0.00     0.078 C 
ATOM      3  C1  OXE d   1       0.254   0.137   0.629  0.00  0.00    -0.078 A 
ATOM      4  C2  OXE d   1       0.283  -0.659  -0.490  0.00  0.00    -0.078 A 
ATOM      5  C3  OXE d   1       1.337  -1.549  -0.677  0.00  0.00     0.003 A 
ATOM      6  C4  OXE d   1       2.283  -1.749   0.336  0.00  0.00    -0.002 A 
ATOM      7  C5  OXE d   1       2.250  -0.976   1.502  0.00  0.00    -0.002 A 
ATOM      8  C6  OXE d   1       1.269  -0.001   1.645  0.00  0.00     0.003 A 
ENDROOT
TORSDOF 0
ENDMDL
