MODEL 1
REMARK minimizedAffinity -3.83146453
REMARK minimizedRMSD -1
REMARK  0 active torsions:
REMARK  status: ('A' for Active; 'I' for Inactive)
ROOT
ATOM      1  C2' OXE d   1      -0.926   1.282  -0.650  0.00  0.00     0.078 C 
ATOM      2  C1' OXE d   1       1.500   1.843   0.647  0.00  0.00     0.078 C 
ATOM      3  C1  OXE d   1       1.248   0.421   0.210  0.00  0.00    -0.078 A 
ATOM      4  C2  OXE d   1       0.039   0.147  -0.382  0.00  0.00    -0.078 A 
ATOM      5  C3  OXE d   1      -0.223  -1.137  -0.853  0.00  0.00     0.003 A 
ATOM      6  C4  OXE d   1       0.671  -2.183  -0.593  0.00  0.00    -0.002 A 
ATOM      7  C5  OXE d   1       1.891  -1.933   0.044  0.00  0.00    -0.002 A 
ATOM      8  C6  OXE d   1       2.213  -0.631   0.412  0.00  0.00     0.003 A 
ENDROOT
TORSDOF 0
ENDMDL
