MODEL 1
REMARK minimizedAffinity 6.20899963
REMARK minimizedRMSD -1
REMARK  0 active torsions:
REMARK  status: ('A' for Active; 'I' for Inactive)
ROOT
ATOM      1  O1  BZF d   1       0.578  -1.347   1.311  0.00  0.00    -0.204 OA
ATOM      2  C2  BZF d   1       0.121  -2.051   0.214  0.00  0.00     0.174 A 
ATOM      3  C3  BZF d   1       0.566  -3.324   0.244  0.00  0.00    -0.012 A 
ATOM      4  C3A BZF d   1       1.274  -3.447   1.481  0.00  0.00    -0.107 A 
ATOM      5  C4  BZF d   1       1.931  -4.478   2.089  0.00  0.00     0.055 A 
ATOM      6  C5  BZF d   1       2.579  -4.250   3.261  0.00  0.00    -0.016 A 
ATOM      7  C6  BZF d   1       2.595  -3.002   3.850  0.00  0.00     0.022 A 
ATOM      8  C7  BZF d   1       1.954  -1.949   3.287  0.00  0.00     0.029 A 
ATOM      9  C7A BZF d   1       1.270  -2.185   2.120  0.00  0.00     0.058 A 
ENDROOT
TORSDOF 0
ENDMDL
