MODEL 1
REMARK minimizedAffinity -3.63651538
REMARK minimizedRMSD -1
REMARK  0 active torsions:
REMARK  status: ('A' for Active; 'I' for Inactive)
ROOT
ATOM      1  O1  BZF d   1       0.865  -1.397   2.246  0.00  0.00    -0.204 OA
ATOM      2  C2  BZF d   1       1.304  -1.119   3.525  0.00  0.00     0.174 A 
ATOM      3  C3  BZF d   1       1.782  -2.231   4.120  0.00  0.00    -0.012 A 
ATOM      4  C3A BZF d   1       1.717  -3.251   3.118  0.00  0.00    -0.107 A 
ATOM      5  C4  BZF d   1       2.064  -4.571   3.099  0.00  0.00     0.055 A 
ATOM      6  C5  BZF d   1       1.805  -5.306   1.986  0.00  0.00    -0.016 A 
ATOM      7  C6  BZF d   1       1.195  -4.755   0.878  0.00  0.00     0.022 A 
ATOM      8  C7  BZF d   1       0.836  -3.449   0.848  0.00  0.00     0.029 A 
ATOM      9  C7A BZF d   1       1.127  -2.695   1.959  0.00  0.00     0.058 A 
ENDROOT
TORSDOF 0
ENDMDL
