MODEL 1
REMARK minimizedAffinity 6.14851141
REMARK minimizedRMSD -1
REMARK  0 active torsions:
REMARK  status: ('A' for Active; 'I' for Inactive)
ROOT
ATOM      1  O1  BZF d   1       2.722  -5.023   3.609  0.00  0.00    -0.204 OA
ATOM      2  C2  BZF d   1       3.486  -4.592   4.676  0.00  0.00     0.174 A 
ATOM      3  C3  BZF d   1       3.445  -3.248   4.782  0.00  0.00    -0.012 A 
ATOM      4  C3A BZF d   1       2.528  -2.819   3.771  0.00  0.00    -0.107 A 
ATOM      5  C4  BZF d   1       2.057  -1.596   3.389  0.00  0.00     0.055 A 
ATOM      6  C5  BZF d   1       1.227  -1.513   2.316  0.00  0.00    -0.016 A 
ATOM      7  C6  BZF d   1       0.852  -2.631   1.600  0.00  0.00     0.022 A 
ATOM      8  C7  BZF d   1       1.290  -3.867   1.944  0.00  0.00     0.029 A 
ATOM      9  C7A BZF d   1       2.102  -3.957   3.048  0.00  0.00     0.058 A 
ENDROOT
TORSDOF 0
ENDMDL
