MODEL 1
REMARK minimizedAffinity 9.09589672
REMARK minimizedRMSD -1
REMARK  0 active torsions:
REMARK  status: ('A' for Active; 'I' for Inactive)
ROOT
ATOM      1  O1  BZF d   1       1.498  -0.574   3.487  0.00  0.00    -0.204 OA
ATOM      2  C2  BZF d   1       1.401  -1.593   2.559  0.00  0.00     0.174 A 
ATOM      3  C3  BZF d   1       1.799  -1.171   1.341  0.00  0.00    -0.012 A 
ATOM      4  C3A BZF d   1       2.254   0.171   1.539  0.00  0.00    -0.107 A 
ATOM      5  C4  BZF d   1       2.784   1.114   0.706  0.00  0.00     0.055 A 
ATOM      6  C5  BZF d   1       3.057   2.352   1.197  0.00  0.00    -0.016 A 
ATOM      7  C6  BZF d   1       2.807   2.681   2.514  0.00  0.00     0.022 A 
ATOM      8  C7  BZF d   1       2.287   1.777   3.379  0.00  0.00     0.029 A 
ATOM      9  C7A BZF d   1       2.042   0.516   2.893  0.00  0.00     0.058 A 
ENDROOT
TORSDOF 0
ENDMDL
