MODEL 1
REMARK minimizedAffinity -2.44898653
REMARK minimizedRMSD -1
REMARK  0 active torsions:
REMARK  status: ('A' for Active; 'I' for Inactive)
ROOT
ATOM      1  O1  BZF d   1       3.831  -5.960  -2.034  0.00  0.00    -0.204 OA
ATOM      2  C2  BZF d   1       2.554  -5.996  -1.509  0.00  0.00     0.174 A 
ATOM      3  C3  BZF d   1       1.631  -5.962  -2.492  0.00  0.00    -0.012 A 
ATOM      4  C3A BZF d   1       2.379  -5.995  -3.711  0.00  0.00    -0.107 A 
ATOM      5  C4  BZF d   1       2.024  -5.999  -5.030  0.00  0.00     0.055 A 
ATOM      6  C5  BZF d   1       2.999  -5.960  -5.976  0.00  0.00    -0.016 A 
ATOM      7  C6  BZF d   1       4.336  -5.911  -5.640  0.00  0.00     0.022 A 
ATOM      8  C7  BZF d   1       4.737  -5.910  -4.345  0.00  0.00     0.029 A 
ATOM      9  C7A BZF d   1       3.755  -5.983  -3.387  0.00  0.00     0.058 A 
ENDROOT
TORSDOF 0
ENDMDL
