MODEL 1
REMARK minimizedAffinity 6.63940716
REMARK minimizedRMSD -1
REMARK  0 active torsions:
REMARK  status: ('A' for Active; 'I' for Inactive)
ROOT
ATOM      1  O1  BZF d   1       5.342  -1.983   3.462  0.00  0.00    -0.204 OA
ATOM      2  C2  BZF d   1       5.998  -2.378   4.613  0.00  0.00     0.174 A 
ATOM      3  C3  BZF d   1       5.138  -2.462   5.648  0.00  0.00    -0.012 A 
ATOM      4  C3A BZF d   1       3.849  -2.186   5.091  0.00  0.00    -0.107 A 
ATOM      5  C4  BZF d   1       2.590  -2.135   5.617  0.00  0.00     0.055 A 
ATOM      6  C5  BZF d   1       1.555  -1.765   4.818  0.00  0.00    -0.016 A 
ATOM      7  C6  BZF d   1       1.743  -1.435   3.492  0.00  0.00     0.022 A 
ATOM      8  C7  BZF d   1       2.973  -1.475   2.924  0.00  0.00     0.029 A 
ATOM      9  C7A BZF d   1       4.016  -1.881   3.720  0.00  0.00     0.058 A 
ENDROOT
TORSDOF 0
ENDMDL
