MODEL 1
REMARK minimizedAffinity -1.4085716
REMARK minimizedRMSD -1
REMARK  0 active torsions:
REMARK  status: ('A' for Active; 'I' for Inactive)
ROOT
ATOM      1  N1  IND d   1       2.036  -4.334   0.288  0.00  0.00    -0.196 N 
ATOM      2  C2  IND d   1       1.117  -5.068   0.984  0.00  0.00     0.054 A 
ATOM      3  C3  IND d   1      -0.057  -4.401   1.060  0.00  0.00    -0.031 A 
ATOM      4  C4  IND d   1      -0.722  -2.138   0.028  0.00  0.00     0.051 A 
ATOM      5  C5  IND d   1      -0.209  -1.077  -0.664  0.00  0.00    -0.031 A 
ATOM      6  C6  IND d   1       1.105  -1.048  -1.085  0.00  0.00     0.015 A 
ATOM      7  C7  IND d   1       1.955  -2.089  -0.838  0.00  0.00    -0.016 A 
ATOM      8  C8  IND d   1       1.439  -3.165  -0.129  0.00  0.00    -0.047 A 
ATOM      9  C9  IND d   1       0.118  -3.181   0.337  0.00  0.00    -0.096 A 
ATOM     10  HN1 IND d   1       2.851  -4.563   0.137  0.00  0.00     0.298 HD
ENDROOT
TORSDOF 0
ENDMDL
