MODEL 1
REMARK minimizedAffinity -3.01853752
REMARK minimizedRMSD -1
REMARK  0 active torsions:
REMARK  status: ('A' for Active; 'I' for Inactive)
ROOT
ATOM      1  N1  IND d   1      -0.315  -4.495   0.587  0.00  0.00    -0.196 N 
ATOM      2  C2  IND d   1       0.834  -5.227   0.696  0.00  0.00     0.054 A 
ATOM      3  C3  IND d   1       1.905  -4.476   0.353  0.00  0.00    -0.031 A 
ATOM      4  C4  IND d   1       2.013  -1.994  -0.321  0.00  0.00     0.051 A 
ATOM      5  C5  IND d   1       1.219  -0.917  -0.597  0.00  0.00    -0.031 A 
ATOM      6  C6  IND d   1      -0.156  -0.978  -0.487  0.00  0.00     0.015 A 
ATOM      7  C7  IND d   1      -0.788  -2.120  -0.084  0.00  0.00    -0.016 A 
ATOM      8  C8  IND d   1       0.015  -3.218   0.189  0.00  0.00    -0.047 A 
ATOM      9  C9  IND d   1       1.407  -3.175   0.039  0.00  0.00    -0.096 A 
ATOM     10  HN1 IND d   1      -1.110  -4.783   0.742  0.00  0.00     0.298 HD
ENDROOT
TORSDOF 0
ENDMDL
