MODEL 1
REMARK minimizedAffinity 3.36714792
REMARK minimizedRMSD -1
REMARK  0 active torsions:
REMARK  status: ('A' for Active; 'I' for Inactive)
ROOT
ATOM      1  N1  IND d   1       2.197  -2.837  -1.626  0.00  0.00    -0.196 N 
ATOM      2  C2  IND d   1       2.655  -2.631  -0.354  0.00  0.00     0.054 A 
ATOM      3  C3  IND d   1       2.276  -1.412   0.090  0.00  0.00    -0.031 A 
ATOM      4  C4  IND d   1       0.815   0.367  -1.061  0.00  0.00     0.051 A 
ATOM      5  C5  IND d   1       0.192   0.648  -2.244  0.00  0.00    -0.031 A 
ATOM      6  C6  IND d   1       0.204  -0.237  -3.303  0.00  0.00     0.015 A 
ATOM      7  C7  IND d   1       0.832  -1.447  -3.212  0.00  0.00    -0.016 A 
ATOM      8  C8  IND d   1       1.471  -1.733  -2.015  0.00  0.00    -0.047 A 
ATOM      9  C9  IND d   1       1.499  -0.820  -0.952  0.00  0.00    -0.096 A 
ATOM     10  HN1 IND d   1       2.339  -3.538  -2.103  0.00  0.00     0.298 HD
ENDROOT
TORSDOF 0
ENDMDL
