MODEL 1
REMARK minimizedAffinity 3.4739325
REMARK minimizedRMSD -1
REMARK  0 active torsions:
REMARK  status: ('A' for Active; 'I' for Inactive)
ROOT
ATOM      1  N1  IND d   1      -0.530  -1.519  -4.022  0.00  0.00    -0.196 N 
ATOM      2  C2  IND d   1      -0.300  -0.379  -4.740  0.00  0.00     0.054 A 
ATOM      3  C3  IND d   1       0.320   0.544  -3.971  0.00  0.00    -0.031 A 
ATOM      4  C4  IND d   1       1.143   0.360  -1.539  0.00  0.00     0.051 A 
ATOM      5  C5  IND d   1       1.128  -0.474  -0.457  0.00  0.00    -0.031 A 
ATOM      6  C6  IND d   1       0.550  -1.726  -0.510  0.00  0.00     0.015 A 
ATOM      7  C7  IND d   1      -0.027  -2.197  -1.655  0.00  0.00    -0.016 A 
ATOM      8  C8  IND d   1      -0.020  -1.349  -2.754  0.00  0.00    -0.047 A 
ATOM      9  C9  IND d   1       0.528  -0.061  -2.694  0.00  0.00    -0.096 A 
ATOM     10  HN1 IND d   1      -0.927  -2.224  -4.313  0.00  0.00     0.298 HD
ENDROOT
TORSDOF 0
ENDMDL
