MODEL 1
REMARK minimizedAffinity -2.7382803
REMARK minimizedRMSD -1
REMARK  0 active torsions:
REMARK  status: ('A' for Active; 'I' for Inactive)
ROOT
ATOM      1  N1  IND d   1       2.628  -1.536  -0.840  0.00  0.00    -0.196 N 
ATOM      2  C2  IND d   1       1.916  -0.559  -1.478  0.00  0.00     0.054 A 
ATOM      3  C3  IND d   1       0.599  -0.862  -1.480  0.00  0.00    -0.031 A 
ATOM      4  C4  IND d   1      -0.623  -2.857  -0.406  0.00  0.00     0.051 A 
ATOM      5  C5  IND d   1      -0.394  -4.031   0.255  0.00  0.00    -0.031 A 
ATOM      6  C6  IND d   1       0.880  -4.441   0.593  0.00  0.00     0.015 A 
ATOM      7  C7  IND d   1       1.976  -3.682   0.293  0.00  0.00    -0.016 A 
ATOM      8  C8  IND d   1       1.747  -2.493  -0.384  0.00  0.00    -0.047 A 
ATOM      9  C9  IND d   1       0.461  -2.092  -0.768  0.00  0.00    -0.096 A 
ATOM     10  HN1 IND d   1       3.482  -1.551  -0.740  0.00  0.00     0.298 HD
ENDROOT
TORSDOF 0
ENDMDL
