MODEL 1
REMARK minimizedAffinity -4.85748768
REMARK minimizedRMSD -1
REMARK  0 active torsions:
REMARK  status: ('A' for Active; 'I' for Inactive)
ROOT
ATOM      1  N1  IND d   1       3.011  -2.255  -0.980  0.00  0.00    -0.196 N 
ATOM      2  C2  IND d   1       3.199  -1.095  -1.677  0.00  0.00     0.054 A 
ATOM      3  C3  IND d   1       2.046  -0.392  -1.743  0.00  0.00    -0.031 A 
ATOM      4  C4  IND d   1      -0.246  -0.910  -0.691  0.00  0.00     0.051 A 
ATOM      5  C5  IND d   1      -0.918  -1.874   0.007  0.00  0.00    -0.031 A 
ATOM      6  C6  IND d   1      -0.301  -3.037   0.422  0.00  0.00     0.015 A 
ATOM      7  C7  IND d   1       1.019  -3.275   0.163  0.00  0.00    -0.016 A 
ATOM      8  C8  IND d   1       1.702  -2.301  -0.551  0.00  0.00    -0.047 A 
ATOM      9  C9  IND d   1       1.071  -1.138  -1.012  0.00  0.00    -0.096 A 
ATOM     10  HN1 IND d   1       3.608  -2.856  -0.835  0.00  0.00     0.298 HD
ENDROOT
TORSDOF 0
ENDMDL
