MODEL 1
REMARK minimizedAffinity -2.44786835
REMARK minimizedRMSD -1
REMARK  0 active torsions:
REMARK  status: ('A' for Active; 'I' for Inactive)
ROOT
ATOM      1  N1  IND d   1       1.939  -4.364   0.200  0.00  0.00    -0.196 N 
ATOM      2  C2  IND d   1       1.001  -4.960   0.995  0.00  0.00     0.054 A 
ATOM      3  C3  IND d   1      -0.080  -4.159   1.127  0.00  0.00    -0.031 A 
ATOM      4  C4  IND d   1      -0.567  -1.875   0.043  0.00  0.00     0.051 A 
ATOM      5  C5  IND d   1       0.006  -0.908  -0.734  0.00  0.00    -0.031 A 
ATOM      6  C6  IND d   1       1.278  -1.047  -1.252  0.00  0.00     0.015 A 
ATOM      7  C7  IND d   1       2.022  -2.169  -1.021  0.00  0.00    -0.016 A 
ATOM      8  C8  IND d   1       1.446  -3.150  -0.227  0.00  0.00    -0.047 A 
ATOM      9  C9  IND d   1       0.173  -2.996   0.337  0.00  0.00    -0.096 A 
ATOM     10  HN1 IND d   1       2.708  -4.692  -0.001  0.00  0.00     0.298 HD
ENDROOT
TORSDOF 0
ENDMDL
