MODEL 1
REMARK minimizedAffinity 6.33304644
REMARK minimizedRMSD -1
REMARK  0 active torsions:
REMARK  status: ('A' for Active; 'I' for Inactive)
ROOT
ATOM      1  N1  IND d   1       2.712  -2.305  -0.383  0.00  0.00    -0.196 N 
ATOM      2  C2  IND d   1       2.385  -3.461   0.269  0.00  0.00     0.054 A 
ATOM      3  C3  IND d   1       1.042  -3.576   0.375  0.00  0.00    -0.031 A 
ATOM      4  C4  IND d   1      -0.809  -2.037  -0.537  0.00  0.00     0.051 A 
ATOM      5  C5  IND d   1      -1.001  -0.841  -1.170  0.00  0.00    -0.031 A 
ATOM      6  C6  IND d   1       0.056  -0.057  -1.583  0.00  0.00     0.015 A 
ATOM      7  C7  IND d   1       1.351  -0.447  -1.388  0.00  0.00    -0.016 A 
ATOM      8  C8  IND d   1       1.550  -1.658  -0.740  0.00  0.00    -0.047 A 
ATOM      9  C9  IND d   1       0.481  -2.438  -0.281  0.00  0.00    -0.096 A 
ATOM     10  HN1 IND d   1       3.511  -2.028  -0.543  0.00  0.00     0.298 HD
ENDROOT
TORSDOF 0
ENDMDL
