MODEL 1
REMARK minimizedAffinity -6.2972374
REMARK minimizedRMSD -1
REMARK  0 active torsions:
REMARK  status: ('A' for Active; 'I' for Inactive)
ROOT
ATOM      1  N1  IND d   1       2.035  -4.144   0.184  0.00  0.00    -0.196 N 
ATOM      2  C2  IND d   1       1.003  -4.975   0.523  0.00  0.00     0.054 A 
ATOM      3  C3  IND d   1      -0.168  -4.300   0.507  0.00  0.00    -0.031 A 
ATOM      4  C4  IND d   1      -0.639  -1.854  -0.143  0.00  0.00     0.051 A 
ATOM      5  C5  IND d   1      -0.010  -0.691  -0.488  0.00  0.00    -0.031 A 
ATOM      6  C6  IND d   1       1.361  -0.619  -0.633  0.00  0.00     0.015 A 
ATOM      7  C7  IND d   1       2.155  -1.715  -0.448  0.00  0.00    -0.016 A 
ATOM      8  C8  IND d   1       1.520  -2.896  -0.090  0.00  0.00    -0.047 A 
ATOM      9  C9  IND d   1       0.134  -2.965   0.100  0.00  0.00    -0.096 A 
ATOM     10  HN1 IND d   1       2.865  -4.364   0.149  0.00  0.00     0.298 HD
ENDROOT
TORSDOF 0
ENDMDL
