MODEL 1
REMARK minimizedAffinity 5.62996769
REMARK minimizedRMSD -1
REMARK  0 active torsions:
REMARK  status: ('A' for Active; 'I' for Inactive)
ROOT
ATOM      1  N1  IND d   1       1.348  -3.488  -0.128  0.00  0.00    -0.196 N 
ATOM      2  C2  IND d   1       2.687  -3.232  -0.029  0.00  0.00     0.054 A 
ATOM      3  C3  IND d   1       2.947  -1.951  -0.376  0.00  0.00    -0.031 A 
ATOM      4  C4  IND d   1       1.317  -0.073  -1.039  0.00  0.00     0.051 A 
ATOM      5  C5  IND d   1      -0.002   0.164  -1.306  0.00  0.00    -0.031 A 
ATOM      6  C6  IND d   1      -0.959  -0.823  -1.188  0.00  0.00     0.015 A 
ATOM      7  C7  IND d   1      -0.632  -2.088  -0.787  0.00  0.00    -0.016 A 
ATOM      8  C8  IND d   1       0.708  -2.334  -0.522  0.00  0.00    -0.047 A 
ATOM      9  C9  IND d   1       1.689  -1.347  -0.681  0.00  0.00    -0.096 A 
ATOM     10  HN1 IND d   1       0.968  -4.244   0.030  0.00  0.00     0.298 HD
ENDROOT
TORSDOF 0
ENDMDL
