MODEL 1
REMARK minimizedAffinity 2.7136302
REMARK minimizedRMSD -1
REMARK  0 active torsions:
REMARK  status: ('A' for Active; 'I' for Inactive)
ROOT
ATOM      1  N1  IND d   1       1.770  -0.821  -1.161  0.00  0.00    -0.196 N 
ATOM      2  C2  IND d   1       0.529  -0.269  -1.319  0.00  0.00     0.054 A 
ATOM      3  C3  IND d   1      -0.410  -1.050  -0.738  0.00  0.00    -0.031 A 
ATOM      4  C4  IND d   1      -0.123  -3.222   0.613  0.00  0.00     0.051 A 
ATOM      5  C5  IND d   1       0.818  -4.136   0.997  0.00  0.00    -0.031 A 
ATOM      6  C6  IND d   1       2.152  -3.987   0.677  0.00  0.00     0.015 A 
ATOM      7  C7  IND d   1       2.598  -2.907  -0.033  0.00  0.00    -0.016 A 
ATOM      8  C8  IND d   1       1.644  -1.981  -0.430  0.00  0.00    -0.047 A 
ATOM      9  C9  IND d   1       0.283  -2.149  -0.145  0.00  0.00    -0.096 A 
ATOM     10  HN1 IND d   1       2.505  -0.497  -1.467  0.00  0.00     0.298 HD
ENDROOT
TORSDOF 0
ENDMDL
