MODEL 1
REMARK minimizedAffinity -1.23828042
REMARK minimizedRMSD -1
REMARK  0 active torsions:
REMARK  status: ('A' for Active; 'I' for Inactive)
ROOT
ATOM      1  N1  IND d   1      -3.037   1.060   3.801  0.00  0.00    -0.196 N 
ATOM      2  C2  IND d   1      -2.342   0.372   4.756  0.00  0.00     0.054 A 
ATOM      3  C3  IND d   1      -2.916  -0.831   4.982  0.00  0.00    -0.031 A 
ATOM      4  C4  IND d   1      -4.942  -1.919   3.825  0.00  0.00     0.051 A 
ATOM      5  C5  IND d   1      -5.928  -1.663   2.913  0.00  0.00    -0.031 A 
ATOM      6  C6  IND d   1      -6.000  -0.463   2.235  0.00  0.00     0.015 A 
ATOM      7  C7  IND d   1      -5.078   0.526   2.436  0.00  0.00    -0.016 A 
ATOM      8  C8  IND d   1      -4.080   0.272   3.366  0.00  0.00    -0.047 A 
ATOM      9  C9  IND d   1      -4.027  -0.927   4.088  0.00  0.00    -0.096 A 
ATOM     10  HN1 IND d   1      -2.854   1.851   3.519  0.00  0.00     0.298 HD
ENDROOT
TORSDOF 0
ENDMDL
