MODEL 1
REMARK minimizedAffinity -2.89437294
REMARK minimizedRMSD -1
REMARK  0 active torsions:
REMARK  status: ('A' for Active; 'I' for Inactive)
ROOT
ATOM      1  N1  IND d   1       2.205  -4.834   0.533  0.00  0.00    -0.196 N 
ATOM      2  C2  IND d   1       1.137  -5.477   1.096  0.00  0.00     0.054 A 
ATOM      3  C3  IND d   1       0.048  -4.676   1.089  0.00  0.00    -0.031 A 
ATOM      4  C4  IND d   1      -0.236  -2.312   0.112  0.00  0.00     0.051 A 
ATOM      5  C5  IND d   1       0.467  -1.295  -0.471  0.00  0.00    -0.031 A 
ATOM      6  C6  IND d   1       1.812  -1.410  -0.757  0.00  0.00     0.015 A 
ATOM      7  C7  IND d   1       2.504  -2.555  -0.480  0.00  0.00    -0.016 A 
ATOM      8  C8  IND d   1       1.795  -3.586   0.118  0.00  0.00    -0.047 A 
ATOM      9  C9  IND d   1       0.440  -3.460   0.450  0.00  0.00    -0.096 A 
ATOM     10  HN1 IND d   1       2.998  -5.156   0.452  0.00  0.00     0.298 HD
ENDROOT
TORSDOF 0
ENDMDL
