MODEL 1
REMARK minimizedAffinity -1.87282658
REMARK minimizedRMSD -1
REMARK  0 active torsions:
REMARK  status: ('A' for Active; 'I' for Inactive)
ROOT
ATOM      1  N1  IND d   1       1.650  -3.810   0.646  0.00  0.00    -0.196 N 
ATOM      2  C2  IND d   1       0.578  -4.601   0.951  0.00  0.00     0.054 A 
ATOM      3  C3  IND d   1      -0.575  -3.983   0.611  0.00  0.00    -0.031 A 
ATOM      4  C4  IND d   1      -0.933  -1.714  -0.551  0.00  0.00     0.051 A 
ATOM      5  C5  IND d   1      -0.257  -0.612  -0.994  0.00  0.00    -0.031 A 
ATOM      6  C6  IND d   1       1.118  -0.519  -0.914  0.00  0.00     0.015 A 
ATOM      7  C7  IND d   1       1.871  -1.534  -0.396  0.00  0.00    -0.016 A 
ATOM      8  C8  IND d   1       1.188  -2.651   0.061  0.00  0.00    -0.047 A 
ATOM      9  C9  IND d   1      -0.210  -2.734   0.021  0.00  0.00    -0.096 A 
ATOM     10  HN1 IND d   1       2.475  -4.003   0.794  0.00  0.00     0.298 HD
ENDROOT
TORSDOF 0
ENDMDL
