MODEL 1
REMARK minimizedAffinity -2.59157228
REMARK minimizedRMSD -1
REMARK  0 active torsions:
REMARK  status: ('A' for Active; 'I' for Inactive)
ROOT
ATOM      1  N1  IND d   1       1.499  -3.907   0.648  0.00  0.00    -0.196 N 
ATOM      2  C2  IND d   1       0.400  -4.720   0.631  0.00  0.00     0.054 A 
ATOM      3  C3  IND d   1      -0.677  -4.046   0.168  0.00  0.00    -0.031 A 
ATOM      4  C4  IND d   1      -0.841  -1.632  -0.713  0.00  0.00     0.051 A 
ATOM      5  C5  IND d   1      -0.109  -0.487  -0.861  0.00  0.00    -0.031 A 
ATOM      6  C6  IND d   1       1.223  -0.423  -0.508  0.00  0.00     0.015 A 
ATOM      7  C7  IND d   1       1.880  -1.510  -0.004  0.00  0.00    -0.016 A 
ATOM      8  C8  IND d   1       1.138  -2.672   0.154  0.00  0.00    -0.047 A 
ATOM      9  C9  IND d   1      -0.225  -2.731  -0.162  0.00  0.00    -0.096 A 
ATOM     10  HN1 IND d   1       2.283  -4.129   0.921  0.00  0.00     0.298 HD
ENDROOT
TORSDOF 0
ENDMDL
