MODEL 1
REMARK minimizedAffinity 3.14228058
REMARK minimizedRMSD -1
REMARK  0 active torsions:
REMARK  status: ('A' for Active; 'I' for Inactive)
ROOT
ATOM      1  N1  IND d   1       0.746  -5.367   0.107  0.00  0.00    -0.196 N 
ATOM      2  C2  IND d   1       1.138  -5.995   1.256  0.00  0.00     0.054 A 
ATOM      3  C3  IND d   1       2.082  -5.265   1.892  0.00  0.00    -0.031 A 
ATOM      4  C4  IND d   1       3.058  -2.963   1.280  0.00  0.00     0.051 A 
ATOM      5  C5  IND d   1       3.037  -2.010   0.301  0.00  0.00    -0.031 A 
ATOM      6  C6  IND d   1       2.232  -2.128  -0.814  0.00  0.00     0.015 A 
ATOM      7  C7  IND d   1       1.407  -3.203  -0.987  0.00  0.00    -0.016 A 
ATOM      8  C8  IND d   1       1.432  -4.176   0.002  0.00  0.00    -0.047 A 
ATOM      9  C9  IND d   1       2.277  -4.083   1.115  0.00  0.00    -0.096 A 
ATOM     10  HN1 IND d   1       0.168  -5.665  -0.456  0.00  0.00     0.298 HD
ENDROOT
TORSDOF 0
ENDMDL
