MODEL 1
REMARK minimizedAffinity -5.53948736
REMARK minimizedRMSD -1
REMARK  0 active torsions:
REMARK  status: ('A' for Active; 'I' for Inactive)
ROOT
ATOM      1  N1  IND d   1       2.285  -4.302   0.275  0.00  0.00    -0.196 N 
ATOM      2  C2  IND d   1       1.276  -5.125   0.692  0.00  0.00     0.054 A 
ATOM      3  C3  IND d   1       0.111  -4.442   0.761  0.00  0.00    -0.031 A 
ATOM      4  C4  IND d   1      -0.391  -1.995   0.140  0.00  0.00     0.051 A 
ATOM      5  C5  IND d   1       0.219  -0.837  -0.255  0.00  0.00    -0.031 A 
ATOM      6  C6  IND d   1       1.575  -0.775  -0.501  0.00  0.00     0.015 A 
ATOM      7  C7  IND d   1       2.374  -1.875  -0.372  0.00  0.00    -0.016 A 
ATOM      8  C8  IND d   1       1.760  -3.051   0.036  0.00  0.00    -0.047 A 
ATOM      9  C9  IND d   1       0.391  -3.110   0.329  0.00  0.00    -0.096 A 
ATOM     10  HN1 IND d   1       3.109  -4.528   0.179  0.00  0.00     0.298 HD
ENDROOT
TORSDOF 0
ENDMDL
