MODEL 1
REMARK minimizedAffinity -4.16979027
REMARK minimizedRMSD -1
REMARK  0 active torsions:
REMARK  status: ('A' for Active; 'I' for Inactive)
ROOT
ATOM      1  N1  IND d   1       1.620  -2.840   1.138  0.00  0.00    -0.196 N 
ATOM      2  C2  IND d   1       0.579  -3.700   1.353  0.00  0.00     0.054 A 
ATOM      3  C3  IND d   1      -0.507  -3.309   0.650  0.00  0.00    -0.031 A 
ATOM      4  C4  IND d   1      -0.771  -1.348  -0.997  0.00  0.00     0.051 A 
ATOM      5  C5  IND d   1      -0.108  -0.261  -1.493  0.00  0.00    -0.031 A 
ATOM      6  C6  IND d   1       1.193   0.026  -1.132  0.00  0.00     0.015 A 
ATOM      7  C7  IND d   1       1.885  -0.773  -0.267  0.00  0.00    -0.016 A 
ATOM      8  C8  IND d   1       1.212  -1.874   0.244  0.00  0.00    -0.047 A 
ATOM      9  C9  IND d   1      -0.122  -2.146  -0.085  0.00  0.00    -0.096 A 
ATOM     10  HN1 IND d   1       2.398  -2.894   1.499  0.00  0.00     0.298 HD
ENDROOT
TORSDOF 0
ENDMDL
