MODEL 1
REMARK minimizedAffinity -0.157290414
REMARK minimizedRMSD -1
REMARK  0 active torsions:
REMARK  status: ('A' for Active; 'I' for Inactive)
ROOT
ATOM      1  N1  IND d   1      -4.075   2.011  -0.651  0.00  0.00    -0.196 N 
ATOM      2  C2  IND d   1      -3.429   3.166  -0.308  0.00  0.00     0.054 A 
ATOM      3  C3  IND d   1      -3.167   3.181   1.019  0.00  0.00    -0.031 A 
ATOM      4  C4  IND d   1      -3.616   1.374   2.796  0.00  0.00     0.051 A 
ATOM      5  C5  IND d   1      -4.218   0.159   2.969  0.00  0.00    -0.031 A 
ATOM      6  C6  IND d   1      -4.812  -0.515   1.922  0.00  0.00     0.015 A 
ATOM      7  C7  IND d   1      -4.817  -0.003   0.655  0.00  0.00    -0.016 A 
ATOM      8  C8  IND d   1      -4.213   1.234   0.478  0.00  0.00    -0.047 A 
ATOM      9  C9  IND d   1      -3.646   1.942   1.544  0.00  0.00    -0.096 A 
ATOM     10  HN1 IND d   1      -4.349   1.805  -1.440  0.00  0.00     0.298 HD
ENDROOT
TORSDOF 0
ENDMDL
