MODEL 1
REMARK minimizedAffinity -5.35911226
REMARK minimizedRMSD -1
REMARK  0 active torsions:
REMARK  status: ('A' for Active; 'I' for Inactive)
ROOT
ATOM      1  C   UNL d   1      -3.718  -1.350  -5.190  0.00  0.00     0.124 A 
ATOM      2  C1  UNL d   1      -2.621  -1.485  -4.351  0.00  0.00     0.062 A 
ATOM      3  C2  UNL d   1      -2.251  -0.440  -3.509  0.00  0.00     0.162 A 
ATOM      4  C3  UNL d   1      -2.979   0.749  -3.502  0.00  0.00    -0.034 A 
ATOM      5  C4  UNL d   1      -4.081   0.878  -4.350  0.00  0.00     0.162 A 
ATOM      6  C5  UNL d   1      -4.446  -0.169  -5.189  0.00  0.00     0.062 A 
ATOM      7  F   UNL d   1      -5.506  -0.037  -6.000  0.00  0.00    -0.097 F 
ATOM      8  F1  UNL d   1      -4.803   2.008  -4.369  0.00  0.00    -0.096 F 
ATOM      9  I   UNL d   1      -2.429   2.314  -2.245  0.00  0.00    -0.060 I 
ATOM     10  F2  UNL d   1      -1.186  -0.598  -2.708  0.00  0.00    -0.096 F 
ATOM     11  F3  UNL d   1      -1.915  -2.625  -4.351  0.00  0.00    -0.097 F 
ATOM     12  F4  UNL d   1      -4.071  -2.357  -6.000  0.00  0.00    -0.092 F 
ENDROOT
TORSDOF 0
ENDMDL
