MODEL 1
REMARK minimizedAffinity -4.78220034
REMARK minimizedRMSD -1
REMARK  0 active torsions:
REMARK  status: ('A' for Active; 'I' for Inactive)
ROOT
ATOM      1  C   UNL d   1      -3.018  -1.771  -4.504  0.00  0.00     0.124 A 
ATOM      2  C1  UNL d   1      -2.167  -1.049  -3.680  0.00  0.00     0.062 A 
ATOM      3  C2  UNL d   1      -2.495   0.249  -3.299  0.00  0.00     0.162 A 
ATOM      4  C3  UNL d   1      -3.682   0.834  -3.742  0.00  0.00    -0.034 A 
ATOM      5  C4  UNL d   1      -4.533   0.101  -4.572  0.00  0.00     0.162 A 
ATOM      6  C5  UNL d   1      -4.200  -1.196  -4.950  0.00  0.00     0.062 A 
ATOM      7  F   UNL d   1      -5.024  -1.892  -5.747  0.00  0.00    -0.097 F 
ATOM      8  F1  UNL d   1      -5.681   0.633  -5.016  0.00  0.00    -0.096 F 
ATOM      9  I   UNL d   1      -4.177   2.774  -3.176  0.00  0.00    -0.060 I 
ATOM     10  F2  UNL d   1      -1.654   0.924  -2.502  0.00  0.00    -0.096 F 
ATOM     11  F3  UNL d   1      -1.024  -1.602  -3.249  0.00  0.00    -0.097 F 
ATOM     12  F4  UNL d   1      -2.699  -3.019  -4.870  0.00  0.00    -0.092 F 
ENDROOT
TORSDOF 0
ENDMDL
