MODEL 1
REMARK minimizedAffinity 10.5948772
REMARK minimizedRMSD -1
REMARK  0 active torsions:
REMARK  status: ('A' for Active; 'I' for Inactive)
ROOT
ATOM      1  C   UNL d   1       1.572   1.595   1.760  0.00  0.00     0.124 A 
ATOM      2  C1  UNL d   1       2.546   1.339   0.804  0.00  0.00     0.062 A 
ATOM      3  C2  UNL d   1       2.833   0.029   0.430  0.00  0.00     0.162 A 
ATOM      4  C3  UNL d   1       2.145  -1.036   1.012  0.00  0.00    -0.034 A 
ATOM      5  C4  UNL d   1       1.168  -0.771   1.974  0.00  0.00     0.162 A 
ATOM      6  C5  UNL d   1       0.884   0.540   2.343  0.00  0.00     0.062 A 
ATOM      7  F   UNL d   1      -0.056   0.785   3.267  0.00  0.00    -0.097 F 
ATOM      8  F1  UNL d   1       0.487  -1.771   2.553  0.00  0.00    -0.096 F 
ATOM      9  I   UNL d   1       2.571  -2.996   0.456  0.00  0.00    -0.060 I 
ATOM     10  F2  UNL d   1       3.778  -0.189  -0.496  0.00  0.00    -0.096 F 
ATOM     11  F3  UNL d   1       3.212   2.356   0.239  0.00  0.00    -0.097 F 
ATOM     12  F4  UNL d   1       1.299   2.856   2.118  0.00  0.00    -0.092 F 
ENDROOT
TORSDOF 0
ENDMDL
