MODEL 1
REMARK minimizedAffinity 13.9058886
REMARK minimizedRMSD -1
REMARK  0 active torsions:
REMARK  status: ('A' for Active; 'I' for Inactive)
ROOT
ATOM      1  C   UNL d   1      -3.639   2.458  -3.732  0.00  0.00     0.124 A 
ATOM      2  C1  UNL d   1      -4.164   1.862  -4.870  0.00  0.00     0.062 A 
ATOM      3  C2  UNL d   1      -4.559   0.528  -4.842  0.00  0.00     0.162 A 
ATOM      4  C3  UNL d   1      -4.431  -0.220  -3.672  0.00  0.00    -0.034 A 
ATOM      5  C4  UNL d   1      -3.901   0.386  -2.532  0.00  0.00     0.162 A 
ATOM      6  C5  UNL d   1      -3.508   1.720  -2.564  0.00  0.00     0.062 A 
ATOM      7  F   UNL d   1      -3.000   2.294  -1.463  0.00  0.00    -0.097 F 
ATOM      8  F1  UNL d   1      -3.763  -0.304  -1.390  0.00  0.00    -0.096 F 
ATOM      9  I   UNL d   1      -5.020  -2.216  -3.627  0.00  0.00    -0.060 I 
ATOM     10  F2  UNL d   1      -5.063  -0.022  -5.957  0.00  0.00    -0.096 F 
ATOM     11  F3  UNL d   1      -4.291   2.573  -5.999  0.00  0.00    -0.097 F 
ATOM     12  F4  UNL d   1      -3.259   3.742  -3.761  0.00  0.00    -0.092 F 
ENDROOT
TORSDOF 0
ENDMDL
