MODEL 1
REMARK minimizedAffinity 8.66977596
REMARK minimizedRMSD -1
REMARK  0 active torsions:
REMARK  status: ('A' for Active; 'I' for Inactive)
ROOT
ATOM      1  C   UNL d   1      -3.157  -1.372  -4.496  0.00  0.00     0.124 A 
ATOM      2  C1  UNL d   1      -2.593  -0.352  -5.249  0.00  0.00     0.062 A 
ATOM      3  C2  UNL d   1      -3.175   0.912  -5.263  0.00  0.00     0.162 A 
ATOM      4  C3  UNL d   1      -4.328   1.164  -4.520  0.00  0.00    -0.034 A 
ATOM      5  C4  UNL d   1      -4.891   0.133  -3.765  0.00  0.00     0.162 A 
ATOM      6  C5  UNL d   1      -4.305  -1.129  -3.755  0.00  0.00     0.062 A 
ATOM      7  F   UNL d   1      -4.852  -2.113  -3.026  0.00  0.00    -0.097 F 
ATOM      8  F1  UNL d   1      -5.999   0.341  -3.039  0.00  0.00    -0.096 F 
ATOM      9  I   UNL d   1      -5.202   3.053  -4.538  0.00  0.00    -0.060 I 
ATOM     10  F2  UNL d   1      -2.608   1.879  -6.000  0.00  0.00    -0.096 F 
ATOM     11  F3  UNL d   1      -1.484  -0.584  -5.966  0.00  0.00    -0.097 F 
ATOM     12  F4  UNL d   1      -2.595  -2.588  -4.485  0.00  0.00    -0.092 F 
ENDROOT
TORSDOF 0
ENDMDL
