MODEL 1
REMARK minimizedAffinity 14.9009323
REMARK minimizedRMSD -1
REMARK  0 active torsions:
REMARK  status: ('A' for Active; 'I' for Inactive)
ROOT
ATOM      1  C   UNL d   1       2.312  -3.439   1.010  0.00  0.00     0.124 A 
ATOM      2  C1  UNL d   1       2.028  -2.119   0.688  0.00  0.00     0.062 A 
ATOM      3  C2  UNL d   1       3.059  -1.194   0.551  0.00  0.00     0.162 A 
ATOM      4  C3  UNL d   1       4.385  -1.587   0.735  0.00  0.00    -0.034 A 
ATOM      5  C4  UNL d   1       4.663  -2.915   1.059  0.00  0.00     0.162 A 
ATOM      6  C5  UNL d   1       3.629  -3.836   1.195  0.00  0.00     0.062 A 
ATOM      7  F   UNL d   1       3.905  -5.110   1.507  0.00  0.00    -0.097 F 
ATOM      8  F1  UNL d   1       5.926  -3.326   1.243  0.00  0.00    -0.096 F 
ATOM      9  I   UNL d   1       5.930  -0.207   0.530  0.00  0.00    -0.060 I 
ATOM     10  F2  UNL d   1       2.755   0.074   0.239  0.00  0.00    -0.096 F 
ATOM     11  F3  UNL d   1       0.756  -1.733   0.509  0.00  0.00    -0.097 F 
ATOM     12  F4  UNL d   1       1.318  -4.326   1.142  0.00  0.00    -0.092 F 
ENDROOT
TORSDOF 0
ENDMDL
