MODEL 1
REMARK minimizedAffinity -3.02512527
REMARK minimizedRMSD -1
REMARK  0 active torsions:
REMARK  status: ('A' for Active; 'I' for Inactive)
ROOT
ATOM      1  C   UNL d   1      -4.441  -1.284  -4.013  0.00  0.00     0.124 A 
ATOM      2  C1  UNL d   1      -4.535  -0.332  -5.020  0.00  0.00     0.062 A 
ATOM      3  C2  UNL d   1      -3.694   0.777  -5.014  0.00  0.00     0.162 A 
ATOM      4  C3  UNL d   1      -2.752   0.942  -3.999  0.00  0.00    -0.034 A 
ATOM      5  C4  UNL d   1      -2.665  -0.019  -2.990  0.00  0.00     0.162 A 
ATOM      6  C5  UNL d   1      -3.507  -1.126  -2.999  0.00  0.00     0.062 A 
ATOM      7  F   UNL d   1      -3.415  -2.044  -2.026  0.00  0.00    -0.097 F 
ATOM      8  F1  UNL d   1      -1.770   0.108  -1.999  0.00  0.00    -0.096 F 
ATOM      9  I   UNL d   1      -1.494   2.599  -3.988  0.00  0.00    -0.060 I 
ATOM     10  F2  UNL d   1      -3.807   1.680  -6.000  0.00  0.00    -0.096 F 
ATOM     11  F3  UNL d   1      -5.437  -0.482  -6.000  0.00  0.00    -0.097 F 
ATOM     12  F4  UNL d   1      -5.251  -2.350  -4.020  0.00  0.00    -0.092 F 
ENDROOT
TORSDOF 0
ENDMDL
