MODEL 1
REMARK minimizedAffinity 8.65382862
REMARK minimizedRMSD -1
REMARK  0 active torsions:
REMARK  status: ('A' for Active; 'I' for Inactive)
ROOT
ATOM      1  C   UNL d   1       2.846   1.456   1.241  0.00  0.00     0.124 A 
ATOM      2  C1  UNL d   1       2.510   0.491   0.302  0.00  0.00     0.062 A 
ATOM      3  C2  UNL d   1       1.664  -0.558   0.649  0.00  0.00     0.162 A 
ATOM      4  C3  UNL d   1       1.145  -0.646   1.941  0.00  0.00    -0.034 A 
ATOM      5  C4  UNL d   1       1.489   0.328   2.880  0.00  0.00     0.162 A 
ATOM      6  C5  UNL d   1       2.335   1.374   2.528  0.00  0.00     0.062 A 
ATOM      7  F   UNL d   1       2.659   2.306   3.436  0.00  0.00    -0.097 F 
ATOM      8  F1  UNL d   1       1.008   0.273   4.131  0.00  0.00    -0.096 F 
ATOM      9  I   UNL d   1      -0.121  -2.213   2.463  0.00  0.00    -0.060 I 
ATOM     10  F2  UNL d   1       1.356  -1.477  -0.279  0.00  0.00    -0.096 F 
ATOM     11  F3  UNL d   1       3.004   0.567  -0.943  0.00  0.00    -0.097 F 
ATOM     12  F4  UNL d   1       3.662   2.464   0.904  0.00  0.00    -0.092 F 
ENDROOT
TORSDOF 0
ENDMDL
