MODEL 1
REMARK minimizedAffinity 17.3241138
REMARK minimizedRMSD -1
REMARK  0 active torsions:
REMARK  status: ('A' for Active; 'I' for Inactive)
ROOT
ATOM      1  C   UNL d   1      -3.636   1.005  -2.451  0.00  0.00     0.124 A 
ATOM      2  C1  UNL d   1      -4.113   1.167  -3.744  0.00  0.00     0.062 A 
ATOM      3  C2  UNL d   1      -3.685   0.316  -4.759  0.00  0.00     0.162 A 
ATOM      4  C3  UNL d   1      -2.775  -0.705  -4.485  0.00  0.00    -0.034 A 
ATOM      5  C4  UNL d   1      -2.299  -0.860  -3.181  0.00  0.00     0.162 A 
ATOM      6  C5  UNL d   1      -2.730  -0.008  -2.170  0.00  0.00     0.062 A 
ATOM      7  F   UNL d   1      -2.268  -0.165  -0.921  0.00  0.00    -0.097 F 
ATOM      8  F1  UNL d   1      -1.424  -1.832  -2.883  0.00  0.00    -0.096 F 
ATOM      9  I   UNL d   1      -2.132  -1.979  -5.999  0.00  0.00    -0.060 I 
ATOM     10  F2  UNL d   1      -4.162   0.495  -6.000  0.00  0.00    -0.096 F 
ATOM     11  F3  UNL d   1      -4.988   2.145  -4.018  0.00  0.00    -0.097 F 
ATOM     12  F4  UNL d   1      -4.049   1.826  -1.476  0.00  0.00    -0.092 F 
ENDROOT
TORSDOF 0
ENDMDL
