MODEL 1
REMARK minimizedAffinity 10.1465807
REMARK minimizedRMSD -1
REMARK  0 active torsions:
REMARK  status: ('A' for Active; 'I' for Inactive)
ROOT
ATOM      1  C   UNL d   1      -4.987  -1.103  -4.056  0.00  0.00     0.124 A 
ATOM      2  C1  UNL d   1      -5.157   0.004  -4.876  0.00  0.00     0.062 A 
ATOM      3  C2  UNL d   1      -4.455   1.179  -4.620  0.00  0.00     0.162 A 
ATOM      4  C3  UNL d   1      -3.577   1.252  -3.539  0.00  0.00    -0.034 A 
ATOM      5  C4  UNL d   1      -3.413   0.135  -2.718  0.00  0.00     0.162 A 
ATOM      6  C5  UNL d   1      -4.116  -1.036  -2.978  0.00  0.00     0.062 A 
ATOM      7  F   UNL d   1      -3.951  -2.105  -2.185  0.00  0.00    -0.097 F 
ATOM      8  F1  UNL d   1      -2.576   0.172  -1.670  0.00  0.00    -0.096 F 
ATOM      9  I   UNL d   1      -2.526   3.007  -3.153  0.00  0.00    -0.060 I 
ATOM     10  F2  UNL d   1      -4.638   2.233  -5.429  0.00  0.00    -0.096 F 
ATOM     11  F3  UNL d   1      -5.999  -0.058  -5.918  0.00  0.00    -0.097 F 
ATOM     12  F4  UNL d   1      -5.664  -2.232  -4.304  0.00  0.00    -0.092 F 
ENDROOT
TORSDOF 0
ENDMDL
