MODEL 1
REMARK minimizedAffinity -3.96128964
REMARK minimizedRMSD -1
REMARK  2 active torsions:
REMARK  status: ('A' for Active; 'I' for Inactive)
REMARK    1  A    between atoms: C1_2  and  C2_3 
REMARK    2  A    between atoms: C2_3  and  C3_4 
ROOT
ATOM      1  C3  UNL d   1      -0.359  -0.823   3.341  0.00  0.00    -0.075 A 
ATOM      2  C4  UNL d   1      -1.555  -0.090   3.373  0.00  0.00     0.002 A 
ATOM      3  C5  UNL d   1      -1.927   0.705   2.289  0.00  0.00     0.002 A 
ATOM      4  C6  UNL d   1      -1.107   0.786   1.166  0.00  0.00    -0.004 A 
ATOM      5  C7  UNL d   1       0.091   0.076   1.131  0.00  0.00     0.002 A 
ATOM      6  C8  UNL d   1       0.464  -0.724   2.212  0.00  0.00     0.002 A 
ENDROOT
BRANCH   1   7
ATOM      7  C2  UNL d   1       0.035  -1.708   4.499  0.00  0.00     0.056 C 
BRANCH   7   8
ATOM      8  C1  UNL d   1       1.535  -1.690   4.816  0.00  0.00     0.007 C 
ATOM      9  C   UNL d   1       1.891  -0.774   5.979  0.00  0.00     0.009 C 
ENDBRANCH   7   8
ENDBRANCH   1   7
TORSDOF 2
ENDMDL
