MODEL 1
REMARK minimizedAffinity 4.45763874
REMARK minimizedRMSD -1
REMARK  2 active torsions:
REMARK  status: ('A' for Active; 'I' for Inactive)
REMARK    1  A    between atoms: C1_2  and  C2_3 
REMARK    2  A    between atoms: C2_3  and  C3_4 
ROOT
ATOM      1  C3  UNL d   1       0.015  -0.060   0.619  0.00  0.00    -0.075 A 
ATOM      2  C4  UNL d   1      -0.876   0.587   1.487  0.00  0.00     0.002 A 
ATOM      3  C5  UNL d   1      -2.220   0.736   1.141  0.00  0.00     0.002 A 
ATOM      4  C6  UNL d   1      -2.686   0.249  -0.078  0.00  0.00    -0.004 A 
ATOM      5  C7  UNL d   1      -1.806  -0.381  -0.955  0.00  0.00     0.002 A 
ATOM      6  C8  UNL d   1      -0.462  -0.535  -0.610  0.00  0.00     0.002 A 
ENDROOT
BRANCH   1   7
ATOM      7  C2  UNL d   1       1.464  -0.250   1.000  0.00  0.00     0.056 C 
BRANCH   7   8
ATOM      8  C1  UNL d   1       2.422   0.734   0.321  0.00  0.00     0.007 C 
ATOM      9  C   UNL d   1       2.673   1.992   1.142  0.00  0.00     0.009 C 
ENDBRANCH   7   8
ENDBRANCH   1   7
TORSDOF 2
ENDMDL
