MODEL 1
REMARK minimizedAffinity 2.81541085
REMARK minimizedRMSD -1
REMARK  2 active torsions:
REMARK  status: ('A' for Active; 'I' for Inactive)
REMARK    1  A    between atoms: C1_2  and  C2_3 
REMARK    2  A    between atoms: C2_3  and  C3_4 
ROOT
ATOM      1  C3  UNL d   1      -1.972  -0.528   3.141  0.00  0.00    -0.075 A 
ATOM      2  C4  UNL d   1      -2.630  -1.019   4.277  0.00  0.00     0.002 A 
ATOM      3  C5  UNL d   1      -1.900  -1.506   5.362  0.00  0.00     0.002 A 
ATOM      4  C6  UNL d   1      -0.508  -1.519   5.321  0.00  0.00    -0.004 A 
ATOM      5  C7  UNL d   1       0.156  -1.048   4.190  0.00  0.00     0.002 A 
ATOM      6  C8  UNL d   1      -0.571  -0.556   3.105  0.00  0.00     0.002 A 
ENDROOT
BRANCH   1   7
ATOM      7  C2  UNL d   1      -2.754   0.028   1.975  0.00  0.00     0.056 C 
BRANCH   7   8
ATOM      8  C1  UNL d   1      -1.967   0.076   0.661  0.00  0.00     0.007 C 
ATOM      9  C   UNL d   1      -2.799  -0.317  -0.552  0.00  0.00     0.009 C 
ENDBRANCH   7   8
ENDBRANCH   1   7
TORSDOF 2
ENDMDL
