MODEL 1
REMARK minimizedAffinity -1.81067157
REMARK minimizedRMSD -1
REMARK  2 active torsions:
REMARK  status: ('A' for Active; 'I' for Inactive)
REMARK    1  A    between atoms: C1_2  and  C2_3 
REMARK    2  A    between atoms: C2_3  and  C3_4 
ROOT
ATOM      1  C3  UNL d   1      -0.046  -0.581   2.967  0.00  0.00    -0.075 A 
ATOM      2  C4  UNL d   1      -0.456  -1.392   4.036  0.00  0.00     0.002 A 
ATOM      3  C5  UNL d   1      -1.799  -1.442   4.411  0.00  0.00     0.002 A 
ATOM      4  C6  UNL d   1      -2.745  -0.678   3.731  0.00  0.00    -0.004 A 
ATOM      5  C7  UNL d   1      -2.345   0.143   2.678  0.00  0.00     0.002 A 
ATOM      6  C8  UNL d   1      -1.003   0.193   2.298  0.00  0.00     0.002 A 
ENDROOT
BRANCH   1   7
ATOM      7  C2  UNL d   1       1.402  -0.545   2.537  0.00  0.00     0.056 C 
BRANCH   7   8
ATOM      8  C1  UNL d   1       1.601  -0.281   1.041  0.00  0.00     0.007 C 
ATOM      9  C   UNL d   1       2.709   0.723   0.751  0.00  0.00     0.009 C 
ENDBRANCH   7   8
ENDBRANCH   1   7
TORSDOF 2
ENDMDL
