MODEL 1
REMARK minimizedAffinity -4.91705942
REMARK minimizedRMSD -1
REMARK  0 active torsions:
REMARK  status: ('A' for Active; 'I' for Inactive)
ROOT
ATOM      1  N1  IND d   1      -1.181  -0.053   0.122  0.00  0.00    -0.196 N 
ATOM      2  C2  IND d   1      -0.916  -0.608  -1.099  0.00  0.00     0.054 A 
ATOM      3  C3  IND d   1       0.303  -0.222  -1.537  0.00  0.00    -0.031 A 
ATOM      4  C4  IND d   1       2.075   1.234  -0.368  0.00  0.00     0.051 A 
ATOM      5  C5  IND d   1       2.276   1.999   0.747  0.00  0.00    -0.031 A 
ATOM      6  C6  IND d   1       1.317   2.119   1.732  0.00  0.00     0.015 A 
ATOM      7  C7  IND d   1       0.120   1.467   1.643  0.00  0.00    -0.016 A 
ATOM      8  C8  IND d   1      -0.091   0.695   0.509  0.00  0.00    -0.047 A 
ATOM      9  C9  IND d   1       0.862   0.603  -0.514  0.00  0.00    -0.096 A 
ATOM     10  HN1 IND d   1      -1.906  -0.154   0.572  0.00  0.00     0.298 HD
ENDROOT
TORSDOF 0
ENDMDL
