MODEL 1
REMARK minimizedAffinity -4.8495903
REMARK minimizedRMSD -1
REMARK  0 active torsions:
REMARK  status: ('A' for Active; 'I' for Inactive)
ROOT
ATOM      1  N1  IND d   1       1.057  -1.017  -0.738  0.00  0.00    -0.196 N 
ATOM      2  C2  IND d   1      -0.008  -1.761  -0.313  0.00  0.00     0.054 A 
ATOM      3  C3  IND d   1      -0.714  -1.083   0.619  0.00  0.00    -0.031 A 
ATOM      4  C4  IND d   1      -0.361   1.302   1.523  0.00  0.00     0.051 A 
ATOM      5  C5  IND d   1       0.502   2.360   1.462  0.00  0.00    -0.031 A 
ATOM      6  C6  IND d   1       1.614   2.348   0.646  0.00  0.00     0.015 A 
ATOM      7  C7  IND d   1       1.901   1.276  -0.151  0.00  0.00    -0.016 A 
ATOM      8  C8  IND d   1       1.031   0.197  -0.087  0.00  0.00    -0.047 A 
ATOM      9  C9  IND d   1      -0.076   0.187   0.771  0.00  0.00    -0.096 A 
ATOM     10  HN1 IND d   1       1.644  -1.265  -1.315  0.00  0.00     0.298 HD
ENDROOT
TORSDOF 0
ENDMDL
