MODEL 1
REMARK minimizedAffinity -2.72931194
REMARK minimizedRMSD -1
REMARK  0 active torsions:
REMARK  status: ('A' for Active; 'I' for Inactive)
ROOT
ATOM      1  N1  IND d   1      -2.581   5.951  -2.871  0.00  0.00    -0.196 N 
ATOM      2  C2  IND d   1      -1.502   5.907  -3.710  0.00  0.00     0.054 A 
ATOM      3  C3  IND d   1      -1.910   5.874  -4.998  0.00  0.00    -0.031 A 
ATOM      4  C4  IND d   1      -4.294   5.987  -5.963  0.00  0.00     0.051 A 
ATOM      5  C5  IND d   1      -5.608   5.999  -5.589  0.00  0.00    -0.031 A 
ATOM      6  C6  IND d   1      -5.988   5.999  -4.262  0.00  0.00     0.015 A 
ATOM      7  C7  IND d   1      -5.064   5.998  -3.256  0.00  0.00    -0.016 A 
ATOM      8  C8  IND d   1      -3.728   5.978  -3.633  0.00  0.00    -0.047 A 
ATOM      9  C9  IND d   1      -3.337   5.936  -4.977  0.00  0.00    -0.096 A 
ATOM     10  HN1 IND d   1      -2.548   5.961  -2.012  0.00  0.00     0.298 HD
ENDROOT
TORSDOF 0
ENDMDL
