MODEL 1
REMARK minimizedAffinity -3.71090961
REMARK minimizedRMSD -1
REMARK  0 active torsions:
REMARK  status: ('A' for Active; 'I' for Inactive)
ROOT
ATOM      1  N1  IND d   1       2.073   2.031   0.758  0.00  0.00    -0.196 N 
ATOM      2  C2  IND d   1       1.526   2.773   1.767  0.00  0.00     0.054 A 
ATOM      3  C3  IND d   1       0.342   2.245   2.150  0.00  0.00    -0.031 A 
ATOM      4  C4  IND d   1      -0.839   0.110   1.330  0.00  0.00     0.051 A 
ATOM      5  C5  IND d   1      -0.744  -0.882   0.394  0.00  0.00    -0.031 A 
ATOM      6  C6  IND d   1       0.318  -0.957  -0.483  0.00  0.00     0.015 A 
ATOM      7  C7  IND d   1       1.335  -0.045  -0.451  0.00  0.00    -0.016 A 
ATOM      8  C8  IND d   1       1.238   0.968   0.493  0.00  0.00    -0.047 A 
ATOM      9  C9  IND d   1       0.141   1.074   1.358  0.00  0.00    -0.096 A 
ATOM     10  HN1 IND d   1       2.815   2.199   0.357  0.00  0.00     0.298 HD
ENDROOT
TORSDOF 0
ENDMDL
