MODEL 1
REMARK minimizedAffinity -5.27828169
REMARK minimizedRMSD -1
REMARK  0 active torsions:
REMARK  status: ('A' for Active; 'I' for Inactive)
ROOT
ATOM      1  N1  IND d   1       1.796  -1.438  -0.866  0.00  0.00    -0.196 N 
ATOM      2  C2  IND d   1       0.474  -1.772  -0.774  0.00  0.00     0.054 A 
ATOM      3  C3  IND d   1      -0.247  -0.718  -0.329  0.00  0.00    -0.031 A 
ATOM      4  C4  IND d   1       0.523   1.679   0.212  0.00  0.00     0.051 A 
ATOM      5  C5  IND d   1       1.645   2.452   0.314  0.00  0.00    -0.031 A 
ATOM      6  C6  IND d   1       2.900   1.959   0.020  0.00  0.00     0.015 A 
ATOM      7  C7  IND d   1       3.079   0.672  -0.401  0.00  0.00    -0.016 A 
ATOM      8  C8  IND d   1       1.942  -0.119  -0.499  0.00  0.00    -0.047 A 
ATOM      9  C9  IND d   1       0.671   0.363  -0.161  0.00  0.00    -0.096 A 
ATOM     10  HN1 IND d   1       2.430  -1.965  -1.111  0.00  0.00     0.298 HD
ENDROOT
TORSDOF 0
ENDMDL
