MODEL 1
REMARK minimizedAffinity -4.33245277
REMARK minimizedRMSD -1
REMARK  0 active torsions:
REMARK  status: ('A' for Active; 'I' for Inactive)
ROOT
ATOM      1  N1  IND d   1      -0.315  -0.289   1.330  0.00  0.00    -0.196 N 
ATOM      2  C2  IND d   1      -0.417  -0.881   0.102  0.00  0.00     0.054 A 
ATOM      3  C3  IND d   1       0.512  -0.378  -0.741  0.00  0.00    -0.031 A 
ATOM      4  C4  IND d   1       2.366   1.350  -0.289  0.00  0.00     0.051 A 
ATOM      5  C5  IND d   1       2.835   2.200   0.673  0.00  0.00    -0.031 A 
ATOM      6  C6  IND d   1       2.269   2.263   1.930  0.00  0.00     0.015 A 
ATOM      7  C7  IND d   1       1.214   1.466   2.276  0.00  0.00    -0.016 A 
ATOM      8  C8  IND d   1       0.731   0.607   1.299  0.00  0.00    -0.047 A 
ATOM      9  C9  IND d   1       1.274   0.570   0.009  0.00  0.00    -0.096 A 
ATOM     10  HN1 IND d   1      -0.819  -0.450   2.008  0.00  0.00     0.298 HD
ENDROOT
TORSDOF 0
ENDMDL
