MODEL 1
REMARK minimizedAffinity -3.14774704
REMARK minimizedRMSD -1
REMARK  0 active torsions:
REMARK  status: ('A' for Active; 'I' for Inactive)
ROOT
ATOM      1  N1  IND d   1       2.382   0.064  -0.458  0.00  0.00    -0.196 N 
ATOM      2  C2  IND d   1       3.486   0.658   0.087  0.00  0.00     0.054 A 
ATOM      3  C3  IND d   1       3.127   1.477   1.100  0.00  0.00    -0.031 A 
ATOM      4  C4  IND d   1       0.797   1.916   2.102  0.00  0.00     0.051 A 
ATOM      5  C5  IND d   1      -0.527   1.631   1.916  0.00  0.00    -0.031 A 
ATOM      6  C6  IND d   1      -0.957   0.789   0.910  0.00  0.00     0.015 A 
ATOM      7  C7  IND d   1      -0.074   0.190   0.057  0.00  0.00    -0.016 A 
ATOM      8  C8  IND d   1       1.270   0.483   0.238  0.00  0.00    -0.047 A 
ATOM      9  C9  IND d   1       1.709   1.370   1.230  0.00  0.00    -0.096 A 
ATOM     10  HN1 IND d   1       2.382  -0.480  -1.124  0.00  0.00     0.298 HD
ENDROOT
TORSDOF 0
ENDMDL
