MODEL 1
REMARK minimizedAffinity -2.9915278
REMARK minimizedRMSD -1
REMARK  0 active torsions:
REMARK  status: ('A' for Active; 'I' for Inactive)
ROOT
ATOM      1  N1  IND d   1      -0.667  -0.597   0.675  0.00  0.00    -0.196 N 
ATOM      2  C2  IND d   1      -0.359  -1.431  -0.363  0.00  0.00     0.054 A 
ATOM      3  C3  IND d   1       0.735  -0.983  -1.018  0.00  0.00    -0.031 A 
ATOM      4  C4  IND d   1       2.238   1.042  -0.497  0.00  0.00     0.051 A 
ATOM      5  C5  IND d   1       2.338   2.124   0.331  0.00  0.00    -0.031 A 
ATOM      6  C6  IND d   1       1.424   2.358   1.339  0.00  0.00     0.015 A 
ATOM      7  C7  IND d   1       0.379   1.508   1.564  0.00  0.00    -0.016 A 
ATOM      8  C8  IND d   1       0.270   0.412   0.720  0.00  0.00    -0.047 A 
ATOM      9  C9  IND d   1       1.169   0.193  -0.332  0.00  0.00    -0.096 A 
ATOM     10  HN1 IND d   1      -1.334  -0.687   1.210  0.00  0.00     0.298 HD
ENDROOT
TORSDOF 0
ENDMDL
