MODEL 1
REMARK minimizedAffinity -0.908750176
REMARK minimizedRMSD -1
REMARK  0 active torsions:
REMARK  status: ('A' for Active; 'I' for Inactive)
ROOT
ATOM      1  N1  IND d   1       0.763  -0.528  -1.101  0.00  0.00    -0.196 N 
ATOM      2  C2  IND d   1      -0.160  -1.535  -1.045  0.00  0.00     0.054 A 
ATOM      3  C3  IND d   1      -1.092  -1.267  -0.103  0.00  0.00    -0.031 A 
ATOM      4  C4  IND d   1      -1.353   0.810   1.395  0.00  0.00     0.051 A 
ATOM      5  C5  IND d   1      -0.733   1.981   1.731  0.00  0.00    -0.031 A 
ATOM      6  C6  IND d   1       0.440   2.384   1.127  0.00  0.00     0.015 A 
ATOM      7  C7  IND d   1       1.033   1.634   0.151  0.00  0.00    -0.016 A 
ATOM      8  C8  IND d   1       0.410   0.442  -0.188  0.00  0.00    -0.047 A 
ATOM      9  C9  IND d   1      -0.758   0.007   0.452  0.00  0.00    -0.096 A 
ATOM     10  HN1 IND d   1       1.449  -0.505  -1.618  0.00  0.00     0.298 HD
ENDROOT
TORSDOF 0
ENDMDL
