MODEL 1
REMARK minimizedAffinity -0.676660299
REMARK minimizedRMSD -1
REMARK  0 active torsions:
REMARK  status: ('A' for Active; 'I' for Inactive)
ROOT
ATOM      1  N1  IND d   1       1.577   0.203  -0.475  0.00  0.00    -0.196 N 
ATOM      2  C2  IND d   1       1.185  -0.861  -1.238  0.00  0.00     0.054 A 
ATOM      3  C3  IND d   1      -0.016  -1.321  -0.822  0.00  0.00    -0.031 A 
ATOM      4  C4  IND d   1      -1.565  -0.416   1.024  0.00  0.00     0.051 A 
ATOM      5  C5  IND d   1      -1.622   0.519   2.020  0.00  0.00    -0.031 A 
ATOM      6  C6  IND d   1      -0.596   1.416   2.237  0.00  0.00     0.015 A 
ATOM      7  C7  IND d   1       0.525   1.420   1.456  0.00  0.00    -0.016 A 
ATOM      8  C8  IND d   1       0.590   0.467   0.449  0.00  0.00    -0.047 A 
ATOM      9  C9  IND d   1      -0.429  -0.474   0.251  0.00  0.00    -0.096 A 
ATOM     10  HN1 IND d   1       2.316   0.635  -0.558  0.00  0.00     0.298 HD
ENDROOT
TORSDOF 0
ENDMDL
