MODEL 1
REMARK minimizedAffinity -1.71628487
REMARK minimizedRMSD -1
REMARK  0 active torsions:
REMARK  status: ('A' for Active; 'I' for Inactive)
ROOT
ATOM      1  N1  IND d   1      -4.478  -3.570  -3.630  0.00  0.00    -0.196 N 
ATOM      2  C2  IND d   1      -4.981  -3.536  -2.359  0.00  0.00     0.054 A 
ATOM      3  C3  IND d   1      -4.386  -2.555  -1.644  0.00  0.00    -0.031 A 
ATOM      4  C4  IND d   1      -2.637  -0.819  -2.389  0.00  0.00     0.051 A 
ATOM      5  C5  IND d   1      -1.846  -0.473  -3.449  0.00  0.00    -0.031 A 
ATOM      6  C6  IND d   1      -1.895  -1.153  -4.648  0.00  0.00     0.015 A 
ATOM      7  C7  IND d   1      -2.749  -2.203  -4.837  0.00  0.00    -0.016 A 
ATOM      8  C8  IND d   1      -3.549  -2.562  -3.761  0.00  0.00    -0.047 A 
ATOM      9  C9  IND d   1      -3.473  -1.902  -2.528  0.00  0.00    -0.096 A 
ATOM     10  HN1 IND d   1      -4.705  -4.127  -4.245  0.00  0.00     0.298 HD
ENDROOT
TORSDOF 0
ENDMDL
