MODEL 1
REMARK minimizedAffinity -5.7002182
REMARK minimizedRMSD -1
REMARK  0 active torsions:
REMARK  status: ('A' for Active; 'I' for Inactive)
ROOT
ATOM      1  N1  IND d   1       2.325  -0.384  -0.743  0.00  0.00    -0.196 N 
ATOM      2  C2  IND d   1       3.572   0.169  -0.841  0.00  0.00     0.054 A 
ATOM      3  C3  IND d   1       3.614   1.352  -0.187  0.00  0.00    -0.031 A 
ATOM      4  C4  IND d   1       1.787   2.521   1.199  0.00  0.00     0.051 A 
ATOM      5  C5  IND d   1       0.470   2.419   1.549  0.00  0.00    -0.031 A 
ATOM      6  C6  IND d   1      -0.311   1.355   1.147  0.00  0.00     0.015 A 
ATOM      7  C7  IND d   1       0.201   0.343   0.386  0.00  0.00    -0.016 A 
ATOM      8  C8  IND d   1       1.536   0.446   0.023  0.00  0.00    -0.047 A 
ATOM      9  C9  IND d   1       2.323   1.545   0.392  0.00  0.00    -0.096 A 
ATOM     10  HN1 IND d   1       2.076  -1.125  -1.099  0.00  0.00     0.298 HD
ENDROOT
TORSDOF 0
ENDMDL
