MODEL 1
REMARK minimizedAffinity -4.03645754
REMARK minimizedRMSD -1
REMARK  0 active torsions:
REMARK  status: ('A' for Active; 'I' for Inactive)
ROOT
ATOM      1  N1  IND d   1      -4.547  -2.841  -2.338  0.00  0.00    -0.196 N 
ATOM      2  C2  IND d   1      -4.790  -3.401  -1.114  0.00  0.00     0.054 A 
ATOM      3  C3  IND d   1      -3.722  -3.238  -0.302  0.00  0.00    -0.031 A 
ATOM      4  C4  IND d   1      -1.510  -1.996  -0.739  0.00  0.00     0.051 A 
ATOM      5  C5  IND d   1      -0.811  -1.353  -1.722  0.00  0.00    -0.031 A 
ATOM      6  C6  IND d   1      -1.334  -1.167  -2.985  0.00  0.00     0.015 A 
ATOM      7  C7  IND d   1      -2.585  -1.609  -3.311  0.00  0.00    -0.016 A 
ATOM      8  C8  IND d   1      -3.295  -2.269  -2.317  0.00  0.00    -0.047 A 
ATOM      9  C9  IND d   1      -2.752  -2.498  -1.046  0.00  0.00    -0.096 A 
ATOM     10  HN1 IND d   1      -5.086  -2.846  -3.008  0.00  0.00     0.298 HD
ENDROOT
TORSDOF 0
ENDMDL
