MODEL 1
REMARK minimizedAffinity -1.8157804
REMARK minimizedRMSD -1
REMARK  0 active torsions:
REMARK  status: ('A' for Active; 'I' for Inactive)
ROOT
ATOM      1  N1  IND d   1      -5.984  -2.729  -1.524  0.00  0.00    -0.196 N 
ATOM      2  C2  IND d   1      -5.921  -3.575  -0.452  0.00  0.00     0.054 A 
ATOM      3  C3  IND d   1      -4.636  -3.754  -0.069  0.00  0.00    -0.031 A 
ATOM      4  C4  IND d   1      -2.489  -2.676  -0.993  0.00  0.00     0.051 A 
ATOM      5  C5  IND d   1      -2.037  -1.863  -1.995  0.00  0.00    -0.031 A 
ATOM      6  C6  IND d   1      -2.895  -1.284  -2.907  0.00  0.00     0.015 A 
ATOM      7  C7  IND d   1      -4.244  -1.487  -2.845  0.00  0.00    -0.016 A 
ATOM      8  C8  IND d   1      -4.706  -2.317  -1.833  0.00  0.00    -0.047 A 
ATOM      9  C9  IND d   1      -3.836  -2.942  -0.931  0.00  0.00    -0.096 A 
ATOM     10  HN1 IND d   1      -6.701  -2.494  -1.935  0.00  0.00     0.298 HD
ENDROOT
TORSDOF 0
ENDMDL
