MODEL 1
REMARK minimizedAffinity -4.69634771
REMARK minimizedRMSD -1
REMARK  0 active torsions:
REMARK  status: ('A' for Active; 'I' for Inactive)
ROOT
ATOM      1  N1  IND d   1       2.932   0.621  -0.208  0.00  0.00    -0.196 N 
ATOM      2  C2  IND d   1       3.575   1.663   0.399  0.00  0.00     0.054 A 
ATOM      3  C3  IND d   1       2.701   2.399   1.121  0.00  0.00    -0.031 A 
ATOM      4  C4  IND d   1       0.188   2.018   1.529  0.00  0.00     0.051 A 
ATOM      5  C5  IND d   1      -0.855   1.217   1.156  0.00  0.00    -0.031 A 
ATOM      6  C6  IND d   1      -0.684   0.153   0.293  0.00  0.00     0.015 A 
ATOM      7  C7  IND d   1       0.542  -0.158  -0.221  0.00  0.00    -0.016 A 
ATOM      8  C8  IND d   1       1.602   0.658   0.150  0.00  0.00    -0.047 A 
ATOM      9  C9  IND d   1       1.428   1.764   0.991  0.00  0.00    -0.096 A 
ATOM     10  HN1 IND d   1       3.296   0.040  -0.727  0.00  0.00     0.298 HD
ENDROOT
TORSDOF 0
ENDMDL
