MODEL 1
REMARK minimizedAffinity -2.46529245
REMARK minimizedRMSD -1
REMARK  0 active torsions:
REMARK  status: ('A' for Active; 'I' for Inactive)
ROOT
ATOM      1  N1  IND d   1       2.983   0.007  -0.204  0.00  0.00    -0.196 N 
ATOM      2  C2  IND d   1       3.866   0.794   0.482  0.00  0.00     0.054 A 
ATOM      3  C3  IND d   1       3.209   1.571   1.373  0.00  0.00    -0.031 A 
ATOM      4  C4  IND d   1       0.700   1.643   1.943  0.00  0.00     0.051 A 
ATOM      5  C5  IND d   1      -0.508   1.133   1.556  0.00  0.00    -0.031 A 
ATOM      6  C6  IND d   1      -0.615   0.201   0.543  0.00  0.00     0.015 A 
ATOM      7  C7  IND d   1       0.487  -0.266  -0.114  0.00  0.00    -0.016 A 
ATOM      8  C8  IND d   1       1.714   0.254   0.271  0.00  0.00    -0.047 A 
ATOM      9  C9  IND d   1       1.825   1.232   1.269  0.00  0.00    -0.096 A 
ATOM     10  HN1 IND d   1       3.187  -0.549  -0.827  0.00  0.00     0.298 HD
ENDROOT
TORSDOF 0
ENDMDL
