MODEL 1
REMARK minimizedAffinity -4.60747528
REMARK minimizedRMSD -1
REMARK  0 active torsions:
REMARK  status: ('A' for Active; 'I' for Inactive)
ROOT
ATOM      1  N1  IND d   1       1.436  -1.539  -0.513  0.00  0.00    -0.196 N 
ATOM      2  C2  IND d   1       2.718  -1.109  -0.715  0.00  0.00     0.054 A 
ATOM      3  C3  IND d   1       2.916   0.082  -0.105  0.00  0.00    -0.031 A 
ATOM      4  C4  IND d   1       1.308   1.456   1.362  0.00  0.00     0.051 A 
ATOM      5  C5  IND d   1       0.015   1.489   1.805  0.00  0.00    -0.031 A 
ATOM      6  C6  IND d   1      -0.887   0.492   1.494  0.00  0.00     0.015 A 
ATOM      7  C7  IND d   1      -0.526  -0.584   0.734  0.00  0.00    -0.016 A 
ATOM      8  C8  IND d   1       0.784  -0.617   0.277  0.00  0.00    -0.047 A 
ATOM      9  C9  IND d   1       1.692   0.412   0.554  0.00  0.00    -0.096 A 
ATOM     10  HN1 IND d   1       1.094  -2.263  -0.826  0.00  0.00     0.298 HD
ENDROOT
TORSDOF 0
ENDMDL
