MODEL 1
REMARK minimizedAffinity 2.79886103
REMARK minimizedRMSD -1
REMARK  0 active torsions:
REMARK  status: ('A' for Active; 'I' for Inactive)
ROOT
ATOM      1  C   UNL d   1       5.913   1.998  -2.163  0.00  0.00     0.172 C 
ATOM      2  N   UNL d   1       4.815   1.197  -1.676  0.00  0.00    -0.070 N 
ATOM      3  C1  UNL d   1       4.524   0.958  -0.360  0.00  0.00    -0.004 A 
ATOM      4  C2  UNL d   1       3.406   0.153  -0.314  0.00  0.00    -0.047 A 
ATOM      5  C3  UNL d   1       3.012  -0.100  -1.649  0.00  0.00    -0.047 A 
ATOM      6  C4  UNL d   1       3.901   0.558  -2.472  0.00  0.00    -0.004 A 
ENDROOT
TORSDOF 0
ENDMDL
