MODEL 1
REMARK minimizedAffinity 2.86740112
REMARK minimizedRMSD -1
REMARK  0 active torsions:
REMARK  status: ('A' for Active; 'I' for Inactive)
ROOT
ATOM      1  C   UNL d   1       4.865   4.205   2.522  0.00  0.00     0.172 C 
ATOM      2  N   UNL d   1       4.779   4.647   3.895  0.00  0.00    -0.070 N 
ATOM      3  C1  UNL d   1       3.851   4.229   4.811  0.00  0.00    -0.004 A 
ATOM      4  C2  UNL d   1       4.107   4.880   5.998  0.00  0.00    -0.047 A 
ATOM      5  C3  UNL d   1       5.227   5.719   5.788  0.00  0.00    -0.047 A 
ATOM      6  C4  UNL d   1       5.623   5.555   4.477  0.00  0.00    -0.004 A 
ENDROOT
TORSDOF 0
ENDMDL
