MODEL 1
REMARK minimizedAffinity 4.26438284
REMARK minimizedRMSD -1
REMARK  0 active torsions:
REMARK  status: ('A' for Active; 'I' for Inactive)
ROOT
ATOM      1  C   UNL d   1       5.988   1.968  -2.888  0.00  0.00     0.172 C 
ATOM      2  N   UNL d   1       4.961   1.125  -2.321  0.00  0.00    -0.070 N 
ATOM      3  C1  UNL d   1       4.620   1.064  -0.997  0.00  0.00    -0.004 A 
ATOM      4  C2  UNL d   1       3.601   0.145  -0.865  0.00  0.00    -0.047 A 
ATOM      5  C3  UNL d   1       3.321  -0.364  -2.156  0.00  0.00    -0.047 A 
ATOM      6  C4  UNL d   1       4.177   0.260  -3.038  0.00  0.00    -0.004 A 
ENDROOT
TORSDOF 0
ENDMDL
