MODEL 1
REMARK minimizedAffinity 0.149267256
REMARK minimizedRMSD -1
REMARK  0 active torsions:
REMARK  status: ('A' for Active; 'I' for Inactive)
ROOT
ATOM      1  C   UNL d   1       1.926   2.629   5.994  0.00  0.00     0.172 C 
ATOM      2  N   UNL d   1       3.010   3.338   5.355  0.00  0.00    -0.070 N 
ATOM      3  C1  UNL d   1       4.003   4.026   6.000  0.00  0.00    -0.004 A 
ATOM      4  C2  UNL d   1       4.839   4.557   5.041  0.00  0.00    -0.047 A 
ATOM      5  C3  UNL d   1       4.329   4.176   3.777  0.00  0.00    -0.047 A 
ATOM      6  C4  UNL d   1       3.197   3.422   4.001  0.00  0.00    -0.004 A 
ENDROOT
TORSDOF 0
ENDMDL
