MODEL 1
REMARK minimizedAffinity 1.12413478
REMARK minimizedRMSD -1
REMARK  0 active torsions:
REMARK  status: ('A' for Active; 'I' for Inactive)
ROOT
ATOM      1  C   UNL d   1       4.058  -1.102  -3.995  0.00  0.00     0.172 C 
ATOM      2  N   UNL d   1       3.948  -0.489  -2.693  0.00  0.00    -0.070 N 
ATOM      3  C1  UNL d   1       4.914   0.262  -2.079  0.00  0.00    -0.004 A 
ATOM      4  C2  UNL d   1       4.424   0.663  -0.855  0.00  0.00    -0.047 A 
ATOM      5  C3  UNL d   1       3.118   0.133  -0.728  0.00  0.00    -0.047 A 
ATOM      6  C4  UNL d   1       2.848  -0.576  -1.880  0.00  0.00    -0.004 A 
ENDROOT
TORSDOF 0
ENDMDL
