MODEL 1
REMARK minimizedAffinity -1.66905081
REMARK minimizedRMSD -1
REMARK  0 active torsions:
REMARK  status: ('A' for Active; 'I' for Inactive)
ROOT
ATOM      1  C   UNL d   1      -1.105   3.056   0.085  0.00  0.00     0.172 C 
ATOM      2  N   UNL d   1      -2.365   2.635   0.650  0.00  0.00    -0.070 N 
ATOM      3  C1  UNL d   1      -2.874   3.038   1.856  0.00  0.00    -0.004 A 
ATOM      4  C2  UNL d   1      -4.090   2.414   2.030  0.00  0.00    -0.047 A 
ATOM      5  C3  UNL d   1      -4.320   1.608   0.890  0.00  0.00    -0.047 A 
ATOM      6  C4  UNL d   1      -3.236   1.763   0.052  0.00  0.00    -0.004 A 
ENDROOT
TORSDOF 0
ENDMDL
