MODEL 1
REMARK minimizedAffinity 0.695018351
REMARK minimizedRMSD -1
REMARK  0 active torsions:
REMARK  status: ('A' for Active; 'I' for Inactive)
ROOT
ATOM      1  C   UNL d   1       1.484   1.210  -0.093  0.00  0.00     0.172 C 
ATOM      2  N   UNL d   1       0.990  -0.124  -0.341  0.00  0.00    -0.070 N 
ATOM      3  C1  UNL d   1       1.713  -1.280  -0.214  0.00  0.00    -0.004 A 
ATOM      4  C2  UNL d   1       0.885  -2.333  -0.539  0.00  0.00    -0.047 A 
ATOM      5  C3  UNL d   1      -0.378  -1.791  -0.873  0.00  0.00    -0.047 A 
ATOM      6  C4  UNL d   1      -0.286  -0.421  -0.742  0.00  0.00    -0.004 A 
ENDROOT
TORSDOF 0
ENDMDL
