MODEL 1
REMARK minimizedAffinity 1.62737501
REMARK minimizedRMSD -1
REMARK  0 active torsions:
REMARK  status: ('A' for Active; 'I' for Inactive)
ROOT
ATOM      1  C   UNL d   1       0.539   1.155  -0.179  0.00  0.00     0.172 C 
ATOM      2  N   UNL d   1       0.461  -0.189  -0.702  0.00  0.00    -0.070 N 
ATOM      3  C1  UNL d   1      -0.618  -0.734  -1.344  0.00  0.00    -0.004 A 
ATOM      4  C2  UNL d   1      -0.296  -2.030  -1.685  0.00  0.00    -0.047 A 
ATOM      5  C3  UNL d   1       1.022  -2.272  -1.231  0.00  0.00    -0.047 A 
ATOM      6  C4  UNL d   1       1.467  -1.115  -0.626  0.00  0.00    -0.004 A 
ENDROOT
TORSDOF 0
ENDMDL
