MODEL 1
REMARK minimizedAffinity 13.5371332
REMARK minimizedRMSD -1
REMARK  0 active torsions:
REMARK  status: ('A' for Active; 'I' for Inactive)
ROOT
ATOM      1  C   UNL d   1      -5.999   5.183   5.500  0.00  0.00     0.020 A 
ATOM      2  C1  UNL d   1      -4.946   5.950   5.998  0.00  0.00     0.020 A 
ATOM      3  C2  UNL d   1      -3.729   5.992   5.316  0.00  0.00     0.034 A 
ATOM      4  C3  UNL d   1      -3.561   5.265   4.131  0.00  0.00     0.017 A 
ATOM      5  C4  UNL d   1      -4.618   4.496   3.632  0.00  0.00     0.017 A 
ATOM      6  C5  UNL d   1      -5.835   4.458   4.320  0.00  0.00     0.034 A 
ATOM      7 Cl   UNL d   1      -4.486   3.572   2.177  0.00  0.00    -0.070 Cl
ATOM      8 Cl1  UNL d   1      -2.029   5.363   3.339  0.00  0.00    -0.070 Cl
ENDROOT
TORSDOF 0
ENDMDL
