MODEL 1
REMARK minimizedAffinity 9.33586121
REMARK minimizedRMSD -1
REMARK  0 active torsions:
REMARK  status: ('A' for Active; 'I' for Inactive)
ROOT
ATOM      1  C   UNL d   1       2.501   0.886  -0.622  0.00  0.00     0.020 A 
ATOM      2  C1  UNL d   1       3.741   1.518  -0.544  0.00  0.00     0.020 A 
ATOM      3  C2  UNL d   1       4.808   0.886   0.097  0.00  0.00     0.034 A 
ATOM      4  C3  UNL d   1       4.637  -0.382   0.664  0.00  0.00     0.017 A 
ATOM      5  C4  UNL d   1       3.391  -1.016   0.585  0.00  0.00     0.017 A 
ATOM      6  C5  UNL d   1       2.327  -0.379  -0.059  0.00  0.00     0.034 A 
ATOM      7 Cl   UNL d   1       3.104  -2.581   1.260  0.00  0.00    -0.070 Cl
ATOM      8 Cl1  UNL d   1       6.000  -1.105   1.442  0.00  0.00    -0.070 Cl
ENDROOT
TORSDOF 0
ENDMDL
