MODEL 1
REMARK minimizedAffinity 7.62775373
REMARK minimizedRMSD -1
REMARK  0 active torsions:
REMARK  status: ('A' for Active; 'I' for Inactive)
ROOT
ATOM      1  C   UNL d   1       2.482  -1.036  -0.195  0.00  0.00     0.020 A 
ATOM      2  C1  UNL d   1       2.112   0.259  -0.557  0.00  0.00     0.020 A 
ATOM      3  C2  UNL d   1       2.823   1.353  -0.059  0.00  0.00     0.034 A 
ATOM      4  C3  UNL d   1       3.908   1.155   0.803  0.00  0.00     0.017 A 
ATOM      5  C4  UNL d   1       4.278  -0.145   1.165  0.00  0.00     0.017 A 
ATOM      6  C5  UNL d   1       3.563  -1.237   0.664  0.00  0.00     0.034 A 
ATOM      7 Cl   UNL d   1       5.605  -0.469   2.224  0.00  0.00    -0.070 Cl
ATOM      8 Cl1  UNL d   1       4.742   2.554   1.379  0.00  0.00    -0.070 Cl
ENDROOT
TORSDOF 0
ENDMDL
