MODEL 1
REMARK minimizedAffinity 10.0914974
REMARK minimizedRMSD -1
REMARK  0 active torsions:
REMARK  status: ('A' for Active; 'I' for Inactive)
ROOT
ATOM      1  C   UNL d   1       1.676   0.751  -0.737  0.00  0.00     0.020 A 
ATOM      2  C1  UNL d   1       2.024   0.106   0.450  0.00  0.00     0.020 A 
ATOM      3  C2  UNL d   1       3.365   0.021   0.831  0.00  0.00     0.034 A 
ATOM      4  C3  UNL d   1       4.363   0.581   0.025  0.00  0.00     0.017 A 
ATOM      5  C4  UNL d   1       4.013   1.228  -1.165  0.00  0.00     0.017 A 
ATOM      6  C5  UNL d   1       2.669   1.310  -1.542  0.00  0.00     0.034 A 
ATOM      7 Cl   UNL d   1       5.188   1.943  -2.212  0.00  0.00    -0.070 Cl
ATOM      8 Cl1  UNL d   1       6.000   0.439   0.559  0.00  0.00    -0.070 Cl
ENDROOT
TORSDOF 0
ENDMDL
