MODEL 1
REMARK minimizedAffinity 13.6753569
REMARK minimizedRMSD -1
REMARK  0 active torsions:
REMARK  status: ('A' for Active; 'I' for Inactive)
ROOT
ATOM      1  C   UNL d   1      -4.354   1.503   0.898  0.00  0.00     0.020 A 
ATOM      2  C1  UNL d   1      -3.006   1.185   0.736  0.00  0.00     0.020 A 
ATOM      3  C2  UNL d   1      -2.564   0.607  -0.456  0.00  0.00     0.034 A 
ATOM      4  C3  UNL d   1      -3.470   0.346  -1.490  0.00  0.00     0.017 A 
ATOM      5  C4  UNL d   1      -4.822   0.666  -1.327  0.00  0.00     0.017 A 
ATOM      6  C5  UNL d   1      -5.260   1.244  -0.131  0.00  0.00     0.034 A 
ATOM      7 Cl   UNL d   1      -5.999   0.373  -2.558  0.00  0.00    -0.070 Cl
ATOM      8 Cl1  UNL d   1      -2.853  -0.369  -2.937  0.00  0.00    -0.070 Cl
ENDROOT
TORSDOF 0
ENDMDL
