MODEL 1
REMARK minimizedAffinity 13.2559233
REMARK minimizedRMSD -1
REMARK  0 active torsions:
REMARK  status: ('A' for Active; 'I' for Inactive)
ROOT
ATOM      1  C   UNL d   1       3.135   1.742   0.437  0.00  0.00     0.020 A 
ATOM      2  C1  UNL d   1       3.026   1.723  -0.953  0.00  0.00     0.020 A 
ATOM      3  C2  UNL d   1       2.726   0.530  -1.614  0.00  0.00     0.034 A 
ATOM      4  C3  UNL d   1       2.534  -0.649  -0.885  0.00  0.00     0.017 A 
ATOM      5  C4  UNL d   1       2.643  -0.630   0.511  0.00  0.00     0.017 A 
ATOM      6  C5  UNL d   1       2.944   0.568   1.167  0.00  0.00     0.034 A 
ATOM      7 Cl   UNL d   1       2.420  -2.044   1.478  0.00  0.00    -0.070 Cl
ATOM      8 Cl1  UNL d   1       2.165  -2.088  -1.767  0.00  0.00    -0.070 Cl
ENDROOT
TORSDOF 0
ENDMDL
