MODEL 1
REMARK minimizedAffinity 1.57711375
REMARK minimizedRMSD -1
REMARK  0 active torsions:
REMARK  status: ('A' for Active; 'I' for Inactive)
ROOT
ATOM      1  C   UNL d   1       3.956   3.377   5.999  0.00  0.00     0.020 A 
ATOM      2  C1  UNL d   1       4.648   3.834   4.878  0.00  0.00     0.020 A 
ATOM      3  C2  UNL d   1       4.167   3.551   3.598  0.00  0.00     0.034 A 
ATOM      4  C3  UNL d   1       2.993   2.808   3.435  0.00  0.00     0.017 A 
ATOM      5  C4  UNL d   1       2.299   2.349   4.561  0.00  0.00     0.017 A 
ATOM      6  C5  UNL d   1       2.784   2.636   5.841  0.00  0.00     0.034 A 
ATOM      7 Cl   UNL d   1       0.842   1.427   4.440  0.00  0.00    -0.070 Cl
ATOM      8 Cl1  UNL d   1       2.456   2.496   1.823  0.00  0.00    -0.070 Cl
ENDROOT
TORSDOF 0
ENDMDL
