MODEL 1
REMARK minimizedAffinity 3.11975527
REMARK minimizedRMSD -1
REMARK  1 active torsions:
REMARK  status: ('A' for Active; 'I' for Inactive)
REMARK    1  A    between atoms: N_2  and  C1_3 
ROOT
ATOM      1  C1  UNL d   1       0.991   3.259  -0.055  0.00  0.00     0.143 A 
ATOM      2  C2  UNL d   1       0.365   2.061  -0.416  0.00  0.00    -0.057 A 
ATOM      3  C3  UNL d   1       1.064   0.848  -0.417  0.00  0.00     0.033 A 
ATOM      4  C4  UNL d   1       2.415   0.817  -0.085  0.00  0.00    -0.042 A 
ATOM      5  C5  UNL d   1       3.064   1.999   0.252  0.00  0.00     0.033 A 
ATOM      6  C6  UNL d   1       2.358   3.206   0.258  0.00  0.00    -0.057 A 
ENDROOT
BRANCH   1   7
ATOM      7  N   UNL d   1       0.376   4.511  -0.129  0.00  0.00    -0.732 N 
ATOM      8  C   UNL d   1      -0.799   4.803   0.663  0.00  0.00     0.284 C 
ATOM      9  H3  UNL d   1       1.049   5.273  -0.170  0.00  0.00     0.395 HD
ENDBRANCH   1   7
TORSDOF 1
ENDMDL
