MODEL 1
REMARK minimizedAffinity 2.65292263
REMARK minimizedRMSD -1
REMARK  1 active torsions:
REMARK  status: ('A' for Active; 'I' for Inactive)
REMARK    1  A    between atoms: N_2  and  C1_3 
ROOT
ATOM      1  C1  UNL d   1       2.440  -1.582   0.640  0.00  0.00     0.143 A 
ATOM      2  C2  UNL d   1       3.651  -1.319  -0.009  0.00  0.00    -0.057 A 
ATOM      3  C3  UNL d   1       4.138  -0.012  -0.138  0.00  0.00     0.033 A 
ATOM      4  C4  UNL d   1       3.405   1.061   0.357  0.00  0.00    -0.042 A 
ATOM      5  C5  UNL d   1       2.187   0.826   0.984  0.00  0.00     0.033 A 
ATOM      6  C6  UNL d   1       1.709  -0.482   1.116  0.00  0.00    -0.057 A 
ENDROOT
BRANCH   1   7
ATOM      7  N   UNL d   1       1.856  -2.848   0.713  0.00  0.00    -0.732 N 
ATOM      8  C   UNL d   1       0.873  -3.264  -0.265  0.00  0.00     0.284 C 
ATOM      9  H3  UNL d   1       2.526  -3.572   0.962  0.00  0.00     0.395 HD
ENDBRANCH   1   7
TORSDOF 1
ENDMDL
