MODEL 1
REMARK minimizedAffinity 0.402667701
REMARK minimizedRMSD -1
REMARK  1 active torsions:
REMARK  status: ('A' for Active; 'I' for Inactive)
REMARK    1  A    between atoms: N_2  and  C1_3 
ROOT
ATOM      1  C1  UNL d   1      -4.418   0.086  -2.017  0.00  0.00     0.143 A 
ATOM      2  C2  UNL d   1      -5.226   1.024  -2.669  0.00  0.00    -0.057 A 
ATOM      3  C3  UNL d   1      -4.858   1.566  -3.906  0.00  0.00     0.033 A 
ATOM      4  C4  UNL d   1      -3.655   1.200  -4.501  0.00  0.00    -0.042 A 
ATOM      5  C5  UNL d   1      -2.823   0.289  -3.860  0.00  0.00     0.033 A 
ATOM      6  C6  UNL d   1      -3.200  -0.254  -2.628  0.00  0.00    -0.057 A 
ENDROOT
BRANCH   1   7
ATOM      7  N   UNL d   1      -4.682  -0.415  -0.740  0.00  0.00    -0.732 N 
ATOM      8  C   UNL d   1      -5.579   0.283   0.155  0.00  0.00     0.284 C 
ATOM      9  H3  UNL d   1      -4.794  -1.426  -0.735  0.00  0.00     0.395 HD
ENDBRANCH   1   7
TORSDOF 1
ENDMDL
