MODEL 1
REMARK minimizedAffinity 2.89437699
REMARK minimizedRMSD -1
REMARK  1 active torsions:
REMARK  status: ('A' for Active; 'I' for Inactive)
REMARK    1  A    between atoms: N_2  and  C1_3 
ROOT
ATOM      1  C1  UNL d   1      -3.568   1.676  -3.665  0.00  0.00     0.143 A 
ATOM      2  C2  UNL d   1      -4.766   1.937  -2.991  0.00  0.00    -0.057 A 
ATOM      3  C3  UNL d   1      -5.969   1.344  -3.393  0.00  0.00     0.033 A 
ATOM      4  C4  UNL d   1      -6.000   0.500  -4.498  0.00  0.00    -0.042 A 
ATOM      5  C5  UNL d   1      -4.826   0.246  -5.198  0.00  0.00     0.033 A 
ATOM      6  C6  UNL d   1      -3.626   0.835  -4.788  0.00  0.00    -0.057 A 
ENDROOT
BRANCH   1   7
ATOM      7  N   UNL d   1      -2.358   2.311  -3.374  0.00  0.00    -0.732 N 
ATOM      8  C   UNL d   1      -2.264   3.755  -3.377  0.00  0.00     0.284 C 
ATOM      9  H3  UNL d   1      -1.858   1.863  -2.609  0.00  0.00     0.395 HD
ENDBRANCH   1   7
TORSDOF 1
ENDMDL
