MODEL 1
REMARK minimizedAffinity 1.26268852
REMARK minimizedRMSD -1
REMARK  1 active torsions:
REMARK  status: ('A' for Active; 'I' for Inactive)
REMARK    1  A    between atoms: N_2  and  C1_3 
ROOT
ATOM      1  C1  UNL d   1      -3.425   1.847  -3.361  0.00  0.00     0.143 A 
ATOM      2  C2  UNL d   1      -4.579   2.363  -2.763  0.00  0.00    -0.057 A 
ATOM      3  C3  UNL d   1      -5.854   1.944  -3.162  0.00  0.00     0.033 A 
ATOM      4  C4  UNL d   1      -5.998   1.019  -4.191  0.00  0.00    -0.042 A 
ATOM      5  C5  UNL d   1      -4.865   0.510  -4.817  0.00  0.00     0.033 A 
ATOM      6  C6  UNL d   1      -3.595   0.928  -4.409  0.00  0.00    -0.057 A 
ENDROOT
BRANCH   1   7
ATOM      7  N   UNL d   1      -2.133   2.296  -3.076  0.00  0.00    -0.732 N 
ATOM      8  C   UNL d   1      -1.840   3.712  -3.025  0.00  0.00     0.284 C 
ATOM      9  H3  UNL d   1      -1.686   1.752  -2.342  0.00  0.00     0.395 HD
ENDBRANCH   1   7
TORSDOF 1
ENDMDL
