MODEL 1
REMARK minimizedAffinity 2.39692926
REMARK minimizedRMSD -1
REMARK  1 active torsions:
REMARK  status: ('A' for Active; 'I' for Inactive)
REMARK    1  A    between atoms: N_2  and  C1_3 
ROOT
ATOM      1  C1  UNL d   1       4.157   1.144   0.146  0.00  0.00     0.143 A 
ATOM      2  C2  UNL d   1       3.302   1.815   1.027  0.00  0.00    -0.057 A 
ATOM      3  C3  UNL d   1       1.937   1.508   1.090  0.00  0.00     0.033 A 
ATOM      4  C4  UNL d   1       1.396   0.541   0.248  0.00  0.00    -0.042 A 
ATOM      5  C5  UNL d   1       2.222  -0.120  -0.653  0.00  0.00     0.033 A 
ATOM      6  C6  UNL d   1       3.585   0.186  -0.706  0.00  0.00    -0.057 A 
ENDROOT
BRANCH   1   7
ATOM      7  N   UNL d   1       5.503   1.472  -0.032  0.00  0.00    -0.732 N 
ATOM      8  C   UNL d   1       6.000   2.777   0.345  0.00  0.00     0.284 C 
ATOM      9  H3  UNL d   1       6.125   0.704   0.210  0.00  0.00     0.395 HD
ENDBRANCH   1   7
TORSDOF 1
ENDMDL
