MODEL 1
REMARK minimizedAffinity 0.840675652
REMARK minimizedRMSD -1
REMARK  1 active torsions:
REMARK  status: ('A' for Active; 'I' for Inactive)
REMARK    1  A    between atoms: N_2  and  C1_3 
ROOT
ATOM      1  C1  UNL d   1      -4.333   0.780  -2.640  0.00  0.00     0.143 A 
ATOM      2  C2  UNL d   1      -4.874   2.069  -2.684  0.00  0.00    -0.057 A 
ATOM      3  C3  UNL d   1      -5.671   2.558  -1.641  0.00  0.00     0.033 A 
ATOM      4  C4  UNL d   1      -5.967   1.751  -0.547  0.00  0.00    -0.042 A 
ATOM      5  C5  UNL d   1      -5.460   0.457  -0.494  0.00  0.00     0.033 A 
ATOM      6  C6  UNL d   1      -4.659  -0.022  -1.535  0.00  0.00    -0.057 A 
ENDROOT
BRANCH   1   7
ATOM      7  N   UNL d   1      -3.615   0.202  -3.690  0.00  0.00    -0.732 N 
ATOM      8  C   UNL d   1      -2.184   0.391  -3.796  0.00  0.00     0.284 C 
ATOM      9  H3  UNL d   1      -3.926  -0.744  -3.899  0.00  0.00     0.395 HD
ENDBRANCH   1   7
TORSDOF 1
ENDMDL
