MODEL 1
REMARK minimizedAffinity 3.52667952
REMARK minimizedRMSD -1
REMARK  1 active torsions:
REMARK  status: ('A' for Active; 'I' for Inactive)
REMARK    1  A    between atoms: N_2  and  C1_3 
ROOT
ATOM      1  C1  UNL d   1      -3.597   1.144  -3.878  0.00  0.00     0.143 A 
ATOM      2  C2  UNL d   1      -3.616   2.449  -3.374  0.00  0.00    -0.057 A 
ATOM      3  C3  UNL d   1      -4.808   3.180  -3.299  0.00  0.00     0.033 A 
ATOM      4  C4  UNL d   1      -6.000   2.628  -3.755  0.00  0.00    -0.042 A 
ATOM      5  C5  UNL d   1      -6.000   1.341  -4.283  0.00  0.00     0.033 A 
ATOM      6  C6  UNL d   1      -4.808   0.613  -4.349  0.00  0.00    -0.057 A 
ENDROOT
BRANCH   1   7
ATOM      7  N   UNL d   1      -2.429   0.401  -4.070  0.00  0.00    -0.732 N 
ATOM      8  C   UNL d   1      -1.874  -0.392  -2.993  0.00  0.00     0.284 C 
ATOM      9  H3  UNL d   1      -2.404  -0.056  -4.978  0.00  0.00     0.395 HD
ENDBRANCH   1   7
TORSDOF 1
ENDMDL
