MODEL 1
REMARK minimizedAffinity 0.379797131
REMARK minimizedRMSD -1
REMARK  1 active torsions:
REMARK  status: ('A' for Active; 'I' for Inactive)
REMARK    1  A    between atoms: N_2  and  C1_3 
ROOT
ATOM      1  C1  UNL d   1      -3.448   1.506  -3.430  0.00  0.00     0.143 A 
ATOM      2  C2  UNL d   1      -4.219   0.897  -4.426  0.00  0.00    -0.057 A 
ATOM      3  C3  UNL d   1      -5.433   1.454  -4.847  0.00  0.00     0.033 A 
ATOM      4  C4  UNL d   1      -5.912   2.619  -4.257  0.00  0.00    -0.042 A 
ATOM      5  C5  UNL d   1      -5.175   3.228  -3.248  0.00  0.00     0.033 A 
ATOM      6  C6  UNL d   1      -3.960   2.670  -2.836  0.00  0.00    -0.057 A 
ENDROOT
BRANCH   1   7
ATOM      7  N   UNL d   1      -2.282   0.949  -2.900  0.00  0.00    -0.732 N 
ATOM      8  C   UNL d   1      -2.349  -0.178  -1.994  0.00  0.00     0.284 C 
ATOM      9  H3  UNL d   1      -1.534   0.885  -3.587  0.00  0.00     0.395 HD
ENDBRANCH   1   7
TORSDOF 1
ENDMDL
