MODEL 1
REMARK minimizedAffinity 3.07983756
REMARK minimizedRMSD -1
REMARK  1 active torsions:
REMARK  status: ('A' for Active; 'I' for Inactive)
REMARK    1  A    between atoms: C1_2  and  C2_3 
ROOT
ATOM      1  C2  UNL d   1       1.784  -2.651   1.144  0.00  0.00    -0.081 A 
ATOM      2  C3  UNL d   1       2.239  -3.072  -0.111  0.00  0.00     0.006 A 
ATOM      3  C4  UNL d   1       3.358  -3.902  -0.216  0.00  0.00     0.002 A 
ATOM      4  C5  UNL d   1       4.035  -4.331   0.931  0.00  0.00    -0.080 A 
ATOM      5  C6  UNL d   1       5.219  -5.246   0.833  0.00  0.00     0.076 C 
ATOM      6  C7  UNL d   1       3.590  -3.895   2.184  0.00  0.00     0.002 A 
ATOM      7  C8  UNL d   1       2.472  -3.065   2.290  0.00  0.00     0.006 A 
ENDROOT
BRANCH   1   8
ATOM      8  C1  UNL d   1       0.539  -1.809   1.265  0.00  0.00     0.054 C 
ATOM      9  C   UNL d   1       0.262  -1.436   2.714  0.00  0.00     0.018 C 
ENDBRANCH   1   8
TORSDOF 1
ENDMDL
