MODEL 1
REMARK minimizedAffinity 6.72142601
REMARK minimizedRMSD -1
REMARK  1 active torsions:
REMARK  status: ('A' for Active; 'I' for Inactive)
REMARK    1  A    between atoms: C1_2  and  C2_3 
ROOT
ATOM      1  C2  UNL d   1       4.223  -3.770   1.843  0.00  0.00    -0.081 A 
ATOM      2  C3  UNL d   1       4.397  -4.971   2.540  0.00  0.00     0.006 A 
ATOM      3  C4  UNL d   1       4.810  -4.962   3.874  0.00  0.00     0.002 A 
ATOM      4  C5  UNL d   1       5.049  -3.753   4.535  0.00  0.00    -0.080 A 
ATOM      5  C6  UNL d   1       5.465  -3.728   5.976  0.00  0.00     0.076 C 
ATOM      6  C7  UNL d   1       4.893  -2.553   3.833  0.00  0.00     0.002 A 
ATOM      7  C8  UNL d   1       4.480  -2.561   2.499  0.00  0.00     0.006 A 
ENDROOT
BRANCH   1   8
ATOM      8  C1  UNL d   1       3.715  -3.774   0.424  0.00  0.00     0.054 C 
ATOM      9  C   UNL d   1       2.417  -2.989   0.298  0.00  0.00     0.018 C 
ENDBRANCH   1   8
TORSDOF 1
ENDMDL
