MODEL 1
REMARK minimizedAffinity 10.769165
REMARK minimizedRMSD -1
REMARK  1 active torsions:
REMARK  status: ('A' for Active; 'I' for Inactive)
REMARK    1  A    between atoms: C1_2  and  C2_3 
ROOT
ATOM      1  C2  UNL d   1       0.340   2.540  -4.814  0.00  0.00    -0.081 A 
ATOM      2  C3  UNL d   1       1.029   3.445  -5.630  0.00  0.00     0.006 A 
ATOM      3  C4  UNL d   1       2.354   3.201  -5.998  0.00  0.00     0.002 A 
ATOM      4  C5  UNL d   1       3.011   2.046  -5.562  0.00  0.00    -0.080 A 
ATOM      5  C6  UNL d   1       4.424   1.757  -5.973  0.00  0.00     0.076 C 
ATOM      6  C7  UNL d   1       2.329   1.149  -4.731  0.00  0.00     0.002 A 
ATOM      7  C8  UNL d   1       1.004   1.393  -4.363  0.00  0.00     0.006 A 
ENDROOT
BRANCH   1   8
ATOM      8  C1  UNL d   1      -1.109   2.767  -4.469  0.00  0.00     0.054 C 
ATOM      9  C   UNL d   1      -1.452   2.183  -3.106  0.00  0.00     0.018 C 
ENDBRANCH   1   8
TORSDOF 1
ENDMDL
