MODEL 1
REMARK minimizedAffinity 4.81180286
REMARK minimizedRMSD -1
REMARK  1 active torsions:
REMARK  status: ('A' for Active; 'I' for Inactive)
REMARK    1  A    between atoms: C1_2  and  C2_3 
ROOT
ATOM      1  C2  UNL d   1       4.029  -3.828   2.774  0.00  0.00    -0.081 A 
ATOM      2  C3  UNL d   1       4.875  -4.183   1.716  0.00  0.00     0.006 A 
ATOM      3  C4  UNL d   1       4.534  -3.866   0.399  0.00  0.00     0.002 A 
ATOM      4  C5  UNL d   1       3.346  -3.182   0.118  0.00  0.00    -0.080 A 
ATOM      5  C6  UNL d   1       2.983  -2.809  -1.288  0.00  0.00     0.076 C 
ATOM      6  C7  UNL d   1       2.492  -2.843   1.173  0.00  0.00     0.002 A 
ATOM      7  C8  UNL d   1       2.832  -3.160   2.490  0.00  0.00     0.006 A 
ENDROOT
BRANCH   1   8
ATOM      8  C1  UNL d   1       4.425  -4.111   4.200  0.00  0.00     0.054 C 
ATOM      9  C   UNL d   1       4.970  -2.864   4.881  0.00  0.00     0.018 C 
ENDBRANCH   1   8
TORSDOF 1
ENDMDL
