MODEL 1
REMARK minimizedAffinity 3.54145288
REMARK minimizedRMSD -1
REMARK  1 active torsions:
REMARK  status: ('A' for Active; 'I' for Inactive)
REMARK    1  A    between atoms: C1_2  and  C2_3 
ROOT
ATOM      1  C2  UNL d   1       1.474   2.784  -5.910  0.00  0.00    -0.081 A 
ATOM      2  C3  UNL d   1       2.475   1.806  -5.947  0.00  0.00     0.006 A 
ATOM      3  C4  UNL d   1       3.822   2.172  -5.989  0.00  0.00     0.002 A 
ATOM      4  C5  UNL d   1       4.192   3.521  -5.986  0.00  0.00    -0.080 A 
ATOM      5  C6  UNL d   1       5.636   3.927  -6.000  0.00  0.00     0.076 C 
ATOM      6  C7  UNL d   1       3.192   4.499  -5.966  0.00  0.00     0.002 A 
ATOM      7  C8  UNL d   1       1.844   4.134  -5.925  0.00  0.00     0.006 A 
ENDROOT
BRANCH   1   8
ATOM      8  C1  UNL d   1       0.023   2.393  -5.800  0.00  0.00     0.054 C 
ATOM      9  C   UNL d   1      -0.535   2.719  -4.422  0.00  0.00     0.018 C 
ENDBRANCH   1   8
TORSDOF 1
ENDMDL
