MODEL 1
REMARK minimizedAffinity 5.20227623
REMARK minimizedRMSD -1
REMARK  0 active torsions:
REMARK  status: ('A' for Active; 'I' for Inactive)
ROOT
ATOM      1  C4' PXY d   1       1.246   3.318   1.801  0.00  0.00     0.077 C 
ATOM      2  C1' PXY d   1       1.206  -1.354  -1.603  0.00  0.00     0.077 C 
ATOM      3  C1  PXY d   1       1.216  -0.136  -0.700  0.00  0.00    -0.082 A 
ATOM      4  C2  PXY d   1       0.808   1.031  -1.171  0.00  0.00     0.003 A 
ATOM      5  C3  PXY d   1       0.841   2.149  -0.377  0.00  0.00     0.003 A 
ATOM      6  C4  PXY d   1       1.245   2.060   0.928  0.00  0.00    -0.082 A 
ATOM      7  C5  PXY d   1       1.652   0.871   1.419  0.00  0.00     0.003 A 
ATOM      8  C6  PXY d   1       1.651  -0.244   0.585  0.00  0.00     0.003 A 
ENDROOT
TORSDOF 0
ENDMDL
