MODEL 1
REMARK minimizedAffinity 5.81479263
REMARK minimizedRMSD -1
REMARK  0 active torsions:
REMARK  status: ('A' for Active; 'I' for Inactive)
ROOT
ATOM      1  C4' PXY d   1       0.572   4.902  -0.730  0.00  0.00     0.077 C 
ATOM      2  C1' PXY d   1       1.924  -0.715  -0.907  0.00  0.00     0.077 C 
ATOM      3  C1  PXY d   1       1.565   0.757  -0.848  0.00  0.00    -0.082 A 
ATOM      4  C2  PXY d   1       1.340   1.420  -1.971  0.00  0.00     0.003 A 
ATOM      5  C3  PXY d   1       1.046   2.759  -1.938  0.00  0.00     0.003 A 
ATOM      6  C4  PXY d   1       0.928   3.413  -0.741  0.00  0.00    -0.082 A 
ATOM      7  C5  PXY d   1       1.145   2.741   0.409  0.00  0.00     0.003 A 
ATOM      8  C6  PXY d   1       1.484   1.392   0.352  0.00  0.00     0.003 A 
ENDROOT
TORSDOF 0
ENDMDL
