MODEL 1
REMARK minimizedAffinity -2.70499277
REMARK minimizedRMSD -1
REMARK  0 active torsions:
REMARK  status: ('A' for Active; 'I' for Inactive)
ROOT
ATOM      1  C4' PXY d   1       1.115   4.412  -1.476  0.00  0.00     0.077 C 
ATOM      2  C1' PXY d   1       1.284  -1.254  -0.341  0.00  0.00     0.077 C 
ATOM      3  C1  PXY d   1       1.230   0.233  -0.630  0.00  0.00    -0.082 A 
ATOM      4  C2  PXY d   1       1.675   0.691  -1.789  0.00  0.00     0.003 A 
ATOM      5  C3  PXY d   1       1.663   2.036  -2.054  0.00  0.00     0.003 A 
ATOM      6  C4  PXY d   1       1.142   2.917  -1.145  0.00  0.00    -0.082 A 
ATOM      7  C5  PXY d   1       0.676   2.457   0.035  0.00  0.00     0.003 A 
ATOM      8  C6  PXY d   1       0.735   1.092   0.302  0.00  0.00     0.003 A 
ENDROOT
TORSDOF 0
ENDMDL
