MODEL 1
REMARK minimizedAffinity -1.11685693
REMARK minimizedRMSD -1
REMARK  0 active torsions:
REMARK  status: ('A' for Active; 'I' for Inactive)
ROOT
ATOM      1  C4' PXY d   1       0.841  -2.623  -1.800  0.00  0.00     0.077 C 
ATOM      2  C1' PXY d   1       1.184   2.465   0.923  0.00  0.00     0.077 C 
ATOM      3  C1  PXY d   1       1.104   1.126   0.216  0.00  0.00    -0.082 A 
ATOM      4  C2  PXY d   1       0.565   1.054  -0.991  0.00  0.00     0.003 A 
ATOM      5  C3  PXY d   1       0.456  -0.153  -1.631  0.00  0.00     0.003 A 
ATOM      6  C4  PXY d   1       0.951  -1.291  -1.053  0.00  0.00    -0.082 A 
ATOM      7  C5  PXY d   1       1.512  -1.225   0.173  0.00  0.00     0.003 A 
ATOM      8  C6  PXY d   1       1.576   0.004   0.824  0.00  0.00     0.003 A 
ENDROOT
TORSDOF 0
ENDMDL
