MODEL 1
REMARK minimizedAffinity -0.20591487
REMARK minimizedRMSD -1
REMARK  0 active torsions:
REMARK  status: ('A' for Active; 'I' for Inactive)
ROOT
ATOM      1  C4' PXY d   1       1.193  -1.702  -0.044  0.00  0.00     0.077 C 
ATOM      2  C1' PXY d   1       1.061   3.858  -1.618  0.00  0.00     0.077 C 
ATOM      3  C1  PXY d   1       1.091   2.396  -1.217  0.00  0.00    -0.082 A 
ATOM      4  C2  PXY d   1       0.963   2.065   0.058  0.00  0.00     0.003 A 
ATOM      5  C3  PXY d   1       1.021   0.750   0.441  0.00  0.00     0.003 A 
ATOM      6  C4  PXY d   1       1.158  -0.240  -0.495  0.00  0.00    -0.082 A 
ATOM      7  C5  PXY d   1       1.279   0.090  -1.799  0.00  0.00     0.003 A 
ATOM      8  C6  PXY d   1       1.259   1.433  -2.163  0.00  0.00     0.003 A 
ENDROOT
TORSDOF 0
ENDMDL
