MODEL 1
REMARK minimizedAffinity -1.18463373
REMARK minimizedRMSD -1
REMARK  0 active torsions:
REMARK  status: ('A' for Active; 'I' for Inactive)
ROOT
ATOM      1  C4' PXY d   1       1.504   4.606  -1.516  0.00  0.00     0.077 C 
ATOM      2  C1' PXY d   1       0.989  -0.701   0.717  0.00  0.00     0.077 C 
ATOM      3  C1  PXY d   1       1.130   0.686   0.121  0.00  0.00    -0.082 A 
ATOM      4  C2  PXY d   1       1.137   1.743   0.917  0.00  0.00     0.003 A 
ATOM      5  C3  PXY d   1       1.232   3.006   0.392  0.00  0.00     0.003 A 
ATOM      6  C4  PXY d   1       1.373   3.187  -0.957  0.00  0.00    -0.082 A 
ATOM      7  C5  PXY d   1       1.378   2.113  -1.776  0.00  0.00     0.003 A 
ATOM      8  C6  PXY d   1       1.239   0.842  -1.227  0.00  0.00     0.003 A 
ENDROOT
TORSDOF 0
ENDMDL
