MODEL 1
REMARK minimizedAffinity 4.90623665
REMARK minimizedRMSD -1
REMARK  0 active torsions:
REMARK  status: ('A' for Active; 'I' for Inactive)
ROOT
ATOM      1  C4' PXY d   1       0.859   4.946  -0.959  0.00  0.00     0.077 C 
ATOM      2  C1' PXY d   1       0.816  -0.711  -2.147  0.00  0.00     0.077 C 
ATOM      3  C1  PXY d   1       0.828   0.775  -1.849  0.00  0.00    -0.082 A 
ATOM      4  C2  PXY d   1       1.294   1.205  -0.687  0.00  0.00     0.003 A 
ATOM      5  C3  PXY d   1       1.282   2.543  -0.388  0.00  0.00     0.003 A 
ATOM      6  C4  PXY d   1       0.837   3.455  -1.308  0.00  0.00    -0.082 A 
ATOM      7  C5  PXY d   1       0.370   3.025  -2.499  0.00  0.00     0.003 A 
ATOM      8  C6  PXY d   1       0.352   1.659  -2.767  0.00  0.00     0.003 A 
ENDROOT
TORSDOF 0
ENDMDL
