MODEL 1
REMARK minimizedAffinity -5.28161764
REMARK minimizedRMSD -1
REMARK  0 active torsions:
REMARK  status: ('A' for Active; 'I' for Inactive)
ROOT
ATOM      1  C4' PXY d   1       1.113  -1.323  -1.126  0.00  0.00     0.077 C 
ATOM      2  C1' PXY d   1       0.987   4.435  -0.630  0.00  0.00     0.077 C 
ATOM      3  C1  PXY d   1       1.022   2.924  -0.747  0.00  0.00    -0.082 A 
ATOM      4  C2  PXY d   1       1.322   2.365  -1.908  0.00  0.00     0.003 A 
ATOM      5  C3  PXY d   1       1.327   1.000  -2.040  0.00  0.00     0.003 A 
ATOM      6  C4  PXY d   1       1.074   0.199  -0.959  0.00  0.00    -0.082 A 
ATOM      7  C5  PXY d   1       0.778   0.762   0.232  0.00  0.00     0.003 A 
ATOM      8  C6  PXY d   1       0.737   2.149   0.335  0.00  0.00     0.003 A 
ENDROOT
TORSDOF 0
ENDMDL
