MODEL 1
REMARK minimizedAffinity -2.35841942
REMARK minimizedRMSD -1
REMARK  0 active torsions:
REMARK  status: ('A' for Active; 'I' for Inactive)
ROOT
ATOM      1  C4' PXY d   1      -1.880   4.356   6.000  0.00  0.00     0.077 C 
ATOM      2  C1' PXY d   1      -4.131   0.542   2.286  0.00  0.00     0.077 C 
ATOM      3  C1  PXY d   1      -3.553   1.545   3.265  0.00  0.00    -0.082 A 
ATOM      4  C2  PXY d   1      -2.389   2.118   3.003  0.00  0.00     0.003 A 
ATOM      5  C3  PXY d   1      -1.836   3.003   3.892  0.00  0.00     0.003 A 
ATOM      6  C4  PXY d   1      -2.506   3.345   5.036  0.00  0.00    -0.082 A 
ATOM      7  C5  PXY d   1      -3.699   2.773   5.305  0.00  0.00     0.003 A 
ATOM      8  C6  PXY d   1      -4.224   1.845   4.410  0.00  0.00     0.003 A 
ENDROOT
TORSDOF 0
ENDMDL
