MODEL 1
REMARK minimizedAffinity -3.03863192
REMARK minimizedRMSD -1
REMARK  0 active torsions:
REMARK  status: ('A' for Active; 'I' for Inactive)
ROOT
ATOM      1  C4' PXY d   1       3.290  -3.254  -0.031  0.00  0.00     0.077 C 
ATOM      2  C1' PXY d   1       0.655   1.873  -0.467  0.00  0.00     0.077 C 
ATOM      3  C1  PXY d   1       1.358   0.534  -0.355  0.00  0.00    -0.082 A 
ATOM      4  C2  PXY d   1       0.682  -0.581  -0.583  0.00  0.00     0.003 A 
ATOM      5  C3  PXY d   1       1.293  -1.801  -0.455  0.00  0.00     0.003 A 
ATOM      6  C4  PXY d   1       2.624  -1.880  -0.142  0.00  0.00    -0.082 A 
ATOM      7  C5  PXY d   1       3.323  -0.747   0.082  0.00  0.00     0.003 A 
ATOM      8  C6  PXY d   1       2.673   0.480  -0.013  0.00  0.00     0.003 A 
ENDROOT
TORSDOF 0
ENDMDL
