MODEL 1
REMARK minimizedAffinity -4.307621
REMARK minimizedRMSD -1
REMARK  0 active torsions:
REMARK  status: ('A' for Active; 'I' for Inactive)
ROOT
ATOM      1  C4' PXY d   1       1.313  -0.616  -3.519  0.00  0.00     0.077 C 
ATOM      2  C1' PXY d   1       0.754   2.828   1.090  0.00  0.00     0.077 C 
ATOM      3  C1  PXY d   1       0.895   1.934  -0.126  0.00  0.00    -0.082 A 
ATOM      4  C2  PXY d   1       0.971   0.622   0.031  0.00  0.00     0.003 A 
ATOM      5  C3  PXY d   1       1.131  -0.199  -1.055  0.00  0.00     0.003 A 
ATOM      6  C4  PXY d   1       1.160   0.324  -2.320  0.00  0.00    -0.082 A 
ATOM      7  C5  PXY d   1       1.073   1.660  -2.490  0.00  0.00     0.003 A 
ATOM      8  C6  PXY d   1       0.952   2.480  -1.371  0.00  0.00     0.003 A 
ENDROOT
TORSDOF 0
ENDMDL
