MODEL 1
REMARK minimizedAffinity 0.800383389
REMARK minimizedRMSD -1
REMARK  0 active torsions:
REMARK  status: ('A' for Active; 'I' for Inactive)
ROOT
ATOM      1  C4' PXY d   1       2.006   0.956   3.738  0.00  0.00     0.077 C 
ATOM      2  C1' PXY d   1       0.880   0.952  -1.932  0.00  0.00     0.077 C 
ATOM      3  C1  PXY d   1       1.172   0.966  -0.444  0.00  0.00    -0.082 A 
ATOM      4  C2  PXY d   1       1.979   0.053   0.072  0.00  0.00     0.003 A 
ATOM      5  C3  PXY d   1       2.229   0.031   1.420  0.00  0.00     0.003 A 
ATOM      6  C4  PXY d   1       1.689   0.986   2.240  0.00  0.00    -0.082 A 
ATOM      7  C5  PXY d   1       0.874   1.927   1.720  0.00  0.00     0.003 A 
ATOM      8  C6  PXY d   1       0.600   1.907   0.355  0.00  0.00     0.003 A 
ENDROOT
TORSDOF 0
ENDMDL
