MODEL 1
REMARK minimizedAffinity -4.28622389
REMARK minimizedRMSD -1
REMARK  0 active torsions:
REMARK  status: ('A' for Active; 'I' for Inactive)
ROOT
ATOM      1  C4' PXY d   1       0.758   2.343   0.734  0.00  0.00     0.077 C 
ATOM      2  C1' PXY d   1       1.201  -0.716  -4.150  0.00  0.00     0.077 C 
ATOM      3  C1  PXY d   1       1.076   0.094  -2.875  0.00  0.00    -0.082 A 
ATOM      4  C2  PXY d   1       2.035   0.033  -1.965  0.00  0.00     0.003 A 
ATOM      5  C3  PXY d   1       1.924   0.735  -0.792  0.00  0.00     0.003 A 
ATOM      6  C4  PXY d   1       0.845   1.549  -0.572  0.00  0.00    -0.082 A 
ATOM      7  C5  PXY d   1      -0.132   1.626  -1.500  0.00  0.00     0.003 A 
ATOM      8  C6  PXY d   1      -0.019   0.873  -2.666  0.00  0.00     0.003 A 
ENDROOT
TORSDOF 0
ENDMDL
