MODEL 1
REMARK minimizedAffinity -0.873217106
REMARK minimizedRMSD -1
REMARK  0 active torsions:
REMARK  status: ('A' for Active; 'I' for Inactive)
ROOT
ATOM      1  C4' PXY d   1       1.219   4.198   0.626  0.00  0.00     0.077 C 
ATOM      2  C1' PXY d   1       0.950  -1.400  -0.788  0.00  0.00     0.077 C 
ATOM      3  C1  PXY d   1       1.026   0.070  -0.429  0.00  0.00    -0.082 A 
ATOM      4  C2  PXY d   1       1.011   0.435   0.843  0.00  0.00     0.003 A 
ATOM      5  C3  PXY d   1       1.047   1.762   1.185  0.00  0.00     0.003 A 
ATOM      6  C4  PXY d   1       1.154   2.724   0.217  0.00  0.00    -0.082 A 
ATOM      7  C5  PXY d   1       1.181   2.360  -1.083  0.00  0.00     0.003 A 
ATOM      8  C6  PXY d   1       1.102   1.010  -1.410  0.00  0.00     0.003 A 
ENDROOT
TORSDOF 0
ENDMDL
