MODEL 1
REMARK minimizedAffinity -4.7605114
REMARK minimizedRMSD -1
REMARK  0 active torsions:
REMARK  status: ('A' for Active; 'I' for Inactive)
ROOT
ATOM      1  C4' PXY d   1       0.350   3.672  -1.436  0.00  0.00     0.077 C 
ATOM      2  C1' PXY d   1       1.692  -1.761   0.013  0.00  0.00     0.077 C 
ATOM      3  C1  PXY d   1       1.331  -0.336  -0.357  0.00  0.00    -0.082 A 
ATOM      4  C2  PXY d   1       1.522   0.086  -1.597  0.00  0.00     0.003 A 
ATOM      5  C3  PXY d   1       1.232   1.382  -1.941  0.00  0.00     0.003 A 
ATOM      6  C4  PXY d   1       0.691   2.238  -1.020  0.00  0.00    -0.082 A 
ATOM      7  C5  PXY d   1       0.483   1.812   0.244  0.00  0.00     0.003 A 
ATOM      8  C6  PXY d   1       0.823   0.506   0.584  0.00  0.00     0.003 A 
ENDROOT
TORSDOF 0
ENDMDL
