MODEL 1
REMARK minimizedAffinity -3.36244059
REMARK minimizedRMSD -1
REMARK  0 active torsions:
REMARK  status: ('A' for Active; 'I' for Inactive)
ROOT
ATOM      1  C4' PXY d   1       1.052   3.522   1.582  0.00  0.00     0.077 C 
ATOM      2  C1' PXY d   1       1.116  -0.683  -2.384  0.00  0.00     0.077 C 
ATOM      3  C1  PXY d   1       1.092   0.412  -1.336  0.00  0.00    -0.082 A 
ATOM      4  C2  PXY d   1       1.239   1.674  -1.705  0.00  0.00     0.003 A 
ATOM      5  C3  PXY d   1       1.252   2.674  -0.767  0.00  0.00     0.003 A 
ATOM      6  C4  PXY d   1       1.060   2.384   0.557  0.00  0.00    -0.082 A 
ATOM      7  C5  PXY d   1       0.899   1.100   0.940  0.00  0.00     0.003 A 
ATOM      8  C6  PXY d   1       0.930   0.096  -0.023  0.00  0.00     0.003 A 
ENDROOT
TORSDOF 0
ENDMDL
