MODEL 1
REMARK minimizedAffinity 5.87220478
REMARK minimizedRMSD -1
REMARK  0 active torsions:
REMARK  status: ('A' for Active; 'I' for Inactive)
ROOT
ATOM      1  C4' PXY d   1       1.075   3.396  -2.349  0.00  0.00     0.077 C 
ATOM      2  C1' PXY d   1       1.165  -1.283   1.044  0.00  0.00     0.077 C 
ATOM      3  C1  PXY d   1       1.141  -0.048   0.165  0.00  0.00    -0.082 A 
ATOM      4  C2  PXY d   1       0.727  -0.145  -1.088  0.00  0.00     0.003 A 
ATOM      5  C3  PXY d   1       0.729   0.955  -1.907  0.00  0.00     0.003 A 
ATOM      6  C4  PXY d   1       1.108   2.178  -1.422  0.00  0.00    -0.082 A 
ATOM      7  C5  PXY d   1       1.521   2.288  -0.142  0.00  0.00     0.003 A 
ATOM      8  C6  PXY d   1       1.550   1.151   0.661  0.00  0.00     0.003 A 
ENDROOT
TORSDOF 0
ENDMDL
