MODEL 1
REMARK minimizedAffinity -2.26722503
REMARK minimizedRMSD -1
REMARK  0 active torsions:
REMARK  status: ('A' for Active; 'I' for Inactive)
ROOT
ATOM      1  C4' PXY d   1       1.056   2.985  -1.110  0.00  0.00     0.077 C 
ATOM      2  C1' PXY d   1       1.274  -2.722  -0.220  0.00  0.00     0.077 C 
ATOM      3  C1  PXY d   1       1.218  -1.224  -0.441  0.00  0.00    -0.082 A 
ATOM      4  C2  PXY d   1       0.650  -0.744  -1.535  0.00  0.00     0.003 A 
ATOM      5  C3  PXY d   1       0.619   0.607  -1.766  0.00  0.00     0.003 A 
ATOM      6  C4  PXY d   1       1.127   1.479  -0.841  0.00  0.00    -0.082 A 
ATOM      7  C5  PXY d   1       1.698   0.999   0.284  0.00  0.00     0.003 A 
ATOM      8  C6  PXY d   1       1.757  -0.378   0.480  0.00  0.00     0.003 A 
ENDROOT
TORSDOF 0
ENDMDL
