MODEL 1
REMARK minimizedAffinity 2.19249892
REMARK minimizedRMSD -1
REMARK  0 active torsions:
REMARK  status: ('A' for Active; 'I' for Inactive)
ROOT
ATOM      1  C4' PXY d   1       1.049   4.710  -0.807  0.00  0.00     0.077 C 
ATOM      2  C1' PXY d   1       0.575  -1.050  -0.687  0.00  0.00     0.077 C 
ATOM      3  C1  PXY d   1       0.709   0.459  -0.727  0.00  0.00    -0.082 A 
ATOM      4  C2  PXY d   1       0.304   1.180   0.306  0.00  0.00     0.003 A 
ATOM      5  C3  PXY d   1       0.388   2.548   0.273  0.00  0.00     0.003 A 
ATOM      6  C4  PXY d   1       0.942   3.182  -0.806  0.00  0.00    -0.082 A 
ATOM      7  C5  PXY d   1       1.368   2.453  -1.860  0.00  0.00     0.003 A 
ATOM      8  C6  PXY d   1       1.236   1.068  -1.824  0.00  0.00     0.003 A 
ENDROOT
TORSDOF 0
ENDMDL
