MODEL 1
REMARK minimizedAffinity 9.55766773
REMARK minimizedRMSD -1
REMARK  1 active torsions:
REMARK  status: ('A' for Active; 'I' for Inactive)
REMARK    1  A    between atoms: C1_2  and  C2_3 
ROOT
ATOM      1  C2  UNL d   1      -3.885   0.239  -1.171  0.00  0.00    -0.073 A 
ATOM      2  C3  UNL d   1      -2.495   0.222  -1.335  0.00  0.00    -0.002 A 
ATOM      3  C4  UNL d   1      -1.934   0.357  -2.605  0.00  0.00     0.004 A 
ATOM      4  C5  UNL d   1      -2.754   0.517  -3.722  0.00  0.00    -0.004 A 
ATOM      5  C6  UNL d   1      -4.145   0.548  -3.577  0.00  0.00    -0.075 A 
ATOM      6  C7  UNL d   1      -5.041   0.718  -4.768  0.00  0.00     0.076 C 
ATOM      7  C8  UNL d   1      -4.701   0.410  -2.298  0.00  0.00     0.001 A 
ENDROOT
BRANCH   1   8
ATOM      8  C1  UNL d   1      -4.495   0.100   0.200  0.00  0.00     0.053 C 
ATOM      9  C   UNL d   1      -4.152   1.278   1.099  0.00  0.00     0.018 C 
ENDBRANCH   1   8
TORSDOF 1
ENDMDL
