MODEL 1
REMARK minimizedAffinity 6.6290822
REMARK minimizedRMSD -1
REMARK  1 active torsions:
REMARK  status: ('A' for Active; 'I' for Inactive)
REMARK    1  A    between atoms: C1_2  and  C2_3 
ROOT
ATOM      1  C2  UNL d   1       4.125   1.489  -0.370  0.00  0.00    -0.073 A 
ATOM      2  C3  UNL d   1       3.002   0.654  -0.349  0.00  0.00    -0.002 A 
ATOM      3  C4  UNL d   1       2.661  -0.098  -1.475  0.00  0.00     0.004 A 
ATOM      4  C5  UNL d   1       3.442  -0.027  -2.628  0.00  0.00    -0.004 A 
ATOM      5  C6  UNL d   1       4.574   0.793  -2.665  0.00  0.00    -0.075 A 
ATOM      6  C7  UNL d   1       5.422   0.882  -3.900  0.00  0.00     0.076 C 
ATOM      7  C8  UNL d   1       4.908   1.547  -1.532  0.00  0.00     0.001 A 
ENDROOT
BRANCH   1   8
ATOM      8  C1  UNL d   1       4.500   2.298   0.845  0.00  0.00     0.053 C 
ATOM      9  C   UNL d   1       5.999   2.280   1.100  0.00  0.00     0.018 C 
ENDBRANCH   1   8
TORSDOF 1
ENDMDL
