MODEL 1
REMARK minimizedAffinity 3.27992415
REMARK minimizedRMSD -1
REMARK  1 active torsions:
REMARK  status: ('A' for Active; 'I' for Inactive)
REMARK    1  A    between atoms: C1_2  and  C2_3 
ROOT
ATOM      1  C2  UNL d   1       3.652  -0.433  -1.061  0.00  0.00    -0.073 A 
ATOM      2  C3  UNL d   1       3.273  -0.980   0.170  0.00  0.00    -0.002 A 
ATOM      3  C4  UNL d   1       2.826  -2.299   0.249  0.00  0.00     0.004 A 
ATOM      4  C5  UNL d   1       2.761  -3.088  -0.900  0.00  0.00    -0.004 A 
ATOM      5  C6  UNL d   1       3.147  -2.564  -2.138  0.00  0.00    -0.075 A 
ATOM      6  C7  UNL d   1       3.081  -3.398  -3.384  0.00  0.00     0.076 C 
ATOM      7  C8  UNL d   1       3.592  -1.237  -2.209  0.00  0.00     0.001 A 
ENDROOT
BRANCH   1   8
ATOM      8  C1  UNL d   1       4.141   0.989  -1.149  0.00  0.00     0.053 C 
ATOM      9  C   UNL d   1       3.783   1.793   0.091  0.00  0.00     0.018 C 
ENDBRANCH   1   8
TORSDOF 1
ENDMDL
