MODEL 1
REMARK minimizedAffinity 1.9968555
REMARK minimizedRMSD -1
REMARK  1 active torsions:
REMARK  status: ('A' for Active; 'I' for Inactive)
REMARK    1  A    between atoms: C1_2  and  C2_3 
ROOT
ATOM      1  C2  UNL d   1       2.534   3.966   5.969  0.00  0.00    -0.073 A 
ATOM      2  C3  UNL d   1       3.832   4.484   5.892  0.00  0.00    -0.002 A 
ATOM      3  C4  UNL d   1       4.932   3.626   5.858  0.00  0.00     0.004 A 
ATOM      4  C5  UNL d   1       4.746   2.244   5.893  0.00  0.00    -0.004 A 
ATOM      5  C6  UNL d   1       3.456   1.707   5.958  0.00  0.00    -0.075 A 
ATOM      6  C7  UNL d   1       3.239   0.223   5.999  0.00  0.00     0.076 C 
ATOM      7  C8  UNL d   1       2.357   2.576   5.994  0.00  0.00     0.001 A 
ENDROOT
BRANCH   1   8
ATOM      8  C1  UNL d   1       1.343   4.889   5.999  0.00  0.00     0.053 C 
ATOM      9  C   UNL d   1       1.180   5.653   4.694  0.00  0.00     0.018 C 
ENDBRANCH   1   8
TORSDOF 1
ENDMDL
