MODEL 1
REMARK minimizedAffinity 1.46746874
REMARK minimizedRMSD -1
REMARK  1 active torsions:
REMARK  status: ('A' for Active; 'I' for Inactive)
REMARK    1  A    between atoms: C1_2  and  C2_3 
ROOT
ATOM      1  C2  UNL d   1       3.896   0.967  -0.081  0.00  0.00    -0.073 A 
ATOM      2  C3  UNL d   1       3.932   1.141  -1.469  0.00  0.00    -0.002 A 
ATOM      3  C4  UNL d   1       3.554   0.101  -2.320  0.00  0.00     0.004 A 
ATOM      4  C5  UNL d   1       3.131  -1.119  -1.792  0.00  0.00    -0.004 A 
ATOM      5  C6  UNL d   1       3.078  -1.308  -0.407  0.00  0.00    -0.075 A 
ATOM      6  C7  UNL d   1       2.627  -2.615   0.177  0.00  0.00     0.076 C 
ATOM      7  C8  UNL d   1       3.461  -0.260   0.440  0.00  0.00     0.001 A 
ENDROOT
BRANCH   1   8
ATOM      8  C1  UNL d   1       4.297   2.090   0.841  0.00  0.00     0.053 C 
ATOM      9  C   UNL d   1       5.805   2.166   1.025  0.00  0.00     0.018 C 
ENDBRANCH   1   8
TORSDOF 1
ENDMDL
