MODEL 1
REMARK minimizedAffinity 7.05567598
REMARK minimizedRMSD -1
REMARK  1 active torsions:
REMARK  status: ('A' for Active; 'I' for Inactive)
REMARK    1  A    between atoms: C1_2  and  C2_3 
ROOT
ATOM      1  C2  UNL d   1      -3.277  -0.079  -1.144  0.00  0.00    -0.073 A 
ATOM      2  C3  UNL d   1      -4.603  -0.490  -1.318  0.00  0.00    -0.002 A 
ATOM      3  C4  UNL d   1      -5.587  -0.100  -0.408  0.00  0.00     0.004 A 
ATOM      4  C5  UNL d   1      -5.257   0.708   0.679  0.00  0.00    -0.004 A 
ATOM      5  C6  UNL d   1      -3.940   1.139   0.864  0.00  0.00    -0.075 A 
ATOM      6  C7  UNL d   1      -3.568   2.007   2.030  0.00  0.00     0.076 C 
ATOM      7  C8  UNL d   1      -2.956   0.741  -0.052  0.00  0.00     0.001 A 
ENDROOT
BRANCH   1   8
ATOM      8  C1  UNL d   1      -2.212  -0.492  -2.127  0.00  0.00     0.053 C 
ATOM      9  C   UNL d   1      -2.605  -0.172  -3.560  0.00  0.00     0.018 C 
ENDBRANCH   1   8
TORSDOF 1
ENDMDL
