MODEL 1
REMARK minimizedAffinity 13.6680002
REMARK minimizedRMSD -1
REMARK  1 active torsions:
REMARK  status: ('A' for Active; 'I' for Inactive)
REMARK    1  A    between atoms: C1_2  and  C2_3 
ROOT
ATOM      1  C2  UNL d   1      -4.501   2.450   0.365  0.00  0.00    -0.073 A 
ATOM      2  C3  UNL d   1      -4.928   1.119   0.443  0.00  0.00    -0.002 A 
ATOM      3  C4  UNL d   1      -5.676   0.557  -0.592  0.00  0.00     0.004 A 
ATOM      4  C5  UNL d   1      -5.998   1.316  -1.717  0.00  0.00    -0.004 A 
ATOM      5  C6  UNL d   1      -5.571   2.643  -1.819  0.00  0.00    -0.075 A 
ATOM      6  C7  UNL d   1      -5.911   3.474  -3.022  0.00  0.00     0.076 C 
ATOM      7  C8  UNL d   1      -4.822   3.202  -0.774  0.00  0.00     0.001 A 
ENDROOT
BRANCH   1   8
ATOM      8  C1  UNL d   1      -3.687   3.059   1.477  0.00  0.00     0.053 C 
ATOM      9  C   UNL d   1      -3.343   4.514   1.201  0.00  0.00     0.018 C 
ENDBRANCH   1   8
TORSDOF 1
ENDMDL
