MODEL 1
REMARK minimizedAffinity -4.38550806
REMARK minimizedRMSD -1
REMARK  2 active torsions:
REMARK  status: ('A' for Active; 'I' for Inactive)
REMARK    1  A    between atoms: C2'_3  and  C1'_4 
REMARK    2  A    between atoms: C1'_4  and  C1_5 
ROOT
ATOM      1  C1  I4B d   1      -0.654   0.134   0.024  0.00  0.00    -0.075 A 
ATOM      2  C2  I4B d   1       0.404   0.934  -0.330  0.00  0.00     0.003 A 
ATOM      3  C3  I4B d   1       1.554   0.370  -0.933  0.00  0.00     0.002 A 
ATOM      4  C4  I4B d   1       1.624  -0.996  -1.117  0.00  0.00    -0.004 A 
ATOM      5  C5  I4B d   1       0.541  -1.803  -0.778  0.00  0.00     0.002 A 
ATOM      6  C6  I4B d   1      -0.610  -1.233  -0.215  0.00  0.00     0.003 A 
ENDROOT
BRANCH   1   7
ATOM      7  C1' I4B d   1      -1.839   0.759   0.690  0.00  0.00     0.060 C 
BRANCH   7   8
ATOM      8  C2' I4B d   1      -1.533   0.882   2.168  0.00  0.00    -0.013 C 
ATOM      9  C4' I4B d   1      -1.663   2.308   2.634  0.00  0.00     0.013 C 
ATOM     10  C3' I4B d   1      -2.473  -0.019   2.913  0.00  0.00     0.013 C 
ENDBRANCH   7   8
ENDBRANCH   1   7
TORSDOF 2
ENDMDL
