MODEL 1
REMARK minimizedAffinity -4.98112392
REMARK minimizedRMSD -1
REMARK  2 active torsions:
REMARK  status: ('A' for Active; 'I' for Inactive)
REMARK    1  A    between atoms: C2'_3  and  C1'_4 
REMARK    2  A    between atoms: C1'_4  and  C1_5 
ROOT
ATOM      1  C1  I4B d   1       0.495   0.125   0.103  0.00  0.00    -0.075 A 
ATOM      2  C2  I4B d   1       0.449  -1.041  -0.620  0.00  0.00     0.003 A 
ATOM      3  C3  I4B d   1       1.587  -1.477  -1.342  0.00  0.00     0.002 A 
ATOM      4  C4  I4B d   1       2.724  -0.696  -1.354  0.00  0.00    -0.004 A 
ATOM      5  C5  I4B d   1       2.777   0.474  -0.602  0.00  0.00     0.002 A 
ATOM      6  C6  I4B d   1       1.660   0.881   0.142  0.00  0.00     0.003 A 
ENDROOT
BRANCH   1   7
ATOM      7  C1' I4B d   1      -0.735   0.573   0.828  0.00  0.00     0.060 C 
BRANCH   7   8
ATOM      8  C2' I4B d   1      -0.341   0.909   2.252  0.00  0.00    -0.013 C 
ATOM      9  C4' I4B d   1      -1.477   1.568   2.990  0.00  0.00     0.013 C 
ATOM     10  C3' I4B d   1       0.078  -0.362   2.928  0.00  0.00     0.013 C 
ENDBRANCH   7   8
ENDBRANCH   1   7
TORSDOF 2
ENDMDL
