MODEL 1
REMARK minimizedAffinity -4.08779478
REMARK minimizedRMSD -1
REMARK  2 active torsions:
REMARK  status: ('A' for Active; 'I' for Inactive)
REMARK    1  A    between atoms: C2'_3  and  C1'_4 
REMARK    2  A    between atoms: C1'_4  and  C1_5 
ROOT
ATOM      1  C1  I4B d   1      -0.510   0.190   0.044  0.00  0.00    -0.075 A 
ATOM      2  C2  I4B d   1       0.447   1.036  -0.458  0.00  0.00     0.003 A 
ATOM      3  C3  I4B d   1       1.648   0.514  -0.998  0.00  0.00     0.002 A 
ATOM      4  C4  I4B d   1       1.870  -0.848  -0.969  0.00  0.00    -0.004 A 
ATOM      5  C5  I4B d   1       0.888  -1.705  -0.481  0.00  0.00     0.002 A 
ATOM      6  C6  I4B d   1      -0.315  -1.184   0.018  0.00  0.00     0.003 A 
ENDROOT
BRANCH   1   7
ATOM      7  C1' I4B d   1      -1.752   0.778   0.636  0.00  0.00     0.060 C 
BRANCH   7   8
ATOM      8  C2' I4B d   1      -1.581   0.811   2.141  0.00  0.00    -0.013 C 
ATOM      9  C4' I4B d   1      -1.101   2.161   2.606  0.00  0.00     0.013 C 
ATOM     10  C3' I4B d   1      -2.899   0.461   2.765  0.00  0.00     0.013 C 
ENDBRANCH   7   8
ENDBRANCH   1   7
TORSDOF 2
ENDMDL
