MODEL 1
REMARK minimizedAffinity -5.29645348
REMARK minimizedRMSD -1
REMARK  2 active torsions:
REMARK  status: ('A' for Active; 'I' for Inactive)
REMARK    1  A    between atoms: C2'_3  and  C1'_4 
REMARK    2  A    between atoms: C1'_4  and  C1_5 
ROOT
ATOM      1  C1  I4B d   1      -0.148   0.080  -0.072  0.00  0.00    -0.075 A 
ATOM      2  C2  I4B d   1       0.724   0.915  -0.724  0.00  0.00     0.003 A 
ATOM      3  C3  I4B d   1       2.005   0.450  -1.108  0.00  0.00     0.002 A 
ATOM      4  C4  I4B d   1       2.389  -0.834  -0.777  0.00  0.00    -0.004 A 
ATOM      5  C5  I4B d   1       1.495  -1.687  -0.137  0.00  0.00     0.002 A 
ATOM      6  C6  I4B d   1       0.214  -1.232   0.208  0.00  0.00     0.003 A 
ENDROOT
BRANCH   1   7
ATOM      7  C1' I4B d   1      -1.481   0.614   0.348  0.00  0.00     0.060 C 
BRANCH   7   8
ATOM      8  C2' I4B d   1      -1.597   0.451   1.850  0.00  0.00    -0.013 C 
ATOM      9  C4' I4B d   1      -1.125   1.686   2.571  0.00  0.00     0.013 C 
ATOM     10  C3' I4B d   1      -3.030   0.150   2.173  0.00  0.00     0.013 C 
ENDBRANCH   7   8
ENDBRANCH   1   7
TORSDOF 2
ENDMDL
