MODEL 1
REMARK minimizedAffinity -5.65405512
REMARK minimizedRMSD -1
REMARK  2 active torsions:
REMARK  status: ('A' for Active; 'I' for Inactive)
REMARK    1  A    between atoms: C2'_3  and  C1'_4 
REMARK    2  A    between atoms: C1'_4  and  C1_5 
ROOT
ATOM      1  C1  I4B d   1      -0.750   0.257   0.147  0.00  0.00    -0.075 A 
ATOM      2  C2  I4B d   1       0.188   1.096  -0.400  0.00  0.00     0.003 A 
ATOM      3  C3  I4B d   1       1.356   0.565  -0.999  0.00  0.00     0.002 A 
ATOM      4  C4  I4B d   1       1.568  -0.798  -0.985  0.00  0.00    -0.004 A 
ATOM      5  C5  I4B d   1       0.604  -1.649  -0.450  0.00  0.00     0.002 A 
ATOM      6  C6  I4B d   1      -0.568  -1.119   0.108  0.00  0.00     0.003 A 
ENDROOT
BRANCH   1   7
ATOM      7  C1' I4B d   1      -1.956   0.853   0.802  0.00  0.00     0.060 C 
BRANCH   7   8
ATOM      8  C2' I4B d   1      -1.755   0.784   2.302  0.00  0.00    -0.013 C 
ATOM      9  C4' I4B d   1      -1.200   2.078   2.837  0.00  0.00     0.013 C 
ATOM     10  C3' I4B d   1      -3.076   0.460   2.932  0.00  0.00     0.013 C 
ENDBRANCH   7   8
ENDBRANCH   1   7
TORSDOF 2
ENDMDL
