MODEL 1
REMARK minimizedAffinity -5.37099886
REMARK minimizedRMSD -1
REMARK  2 active torsions:
REMARK  status: ('A' for Active; 'I' for Inactive)
REMARK    1  A    between atoms: C2'_3  and  C1'_4 
REMARK    2  A    between atoms: C1'_4  and  C1_5 
ROOT
ATOM      1  C1  I4B d   1      -0.069   0.224  -0.071  0.00  0.00    -0.075 A 
ATOM      2  C2  I4B d   1       0.146  -1.122  -0.231  0.00  0.00     0.003 A 
ATOM      3  C3  I4B d   1       1.361  -1.588  -0.789  0.00  0.00     0.002 A 
ATOM      4  C4  I4B d   1       2.306  -0.678  -1.217  0.00  0.00    -0.004 A 
ATOM      5  C5  I4B d   1       2.096   0.686  -1.033  0.00  0.00     0.002 A 
ATOM      6  C6  I4B d   1       0.906   1.139  -0.445  0.00  0.00     0.003 A 
ENDROOT
BRANCH   1   7
ATOM      7  C1' I4B d   1      -1.377   0.682   0.492  0.00  0.00     0.060 C 
BRANCH   7   8
ATOM      8  C2' I4B d   1      -1.086   1.666   1.607  0.00  0.00    -0.013 C 
ATOM      9  C4' I4B d   1      -1.486   3.065   1.218  0.00  0.00     0.013 C 
ATOM     10  C3' I4B d   1      -1.826   1.211   2.829  0.00  0.00     0.013 C 
ENDBRANCH   7   8
ENDBRANCH   1   7
TORSDOF 2
ENDMDL
