MODEL 1
REMARK minimizedAffinity -3.23897767
REMARK minimizedRMSD -1
REMARK  2 active torsions:
REMARK  status: ('A' for Active; 'I' for Inactive)
REMARK    1  A    between atoms: C2'_3  and  C1'_4 
REMARK    2  A    between atoms: C1'_4  and  C1_5 
ROOT
ATOM      1  C1  I4B d   1       0.138   0.204  -0.046  0.00  0.00    -0.075 A 
ATOM      2  C2  I4B d   1       0.243  -1.164  -0.081  0.00  0.00     0.003 A 
ATOM      3  C3  I4B d   1       1.426  -1.775  -0.561  0.00  0.00     0.002 A 
ATOM      4  C4  I4B d   1       2.453  -0.987  -1.040  0.00  0.00    -0.004 A 
ATOM      5  C5  I4B d   1       2.353   0.401  -0.982  0.00  0.00     0.002 A 
ATOM      6  C6  I4B d   1       1.194   1.000  -0.470  0.00  0.00     0.003 A 
ENDROOT
BRANCH   1   7
ATOM      7  C1' I4B d   1      -1.139   0.817   0.437  0.00  0.00     0.060 C 
BRANCH   7   8
ATOM      8  C2' I4B d   1      -1.145   0.753   1.951  0.00  0.00    -0.013 C 
ATOM      9  C4' I4B d   1      -0.746   2.074   2.553  0.00  0.00     0.013 C 
ATOM     10  C3' I4B d   1      -2.520   0.350   2.392  0.00  0.00     0.013 C 
ENDBRANCH   7   8
ENDBRANCH   1   7
TORSDOF 2
ENDMDL
