MODEL 1
REMARK minimizedAffinity -2.64832568
REMARK minimizedRMSD -1
REMARK  2 active torsions:
REMARK  status: ('A' for Active; 'I' for Inactive)
REMARK    1  A    between atoms: C2'_3  and  C1'_4 
REMARK    2  A    between atoms: C1'_4  and  C1_5 
ROOT
ATOM      1  C1  I4B d   1      -0.701   0.021   0.181  0.00  0.00    -0.075 A 
ATOM      2  C2  I4B d   1       0.109   0.766  -0.640  0.00  0.00     0.003 A 
ATOM      3  C3  I4B d   1       1.265   0.186  -1.217  0.00  0.00     0.002 A 
ATOM      4  C4  I4B d   1       1.598  -1.117  -0.908  0.00  0.00    -0.004 A 
ATOM      5  C5  I4B d   1       0.763  -1.878  -0.095  0.00  0.00     0.002 A 
ATOM      6  C6  I4B d   1      -0.400  -1.310   0.444  0.00  0.00     0.003 A 
ENDROOT
BRANCH   1   7
ATOM      7  C1' I4B d   1      -1.896   0.674   0.800  0.00  0.00     0.060 C 
BRANCH   7   8
ATOM      8  C2' I4B d   1      -1.633   0.817   2.285  0.00  0.00    -0.013 C 
ATOM      9  C4' I4B d   1      -1.286   2.238   2.643  0.00  0.00     0.013 C 
ATOM     10  C3' I4B d   1      -2.858   0.358   3.018  0.00  0.00     0.013 C 
ENDBRANCH   7   8
ENDBRANCH   1   7
TORSDOF 2
ENDMDL
