MODEL 1
REMARK minimizedAffinity -3.92953324
REMARK minimizedRMSD -1
REMARK  2 active torsions:
REMARK  status: ('A' for Active; 'I' for Inactive)
REMARK    1  A    between atoms: C2'_3  and  C1'_4 
REMARK    2  A    between atoms: C1'_4  and  C1_5 
ROOT
ATOM      1  C1  I4B d   1      -0.703  -0.074   0.700  0.00  0.00    -0.075 A 
ATOM      2  C2  I4B d   1      -0.273   0.801  -0.266  0.00  0.00     0.003 A 
ATOM      3  C3  I4B d   1       0.813   0.456  -1.107  0.00  0.00     0.002 A 
ATOM      4  C4  I4B d   1       1.468  -0.743  -0.914  0.00  0.00    -0.004 A 
ATOM      5  C5  I4B d   1       1.016  -1.638   0.051  0.00  0.00     0.002 A 
ATOM      6  C6  I4B d   1      -0.084  -1.308   0.855  0.00  0.00     0.003 A 
ENDROOT
BRANCH   1   7
ATOM      7  C1' I4B d   1      -1.832   0.336   1.592  0.00  0.00     0.060 C 
BRANCH   7   8
ATOM      8  C2' I4B d   1      -1.243   0.799   2.909  0.00  0.00    -0.013 C 
ATOM      9  C4' I4B d   1      -1.456   2.275   3.112  0.00  0.00     0.013 C 
ATOM     10  C3' I4B d   1      -1.882   0.003   4.007  0.00  0.00     0.013 C 
ENDBRANCH   7   8
ENDBRANCH   1   7
TORSDOF 2
ENDMDL
