MODEL 1
REMARK minimizedAffinity -4.42543316
REMARK minimizedRMSD -1
REMARK  2 active torsions:
REMARK  status: ('A' for Active; 'I' for Inactive)
REMARK    1  A    between atoms: C2'_3  and  C1'_4 
REMARK    2  A    between atoms: C1'_4  and  C1_5 
ROOT
ATOM      1  C1  I4B d   1      -0.433  -0.028   0.080  0.00  0.00    -0.075 A 
ATOM      2  C2  I4B d   1       0.615   0.686  -0.446  0.00  0.00     0.003 A 
ATOM      3  C3  I4B d   1       1.728   0.012  -1.004  0.00  0.00     0.002 A 
ATOM      4  C4  I4B d   1       1.775  -1.367  -0.969  0.00  0.00    -0.004 A 
ATOM      5  C5  I4B d   1       0.702  -2.090  -0.456  0.00  0.00     0.002 A 
ATOM      6  C6  I4B d   1      -0.415  -1.417   0.061  0.00  0.00     0.003 A 
ENDROOT
BRANCH   1   7
ATOM      7  C1' I4B d   1      -1.578   0.716   0.691  0.00  0.00     0.060 C 
BRANCH   7   8
ATOM      8  C2' I4B d   1      -1.428   0.649   2.197  0.00  0.00    -0.013 C 
ATOM      9  C4' I4B d   1      -1.059   1.993   2.769  0.00  0.00     0.013 C 
ATOM     10  C3' I4B d   1      -2.722   0.154   2.770  0.00  0.00     0.013 C 
ENDBRANCH   7   8
ENDBRANCH   1   7
TORSDOF 2
ENDMDL
