MODEL 1
REMARK minimizedAffinity -4.35089302
REMARK minimizedRMSD -1
REMARK  2 active torsions:
REMARK  status: ('A' for Active; 'I' for Inactive)
REMARK    1  A    between atoms: C2'_3  and  C1'_4 
REMARK    2  A    between atoms: C1'_4  and  C1_5 
ROOT
ATOM      1  C1  I4B d   1      -0.447   0.100   0.535  0.00  0.00    -0.075 A 
ATOM      2  C2  I4B d   1      -1.793  -0.171   0.556  0.00  0.00     0.003 A 
ATOM      3  C3  I4B d   1      -2.589   0.259   1.645  0.00  0.00     0.002 A 
ATOM      4  C4  I4B d   1      -1.994   0.908   2.708  0.00  0.00    -0.004 A 
ATOM      5  C5  I4B d   1      -0.634   1.202   2.673  0.00  0.00     0.002 A 
ATOM      6  C6  I4B d   1       0.143   0.806   1.575  0.00  0.00     0.003 A 
ENDROOT
BRANCH   1   7
ATOM      7  C1' I4B d   1       0.370  -0.398  -0.615  0.00  0.00     0.060 C 
BRANCH   7   8
ATOM      8  C2' I4B d   1       1.527   0.560  -0.815  0.00  0.00    -0.013 C 
ATOM      9  C4' I4B d   1       2.736  -0.152  -1.363  0.00  0.00     0.013 C 
ATOM     10  C3' I4B d   1       1.073   1.648  -1.741  0.00  0.00     0.013 C 
ENDBRANCH   7   8
ENDBRANCH   1   7
TORSDOF 2
ENDMDL
