MODEL 1
REMARK minimizedAffinity -5.78303242
REMARK minimizedRMSD -1
REMARK  2 active torsions:
REMARK  status: ('A' for Active; 'I' for Inactive)
REMARK    1  A    between atoms: C2'_3  and  C1'_4 
REMARK    2  A    between atoms: C1'_4  and  C1_5 
ROOT
ATOM      1  C1  I4B d   1      -0.391   0.240   0.106  0.00  0.00    -0.075 A 
ATOM      2  C2  I4B d   1      -0.196  -1.095   0.359  0.00  0.00     0.003 A 
ATOM      3  C3  I4B d   1       0.958  -1.752  -0.132  0.00  0.00     0.002 A 
ATOM      4  C4  I4B d   1       1.860  -1.053  -0.909  0.00  0.00    -0.004 A 
ATOM      5  C5  I4B d   1       1.672   0.305  -1.145  0.00  0.00     0.002 A 
ATOM      6  C6  I4B d   1       0.546   0.960  -0.625  0.00  0.00     0.003 A 
ENDROOT
BRANCH   1   7
ATOM      7  C1' I4B d   1      -1.637   0.895   0.612  0.00  0.00     0.060 C 
BRANCH   7   8
ATOM      8  C2' I4B d   1      -1.707   0.673   2.109  0.00  0.00    -0.013 C 
ATOM      9  C4' I4B d   1      -1.339   1.923   2.863  0.00  0.00     0.013 C 
ATOM     10  C3' I4B d   1      -3.098   0.226   2.446  0.00  0.00     0.013 C 
ENDBRANCH   7   8
ENDBRANCH   1   7
TORSDOF 2
ENDMDL
