MODEL 1
REMARK minimizedAffinity -5.05602074
REMARK minimizedRMSD -1
REMARK  0 active torsions:
REMARK  status: ('A' for Active; 'I' for Inactive)
ROOT
ATOM      1  N1  IND d   1       1.217  -1.832   0.469  0.00  0.00    -0.196 N 
ATOM      2  C2  IND d   1       0.409  -0.837   0.943  0.00  0.00     0.054 A 
ATOM      3  C3  IND d   1       0.907   0.374   0.607  0.00  0.00    -0.031 A 
ATOM      4  C4  IND d   1       2.978   0.955  -0.807  0.00  0.00     0.051 A 
ATOM      5  C5  IND d   1       4.052   0.384  -1.429  0.00  0.00    -0.031 A 
ATOM      6  C6  IND d   1       4.239  -0.983  -1.454  0.00  0.00     0.015 A 
ATOM      7  C7  IND d   1       3.348  -1.834  -0.864  0.00  0.00    -0.016 A 
ATOM      8  C8  IND d   1       2.260  -1.257  -0.225  0.00  0.00    -0.047 A 
ATOM      9  C9  IND d   1       2.088   0.132  -0.160  0.00  0.00    -0.096 A 
ATOM     10  HN1 IND d   1       1.095  -2.676   0.584  0.00  0.00     0.298 HD
ENDROOT
TORSDOF 0
ENDMDL
