MODEL 1
REMARK minimizedAffinity -2.30775499
REMARK minimizedRMSD -1
REMARK  0 active torsions:
REMARK  status: ('A' for Active; 'I' for Inactive)
ROOT
ATOM      1  N1  IND d   1       3.660   0.097  -0.799  0.00  0.00    -0.196 N 
ATOM      2  C2  IND d   1       4.081  -1.162  -1.122  0.00  0.00     0.054 A 
ATOM      3  C3  IND d   1       3.146  -2.075  -0.774  0.00  0.00    -0.031 A 
ATOM      4  C4  IND d   1       0.810  -1.716   0.245  0.00  0.00     0.051 A 
ATOM      5  C5  IND d   1      -0.008  -0.743   0.750  0.00  0.00    -0.031 A 
ATOM      6  C6  IND d   1       0.362   0.586   0.762  0.00  0.00     0.015 A 
ATOM      7  C7  IND d   1       1.564   0.996   0.257  0.00  0.00    -0.016 A 
ATOM      8  C8  IND d   1       2.399   0.011  -0.250  0.00  0.00    -0.047 A 
ATOM      9  C9  IND d   1       2.047  -1.345  -0.226  0.00  0.00    -0.096 A 
ATOM     10  HN1 IND d   1       4.107   0.822  -0.918  0.00  0.00     0.298 HD
ENDROOT
TORSDOF 0
ENDMDL
