MODEL 1
REMARK minimizedAffinity -5.93411541
REMARK minimizedRMSD -1
REMARK  0 active torsions:
REMARK  status: ('A' for Active; 'I' for Inactive)
ROOT
ATOM      1  N1  IND d   1       3.865  -1.029  -1.729  0.00  0.00    -0.196 N 
ATOM      2  C2  IND d   1       4.461   0.018  -2.375  0.00  0.00     0.054 A 
ATOM      3  C3  IND d   1       3.825   1.174  -2.083  0.00  0.00    -0.031 A 
ATOM      4  C4  IND d   1       1.848   1.595  -0.488  0.00  0.00     0.051 A 
ATOM      5  C5  IND d   1       0.943   0.943   0.301  0.00  0.00    -0.031 A 
ATOM      6  C6  IND d   1       0.968  -0.428   0.459  0.00  0.00     0.015 A 
ATOM      7  C7  IND d   1       1.910  -1.199  -0.160  0.00  0.00    -0.016 A 
ATOM      8  C8  IND d   1       2.827  -0.541  -0.968  0.00  0.00    -0.047 A 
ATOM      9  C9  IND d   1       2.780   0.845  -1.166  0.00  0.00    -0.096 A 
ATOM     10  HN1 IND d   1       4.100  -1.854  -1.789  0.00  0.00     0.298 HD
ENDROOT
TORSDOF 0
ENDMDL
