MODEL 1
REMARK minimizedAffinity -3.92226696
REMARK minimizedRMSD -1
REMARK  0 active torsions:
REMARK  status: ('A' for Active; 'I' for Inactive)
ROOT
ATOM      1  N1  IND d   1       0.555   0.178   1.618  0.00  0.00    -0.196 N 
ATOM      2  C2  IND d   1       0.069  -1.041   2.002  0.00  0.00     0.054 A 
ATOM      3  C3  IND d   1       0.517  -2.009   1.172  0.00  0.00    -0.031 A 
ATOM      4  C4  IND d   1       2.137  -1.833  -0.822  0.00  0.00     0.051 A 
ATOM      5  C5  IND d   1       2.818  -0.922  -1.580  0.00  0.00    -0.031 A 
ATOM      6  C6  IND d   1       2.780   0.430  -1.303  0.00  0.00     0.015 A 
ATOM      7  C7  IND d   1       2.066   0.921  -0.247  0.00  0.00    -0.016 A 
ATOM      8  C8  IND d   1       1.369  -0.000   0.520  0.00  0.00    -0.047 A 
ATOM      9  C9  IND d   1       1.369  -1.369   0.220  0.00  0.00    -0.096 A 
ATOM     10  HN1 IND d   1       0.381   0.930   1.997  0.00  0.00     0.298 HD
ENDROOT
TORSDOF 0
ENDMDL
