MODEL 1
REMARK minimizedAffinity -1.41504264
REMARK minimizedRMSD -1
REMARK  0 active torsions:
REMARK  status: ('A' for Active; 'I' for Inactive)
ROOT
ATOM      1  N1  IND d   1       1.931  -1.743   1.105  0.00  0.00    -0.196 N 
ATOM      2  C2  IND d   1       0.812  -1.234   1.701  0.00  0.00     0.054 A 
ATOM      3  C3  IND d   1       0.499  -0.032   1.166  0.00  0.00    -0.031 A 
ATOM      4  C4  IND d   1       1.626   1.240  -0.768  0.00  0.00     0.051 A 
ATOM      5  C5  IND d   1       2.706   1.191  -1.604  0.00  0.00    -0.031 A 
ATOM      6  C6  IND d   1       3.599   0.140  -1.582  0.00  0.00     0.015 A 
ATOM      7  C7  IND d   1       3.439  -0.913  -0.726  0.00  0.00    -0.016 A 
ATOM      8  C8  IND d   1       2.348  -0.864   0.130  0.00  0.00    -0.047 A 
ATOM      9  C9  IND d   1       1.462   0.221   0.141  0.00  0.00    -0.096 A 
ATOM     10  HN1 IND d   1       2.312  -2.488   1.306  0.00  0.00     0.298 HD
ENDROOT
TORSDOF 0
ENDMDL
