MODEL 1
REMARK minimizedAffinity -1.91656291
REMARK minimizedRMSD -1
REMARK  0 active torsions:
REMARK  status: ('A' for Active; 'I' for Inactive)
ROOT
ATOM      1  N1  IND d   1       3.852   0.252  -1.525  0.00  0.00    -0.196 N 
ATOM      2  C2  IND d   1       4.254  -1.018  -1.829  0.00  0.00     0.054 A 
ATOM      3  C3  IND d   1       3.434  -1.923  -1.247  0.00  0.00    -0.031 A 
ATOM      4  C4  IND d   1       1.315  -1.539   0.163  0.00  0.00     0.051 A 
ATOM      5  C5  IND d   1       0.569  -0.550   0.740  0.00  0.00    -0.031 A 
ATOM      6  C6  IND d   1       0.884   0.785   0.586  0.00  0.00     0.015 A 
ATOM      7  C7  IND d   1       1.955   1.182  -0.164  0.00  0.00    -0.016 A 
ATOM      8  C8  IND d   1       2.719   0.179  -0.745  0.00  0.00    -0.047 A 
ATOM      9  C9  IND d   1       2.429  -1.178  -0.557  0.00  0.00    -0.096 A 
ATOM     10  HN1 IND d   1       4.242   0.976  -1.778  0.00  0.00     0.298 HD
ENDROOT
TORSDOF 0
ENDMDL
