MODEL 1
REMARK minimizedAffinity -1.92934787
REMARK minimizedRMSD -1
REMARK  0 active torsions:
REMARK  status: ('A' for Active; 'I' for Inactive)
ROOT
ATOM      1  N1  IND d   1       1.496  -2.001   0.869  0.00  0.00    -0.196 N 
ATOM      2  C2  IND d   1       0.487  -1.392   1.561  0.00  0.00     0.054 A 
ATOM      3  C3  IND d   1       0.455  -0.070   1.280  0.00  0.00    -0.031 A 
ATOM      4  C4  IND d   1       1.899   1.287  -0.364  0.00  0.00     0.051 A 
ATOM      5  C5  IND d   1       2.976   1.175  -1.198  0.00  0.00    -0.031 A 
ATOM      6  C6  IND d   1       3.626  -0.027  -1.392  0.00  0.00     0.015 A 
ATOM      7  C7  IND d   1       3.214  -1.169  -0.764  0.00  0.00    -0.016 A 
ATOM      8  C8  IND d   1       2.126  -1.057   0.089  0.00  0.00    -0.047 A 
ATOM      9  C9  IND d   1       1.489   0.169   0.322  0.00  0.00    -0.096 A 
ATOM     10  HN1 IND d   1       1.703  -2.835   0.914  0.00  0.00     0.298 HD
ENDROOT
TORSDOF 0
ENDMDL
