MODEL 1
REMARK minimizedAffinity 0.137465954
REMARK minimizedRMSD -1
REMARK  0 active torsions:
REMARK  status: ('A' for Active; 'I' for Inactive)
ROOT
ATOM      1  N1  IND d   1       4.124   0.089  -1.688  0.00  0.00    -0.196 N 
ATOM      2  C2  IND d   1       4.439  -1.211  -1.967  0.00  0.00     0.054 A 
ATOM      3  C3  IND d   1       3.624  -2.049  -1.286  0.00  0.00    -0.031 A 
ATOM      4  C4  IND d   1       1.641  -1.502   0.262  0.00  0.00     0.051 A 
ATOM      5  C5  IND d   1       0.991  -0.454   0.850  0.00  0.00    -0.031 A 
ATOM      6  C6  IND d   1       1.358   0.855   0.616  0.00  0.00     0.015 A 
ATOM      7  C7  IND d   1       2.386   1.167  -0.228  0.00  0.00    -0.016 A 
ATOM      8  C8  IND d   1       3.053   0.105  -0.822  0.00  0.00    -0.047 A 
ATOM      9  C9  IND d   1       2.712  -1.227  -0.555  0.00  0.00    -0.096 A 
ATOM     10  HN1 IND d   1       4.528   0.781  -2.000  0.00  0.00     0.298 HD
ENDROOT
TORSDOF 0
ENDMDL
