MODEL 1
REMARK minimizedAffinity 6.07492638
REMARK minimizedRMSD -1
REMARK  0 active torsions:
REMARK  status: ('A' for Active; 'I' for Inactive)
ROOT
ATOM      1  N1  IND d   1       3.380  -0.748  -1.264  0.00  0.00    -0.196 N 
ATOM      2  C2  IND d   1       3.227  -2.074  -1.561  0.00  0.00     0.054 A 
ATOM      3  C3  IND d   1       2.184  -2.591  -0.873  0.00  0.00    -0.031 A 
ATOM      4  C4  IND d   1       0.529  -1.421   0.714  0.00  0.00     0.051 A 
ATOM      5  C5  IND d   1       0.285  -0.223   1.324  0.00  0.00    -0.031 A 
ATOM      6  C6  IND d   1       1.076   0.885   1.095  0.00  0.00     0.015 A 
ATOM      7  C7  IND d   1       2.136   0.839   0.235  0.00  0.00    -0.016 A 
ATOM      8  C8  IND d   1       2.391  -0.379  -0.380  0.00  0.00    -0.047 A 
ATOM      9  C9  IND d   1       1.618  -1.518  -0.119  0.00  0.00    -0.096 A 
ATOM     10  HN1 IND d   1       3.992  -0.232  -1.578  0.00  0.00     0.298 HD
ENDROOT
TORSDOF 0
ENDMDL
