MODEL 1
REMARK minimizedAffinity -2.42270947
REMARK minimizedRMSD -1
REMARK  0 active torsions:
REMARK  status: ('A' for Active; 'I' for Inactive)
ROOT
ATOM      1  N1  IND d   1       4.315  -1.454  -1.553  0.00  0.00    -0.196 N 
ATOM      2  C2  IND d   1       4.736  -0.332  -2.212  0.00  0.00     0.054 A 
ATOM      3  C3  IND d   1       3.899   0.700  -1.965  0.00  0.00    -0.031 A 
ATOM      4  C4  IND d   1       1.836   0.802  -0.429  0.00  0.00     0.051 A 
ATOM      5  C5  IND d   1       1.038   0.018   0.356  0.00  0.00    -0.031 A 
ATOM      6  C6  IND d   1       1.298  -1.323   0.550  0.00  0.00     0.015 A 
ATOM      7  C7  IND d   1       2.377  -1.930  -0.026  0.00  0.00    -0.016 A 
ATOM      8  C8  IND d   1       3.186  -1.139  -0.829  0.00  0.00    -0.047 A 
ATOM      9  C9  IND d   1       2.903   0.213  -1.065  0.00  0.00    -0.096 A 
ATOM     10  HN1 IND d   1       4.692  -2.226  -1.585  0.00  0.00     0.298 HD
ENDROOT
TORSDOF 0
ENDMDL
