MODEL 1
REMARK minimizedAffinity -0.327054769
REMARK minimizedRMSD -1
REMARK  0 active torsions:
REMARK  status: ('A' for Active; 'I' for Inactive)
ROOT
ATOM      1  N1  IND d   1       4.083  -1.695  -0.874  0.00  0.00    -0.196 N 
ATOM      2  C2  IND d   1       4.547  -0.876  -1.866  0.00  0.00     0.054 A 
ATOM      3  C3  IND d   1       3.736   0.197  -2.007  0.00  0.00    -0.031 A 
ATOM      4  C4  IND d   1       1.652   0.863  -0.651  0.00  0.00     0.051 A 
ATOM      5  C5  IND d   1       0.819   0.413   0.335  0.00  0.00    -0.031 A 
ATOM      6  C6  IND d   1       1.037  -0.786   0.982  0.00  0.00     0.015 A 
ATOM      7  C7  IND d   1       2.108  -1.577   0.675  0.00  0.00    -0.016 A 
ATOM      8  C8  IND d   1       2.952  -1.126  -0.329  0.00  0.00    -0.047 A 
ATOM      9  C9  IND d   1       2.712   0.069  -1.020  0.00  0.00    -0.096 A 
ATOM     10  HN1 IND d   1       4.438  -2.439  -0.631  0.00  0.00     0.298 HD
ENDROOT
TORSDOF 0
ENDMDL
