MODEL 1
REMARK minimizedAffinity -3.74028206
REMARK minimizedRMSD -1
REMARK  0 active torsions:
REMARK  status: ('A' for Active; 'I' for Inactive)
ROOT
ATOM      1  N1  IND d   1       4.256  -1.216  -1.796  0.00  0.00    -0.196 N 
ATOM      2  C2  IND d   1       4.768  -0.007  -2.178  0.00  0.00     0.054 A 
ATOM      3  C3  IND d   1       3.978   0.999  -1.741  0.00  0.00    -0.031 A 
ATOM      4  C4  IND d   1       1.851   0.896  -0.295  0.00  0.00     0.051 A 
ATOM      5  C5  IND d   1       0.974   0.013   0.270  0.00  0.00    -0.031 A 
ATOM      6  C6  IND d   1       1.151  -1.352   0.176  0.00  0.00     0.015 A 
ATOM      7  C7  IND d   1       2.223  -1.887  -0.481  0.00  0.00    -0.016 A 
ATOM      8  C8  IND d   1       3.112  -0.994  -1.062  0.00  0.00    -0.047 A 
ATOM      9  C9  IND d   1       2.914   0.392  -1.005  0.00  0.00    -0.096 A 
ATOM     10  HN1 IND d   1       4.591  -1.985  -1.983  0.00  0.00     0.298 HD
ENDROOT
TORSDOF 0
ENDMDL
