MODEL 1
REMARK minimizedAffinity -4.53791475
REMARK minimizedRMSD -1
REMARK  0 active torsions:
REMARK  status: ('A' for Active; 'I' for Inactive)
ROOT
ATOM      1  N1  IND d   1       4.033  -1.264  -1.616  0.00  0.00    -0.196 N 
ATOM      2  C2  IND d   1       4.361  -0.030  -2.105  0.00  0.00     0.054 A 
ATOM      3  C3  IND d   1       3.489   0.900  -1.656  0.00  0.00    -0.031 A 
ATOM      4  C4  IND d   1       1.510   0.638  -0.030  0.00  0.00     0.051 A 
ATOM      5  C5  IND d   1       0.796  -0.305   0.654  0.00  0.00    -0.031 A 
ATOM      6  C6  IND d   1       1.132  -1.643   0.618  0.00  0.00     0.015 A 
ATOM      7  C7  IND d   1       2.207  -2.088  -0.098  0.00  0.00    -0.016 A 
ATOM      8  C8  IND d   1       2.931  -1.134  -0.800  0.00  0.00    -0.047 A 
ATOM      9  C9  IND d   1       2.569   0.220  -0.801  0.00  0.00    -0.096 A 
ATOM     10  HN1 IND d   1       4.445  -1.998  -1.790  0.00  0.00     0.298 HD
ENDROOT
TORSDOF 0
ENDMDL
