MODEL 1
REMARK minimizedAffinity -2.54632616
REMARK minimizedRMSD -1
REMARK  0 active torsions:
REMARK  status: ('A' for Active; 'I' for Inactive)
ROOT
ATOM      1  C   UNL d   1       3.066   0.357  -0.019  0.00  0.00    -0.002 A 
ATOM      2  C1  UNL d   1       2.429   0.503   1.205  0.00  0.00     0.010 A 
ATOM      3  C2  UNL d   1       1.044   0.355   1.307  0.00  0.00     0.041 A 
ATOM      4  C3  UNL d   1       0.303   0.054   0.147  0.00  0.00    -0.075 A 
ATOM      5  S   UNL d   1      -1.402  -0.173   0.032  0.00  0.00     0.015 SA
ATOM      6  C4  UNL d   1      -1.324  -0.470  -1.645  0.00  0.00     0.022 A 
ATOM      7  C5  UNL d   1      -0.037  -0.401  -2.122  0.00  0.00     0.026 A 
ATOM      8  C6  UNL d   1       0.923  -0.099  -1.097  0.00  0.00    -0.082 A 
ATOM      9  C7  UNL d   1       2.328   0.058  -1.168  0.00  0.00     0.045 A 
ENDROOT
TORSDOF 0
ENDMDL
