MODEL 1
REMARK minimizedAffinity -4.45868111
REMARK minimizedRMSD -1
REMARK  0 active torsions:
REMARK  status: ('A' for Active; 'I' for Inactive)
ROOT
ATOM      1  C   UNL d   1       3.479   0.654   0.914  0.00  0.00    -0.002 A 
ATOM      2  C1  UNL d   1       3.427  -0.733   0.898  0.00  0.00     0.010 A 
ATOM      3  C2  UNL d   1       2.222  -1.396   0.661  0.00  0.00     0.041 A 
ATOM      4  C3  UNL d   1       1.058  -0.635   0.437  0.00  0.00    -0.075 A 
ATOM      5  S   UNL d   1      -0.530  -1.231   0.125  0.00  0.00     0.015 SA
ATOM      6  C4  UNL d   1      -1.177   0.341   0.005  0.00  0.00     0.022 A 
ATOM      7  C5  UNL d   1      -0.220   1.309   0.196  0.00  0.00     0.026 A 
ATOM      8  C6  UNL d   1       1.084   0.762   0.448  0.00  0.00    -0.082 A 
ATOM      9  C7  UNL d   1       2.322   1.405   0.692  0.00  0.00     0.045 A 
ENDROOT
TORSDOF 0
ENDMDL
