MODEL 1
REMARK minimizedAffinity -1.11272705
REMARK minimizedRMSD -1
REMARK  0 active torsions:
REMARK  status: ('A' for Active; 'I' for Inactive)
ROOT
ATOM      1  C   UNL d   1       3.251   0.141   0.253  0.00  0.00    -0.002 A 
ATOM      2  C1  UNL d   1       2.909  -1.189   0.458  0.00  0.00     0.010 A 
ATOM      3  C2  UNL d   1       1.576  -1.599   0.388  0.00  0.00     0.041 A 
ATOM      4  C3  UNL d   1       0.583  -0.641   0.102  0.00  0.00    -0.075 A 
ATOM      5  S   UNL d   1      -1.114  -0.913  -0.035  0.00  0.00     0.015 SA
ATOM      6  C4  UNL d   1      -1.425   0.729  -0.370  0.00  0.00     0.022 A 
ATOM      7  C5  UNL d   1      -0.274   1.480  -0.381  0.00  0.00     0.026 A 
ATOM      8  C6  UNL d   1       0.903   0.703  -0.110  0.00  0.00    -0.082 A 
ATOM      9  C7  UNL d   1       2.263   1.087  -0.030  0.00  0.00     0.045 A 
ENDROOT
TORSDOF 0
ENDMDL
