MODEL 1
REMARK minimizedAffinity 9.20831203
REMARK minimizedRMSD -1
REMARK  0 active torsions:
REMARK  status: ('A' for Active; 'I' for Inactive)
ROOT
ATOM      1  C   UNL d   1       3.011   0.648   3.373  0.00  0.00    -0.002 A 
ATOM      2  C1  UNL d   1       2.890   2.003   3.644  0.00  0.00     0.010 A 
ATOM      3  C2  UNL d   1       2.253   2.855   2.740  0.00  0.00     0.041 A 
ATOM      4  C3  UNL d   1       1.731   2.315   1.548  0.00  0.00    -0.075 A 
ATOM      5  S   UNL d   1       0.909   3.167   0.294  0.00  0.00     0.015 SA
ATOM      6  C4  UNL d   1       0.697   1.751  -0.631  0.00  0.00     0.022 A 
ATOM      7  C5  UNL d   1       1.235   0.647  -0.013  0.00  0.00     0.026 A 
ATOM      8  C6  UNL d   1       1.839   0.953   1.253  0.00  0.00    -0.082 A 
ATOM      9  C7  UNL d   1       2.492   0.116   2.189  0.00  0.00     0.045 A 
ENDROOT
TORSDOF 0
ENDMDL
