MODEL 1
REMARK minimizedAffinity 9.49806404
REMARK minimizedRMSD -1
REMARK  0 active torsions:
REMARK  status: ('A' for Active; 'I' for Inactive)
ROOT
ATOM      1  C   UNL d   1       1.115  -2.397   3.164  0.00  0.00    -0.002 A 
ATOM      2  C1  UNL d   1       0.228  -2.441   2.097  0.00  0.00     0.010 A 
ATOM      3  C2  UNL d   1       0.144  -1.376   1.199  0.00  0.00     0.041 A 
ATOM      4  C3  UNL d   1       0.975  -0.254   1.391  0.00  0.00    -0.075 A 
ATOM      5  S   UNL d   1       1.045   1.167   0.418  0.00  0.00     0.015 SA
ATOM      6  C4  UNL d   1       2.254   1.866   1.394  0.00  0.00     0.022 A 
ATOM      7  C5  UNL d   1       2.607   1.049   2.442  0.00  0.00     0.026 A 
ATOM      8  C6  UNL d   1       1.876  -0.187   2.457  0.00  0.00    -0.082 A 
ATOM      9  C7  UNL d   1       1.937  -1.283   3.351  0.00  0.00     0.045 A 
ENDROOT
TORSDOF 0
ENDMDL
