MODEL 1
REMARK minimizedAffinity 12.4544649
REMARK minimizedRMSD -1
REMARK  0 active torsions:
REMARK  status: ('A' for Active; 'I' for Inactive)
ROOT
ATOM      1  C   UNL d   1       5.919  -3.424   4.723  0.00  0.00    -0.002 A 
ATOM      2  C1  UNL d   1       6.000  -3.024   3.396  0.00  0.00     0.010 A 
ATOM      3  C2  UNL d   1       4.857  -2.610   2.709  0.00  0.00     0.041 A 
ATOM      4  C3  UNL d   1       3.621  -2.604   3.384  0.00  0.00    -0.075 A 
ATOM      5  S   UNL d   1       2.090  -2.136   2.744  0.00  0.00     0.015 SA
ATOM      6  C4  UNL d   1       1.293  -2.456   4.216  0.00  0.00     0.022 A 
ATOM      7  C5  UNL d   1       2.158  -2.909   5.183  0.00  0.00     0.026 A 
ATOM      8  C6  UNL d   1       3.514  -3.002   4.719  0.00  0.00    -0.082 A 
ATOM      9  C7  UNL d   1       4.691  -3.417   5.389  0.00  0.00     0.045 A 
ENDROOT
TORSDOF 0
ENDMDL
