MODEL 1
REMARK minimizedAffinity 7.81685114
REMARK minimizedRMSD -1
REMARK  0 active torsions:
REMARK  status: ('A' for Active; 'I' for Inactive)
ROOT
ATOM      1  C   UNL d   1       0.287   3.307   0.129  0.00  0.00    -0.002 A 
ATOM      2  C1  UNL d   1       1.503   2.925   0.679  0.00  0.00     0.010 A 
ATOM      3  C2  UNL d   1       1.754   1.587   0.988  0.00  0.00     0.041 A 
ATOM      4  C3  UNL d   1       0.754   0.629   0.731  0.00  0.00    -0.075 A 
ATOM      5  S   UNL d   1       0.839  -1.067   1.027  0.00  0.00     0.015 SA
ATOM      6  C4  UNL d   1      -0.736  -1.326   0.430  0.00  0.00     0.022 A 
ATOM      7  C5  UNL d   1      -1.327  -0.158   0.011  0.00  0.00     0.026 A 
ATOM      8  C6  UNL d   1      -0.478   0.988   0.177  0.00  0.00    -0.082 A 
ATOM      9  C7  UNL d   1      -0.703   2.353  -0.124  0.00  0.00     0.045 A 
ENDROOT
TORSDOF 0
ENDMDL
