MODEL 1
REMARK minimizedAffinity -3.55722928
REMARK minimizedRMSD -1
REMARK  0 active torsions:
REMARK  status: ('A' for Active; 'I' for Inactive)
ROOT
ATOM      1  C   UNL d   1       1.772   0.740   0.380  0.00  0.00    -0.002 A 
ATOM      2  C1  UNL d   1       0.766  -0.215   0.330  0.00  0.00     0.010 A 
ATOM      3  C2  UNL d   1       0.712  -1.240   1.277  0.00  0.00     0.041 A 
ATOM      4  C3  UNL d   1       1.695  -1.288   2.285  0.00  0.00    -0.075 A 
ATOM      5  S   UNL d   1       1.829  -2.451   3.550  0.00  0.00     0.015 SA
ATOM      6  C4  UNL d   1       3.224  -1.708   4.187  0.00  0.00     0.022 A 
ATOM      7  C5  UNL d   1       3.593  -0.598   3.464  0.00  0.00     0.026 A 
ATOM      8  C6  UNL d   1       2.717  -0.338   2.356  0.00  0.00    -0.082 A 
ATOM      9  C7  UNL d   1       2.745   0.689   1.381  0.00  0.00     0.045 A 
ENDROOT
TORSDOF 0
ENDMDL
