MODEL 1
REMARK minimizedAffinity 7.65465879
REMARK minimizedRMSD -1
REMARK  0 active torsions:
REMARK  status: ('A' for Active; 'I' for Inactive)
ROOT
ATOM      1  C   UNL d   1       1.063   2.565   0.464  0.00  0.00    -0.002 A 
ATOM      2  C1  UNL d   1       2.219   1.893   0.837  0.00  0.00     0.010 A 
ATOM      3  C2  UNL d   1       2.202   0.512   1.041  0.00  0.00     0.041 A 
ATOM      4  C3  UNL d   1       0.994  -0.190   0.859  0.00  0.00    -0.075 A 
ATOM      5  S   UNL d   1       0.737  -1.884   1.051  0.00  0.00     0.015 SA
ATOM      6  C4  UNL d   1      -0.912  -1.755   0.641  0.00  0.00     0.022 A 
ATOM      7  C5  UNL d   1      -1.275  -0.459   0.362  0.00  0.00     0.026 A 
ATOM      8  C6  UNL d   1      -0.182   0.465   0.482  0.00  0.00    -0.082 A 
ATOM      9  C7  UNL d   1      -0.133   1.866   0.284  0.00  0.00     0.045 A 
ENDROOT
TORSDOF 0
ENDMDL
