MODEL 1
REMARK minimizedAffinity 3.16267681
REMARK minimizedRMSD -1
REMARK  0 active torsions:
REMARK  status: ('A' for Active; 'I' for Inactive)
ROOT
ATOM      1  C   UNL d   1       0.713   1.226   0.070  0.00  0.00    -0.002 A 
ATOM      2  C1  UNL d   1      -0.159   0.147   0.091  0.00  0.00     0.010 A 
ATOM      3  C2  UNL d   1      -0.015  -0.865   1.042  0.00  0.00     0.041 A 
ATOM      4  C3  UNL d   1       1.030  -0.772   1.982  0.00  0.00    -0.075 A 
ATOM      5  S   UNL d   1       1.400  -1.892   3.240  0.00  0.00     0.015 SA
ATOM      6  C4  UNL d   1       2.723  -0.964   3.780  0.00  0.00     0.022 A 
ATOM      7  C5  UNL d   1       2.894   0.176   3.030  0.00  0.00     0.026 A 
ATOM      8  C6  UNL d   1       1.921   0.305   1.982  0.00  0.00    -0.082 A 
ATOM      9  C7  UNL d   1       1.748   1.315   1.004  0.00  0.00     0.045 A 
ENDROOT
TORSDOF 0
ENDMDL
