MODEL 1
REMARK minimizedAffinity 1.75339568
REMARK minimizedRMSD -1
REMARK  0 active torsions:
REMARK  status: ('A' for Active; 'I' for Inactive)
ROOT
ATOM      1  C   UNL d   1      -1.069  -0.421   1.410  0.00  0.00     0.172 C 
ATOM      2  N   UNL d   1       0.046  -0.874   2.208  0.00  0.00    -0.070 N 
ATOM      3  C1  UNL d   1       0.242  -0.597   3.535  0.00  0.00    -0.004 A 
ATOM      4  C2  UNL d   1       1.414  -1.209   3.925  0.00  0.00    -0.047 A 
ATOM      5  C3  UNL d   1       1.940  -1.876   2.793  0.00  0.00    -0.047 A 
ATOM      6  C4  UNL d   1       1.074  -1.652   1.744  0.00  0.00    -0.004 A 
ENDROOT
TORSDOF 0
ENDMDL
