MODEL 1
REMARK minimizedAffinity -1.9526583
REMARK minimizedRMSD -1
REMARK  0 active torsions:
REMARK  status: ('A' for Active; 'I' for Inactive)
ROOT
ATOM      1  C   UNL d   1      -0.692  -1.834  -2.505  0.00  0.00     0.172 C 
ATOM      2  N   UNL d   1      -0.616  -1.137  -3.767  0.00  0.00    -0.070 N 
ATOM      3  C1  UNL d   1      -0.773   0.212  -3.945  0.00  0.00    -0.004 A 
ATOM      4  C2  UNL d   1      -0.628   0.480  -5.289  0.00  0.00    -0.047 A 
ATOM      5  C3  UNL d   1      -0.377  -0.750  -5.942  0.00  0.00    -0.047 A 
ATOM      6  C4  UNL d   1      -0.374  -1.734  -4.976  0.00  0.00    -0.004 A 
ENDROOT
TORSDOF 0
ENDMDL
