MODEL 1
REMARK minimizedAffinity -3.83041668
REMARK minimizedRMSD -1
REMARK  0 active torsions:
REMARK  status: ('A' for Active; 'I' for Inactive)
ROOT
ATOM      1  C   UNL d   1       2.038   0.808  -5.546  0.00  0.00     0.172 C 
ATOM      2  N   UNL d   1       0.626   0.610  -5.314  0.00  0.00    -0.070 N 
ATOM      3  C1  UNL d   1      -0.010  -0.601  -5.249  0.00  0.00    -0.004 A 
ATOM      4  C2  UNL d   1      -1.347  -0.363  -5.014  0.00  0.00    -0.047 A 
ATOM      5  C3  UNL d   1      -1.520   1.039  -4.936  0.00  0.00    -0.047 A 
ATOM      6  C4  UNL d   1      -0.283   1.617  -5.126  0.00  0.00    -0.004 A 
ENDROOT
TORSDOF 0
ENDMDL
