MODEL 1
REMARK minimizedAffinity 0.0280230567
REMARK minimizedRMSD -1
REMARK  0 active torsions:
REMARK  status: ('A' for Active; 'I' for Inactive)
ROOT
ATOM      1  C   UNL d   1       2.453   0.681  -5.999  0.00  0.00     0.172 C 
ATOM      2  N   UNL d   1       1.079   0.332  -5.722  0.00  0.00    -0.070 N 
ATOM      3  C1  UNL d   1       0.652  -0.835  -5.146  0.00  0.00    -0.004 A 
ATOM      4  C2  UNL d   1      -0.722  -0.782  -5.054  0.00  0.00    -0.047 A 
ATOM      5  C3  UNL d   1      -1.135   0.460  -5.594  0.00  0.00    -0.047 A 
ATOM      6  C4  UNL d   1       0.000   1.129  -5.999  0.00  0.00    -0.004 A 
ENDROOT
TORSDOF 0
ENDMDL
