MODEL 1
REMARK minimizedAffinity -2.14440346
REMARK minimizedRMSD -1
REMARK  0 active torsions:
REMARK  status: ('A' for Active; 'I' for Inactive)
ROOT
ATOM      1  C   UNL d   1       3.041  -2.949  -2.615  0.00  0.00     0.172 C 
ATOM      2  N   UNL d   1       1.619  -2.767  -2.795  0.00  0.00    -0.070 N 
ATOM      3  C1  UNL d   1       0.981  -2.602  -3.995  0.00  0.00    -0.004 A 
ATOM      4  C2  UNL d   1      -0.366  -2.461  -3.741  0.00  0.00    -0.047 A 
ATOM      5  C3  UNL d   1      -0.543  -2.544  -2.339  0.00  0.00    -0.047 A 
ATOM      6  C4  UNL d   1       0.702  -2.733  -1.778  0.00  0.00    -0.004 A 
ENDROOT
TORSDOF 0
ENDMDL
