MODEL 1
REMARK minimizedAffinity 2.57827902
REMARK minimizedRMSD -1
REMARK  0 active torsions:
REMARK  status: ('A' for Active; 'I' for Inactive)
ROOT
ATOM      1  C   UNL d   1      -4.500  -0.007  -5.624  0.00  0.00     0.172 C 
ATOM      2  N   UNL d   1      -3.103   0.220  -5.336  0.00  0.00    -0.070 N 
ATOM      3  C1  UNL d   1      -2.283   1.093  -6.000  0.00  0.00    -0.004 A 
ATOM      4  C2  UNL d   1      -1.032   1.016  -5.426  0.00  0.00    -0.047 A 
ATOM      5  C3  UNL d   1      -1.102   0.062  -4.383  0.00  0.00    -0.047 A 
ATOM      6  C4  UNL d   1      -2.396  -0.415  -4.349  0.00  0.00    -0.004 A 
ENDROOT
TORSDOF 0
ENDMDL
