MODEL 1
REMARK minimizedAffinity -3.29559588
REMARK minimizedRMSD -1
REMARK  0 active torsions:
REMARK  status: ('A' for Active; 'I' for Inactive)
ROOT
ATOM      1  C   UNL d   1      -2.022   2.682   1.581  0.00  0.00     0.077 C 
ATOM      2  C1  UNL d   1      -0.850   1.751   1.496  0.00  0.00    -0.074 A 
ATOM      3  C2  UNL d   1       0.201   1.832   2.416  0.00  0.00    -0.005 A 
ATOM      4  C3  UNL d   1       1.280   0.953   2.330  0.00  0.00     0.006 A 
ATOM      5  C4  UNL d   1       1.320  -0.015   1.325  0.00  0.00    -0.005 A 
ATOM      6  C5  UNL d   1       0.278  -0.112   0.397  0.00  0.00    -0.074 A 
ATOM      7  C6  UNL d   1       0.301  -1.152  -0.682  0.00  0.00     0.077 C 
ATOM      8  C7  UNL d   1      -0.806   0.771   0.494  0.00  0.00    -0.001 A 
ENDROOT
TORSDOF 0
ENDMDL
