MODEL 1
REMARK minimizedAffinity -4.69365215
REMARK minimizedRMSD -1
REMARK  0 active torsions:
REMARK  status: ('A' for Active; 'I' for Inactive)
ROOT
ATOM      1  C   UNL d   1      -1.397   3.412   1.218  0.00  0.00     0.077 C 
ATOM      2  C1  UNL d   1      -0.696   2.095   1.366  0.00  0.00    -0.074 A 
ATOM      3  C2  UNL d   1      -0.106   1.727   2.580  0.00  0.00    -0.005 A 
ATOM      4  C3  UNL d   1       0.535   0.495   2.706  0.00  0.00     0.006 A 
ATOM      5  C4  UNL d   1       0.592  -0.382   1.622  0.00  0.00    -0.005 A 
ATOM      6  C5  UNL d   1       0.007  -0.032   0.401  0.00  0.00    -0.074 A 
ATOM      7  C6  UNL d   1       0.051  -0.966  -0.772  0.00  0.00     0.077 C 
ATOM      8  C7  UNL d   1      -0.641   1.206   0.284  0.00  0.00    -0.001 A 
ENDROOT
TORSDOF 0
ENDMDL
