MODEL 1
REMARK minimizedAffinity -5.56268787
REMARK minimizedRMSD -1
REMARK  0 active torsions:
REMARK  status: ('A' for Active; 'I' for Inactive)
ROOT
ATOM      1  C   UNL d   1      -0.026  -1.462  -1.352  0.00  0.00     0.077 C 
ATOM      2  C1  UNL d   1      -0.191  -0.128  -0.687  0.00  0.00    -0.074 A 
ATOM      3  C2  UNL d   1      -0.380   1.034  -1.443  0.00  0.00    -0.005 A 
ATOM      4  C3  UNL d   1      -0.541   2.266  -0.810  0.00  0.00     0.006 A 
ATOM      5  C4  UNL d   1      -0.516   2.349   0.583  0.00  0.00    -0.005 A 
ATOM      6  C5  UNL d   1      -0.330   1.198   1.355  0.00  0.00    -0.074 A 
ATOM      7  C6  UNL d   1      -0.310   1.269   2.853  0.00  0.00     0.077 C 
ATOM      8  C7  UNL d   1      -0.175  -0.037   0.712  0.00  0.00    -0.001 A 
ENDROOT
TORSDOF 0
ENDMDL
