MODEL 1
REMARK minimizedAffinity -4.06944227
REMARK minimizedRMSD -1
REMARK  0 active torsions:
REMARK  status: ('A' for Active; 'I' for Inactive)
ROOT
ATOM      1  C   UNL d   1       0.011  -1.140  -1.109  0.00  0.00     0.077 C 
ATOM      2  C1  UNL d   1       0.164  -0.269   0.102  0.00  0.00    -0.074 A 
ATOM      3  C2  UNL d   1       1.183  -0.502   1.032  0.00  0.00    -0.005 A 
ATOM      4  C3  UNL d   1       1.320   0.322   2.148  0.00  0.00     0.006 A 
ATOM      5  C4  UNL d   1       0.440   1.387   2.347  0.00  0.00    -0.005 A 
ATOM      6  C5  UNL d   1      -0.584   1.637   1.428  0.00  0.00    -0.074 A 
ATOM      7  C6  UNL d   1      -1.532   2.783   1.621  0.00  0.00     0.077 C 
ATOM      8  C7  UNL d   1      -0.710   0.808   0.305  0.00  0.00    -0.001 A 
ENDROOT
TORSDOF 0
ENDMDL
