MODEL 1
REMARK minimizedAffinity -3.63124752
REMARK minimizedRMSD -1
REMARK  0 active torsions:
REMARK  status: ('A' for Active; 'I' for Inactive)
ROOT
ATOM      1  C   UNL d   1      -0.658  -0.527   1.796  0.00  0.00     0.077 C 
ATOM      2  C1  UNL d   1      -0.242   0.913   1.749  0.00  0.00    -0.074 A 
ATOM      3  C2  UNL d   1      -0.941   1.839   0.968  0.00  0.00    -0.005 A 
ATOM      4  C3  UNL d   1      -0.548   3.177   0.942  0.00  0.00     0.006 A 
ATOM      5  C4  UNL d   1       0.547   3.602   1.695  0.00  0.00    -0.005 A 
ATOM      6  C5  UNL d   1       1.258   2.691   2.483  0.00  0.00    -0.074 A 
ATOM      7  C6  UNL d   1       2.431   3.133   3.306  0.00  0.00     0.077 C 
ATOM      8  C7  UNL d   1       0.852   1.350   2.509  0.00  0.00    -0.001 A 
ENDROOT
TORSDOF 0
ENDMDL
