MODEL 1
REMARK minimizedAffinity -5.62368488
REMARK minimizedRMSD -1
REMARK  0 active torsions:
REMARK  status: ('A' for Active; 'I' for Inactive)
ROOT
ATOM      1  C   UNL d   1       2.347   3.491   3.035  0.00  0.00     0.077 C 
ATOM      2  C1  UNL d   1       1.190   2.962   2.241  0.00  0.00    -0.074 A 
ATOM      3  C2  UNL d   1       0.335   3.828   1.552  0.00  0.00    -0.005 A 
ATOM      4  C3  UNL d   1      -0.731   3.320   0.810  0.00  0.00     0.006 A 
ATOM      5  C4  UNL d   1      -0.954   1.944   0.750  0.00  0.00    -0.005 A 
ATOM      6  C5  UNL d   1      -0.109   1.062   1.433  0.00  0.00    -0.074 A 
ATOM      7  C6  UNL d   1      -0.328  -0.420   1.371  0.00  0.00     0.077 C 
ATOM      8  C7  UNL d   1       0.965   1.580   2.170  0.00  0.00    -0.001 A 
ENDROOT
TORSDOF 0
ENDMDL
