MODEL 1
REMARK minimizedAffinity -3.70003247
REMARK minimizedRMSD -1
REMARK  0 active torsions:
REMARK  status: ('A' for Active; 'I' for Inactive)
ROOT
ATOM      1  C   UNL d   1       1.082   0.077   2.475  0.00  0.00     0.077 C 
ATOM      2  C1  UNL d   1       0.209   0.738   1.450  0.00  0.00    -0.074 A 
ATOM      3  C2  UNL d   1      -0.737   1.698   1.823  0.00  0.00    -0.005 A 
ATOM      4  C3  UNL d   1      -1.536   2.311   0.857  0.00  0.00     0.006 A 
ATOM      5  C4  UNL d   1      -1.396   1.972  -0.489  0.00  0.00    -0.005 A 
ATOM      6  C5  UNL d   1      -0.454   1.015  -0.881  0.00  0.00    -0.074 A 
ATOM      7  C6  UNL d   1      -0.284   0.645  -2.324  0.00  0.00     0.077 C 
ATOM      8  C7  UNL d   1       0.349   0.408   0.095  0.00  0.00    -0.001 A 
ENDROOT
TORSDOF 0
ENDMDL
