MODEL 1
REMARK minimizedAffinity -3.31404591
REMARK minimizedRMSD -1
REMARK  0 active torsions:
REMARK  status: ('A' for Active; 'I' for Inactive)
ROOT
ATOM      1  C   UNL d   1      -1.243   2.553   1.454  0.00  0.00     0.077 C 
ATOM      2  C1  UNL d   1      -0.540   1.236   1.307  0.00  0.00    -0.074 A 
ATOM      3  C2  UNL d   1       0.222   0.708   2.354  0.00  0.00    -0.005 A 
ATOM      4  C3  UNL d   1       0.862  -0.523   2.207  0.00  0.00     0.006 A 
ATOM      5  C4  UNL d   1       0.747  -1.236   1.013  0.00  0.00    -0.005 A 
ATOM      6  C5  UNL d   1      -0.011  -0.724  -0.044  0.00  0.00    -0.074 A 
ATOM      7  C6  UNL d   1      -0.154  -1.483  -1.330  0.00  0.00     0.077 C 
ATOM      8  C7  UNL d   1      -0.657   0.509   0.114  0.00  0.00    -0.001 A 
ENDROOT
TORSDOF 0
ENDMDL
