MODEL 1
REMARK minimizedAffinity -1.6761483
REMARK minimizedRMSD -1
REMARK  1 active torsions:
REMARK  status: ('A' for Active; 'I' for Inactive)
REMARK    1  A    between atoms: N_2  and  C1_3 
ROOT
ATOM      1  C1  UNL d   1      -0.212  -1.104  -0.289  0.00  0.00     0.143 A 
ATOM      2  C2  UNL d   1       0.936  -1.784  -0.707  0.00  0.00    -0.057 A 
ATOM      3  C3  UNL d   1       0.888  -3.136  -1.070  0.00  0.00     0.033 A 
ATOM      4  C4  UNL d   1      -0.309  -3.841  -0.992  0.00  0.00    -0.042 A 
ATOM      5  C5  UNL d   1      -1.458  -3.191  -0.555  0.00  0.00     0.033 A 
ATOM      6  C6  UNL d   1      -1.404  -1.840  -0.200  0.00  0.00    -0.057 A 
ENDROOT
BRANCH   1   7
ATOM      7  N   UNL d   1      -0.210   0.213   0.179  0.00  0.00    -0.732 N 
ATOM      8  C   UNL d   1      -0.028   0.495   1.586  0.00  0.00     0.284 C 
ATOM      9  H3  UNL d   1       0.295   0.843  -0.440  0.00  0.00     0.395 HD
ENDBRANCH   1   7
TORSDOF 1
ENDMDL
