MODEL 1
REMARK minimizedAffinity 1.43696761
REMARK minimizedRMSD -1
REMARK  1 active torsions:
REMARK  status: ('A' for Active; 'I' for Inactive)
REMARK    1  A    between atoms: N_2  and  C1_3 
ROOT
ATOM      1  C1  UNL d   1       0.134  -1.895  -0.795  0.00  0.00     0.143 A 
ATOM      2  C2  UNL d   1       0.362  -3.110  -0.141  0.00  0.00    -0.057 A 
ATOM      3  C3  UNL d   1      -0.338  -4.269  -0.498  0.00  0.00     0.033 A 
ATOM      4  C4  UNL d   1      -1.301  -4.226  -1.500  0.00  0.00    -0.042 A 
ATOM      5  C5  UNL d   1      -1.562  -3.024  -2.147  0.00  0.00     0.033 A 
ATOM      6  C6  UNL d   1      -0.855  -1.871  -1.791  0.00  0.00    -0.057 A 
ENDROOT
BRANCH   1   7
ATOM      7  N   UNL d   1       0.726  -0.686  -0.420  0.00  0.00    -0.732 N 
ATOM      8  C   UNL d   1       0.725  -0.264   0.964  0.00  0.00     0.284 C 
ATOM      9  H3  UNL d   1       1.604  -0.516  -0.906  0.00  0.00     0.395 HD
ENDBRANCH   1   7
TORSDOF 1
ENDMDL
