MODEL 1
REMARK minimizedAffinity -5.37141562
REMARK minimizedRMSD -1
REMARK  0 active torsions:
REMARK  status: ('A' for Active; 'I' for Inactive)
ROOT
ATOM      1  C   UNL d   1       0.329  -0.568  -0.722  0.00  0.00     0.077 C 
ATOM      2  C1  UNL d   1       0.048   0.707   0.016  0.00  0.00    -0.074 A 
ATOM      3  C2  UNL d   1       0.339   0.828   1.378  0.00  0.00    -0.005 A 
ATOM      4  C3  UNL d   1       0.081   2.023   2.049  0.00  0.00     0.006 A 
ATOM      5  C4  UNL d   1      -0.469   3.108   1.365  0.00  0.00    -0.005 A 
ATOM      6  C5  UNL d   1      -0.765   3.006   0.003  0.00  0.00    -0.074 A 
ATOM      7  C6  UNL d   1      -1.348   4.166  -0.750  0.00  0.00     0.077 C 
ATOM      8  C7  UNL d   1      -0.497   1.804  -0.666  0.00  0.00    -0.001 A 
ENDROOT
TORSDOF 0
ENDMDL
