MODEL 1
REMARK minimizedAffinity -3.34401155
REMARK minimizedRMSD -1
REMARK  0 active torsions:
REMARK  status: ('A' for Active; 'I' for Inactive)
ROOT
ATOM      1  C   UNL d   1      -1.121   2.209   1.823  0.00  0.00     0.077 C 
ATOM      2  C1  UNL d   1      -0.682   1.430   0.619  0.00  0.00    -0.074 A 
ATOM      3  C2  UNL d   1      -0.694   2.008  -0.655  0.00  0.00    -0.005 A 
ATOM      4  C3  UNL d   1      -0.275   1.274  -1.764  0.00  0.00     0.006 A 
ATOM      5  C4  UNL d   1       0.161  -0.043  -1.611  0.00  0.00    -0.005 A 
ATOM      6  C5  UNL d   1       0.180  -0.638  -0.346  0.00  0.00    -0.074 A 
ATOM      7  C6  UNL d   1       0.654  -2.049  -0.163  0.00  0.00     0.077 C 
ATOM      8  C7  UNL d   1      -0.236   0.109   0.765  0.00  0.00    -0.001 A 
ENDROOT
TORSDOF 0
ENDMDL
