MODEL 1
REMARK minimizedAffinity -4.84083652
REMARK minimizedRMSD -1
REMARK  0 active torsions:
REMARK  status: ('A' for Active; 'I' for Inactive)
ROOT
ATOM      1  C   UNL d   1      -1.732   3.279   1.441  0.00  0.00     0.077 C 
ATOM      2  C1  UNL d   1      -0.917   2.261   0.699  0.00  0.00    -0.074 A 
ATOM      3  C2  UNL d   1      -0.906   2.231  -0.700  0.00  0.00    -0.005 A 
ATOM      4  C3  UNL d   1      -0.137   1.284  -1.376  0.00  0.00     0.006 A 
ATOM      5  C4  UNL d   1       0.629   0.361  -0.663  0.00  0.00    -0.005 A 
ATOM      6  C5  UNL d   1       0.631   0.377   0.736  0.00  0.00    -0.074 A 
ATOM      7  C6  UNL d   1       1.456  -0.601   1.518  0.00  0.00     0.077 C 
ATOM      8  C7  UNL d   1      -0.140   1.336   1.408  0.00  0.00    -0.001 A 
ENDROOT
TORSDOF 0
ENDMDL
