MODEL 1
REMARK minimizedAffinity -4.2523489
REMARK minimizedRMSD -1
REMARK  0 active torsions:
REMARK  status: ('A' for Active; 'I' for Inactive)
ROOT
ATOM      1  C   UNL d   1      -0.811   2.985  -2.274  0.00  0.00     0.077 C 
ATOM      2  C1  UNL d   1      -0.822   2.712  -0.799  0.00  0.00    -0.074 A 
ATOM      3  C2  UNL d   1      -1.119   3.727   0.117  0.00  0.00    -0.005 A 
ATOM      4  C3  UNL d   1      -1.135   3.456   1.485  0.00  0.00     0.006 A 
ATOM      5  C4  UNL d   1      -0.854   2.171   1.951  0.00  0.00    -0.005 A 
ATOM      6  C5  UNL d   1      -0.556   1.144   1.050  0.00  0.00    -0.074 A 
ATOM      7  C6  UNL d   1      -0.262  -0.245   1.532  0.00  0.00     0.077 C 
ATOM      8  C7  UNL d   1      -0.549   1.422  -0.324  0.00  0.00    -0.001 A 
ENDROOT
TORSDOF 0
ENDMDL
