MODEL 1
REMARK minimizedAffinity -3.25310564
REMARK minimizedRMSD -1
REMARK  0 active torsions:
REMARK  status: ('A' for Active; 'I' for Inactive)
ROOT
ATOM      1  C   UNL d   1       1.141  -0.283   2.247  0.00  0.00     0.077 C 
ATOM      2  C1  UNL d   1       0.276   0.468   1.280  0.00  0.00    -0.074 A 
ATOM      3  C2  UNL d   1      -0.900   1.096   1.705  0.00  0.00    -0.005 A 
ATOM      4  C3  UNL d   1      -1.690   1.799   0.796  0.00  0.00     0.006 A 
ATOM      5  C4  UNL d   1      -1.314   1.883  -0.545  0.00  0.00    -0.005 A 
ATOM      6  C5  UNL d   1      -0.141   1.262  -0.988  0.00  0.00    -0.074 A 
ATOM      7  C6  UNL d   1       0.283   1.350  -2.424  0.00  0.00     0.077 C 
ATOM      8  C7  UNL d   1       0.651   0.563  -0.068  0.00  0.00    -0.001 A 
ENDROOT
TORSDOF 0
ENDMDL
