MODEL 1
REMARK minimizedAffinity 0.924402833
REMARK minimizedRMSD -1
REMARK  0 active torsions:
REMARK  status: ('A' for Active; 'I' for Inactive)
ROOT
ATOM      1  C   UNL d   1       1.363  -5.635  -0.614  0.00  0.00     0.077 C 
ATOM      2  C1  UNL d   1       0.253  -4.760  -1.114  0.00  0.00    -0.074 A 
ATOM      3  C2  UNL d   1      -0.419  -3.888  -0.253  0.00  0.00    -0.005 A 
ATOM      4  C3  UNL d   1      -1.444  -3.073  -0.735  0.00  0.00     0.006 A 
ATOM      5  C4  UNL d   1      -1.806  -3.123  -2.082  0.00  0.00    -0.005 A 
ATOM      6  C5  UNL d   1      -1.145  -3.989  -2.958  0.00  0.00    -0.074 A 
ATOM      7  C6  UNL d   1      -1.515  -4.048  -4.411  0.00  0.00     0.077 C 
ATOM      8  C7  UNL d   1      -0.112  -4.799  -2.468  0.00  0.00    -0.001 A 
ENDROOT
TORSDOF 0
ENDMDL
