MODEL 1
REMARK minimizedAffinity 1.68873608
REMARK minimizedRMSD -1
REMARK  0 active torsions:
REMARK  status: ('A' for Active; 'I' for Inactive)
ROOT
ATOM      1  C1  BNZ d   1      -5.003   5.256   6.000  0.00  0.00     0.000 A 
ATOM      2  C2  BNZ d   1      -5.998   4.499   5.442  0.00  0.00     0.000 A 
ATOM      3  C3  BNZ d   1      -5.925   4.098   4.137  0.00  0.00     0.000 A 
ATOM      4  C4  BNZ d   1      -4.877   4.487   3.382  0.00  0.00     0.000 A 
ATOM      5  C5  BNZ d   1      -3.870   5.258   3.928  0.00  0.00     0.000 A 
ATOM      6  C6  BNZ d   1      -3.928   5.627   5.252  0.00  0.00     0.000 A 
ENDROOT
TORSDOF 0
ENDMDL
