MODEL 1
REMARK minimizedAffinity 11.8655987
REMARK minimizedRMSD -1
REMARK  0 active torsions:
REMARK  status: ('A' for Active; 'I' for Inactive)
ROOT
ATOM      1  C1  BNZ d   1      -4.337   1.547   0.954  0.00  0.00     0.000 A 
ATOM      2  C2  BNZ d   1      -3.393   1.181   0.032  0.00  0.00     0.000 A 
ATOM      3  C3  BNZ d   1      -3.737   0.444  -1.067  0.00  0.00     0.000 A 
ATOM      4  C4  BNZ d   1      -5.014   0.041  -1.222  0.00  0.00     0.000 A 
ATOM      5  C5  BNZ d   1      -5.976   0.395  -0.297  0.00  0.00     0.000 A 
ATOM      6  C6  BNZ d   1      -5.634   1.169   0.788  0.00  0.00     0.000 A 
ENDROOT
TORSDOF 0
ENDMDL
