MODEL 1
REMARK minimizedAffinity 11.9623575
REMARK minimizedRMSD -1
REMARK  0 active torsions:
REMARK  status: ('A' for Active; 'I' for Inactive)
ROOT
ATOM      1  C1  BNZ d   1       3.225   3.640   3.348  0.00  0.00     0.000 A 
ATOM      2  C2  BNZ d   1       1.862   3.561   3.237  0.00  0.00     0.000 A 
ATOM      3  C3  BNZ d   1       1.096   4.693   3.210  0.00  0.00     0.000 A 
ATOM      4  C4  BNZ d   1       1.689   5.898   3.333  0.00  0.00     0.000 A 
ATOM      5  C5  BNZ d   1       3.061   5.993   3.455  0.00  0.00     0.000 A 
ATOM      6  C6  BNZ d   1       3.832   4.854   3.443  0.00  0.00     0.000 A 
ENDROOT
TORSDOF 0
ENDMDL
