MODEL 1
REMARK minimizedAffinity 12.1058502
REMARK minimizedRMSD -1
REMARK  0 active torsions:
REMARK  status: ('A' for Active; 'I' for Inactive)
ROOT
ATOM      1  C1  BNZ d   1      -1.512  -5.261  -0.556  0.00  0.00     0.000 A 
ATOM      2  C2  BNZ d   1      -0.337  -5.652  -1.141  0.00  0.00     0.000 A 
ATOM      3  C3  BNZ d   1      -0.295  -5.999  -2.462  0.00  0.00     0.000 A 
ATOM      4  C4  BNZ d   1      -1.434  -5.995  -3.186  0.00  0.00     0.000 A 
ATOM      5  C5  BNZ d   1      -2.628  -5.613  -2.607  0.00  0.00     0.000 A 
ATOM      6  C6  BNZ d   1      -2.659  -5.226  -1.287  0.00  0.00     0.000 A 
ENDROOT
TORSDOF 0
ENDMDL
