MODEL 1
REMARK minimizedAffinity 1.60041916
REMARK minimizedRMSD -1
REMARK  0 active torsions:
REMARK  status: ('A' for Active; 'I' for Inactive)
ROOT
ATOM      1  C1  BNZ d   1      -5.994   4.102   3.933  0.00  0.00     0.000 A 
ATOM      2  C2  BNZ d   1      -5.993   4.794   5.114  0.00  0.00     0.000 A 
ATOM      3  C3  BNZ d   1      -5.054   5.758   5.360  0.00  0.00     0.000 A 
ATOM      4  C4  BNZ d   1      -4.097   5.999   4.441  0.00  0.00     0.000 A 
ATOM      5  C5  BNZ d   1      -4.080   5.303   3.249  0.00  0.00     0.000 A 
ATOM      6  C6  BNZ d   1      -5.049   4.361   2.990  0.00  0.00     0.000 A 
ENDROOT
TORSDOF 0
ENDMDL
