MODEL 1
REMARK minimizedAffinity 8.01141453
REMARK minimizedRMSD -1
REMARK  0 active torsions:
REMARK  status: ('A' for Active; 'I' for Inactive)
ROOT
ATOM      1  C1  BNZ d   1      -0.031  -3.949   5.962  0.00  0.00     0.000 A 
ATOM      2  C2  BNZ d   1       0.841  -3.035   5.433  0.00  0.00     0.000 A 
ATOM      3  C3  BNZ d   1       0.697  -2.594   4.147  0.00  0.00     0.000 A 
ATOM      4  C4  BNZ d   1      -0.294  -3.096   3.381  0.00  0.00     0.000 A 
ATOM      5  C5  BNZ d   1      -1.175  -4.024   3.898  0.00  0.00     0.000 A 
ATOM      6  C6  BNZ d   1      -1.050  -4.437   5.204  0.00  0.00     0.000 A 
ENDROOT
TORSDOF 0
ENDMDL
