MODEL 1
REMARK minimizedAffinity 7.24599743
REMARK minimizedRMSD -1
REMARK  1 active torsions:
REMARK  status: ('A' for Active; 'I' for Inactive)
REMARK    1  A    between atoms: C1_2  and  C2_3 
ROOT
ATOM      1  C2  UNL d   1       0.824   3.413   1.267  0.00  0.00    -0.073 A 
ATOM      2  C3  UNL d   1      -0.008   2.297   1.406  0.00  0.00    -0.002 A 
ATOM      3  C4  UNL d   1       0.426   1.037   0.990  0.00  0.00     0.004 A 
ATOM      4  C5  UNL d   1       1.697   0.880   0.437  0.00  0.00    -0.004 A 
ATOM      5  C6  UNL d   1       2.548   1.982   0.300  0.00  0.00    -0.075 A 
ATOM      6  C7  UNL d   1       3.917   1.830  -0.295  0.00  0.00     0.076 C 
ATOM      7  C8  UNL d   1       2.104   3.244   0.718  0.00  0.00     0.001 A 
ENDROOT
BRANCH   1   8
ATOM      8  C1  UNL d   1       0.363   4.774   1.721  0.00  0.00     0.053 C 
ATOM      9  C   UNL d   1      -0.566   5.427   0.710  0.00  0.00     0.018 C 
ENDBRANCH   1   8
TORSDOF 1
ENDMDL
