MODEL 1
REMARK minimizedAffinity 4.9919796
REMARK minimizedRMSD -1
REMARK  1 active torsions:
REMARK  status: ('A' for Active; 'I' for Inactive)
REMARK    1  A    between atoms: C1_2  and  C2_3 
ROOT
ATOM      1  C2  UNL d   1      -0.451   0.212  -3.256  0.00  0.00    -0.073 A 
ATOM      2  C3  UNL d   1       0.769   0.786  -3.632  0.00  0.00    -0.002 A 
ATOM      3  C4  UNL d   1       1.444   0.328  -4.764  0.00  0.00     0.004 A 
ATOM      4  C5  UNL d   1       0.904  -0.701  -5.535  0.00  0.00    -0.004 A 
ATOM      5  C6  UNL d   1      -0.320  -1.279  -5.182  0.00  0.00    -0.075 A 
ATOM      6  C7  UNL d   1      -0.913  -2.389  -5.999  0.00  0.00     0.076 C 
ATOM      7  C8  UNL d   1      -0.990  -0.816  -4.042  0.00  0.00     0.001 A 
ENDROOT
BRANCH   1   8
ATOM      8  C1  UNL d   1      -1.187   0.708  -2.038  0.00  0.00     0.053 C 
ATOM      9  C   UNL d   1      -1.242  -0.342  -0.939  0.00  0.00     0.018 C 
ENDBRANCH   1   8
TORSDOF 1
ENDMDL
