MODEL 1
REMARK minimizedAffinity 9.57236576
REMARK minimizedRMSD -1
REMARK  1 active torsions:
REMARK  status: ('A' for Active; 'I' for Inactive)
REMARK    1  A    between atoms: C1_2  and  C2_3 
ROOT
ATOM      1  C2  UNL d   1      -0.098  -0.390  -0.137  0.00  0.00    -0.073 A 
ATOM      2  C3  UNL d   1      -0.086   0.161   1.150  0.00  0.00    -0.002 A 
ATOM      3  C4  UNL d   1       1.124   0.439   1.786  0.00  0.00     0.004 A 
ATOM      4  C5  UNL d   1       2.333   0.178   1.141  0.00  0.00    -0.004 A 
ATOM      5  C6  UNL d   1       2.341  -0.361  -0.150  0.00  0.00    -0.075 A 
ATOM      6  C7  UNL d   1       3.633  -0.650  -0.856  0.00  0.00     0.076 C 
ATOM      7  C8  UNL d   1       1.122  -0.641  -0.781  0.00  0.00     0.001 A 
ENDROOT
BRANCH   1   8
ATOM      8  C1  UNL d   1      -1.403  -0.687  -0.831  0.00  0.00     0.053 C 
ATOM      9  C   UNL d   1      -2.545   0.153  -0.280  0.00  0.00     0.018 C 
ENDBRANCH   1   8
TORSDOF 1
ENDMDL
