MODEL 1
REMARK minimizedAffinity 0.901076674
REMARK minimizedRMSD -1
REMARK  1 active torsions:
REMARK  status: ('A' for Active; 'I' for Inactive)
REMARK    1  A    between atoms: C1_2  and  C2_3 
ROOT
ATOM      1  C2  UNL d   1      -1.383   0.166   2.525  0.00  0.00    -0.073 A 
ATOM      2  C3  UNL d   1      -0.188  -0.562   2.528  0.00  0.00    -0.002 A 
ATOM      3  C4  UNL d   1       1.040   0.100   2.541  0.00  0.00     0.004 A 
ATOM      4  C5  UNL d   1       1.086   1.494   2.559  0.00  0.00    -0.004 A 
ATOM      5  C6  UNL d   1      -0.098   2.239   2.569  0.00  0.00    -0.075 A 
ATOM      6  C7  UNL d   1      -0.066   3.739   2.586  0.00  0.00     0.076 C 
ATOM      7  C8  UNL d   1      -1.327   1.566   2.553  0.00  0.00     0.001 A 
ENDROOT
BRANCH   1   8
ATOM      8  C1  UNL d   1      -2.712  -0.545   2.517  0.00  0.00     0.053 C 
ATOM      9  C   UNL d   1      -2.737  -1.718   3.484  0.00  0.00     0.018 C 
ENDBRANCH   1   8
TORSDOF 1
ENDMDL
