MODEL 1
REMARK minimizedAffinity -5.88175058
REMARK minimizedRMSD -1
REMARK  0 active torsions:
REMARK  status: ('A' for Active; 'I' for Inactive)
ROOT
ATOM      1  C   UNL d   1       1.967   0.819  -0.212  0.00  0.00     0.078 C 
ATOM      2  C1  UNL d   1       0.698   0.900   0.583  0.00  0.00    -0.077 A 
ATOM      3  C2  UNL d   1       0.103   2.136   0.868  0.00  0.00    -0.001 A 
ATOM      4  C3  UNL d   1      -1.072   2.197   1.618  0.00  0.00     0.003 A 
ATOM      5  C4  UNL d   1      -1.663   1.027   2.090  0.00  0.00    -0.005 A 
ATOM      6  C5  UNL d   1      -1.078  -0.207   1.813  0.00  0.00     0.003 A 
ATOM      7  C6  UNL d   1       0.098  -0.270   1.064  0.00  0.00    -0.001 A 
ENDROOT
TORSDOF 0
ENDMDL
