MODEL 1
REMARK minimizedAffinity -2.65354395
REMARK minimizedRMSD -1
REMARK  0 active torsions:
REMARK  status: ('A' for Active; 'I' for Inactive)
ROOT
ATOM      1  C   UNL d   1      -3.412   1.911   3.303  0.00  0.00     0.078 C 
ATOM      2  C1  UNL d   1      -2.204   1.359   2.607  0.00  0.00    -0.077 A 
ATOM      3  C2  UNL d   1      -2.154   0.020   2.200  0.00  0.00    -0.001 A 
ATOM      4  C3  UNL d   1      -1.019  -0.482   1.562  0.00  0.00     0.003 A 
ATOM      5  C4  UNL d   1       0.076   0.347   1.326  0.00  0.00    -0.005 A 
ATOM      6  C5  UNL d   1       0.037   1.680   1.730  0.00  0.00     0.003 A 
ATOM      7  C6  UNL d   1      -1.098   2.185   2.368  0.00  0.00    -0.001 A 
ENDROOT
TORSDOF 0
ENDMDL
