MODEL 1
REMARK minimizedAffinity -2.83068466
REMARK minimizedRMSD -1
REMARK  0 active torsions:
REMARK  status: ('A' for Active; 'I' for Inactive)
ROOT
ATOM      1  C   UNL d   1      -2.621   2.054   3.322  0.00  0.00     0.078 C 
ATOM      2  C1  UNL d   1      -1.494   1.607   2.438  0.00  0.00    -0.077 A 
ATOM      3  C2  UNL d   1      -0.896   2.491   1.531  0.00  0.00    -0.001 A 
ATOM      4  C3  UNL d   1       0.145   2.059   0.708  0.00  0.00     0.003 A 
ATOM      5  C4  UNL d   1       0.596   0.742   0.782  0.00  0.00    -0.005 A 
ATOM      6  C5  UNL d   1       0.005  -0.144   1.680  0.00  0.00     0.003 A 
ATOM      7  C6  UNL d   1      -1.036   0.286   2.504  0.00  0.00    -0.001 A 
ENDROOT
TORSDOF 0
ENDMDL
