MODEL 1
REMARK minimizedAffinity -6.28887653
REMARK minimizedRMSD -1
REMARK  0 active torsions:
REMARK  status: ('A' for Active; 'I' for Inactive)
ROOT
ATOM      1  C   UNL d   1      -3.527   1.662   3.410  0.00  0.00     0.078 C 
ATOM      2  C1  UNL d   1      -2.320   1.181   2.661  0.00  0.00    -0.077 A 
ATOM      3  C2  UNL d   1      -2.220  -0.148   2.232  0.00  0.00    -0.001 A 
ATOM      4  C3  UNL d   1      -1.087  -0.585   1.544  0.00  0.00     0.003 A 
ATOM      5  C4  UNL d   1      -0.044   0.301   1.280  0.00  0.00    -0.005 A 
ATOM      6  C5  UNL d   1      -0.133   1.625   1.705  0.00  0.00     0.003 A 
ATOM      7  C6  UNL d   1      -1.266   2.063   2.393  0.00  0.00    -0.001 A 
ENDROOT
TORSDOF 0
ENDMDL
