MODEL 1
REMARK minimizedAffinity -1.76503491
REMARK minimizedRMSD -1
REMARK  0 active torsions:
REMARK  status: ('A' for Active; 'I' for Inactive)
ROOT
ATOM      1  C   UNL d   1      -2.435   2.353   3.305  0.00  0.00     0.078 C 
ATOM      2  C1  UNL d   1      -1.511   1.566   2.424  0.00  0.00    -0.077 A 
ATOM      3  C2  UNL d   1      -0.463   2.191   1.737  0.00  0.00    -0.001 A 
ATOM      4  C3  UNL d   1       0.383   1.448   0.913  0.00  0.00     0.003 A 
ATOM      5  C4  UNL d   1       0.189   0.076   0.767  0.00  0.00    -0.005 A 
ATOM      6  C5  UNL d   1      -0.852  -0.555   1.445  0.00  0.00     0.003 A 
ATOM      7  C6  UNL d   1      -1.699   0.187   2.270  0.00  0.00    -0.001 A 
ENDROOT
TORSDOF 0
ENDMDL
