MODEL 1
REMARK minimizedAffinity -1.6194272
REMARK minimizedRMSD -1
REMARK  0 active torsions:
REMARK  status: ('A' for Active; 'I' for Inactive)
ROOT
ATOM      1  C   UNL d   1       0.832   1.170   0.744  0.00  0.00     0.078 C 
ATOM      2  C1  UNL d   1      -0.457   1.247   1.505  0.00  0.00    -0.077 A 
ATOM      3  C2  UNL d   1      -0.948   2.473   1.969  0.00  0.00    -0.001 A 
ATOM      4  C3  UNL d   1      -2.145   2.529   2.685  0.00  0.00     0.003 A 
ATOM      5  C4  UNL d   1      -2.860   1.362   2.945  0.00  0.00    -0.005 A 
ATOM      6  C5  UNL d   1      -2.378   0.136   2.490  0.00  0.00     0.003 A 
ATOM      7  C6  UNL d   1      -1.181   0.079   1.773  0.00  0.00    -0.001 A 
ENDROOT
TORSDOF 0
ENDMDL
