MODEL 1
REMARK minimizedAffinity 0.307066441
REMARK minimizedRMSD -1
REMARK  0 active torsions:
REMARK  status: ('A' for Active; 'I' for Inactive)
ROOT
ATOM      1  C   UNL d   1      -1.463  -1.594   2.199  0.00  0.00     0.078 C 
ATOM      2  C1  UNL d   1      -0.974  -0.189   2.008  0.00  0.00    -0.077 A 
ATOM      3  C2  UNL d   1      -1.661   0.896   2.565  0.00  0.00    -0.001 A 
ATOM      4  C3  UNL d   1      -1.200   2.199   2.372  0.00  0.00     0.003 A 
ATOM      5  C4  UNL d   1      -0.049   2.429   1.620  0.00  0.00    -0.005 A 
ATOM      6  C5  UNL d   1       0.641   1.356   1.060  0.00  0.00     0.003 A 
ATOM      7  C6  UNL d   1       0.181   0.052   1.253  0.00  0.00    -0.001 A 
ENDROOT
TORSDOF 0
ENDMDL
