MODEL 1
REMARK minimizedAffinity -1.9957329
REMARK minimizedRMSD -1
REMARK  0 active torsions:
REMARK  status: ('A' for Active; 'I' for Inactive)
ROOT
ATOM      1  C   UNL d   1      -3.232   0.785   2.945  0.00  0.00     0.078 C 
ATOM      2  C1  UNL d   1      -1.910   0.885   2.244  0.00  0.00    -0.077 A 
ATOM      3  C2  UNL d   1      -1.339  -0.230   1.620  0.00  0.00    -0.001 A 
ATOM      4  C3  UNL d   1      -0.103  -0.124   0.980  0.00  0.00     0.003 A 
ATOM      5  C4  UNL d   1       0.572   1.094   0.959  0.00  0.00    -0.005 A 
ATOM      6  C5  UNL d   1       0.012   2.209   1.579  0.00  0.00     0.003 A 
ATOM      7  C6  UNL d   1      -1.223   2.105   2.220  0.00  0.00    -0.001 A 
ENDROOT
TORSDOF 0
ENDMDL
