MODEL 1
REMARK minimizedAffinity 0.654203534
REMARK minimizedRMSD -1
REMARK  0 active torsions:
REMARK  status: ('A' for Active; 'I' for Inactive)
ROOT
ATOM      1  C   UNL d   1       2.584   0.453   0.198  0.00  0.00     0.078 C 
ATOM      2  C1  UNL d   1       1.268   0.213   0.874  0.00  0.00    -0.077 A 
ATOM      3  C2  UNL d   1       1.059  -0.924   1.665  0.00  0.00    -0.001 A 
ATOM      4  C3  UNL d   1      -0.175  -1.139   2.281  0.00  0.00     0.003 A 
ATOM      5  C4  UNL d   1      -1.211  -0.222   2.111  0.00  0.00    -0.005 A 
ATOM      6  C5  UNL d   1      -1.013   0.911   1.325  0.00  0.00     0.003 A 
ATOM      7  C6  UNL d   1       0.220   1.128   0.708  0.00  0.00    -0.001 A 
ENDROOT
TORSDOF 0
ENDMDL
