MODEL 1
REMARK minimizedAffinity -1.46905851
REMARK minimizedRMSD -1
REMARK  0 active torsions:
REMARK  status: ('A' for Active; 'I' for Inactive)
ROOT
ATOM      1  C   UNL d   1       0.286   1.421   1.442  0.00  0.00     0.078 C 
ATOM      2  C1  UNL d   1       1.344   0.751   0.618  0.00  0.00    -0.077 A 
ATOM      3  C2  UNL d   1       1.738  -0.567   0.882  0.00  0.00    -0.001 A 
ATOM      4  C3  UNL d   1       2.731  -1.174   0.112  0.00  0.00     0.003 A 
ATOM      5  C4  UNL d   1       3.339  -0.472  -0.926  0.00  0.00    -0.005 A 
ATOM      6  C5  UNL d   1       2.955   0.840  -1.195  0.00  0.00     0.003 A 
ATOM      7  C6  UNL d   1       1.963   1.450  -0.427  0.00  0.00    -0.001 A 
ENDROOT
TORSDOF 0
ENDMDL
