MODEL 1
REMARK minimizedAffinity -1.38677466
REMARK minimizedRMSD -1
REMARK  0 active torsions:
REMARK  status: ('A' for Active; 'I' for Inactive)
ROOT
ATOM      1  C   UNL d   1       1.289   1.700   0.833  0.00  0.00     0.078 C 
ATOM      2  C1  UNL d   1       2.092   0.930  -0.172  0.00  0.00    -0.077 A 
ATOM      3  C2  UNL d   1       2.344   1.451  -1.447  0.00  0.00    -0.001 A 
ATOM      4  C3  UNL d   1       3.085   0.719  -2.375  0.00  0.00     0.003 A 
ATOM      5  C4  UNL d   1       3.579  -0.540  -2.040  0.00  0.00    -0.005 A 
ATOM      6  C5  UNL d   1       3.332  -1.068  -0.774  0.00  0.00     0.003 A 
ATOM      7  C6  UNL d   1       2.591  -0.337   0.156  0.00  0.00    -0.001 A 
ENDROOT
TORSDOF 0
ENDMDL
