MODEL 1
REMARK minimizedAffinity -5.30747461
REMARK minimizedRMSD -1
REMARK  0 active torsions:
REMARK  status: ('A' for Active; 'I' for Inactive)
ROOT
ATOM      1  C   UNL d   1      -3.320   1.956   3.545  0.00  0.00     0.078 C 
ATOM      2  C1  UNL d   1      -2.230   1.466   2.639  0.00  0.00    -0.077 A 
ATOM      3  C2  UNL d   1      -2.191   0.132   2.214  0.00  0.00    -0.001 A 
ATOM      4  C3  UNL d   1      -1.165  -0.312   1.378  0.00  0.00     0.003 A 
ATOM      5  C4  UNL d   1      -0.170   0.570   0.961  0.00  0.00    -0.005 A 
ATOM      6  C5  UNL d   1      -0.200   1.898   1.380  0.00  0.00     0.003 A 
ATOM      7  C6  UNL d   1      -1.225   2.345   2.216  0.00  0.00    -0.001 A 
ENDROOT
TORSDOF 0
ENDMDL
