MODEL 1
REMARK minimizedAffinity -0.165141866
REMARK minimizedRMSD -1
REMARK  0 active torsions:
REMARK  status: ('A' for Active; 'I' for Inactive)
ROOT
ATOM      1  C   UNL d   1      -2.599   2.124   2.949  0.00  0.00     0.078 C 
ATOM      2  C1  UNL d   1      -1.260   1.757   2.385  0.00  0.00    -0.077 A 
ATOM      3  C2  UNL d   1      -0.712   2.463   1.307  0.00  0.00    -0.001 A 
ATOM      4  C3  UNL d   1       0.532   2.104   0.786  0.00  0.00     0.003 A 
ATOM      5  C4  UNL d   1       1.238   1.036   1.336  0.00  0.00    -0.005 A 
ATOM      6  C5  UNL d   1       0.701   0.325   2.407  0.00  0.00     0.003 A 
ATOM      7  C6  UNL d   1      -0.543   0.683   2.930  0.00  0.00    -0.001 A 
ENDROOT
TORSDOF 0
ENDMDL
