MODEL 1
REMARK minimizedAffinity -2.96949172
REMARK minimizedRMSD -1
REMARK  0 active torsions:
REMARK  status: ('A' for Active; 'I' for Inactive)
ROOT
ATOM      1  C   UNL d   1      -2.603   2.278   2.682  0.00  0.00     0.078 C 
ATOM      2  C1  UNL d   1      -1.396   1.673   2.030  0.00  0.00    -0.077 A 
ATOM      3  C2  UNL d   1      -1.486   0.470   1.319  0.00  0.00    -0.001 A 
ATOM      4  C3  UNL d   1      -0.352  -0.086   0.726  0.00  0.00     0.003 A 
ATOM      5  C4  UNL d   1       0.881   0.553   0.838  0.00  0.00    -0.005 A 
ATOM      6  C5  UNL d   1       0.981   1.749   1.545  0.00  0.00     0.003 A 
ATOM      7  C6  UNL d   1      -0.152   2.307   2.139  0.00  0.00    -0.001 A 
ENDROOT
TORSDOF 0
ENDMDL
