MODEL 1
REMARK minimizedAffinity 0.332206249
REMARK minimizedRMSD -1
REMARK  0 active torsions:
REMARK  status: ('A' for Active; 'I' for Inactive)
ROOT
ATOM      1  C   UNL d   1       0.606   0.768   1.070  0.00  0.00     0.078 C 
ATOM      2  C1  UNL d   1      -0.674   0.944   1.832  0.00  0.00    -0.077 A 
ATOM      3  C2  UNL d   1      -0.803   1.945   2.802  0.00  0.00    -0.001 A 
ATOM      4  C3  UNL d   1      -1.997   2.091   3.511  0.00  0.00     0.003 A 
ATOM      5  C4  UNL d   1      -3.070   1.239   3.257  0.00  0.00    -0.005 A 
ATOM      6  C5  UNL d   1      -2.950   0.239   2.295  0.00  0.00     0.003 A 
ATOM      7  C6  UNL d   1      -1.757   0.091   1.586  0.00  0.00    -0.001 A 
ENDROOT
TORSDOF 0
ENDMDL
