MODEL 1
REMARK minimizedAffinity 1.23477995
REMARK minimizedRMSD -1
REMARK  0 active torsions:
REMARK  status: ('A' for Active; 'I' for Inactive)
ROOT
ATOM      1  C   UNL d   1      -3.246   1.605   3.197  0.00  0.00     0.078 C 
ATOM      2  C1  UNL d   1      -1.852   1.858   2.704  0.00  0.00    -0.077 A 
ATOM      3  C2  UNL d   1      -1.494   3.098   2.160  0.00  0.00    -0.001 A 
ATOM      4  C3  UNL d   1      -0.197   3.317   1.696  0.00  0.00     0.003 A 
ATOM      5  C4  UNL d   1       0.753   2.300   1.769  0.00  0.00    -0.005 A 
ATOM      6  C5  UNL d   1       0.406   1.062   2.306  0.00  0.00     0.003 A 
ATOM      7  C6  UNL d   1      -0.891   0.842   2.771  0.00  0.00    -0.001 A 
ENDROOT
TORSDOF 0
ENDMDL
