MODEL 1
REMARK minimizedAffinity -3.08055687
REMARK minimizedRMSD -1
REMARK  1 active torsions:
REMARK  status: ('A' for Active; 'I' for Inactive)
REMARK    1  A    between atoms: C3_4  and  O_7 
ROOT
ATOM      1  C   UNL d   1      -4.410   1.835   1.653  0.00  0.00    -0.033 A 
ATOM      2  C1  UNL d   1      -3.863   2.021   0.382  0.00  0.00     0.039 A 
ATOM      3  C2  UNL d   1      -4.386   2.997  -0.469  0.00  0.00    -0.080 A 
ATOM      4  C3  UNL d   1      -5.453   3.780  -0.037  0.00  0.00     0.150 A 
ATOM      5  C4  UNL d   1      -6.000   3.603   1.229  0.00  0.00    -0.007 A 
ATOM      6  C5  UNL d   1      -5.478   2.627   2.077  0.00  0.00     0.039 A 
ENDROOT
BRANCH   4   7
ATOM      7  O   UNL d   1      -5.999   4.742  -0.834  0.00  0.00    -0.526 OA
ATOM      8  H5  UNL d   1      -5.538   4.731  -1.689  0.00  0.00     0.418 HD
ENDBRANCH   4   7
TORSDOF 1
ENDMDL
