MODEL 1
REMARK minimizedAffinity 5.13562012
REMARK minimizedRMSD -1
REMARK  1 active torsions:
REMARK  status: ('A' for Active; 'I' for Inactive)
REMARK    1  A    between atoms: C3_4  and  O_7 
ROOT
ATOM      1  C   UNL d   1       1.560  -1.860   0.030  0.00  0.00    -0.033 A 
ATOM      2  C1  UNL d   1       0.406  -2.432   0.569  0.00  0.00     0.039 A 
ATOM      3  C2  UNL d   1       0.165  -2.361   1.942  0.00  0.00    -0.080 A 
ATOM      4  C3  UNL d   1       1.084  -1.716   2.765  0.00  0.00     0.150 A 
ATOM      5  C4  UNL d   1       2.234  -1.141   2.234  0.00  0.00    -0.007 A 
ATOM      6  C5  UNL d   1       2.473  -1.213   0.863  0.00  0.00     0.039 A 
ENDROOT
BRANCH   4   7
ATOM      7  O   UNL d   1       0.895  -1.626   4.112  0.00  0.00    -0.526 OA
ATOM      8  H5  UNL d   1       0.073  -2.093   4.339  0.00  0.00     0.418 HD
ENDBRANCH   4   7
TORSDOF 1
ENDMDL
