MODEL 1
REMARK minimizedAffinity -4.22701025
REMARK minimizedRMSD -1
REMARK  1 active torsions:
REMARK  status: ('A' for Active; 'I' for Inactive)
REMARK    1  A    between atoms: C3_4  and  O_7 
ROOT
ATOM      1  C   UNL d   1      -4.936  -4.884  -1.887  0.00  0.00    -0.033 A 
ATOM      2  C1  UNL d   1      -4.560  -6.000  -2.636  0.00  0.00     0.039 A 
ATOM      3  C2  UNL d   1      -4.714  -5.996  -4.024  0.00  0.00    -0.080 A 
ATOM      4  C3  UNL d   1      -5.244  -4.870  -4.649  0.00  0.00     0.150 A 
ATOM      5  C4  UNL d   1      -5.617  -3.753  -3.909  0.00  0.00    -0.007 A 
ATOM      6  C5  UNL d   1      -5.463  -3.760  -2.523  0.00  0.00     0.039 A 
ENDROOT
BRANCH   4   7
ATOM      7  O   UNL d   1      -5.418  -4.821  -6.000  0.00  0.00    -0.526 OA
ATOM      8  H5  UNL d   1      -5.143  -5.673  -6.377  0.00  0.00     0.418 HD
ENDBRANCH   4   7
TORSDOF 1
ENDMDL
