MODEL 1
REMARK minimizedAffinity 3.59504676
REMARK minimizedRMSD -1
REMARK  1 active torsions:
REMARK  status: ('A' for Active; 'I' for Inactive)
REMARK    1  A    between atoms: C3_4  and  O_7 
ROOT
ATOM      1  C   UNL d   1       2.715  -4.207   4.998  0.00  0.00    -0.033 A 
ATOM      2  C1  UNL d   1       2.467  -2.897   5.414  0.00  0.00     0.039 A 
ATOM      3  C2  UNL d   1       2.091  -1.927   4.483  0.00  0.00    -0.080 A 
ATOM      4  C3  UNL d   1       1.965  -2.278   3.142  0.00  0.00     0.150 A 
ATOM      5  C4  UNL d   1       2.207  -3.582   2.721  0.00  0.00    -0.007 A 
ATOM      6  C5  UNL d   1       2.584  -4.549   3.652  0.00  0.00     0.039 A 
ENDROOT
BRANCH   4   7
ATOM      7  O   UNL d   1       1.605  -1.364   2.197  0.00  0.00    -0.526 OA
ATOM      8  H5  UNL d   1       1.498  -0.500   2.629  0.00  0.00     0.418 HD
ENDBRANCH   4   7
TORSDOF 1
ENDMDL
