MODEL 1
REMARK minimizedAffinity 0.620945513
REMARK minimizedRMSD -1
REMARK  1 active torsions:
REMARK  status: ('A' for Active; 'I' for Inactive)
REMARK    1  A    between atoms: C3_4  and  O_7 
ROOT
ATOM      1  C   UNL d   1       5.223  -5.998  -3.823  0.00  0.00    -0.033 A 
ATOM      2  C1  UNL d   1       4.001  -6.000  -3.146  0.00  0.00     0.039 A 
ATOM      3  C2  UNL d   1       2.804  -5.999  -3.864  0.00  0.00    -0.080 A 
ATOM      4  C3  UNL d   1       2.841  -5.998  -5.256  0.00  0.00     0.150 A 
ATOM      5  C4  UNL d   1       4.055  -5.999  -5.936  0.00  0.00    -0.007 A 
ATOM      6  C5  UNL d   1       5.250  -5.999  -5.218  0.00  0.00     0.039 A 
ENDROOT
BRANCH   4   7
ATOM      7  O   UNL d   1       1.699  -5.992  -6.000  0.00  0.00    -0.526 OA
ATOM      8  H5  UNL d   1       0.939  -5.962  -5.396  0.00  0.00     0.418 HD
ENDBRANCH   4   7
TORSDOF 1
ENDMDL
