MODEL 1
REMARK minimizedAffinity 2.8602798
REMARK minimizedRMSD -1
REMARK  1 active torsions:
REMARK  status: ('A' for Active; 'I' for Inactive)
REMARK    1  A    between atoms: C3_4  and  O_7 
ROOT
ATOM      1  C   UNL d   1       5.982  -2.434   5.328  0.00  0.00    -0.033 A 
ATOM      2  C1  UNL d   1       6.000  -2.560   3.938  0.00  0.00     0.039 A 
ATOM      3  C2  UNL d   1       4.804  -2.525   3.216  0.00  0.00    -0.080 A 
ATOM      4  C3  UNL d   1       3.601  -2.363   3.897  0.00  0.00     0.150 A 
ATOM      5  C4  UNL d   1       3.576  -2.234   5.281  0.00  0.00    -0.007 A 
ATOM      6  C5  UNL d   1       4.770  -2.270   6.000  0.00  0.00     0.039 A 
ENDROOT
BRANCH   4   7
ATOM      7  O   UNL d   1       2.408  -2.328   3.236  0.00  0.00    -0.526 OA
ATOM      8  H5  UNL d   1       2.578  -2.458   2.288  0.00  0.00     0.418 HD
ENDBRANCH   4   7
TORSDOF 1
ENDMDL
