MODEL 1
REMARK minimizedAffinity -0.356277257
REMARK minimizedRMSD -1
REMARK  1 active torsions:
REMARK  status: ('A' for Active; 'I' for Inactive)
REMARK    1  A    between atoms: C3_4  and  O_7 
ROOT
ATOM      1  C   UNL d   1       1.525  -3.718   3.604  0.00  0.00    -0.033 A 
ATOM      2  C1  UNL d   1       2.003  -2.595   2.925  0.00  0.00     0.039 A 
ATOM      3  C2  UNL d   1       3.363  -2.484   2.628  0.00  0.00    -0.080 A 
ATOM      4  C3  UNL d   1       4.232  -3.501   3.013  0.00  0.00     0.150 A 
ATOM      5  C4  UNL d   1       3.761  -4.624   3.686  0.00  0.00    -0.007 A 
ATOM      6  C5  UNL d   1       2.404  -4.733   3.983  0.00  0.00     0.039 A 
ENDROOT
BRANCH   4   7
ATOM      7  O   UNL d   1       5.568  -3.435   2.749  0.00  0.00    -0.526 OA
ATOM      8  H5  UNL d   1       5.752  -2.591   2.305  0.00  0.00     0.418 HD
ENDBRANCH   4   7
TORSDOF 1
ENDMDL
