MODEL 1
REMARK minimizedAffinity 1.4945296
REMARK minimizedRMSD -1
REMARK  1 active torsions:
REMARK  status: ('A' for Active; 'I' for Inactive)
REMARK    1  A    between atoms: C3_4  and  O_7 
ROOT
ATOM      1  C   UNL d   1       1.217  -1.269   3.570  0.00  0.00    -0.033 A 
ATOM      2  C1  UNL d   1       1.987  -1.773   4.620  0.00  0.00     0.039 A 
ATOM      3  C2  UNL d   1       3.321  -2.125   4.403  0.00  0.00    -0.080 A 
ATOM      4  C3  UNL d   1       3.871  -1.968   3.134  0.00  0.00     0.150 A 
ATOM      5  C4  UNL d   1       3.110  -1.463   2.084  0.00  0.00    -0.007 A 
ATOM      6  C5  UNL d   1       1.779  -1.113   2.303  0.00  0.00     0.039 A 
ENDROOT
BRANCH   4   7
ATOM      7  O   UNL d   1       5.167  -2.303   2.873  0.00  0.00    -0.526 OA
ATOM      8  H5  UNL d   1       5.561  -2.664   3.684  0.00  0.00     0.418 HD
ENDBRANCH   4   7
TORSDOF 1
ENDMDL
