MODEL 1
REMARK minimizedAffinity -3.0150795
REMARK minimizedRMSD -1
REMARK  1 active torsions:
REMARK  status: ('A' for Active; 'I' for Inactive)
REMARK    1  A    between atoms: C3_4  and  O_7 
ROOT
ATOM      1  C   UNL d   1      -5.257  -4.874  -1.742  0.00  0.00    -0.033 A 
ATOM      2  C1  UNL d   1      -5.937  -4.493  -2.900  0.00  0.00     0.039 A 
ATOM      3  C2  UNL d   1      -5.445  -4.859  -4.154  0.00  0.00    -0.080 A 
ATOM      4  C3  UNL d   1      -4.274  -5.607  -4.237  0.00  0.00     0.150 A 
ATOM      5  C4  UNL d   1      -3.593  -5.994  -3.087  0.00  0.00    -0.007 A 
ATOM      6  C5  UNL d   1      -4.085  -5.626  -1.836  0.00  0.00     0.039 A 
ENDROOT
BRANCH   4   7
ATOM      7  O   UNL d   1      -3.752  -5.984  -5.438  0.00  0.00    -0.526 OA
ATOM      8  H5  UNL d   1      -4.313  -5.622  -6.144  0.00  0.00     0.418 HD
ENDBRANCH   4   7
TORSDOF 1
ENDMDL
