MODEL 1
REMARK minimizedAffinity 2.77321625
REMARK minimizedRMSD -1
REMARK  1 active torsions:
REMARK  status: ('A' for Active; 'I' for Inactive)
REMARK    1  A    between atoms: C3_4  and  O_7 
ROOT
ATOM      1  C   UNL d   1       0.919  -2.315   3.206  0.00  0.00    -0.033 A 
ATOM      2  C1  UNL d   1       1.576  -3.174   4.089  0.00  0.00     0.039 A 
ATOM      3  C2  UNL d   1       2.951  -3.386   3.967  0.00  0.00    -0.080 A 
ATOM      4  C3  UNL d   1       3.656  -2.732   2.960  0.00  0.00     0.150 A 
ATOM      5  C4  UNL d   1       3.009  -1.872   2.079  0.00  0.00    -0.007 A 
ATOM      6  C5  UNL d   1       1.636  -1.663   2.202  0.00  0.00     0.039 A 
ENDROOT
BRANCH   4   7
ATOM      7  O   UNL d   1       4.998  -2.911   2.799  0.00  0.00    -0.526 OA
ATOM      8  H5  UNL d   1       5.304  -3.554   3.460  0.00  0.00     0.418 HD
ENDBRANCH   4   7
TORSDOF 1
ENDMDL
