MODEL 1
REMARK minimizedAffinity 9.97760963
REMARK minimizedRMSD -1
REMARK  0 active torsions:
REMARK  status: ('A' for Active; 'I' for Inactive)
ROOT
ATOM      1  O1  BZF d   1       3.820   2.486   2.673  0.00  0.00    -0.204 OA
ATOM      2  C2  BZF d   1       4.138   3.830   2.710  0.00  0.00     0.174 A 
ATOM      3  C3  BZF d   1       4.954   4.100   3.749  0.00  0.00    -0.012 A 
ATOM      4  C3A BZF d   1       5.234   2.831   4.348  0.00  0.00    -0.107 A 
ATOM      5  C4  BZF d   1       5.998   2.442   5.410  0.00  0.00     0.055 A 
ATOM      6  C5  BZF d   1       6.000   1.135   5.779  0.00  0.00    -0.016 A 
ATOM      7  C6  BZF d   1       5.246   0.191   5.113  0.00  0.00     0.022 A 
ATOM      8  C7  BZF d   1       4.476   0.528   4.050  0.00  0.00     0.029 A 
ATOM      9  C7A BZF d   1       4.498   1.843   3.654  0.00  0.00     0.058 A 
ENDROOT
TORSDOF 0
ENDMDL
