MODEL 1
REMARK minimizedAffinity 5.63399553
REMARK minimizedRMSD -1
REMARK  0 active torsions:
REMARK  status: ('A' for Active; 'I' for Inactive)
ROOT
ATOM      1  O1  BZF d   1       3.655   1.272   1.764  0.00  0.00    -0.204 OA
ATOM      2  C2  BZF d   1       3.560   2.649   1.824  0.00  0.00     0.174 A 
ATOM      3  C3  BZF d   1       4.214   3.126   2.902  0.00  0.00    -0.012 A 
ATOM      4  C3A BZF d   1       4.830   1.984   3.506  0.00  0.00    -0.107 A 
ATOM      5  C4  BZF d   1       5.628   1.816   4.601  0.00  0.00     0.055 A 
ATOM      6  C5  BZF d   1       5.999   0.560   4.961  0.00  0.00    -0.016 A 
ATOM      7  C6  BZF d   1       5.587  -0.550   4.254  0.00  0.00     0.022 A 
ATOM      8  C7  BZF d   1       4.799  -0.434   3.157  0.00  0.00     0.029 A 
ATOM      9  C7A BZF d   1       4.449   0.837   2.771  0.00  0.00     0.058 A 
ENDROOT
TORSDOF 0
ENDMDL
