MODEL 1
REMARK minimizedAffinity 4.32949734
REMARK minimizedRMSD -1
REMARK  0 active torsions:
REMARK  status: ('A' for Active; 'I' for Inactive)
ROOT
ATOM      1  O1  BZF d   1      -4.361   1.254  -0.729  0.00  0.00    -0.204 OA
ATOM      2  C2  BZF d   1      -4.389   2.632  -0.822  0.00  0.00     0.174 A 
ATOM      3  C3  BZF d   1      -3.144   3.143  -0.744  0.00  0.00    -0.012 A 
ATOM      4  C3A BZF d   1      -2.274   2.008  -0.687  0.00  0.00    -0.107 A 
ATOM      5  C4  BZF d   1      -0.918   1.867  -0.616  0.00  0.00     0.055 A 
ATOM      6  C5  BZF d   1      -0.389   0.621  -0.500  0.00  0.00    -0.016 A 
ATOM      7  C6  BZF d   1      -1.185  -0.504  -0.447  0.00  0.00     0.022 A 
ATOM      8  C7  BZF d   1      -2.536  -0.415  -0.519  0.00  0.00     0.029 A 
ATOM      9  C7A BZF d   1      -3.072   0.841  -0.669  0.00  0.00     0.058 A 
ENDROOT
TORSDOF 0
ENDMDL
