MODEL 1
REMARK minimizedAffinity -3.45944262
REMARK minimizedRMSD -1
REMARK  0 active torsions:
REMARK  status: ('A' for Active; 'I' for Inactive)
ROOT
ATOM      1  O1  BZF d   1      -2.759   3.029   1.741  0.00  0.00    -0.204 OA
ATOM      2  C2  BZF d   1      -3.013   3.504   0.468  0.00  0.00     0.174 A 
ATOM      3  C3  BZF d   1      -3.010   2.496  -0.428  0.00  0.00    -0.012 A 
ATOM      4  C3A BZF d   1      -2.829   1.306   0.345  0.00  0.00    -0.107 A 
ATOM      5  C4  BZF d   1      -2.757  -0.020   0.025  0.00  0.00     0.055 A 
ATOM      6  C5  BZF d   1      -2.501  -0.923   1.007  0.00  0.00    -0.016 A 
ATOM      7  C6  BZF d   1      -2.307  -0.537   2.317  0.00  0.00     0.022 A 
ATOM      8  C7  BZF d   1      -2.374   0.766   2.684  0.00  0.00     0.029 A 
ATOM      9  C7A BZF d   1      -2.665   1.679   1.700  0.00  0.00     0.058 A 
ENDROOT
TORSDOF 0
ENDMDL
