MODEL 1
REMARK minimizedAffinity -1.57693577
REMARK minimizedRMSD -1
REMARK  0 active torsions:
REMARK  status: ('A' for Active; 'I' for Inactive)
ROOT
ATOM      1  O1  BZF d   1      -3.124   2.511   1.740  0.00  0.00    -0.204 OA
ATOM      2  C2  BZF d   1      -2.795   2.788   0.427  0.00  0.00     0.174 A 
ATOM      3  C3  BZF d   1      -2.213   1.720  -0.155  0.00  0.00    -0.012 A 
ATOM      4  C3A BZF d   1      -2.259   0.683   0.829  0.00  0.00    -0.107 A 
ATOM      5  C4  BZF d   1      -1.850  -0.620   0.839  0.00  0.00     0.055 A 
ATOM      6  C5  BZF d   1      -1.974  -1.342   1.984  0.00  0.00    -0.016 A 
ATOM      7  C6  BZF d   1      -2.497  -0.792   3.136  0.00  0.00     0.022 A 
ATOM      8  C7  BZF d   1      -2.921   0.494   3.173  0.00  0.00     0.029 A 
ATOM      9  C7A BZF d   1      -2.828   1.217   2.008  0.00  0.00     0.058 A 
ENDROOT
TORSDOF 0
ENDMDL
