MODEL 1
REMARK minimizedAffinity -2.7821548
REMARK minimizedRMSD -1
REMARK  0 active torsions:
REMARK  status: ('A' for Active; 'I' for Inactive)
ROOT
ATOM      1  O1  BZF d   1      -3.488   2.879   1.785  0.00  0.00    -0.204 OA
ATOM      2  C2  BZF d   1      -3.554   3.277   0.464  0.00  0.00     0.174 A 
ATOM      3  C3  BZF d   1      -3.179   2.275  -0.357  0.00  0.00    -0.012 A 
ATOM      4  C3A BZF d   1      -2.947   1.153   0.500  0.00  0.00    -0.107 A 
ATOM      5  C4  BZF d   1      -2.566  -0.139   0.274  0.00  0.00     0.055 A 
ATOM      6  C5  BZF d   1      -2.358  -0.962   1.335  0.00  0.00    -0.016 A 
ATOM      7  C6  BZF d   1      -2.516  -0.525   2.634  0.00  0.00     0.022 A 
ATOM      8  C7  BZF d   1      -2.897   0.746   2.908  0.00  0.00     0.029 A 
ATOM      9  C7A BZF d   1      -3.140   1.571   1.837  0.00  0.00     0.058 A 
ENDROOT
TORSDOF 0
ENDMDL
