MODEL 1
REMARK minimizedAffinity -1.8967489
REMARK minimizedRMSD -1
REMARK  0 active torsions:
REMARK  status: ('A' for Active; 'I' for Inactive)
ROOT
ATOM      1  O1  BZF d   1      -2.470   1.501   3.165  0.00  0.00    -0.204 OA
ATOM      2  C2  BZF d   1      -2.407   0.130   3.005  0.00  0.00     0.174 A 
ATOM      3  C3  BZF d   1      -2.872  -0.232   1.792  0.00  0.00    -0.012 A 
ATOM      4  C3A BZF d   1      -3.162   0.996   1.118  0.00  0.00    -0.107 A 
ATOM      5  C4  BZF d   1      -3.638   1.294  -0.126  0.00  0.00     0.055 A 
ATOM      6  C5  BZF d   1      -3.879   2.592  -0.448  0.00  0.00    -0.016 A 
ATOM      7  C6  BZF d   1      -3.660   3.616   0.450  0.00  0.00     0.022 A 
ATOM      8  C7  BZF d   1      -3.183   3.370   1.695  0.00  0.00     0.029 A 
ATOM      9  C7A BZF d   1      -2.908   2.062   2.012  0.00  0.00     0.058 A 
ENDROOT
TORSDOF 0
ENDMDL
