MODEL 1
REMARK minimizedAffinity 2.66002798
REMARK minimizedRMSD -1
REMARK  0 active torsions:
REMARK  status: ('A' for Active; 'I' for Inactive)
ROOT
ATOM      1  O1  BZF d   1       4.146   0.677   1.880  0.00  0.00    -0.204 OA
ATOM      2  C2  BZF d   1       4.390   0.904   3.221  0.00  0.00     0.174 A 
ATOM      3  C3  BZF d   1       3.877  -0.089   3.975  0.00  0.00    -0.012 A 
ATOM      4  C3A BZF d   1       3.356  -1.040   3.041  0.00  0.00    -0.107 A 
ATOM      5  C4  BZF d   1       2.734  -2.248   3.180  0.00  0.00     0.055 A 
ATOM      6  C5  BZF d   1       2.284  -2.890   2.070  0.00  0.00    -0.016 A 
ATOM      7  C6  BZF d   1       2.432  -2.351   0.809  0.00  0.00     0.022 A 
ATOM      8  C7  BZF d   1       3.047  -1.158   0.621  0.00  0.00     0.029 A 
ATOM      9  C7A BZF d   1       3.533  -0.522   1.737  0.00  0.00     0.058 A 
ENDROOT
TORSDOF 0
ENDMDL
