MODEL 1
REMARK minimizedAffinity 9.98315811
REMARK minimizedRMSD -1
REMARK  0 active torsions:
REMARK  status: ('A' for Active; 'I' for Inactive)
ROOT
ATOM      1  O1  BZF d   1      -3.744   5.903   5.226  0.00  0.00    -0.204 OA
ATOM      2  C2  BZF d   1      -4.921   5.922   5.950  0.00  0.00     0.174 A 
ATOM      3  C3  BZF d   1      -5.988   5.829   5.130  0.00  0.00    -0.012 A 
ATOM      4  C3A BZF d   1      -5.442   5.653   3.820  0.00  0.00    -0.107 A 
ATOM      5  C4  BZF d   1      -6.000   5.485   2.585  0.00  0.00     0.055 A 
ATOM      6  C5  BZF d   1      -5.188   5.415   1.497  0.00  0.00    -0.016 A 
ATOM      7  C6  BZF d   1      -3.817   5.515   1.607  0.00  0.00     0.022 A 
ATOM      8  C7  BZF d   1      -3.217   5.677   2.812  0.00  0.00     0.029 A 
ATOM      9  C7A BZF d   1      -4.032   5.715   3.916  0.00  0.00     0.058 A 
ENDROOT
TORSDOF 0
ENDMDL
