MODEL 1
REMARK minimizedAffinity 2.72386408
REMARK minimizedRMSD -1
REMARK  0 active torsions:
REMARK  status: ('A' for Active; 'I' for Inactive)
ROOT
ATOM      1  O1  BZF d   1      -4.605  -0.488   3.386  0.00  0.00    -0.204 OA
ATOM      2  C2  BZF d   1      -3.418  -0.901   3.957  0.00  0.00     0.174 A 
ATOM      3  C3  BZF d   1      -2.482  -1.119   3.011  0.00  0.00    -0.012 A 
ATOM      4  C3A BZF d   1      -3.097  -0.734   1.778  0.00  0.00    -0.107 A 
ATOM      5  C4  BZF d   1      -2.667  -0.707   0.482  0.00  0.00     0.055 A 
ATOM      6  C5  BZF d   1      -3.538  -0.347  -0.496  0.00  0.00    -0.016 A 
ATOM      7  C6  BZF d   1      -4.847  -0.014  -0.216  0.00  0.00     0.022 A 
ATOM      8  C7  BZF d   1      -5.319  -0.022   1.055  0.00  0.00     0.029 A 
ATOM      9  C7A BZF d   1      -4.432  -0.353   2.049  0.00  0.00     0.058 A 
ENDROOT
TORSDOF 0
ENDMDL
