MODEL 1
REMARK minimizedAffinity 3.73430872
REMARK minimizedRMSD -1
REMARK  0 active torsions:
REMARK  status: ('A' for Active; 'I' for Inactive)
ROOT
ATOM      1  O1  BZF d   1       4.063   0.813   1.479  0.00  0.00    -0.204 OA
ATOM      2  C2  BZF d   1       3.609   2.062   1.103  0.00  0.00     0.174 A 
ATOM      3  C3  BZF d   1       3.947   2.991   2.020  0.00  0.00    -0.012 A 
ATOM      4  C3A BZF d   1       4.737   2.293   2.988  0.00  0.00    -0.107 A 
ATOM      5  C4  BZF d   1       5.376   2.678   4.132  0.00  0.00     0.055 A 
ATOM      6  C5  BZF d   1       6.000   1.737   4.889  0.00  0.00    -0.016 A 
ATOM      7  C6  BZF d   1       6.000   0.404   4.535  0.00  0.00     0.022 A 
ATOM      8  C7  BZF d   1       5.384  -0.025   3.406  0.00  0.00     0.029 A 
ATOM      9  C7A BZF d   1       4.781   0.928   2.622  0.00  0.00     0.058 A 
ENDROOT
TORSDOF 0
ENDMDL
