MODEL 1
REMARK minimizedAffinity 2.88645506
REMARK minimizedRMSD -1
REMARK  0 active torsions:
REMARK  status: ('A' for Active; 'I' for Inactive)
ROOT
ATOM      1  O1  BZF d   1       5.436   1.293   3.274  0.00  0.00    -0.204 OA
ATOM      2  C2  BZF d   1       6.000   1.282   4.535  0.00  0.00     0.174 A 
ATOM      3  C3  BZF d   1       5.476   0.291   5.285  0.00  0.00    -0.012 A 
ATOM      4  C3A BZF d   1       4.592  -0.416   4.409  0.00  0.00    -0.107 A 
ATOM      5  C4  BZF d   1       3.791  -1.511   4.567  0.00  0.00     0.055 A 
ATOM      6  C5  BZF d   1       2.998  -1.903   3.536  0.00  0.00    -0.016 A 
ATOM      7  C6  BZF d   1       2.976  -1.222   2.336  0.00  0.00     0.022 A 
ATOM      8  C7  BZF d   1       3.757  -0.133   2.131  0.00  0.00     0.029 A 
ATOM      9  C7A BZF d   1       4.584   0.246   3.160  0.00  0.00     0.058 A 
ENDROOT
TORSDOF 0
ENDMDL
