MODEL 1
REMARK minimizedAffinity 5.29172182
REMARK minimizedRMSD -1
REMARK  0 active torsions:
REMARK  status: ('A' for Active; 'I' for Inactive)
ROOT
ATOM      1  O1  BZF d   1       6.000   4.013   4.987  0.00  0.00    -0.204 OA
ATOM      2  C2  BZF d   1       5.605   5.049   4.163  0.00  0.00     0.174 A 
ATOM      3  C3  BZF d   1       5.161   4.576   2.980  0.00  0.00    -0.012 A 
ATOM      4  C3A BZF d   1       5.200   3.152   3.105  0.00  0.00    -0.107 A 
ATOM      5  C4  BZF d   1       4.867   2.126   2.268  0.00  0.00     0.055 A 
ATOM      6  C5  BZF d   1       5.094   0.847   2.666  0.00  0.00    -0.016 A 
ATOM      7  C6  BZF d   1       5.657   0.558   3.892  0.00  0.00     0.022 A 
ATOM      8  C7  BZF d   1       6.000   1.541   4.759  0.00  0.00     0.029 A 
ATOM      9  C7A BZF d   1       5.741   2.834   4.373  0.00  0.00     0.058 A 
ENDROOT
TORSDOF 0
ENDMDL
