MODEL 1
REMARK minimizedAffinity -0.309047282
REMARK minimizedRMSD -1
REMARK  0 active torsions:
REMARK  status: ('A' for Active; 'I' for Inactive)
ROOT
ATOM      1  O1  BZF d   1       6.000   4.619   5.547  0.00  0.00    -0.204 OA
ATOM      2  C2  BZF d   1       5.749   5.504   4.517  0.00  0.00     0.174 A 
ATOM      3  C3  BZF d   1       5.482   4.843   3.372  0.00  0.00    -0.012 A 
ATOM      4  C3A BZF d   1       5.480   3.457   3.730  0.00  0.00    -0.107 A 
ATOM      5  C4  BZF d   1       5.261   2.307   3.028  0.00  0.00     0.055 A 
ATOM      6  C5  BZF d   1       5.407   1.111   3.657  0.00  0.00    -0.016 A 
ATOM      7  C6  BZF d   1       5.774   1.029   4.984  0.00  0.00     0.022 A 
ATOM      8  C7  BZF d   1       5.997   2.143   5.723  0.00  0.00     0.029 A 
ATOM      9  C7A BZF d   1       5.819   3.353   5.099  0.00  0.00     0.058 A 
ENDROOT
TORSDOF 0
ENDMDL
