MODEL 1
REMARK minimizedAffinity 14.3504162
REMARK minimizedRMSD -1
REMARK  0 active torsions:
REMARK  status: ('A' for Active; 'I' for Inactive)
ROOT
ATOM      1  O1  BZF d   1       4.960   3.527   3.416  0.00  0.00    -0.204 OA
ATOM      2  C2  BZF d   1       4.038   3.654   2.395  0.00  0.00     0.174 A 
ATOM      3  C3  BZF d   1       3.677   2.443   1.923  0.00  0.00    -0.012 A 
ATOM      4  C3A BZF d   1       4.349   1.498   2.760  0.00  0.00    -0.107 A 
ATOM      5  C4  BZF d   1       4.375   0.133   2.801  0.00  0.00     0.055 A 
ATOM      6  C5  BZF d   1       5.191  -0.485   3.696  0.00  0.00    -0.016 A 
ATOM      7  C6  BZF d   1       5.996   0.229   4.559  0.00  0.00     0.022 A 
ATOM      8  C7  BZF d   1       6.000   1.585   4.559  0.00  0.00     0.029 A 
ATOM      9  C7A BZF d   1       5.152   2.212   3.679  0.00  0.00     0.058 A 
ENDROOT
TORSDOF 0
ENDMDL
