MODEL 1
REMARK minimizedAffinity 2.1701138
REMARK minimizedRMSD -1
REMARK  0 active torsions:
REMARK  status: ('A' for Active; 'I' for Inactive)
ROOT
ATOM      1  O1  BZF d   1       5.998   4.334   4.805  0.00  0.00    -0.204 OA
ATOM      2  C2  BZF d   1       5.476   5.149   3.819  0.00  0.00     0.174 A 
ATOM      3  C3  BZF d   1       4.876   4.415   2.860  0.00  0.00    -0.012 A 
ATOM      4  C3A BZF d   1       4.952   3.061   3.318  0.00  0.00    -0.107 A 
ATOM      5  C4  BZF d   1       4.518   1.871   2.809  0.00  0.00     0.055 A 
ATOM      6  C5  BZF d   1       4.817   0.722   3.469  0.00  0.00    -0.016 A 
ATOM      7  C6  BZF d   1       5.551   0.725   4.636  0.00  0.00     0.022 A 
ATOM      8  C7  BZF d   1       6.000   1.881   5.183  0.00  0.00     0.029 A 
ATOM      9  C7A BZF d   1       5.671   3.047   4.536  0.00  0.00     0.058 A 
ENDROOT
TORSDOF 0
ENDMDL
