MODEL 1
REMARK minimizedAffinity 0.328116834
REMARK minimizedRMSD -1
REMARK  0 active torsions:
REMARK  status: ('A' for Active; 'I' for Inactive)
ROOT
ATOM      1  O1  BZF d   1      -3.486  -0.348   4.242  0.00  0.00    -0.204 OA
ATOM      2  C2  BZF d   1      -2.126  -0.142   4.368  0.00  0.00     0.174 A 
ATOM      3  C3  BZF d   1      -1.496  -0.377   3.198  0.00  0.00    -0.012 A 
ATOM      4  C3A BZF d   1      -2.538  -0.664   2.261  0.00  0.00    -0.107 A 
ATOM      5  C4  BZF d   1      -2.546  -0.962   0.928  0.00  0.00     0.055 A 
ATOM      6  C5  BZF d   1      -3.727  -1.261   0.325  0.00  0.00    -0.016 A 
ATOM      7  C6  BZF d   1      -4.916  -1.276   1.025  0.00  0.00     0.022 A 
ATOM      8  C7  BZF d   1      -4.959  -0.982   2.347  0.00  0.00     0.029 A 
ATOM      9  C7A BZF d   1      -3.772  -0.647   2.952  0.00  0.00     0.058 A 
ENDROOT
TORSDOF 0
ENDMDL
