MODEL 1
REMARK minimizedAffinity 4.89247847
REMARK minimizedRMSD -1
REMARK  1 active torsions:
REMARK  status: ('A' for Active; 'I' for Inactive)
REMARK    1  A    between atoms: C1_2  and  C2_3 
ROOT
ATOM      1  C2  UNL d   1       1.317   4.925   4.463  0.00  0.00    -0.081 A 
ATOM      2  C3  UNL d   1       1.567   5.833   5.500  0.00  0.00     0.006 A 
ATOM      3  C4  UNL d   1       2.861   5.999   5.999  0.00  0.00     0.002 A 
ATOM      4  C5  UNL d   1       3.927   5.268   5.465  0.00  0.00    -0.080 A 
ATOM      5  C6  UNL d   1       5.326   5.459   5.971  0.00  0.00     0.076 C 
ATOM      6  C7  UNL d   1       3.675   4.348   4.441  0.00  0.00     0.002 A 
ATOM      7  C8  UNL d   1       2.381   4.180   3.942  0.00  0.00     0.006 A 
ENDROOT
BRANCH   1   8
ATOM      8  C1  UNL d   1      -0.066   4.790   3.879  0.00  0.00     0.054 C 
ATOM      9  C   UNL d   1      -1.003   5.859   4.423  0.00  0.00     0.018 C 
ENDBRANCH   1   8
TORSDOF 1
ENDMDL
