MODEL 1
REMARK minimizedAffinity -0.198494121
REMARK minimizedRMSD -1
REMARK  1 active torsions:
REMARK  status: ('A' for Active; 'I' for Inactive)
REMARK    1  A    between atoms: C1_2  and  C2_3 
ROOT
ATOM      1  C2  UNL d   1       2.667   3.335   2.947  0.00  0.00    -0.081 A 
ATOM      2  C3  UNL d   1       3.397   3.540   4.124  0.00  0.00     0.006 A 
ATOM      3  C4  UNL d   1       2.925   4.411   5.109  0.00  0.00     0.002 A 
ATOM      4  C5  UNL d   1       1.711   5.085   4.937  0.00  0.00    -0.080 A 
ATOM      5  C6  UNL d   1       1.177   5.999   5.999  0.00  0.00     0.076 C 
ATOM      6  C7  UNL d   1       0.989   4.893   3.754  0.00  0.00     0.002 A 
ATOM      7  C8  UNL d   1       1.462   4.023   2.769  0.00  0.00     0.006 A 
ENDROOT
BRANCH   1   8
ATOM      8  C1  UNL d   1       3.142   2.347   1.913  0.00  0.00     0.054 C 
ATOM      9  C   UNL d   1       4.535   2.698   1.412  0.00  0.00     0.018 C 
ENDBRANCH   1   8
TORSDOF 1
ENDMDL
