MODEL 1
REMARK minimizedAffinity 5.53427124
REMARK minimizedRMSD -1
REMARK  1 active torsions:
REMARK  status: ('A' for Active; 'I' for Inactive)
REMARK    1  A    between atoms: C1_2  and  C2_3 
ROOT
ATOM      1  C2  UNL d   1       1.259   4.968   4.673  0.00  0.00    -0.081 A 
ATOM      2  C3  UNL d   1       2.509   4.338   4.697  0.00  0.00     0.006 A 
ATOM      3  C4  UNL d   1       2.862   3.427   3.698  0.00  0.00     0.002 A 
ATOM      4  C5  UNL d   1       1.974   3.138   2.656  0.00  0.00    -0.080 A 
ATOM      5  C6  UNL d   1       2.352   2.185   1.561  0.00  0.00     0.076 C 
ATOM      6  C7  UNL d   1       0.719   3.754   2.642  0.00  0.00     0.002 A 
ATOM      7  C8  UNL d   1       0.365   4.664   3.641  0.00  0.00     0.006 A 
ENDROOT
BRANCH   1   8
ATOM      8  C1  UNL d   1       0.901   5.999   5.713  0.00  0.00     0.054 C 
ATOM      9  C   UNL d   1      -0.594   6.000   6.000  0.00  0.00     0.018 C 
ENDBRANCH   1   8
TORSDOF 1
ENDMDL
