MODEL 1
REMARK minimizedAffinity 10.7705736
REMARK minimizedRMSD -1
REMARK  1 active torsions:
REMARK  status: ('A' for Active; 'I' for Inactive)
REMARK    1  A    between atoms: C1_2  and  C2_3 
ROOT
ATOM      1  C2  UNL d   1       2.548   4.015   2.213  0.00  0.00    -0.081 A 
ATOM      2  C3  UNL d   1       1.312   4.601   2.511  0.00  0.00     0.006 A 
ATOM      3  C4  UNL d   1       1.106   5.233   3.740  0.00  0.00     0.002 A 
ATOM      4  C5  UNL d   1       2.134   5.296   4.686  0.00  0.00    -0.080 A 
ATOM      5  C6  UNL d   1       1.935   5.998   5.997  0.00  0.00     0.076 C 
ATOM      6  C7  UNL d   1       3.363   4.695   4.395  0.00  0.00     0.002 A 
ATOM      7  C8  UNL d   1       3.570   4.063   3.167  0.00  0.00     0.006 A 
ENDROOT
BRANCH   1   8
ATOM      8  C1  UNL d   1       2.794   3.389   0.863  0.00  0.00     0.054 C 
ATOM      9  C   UNL d   1       4.089   2.589   0.852  0.00  0.00     0.018 C 
ENDBRANCH   1   8
TORSDOF 1
ENDMDL
