MODEL 1
REMARK minimizedAffinity 2.8523066
REMARK minimizedRMSD -1
REMARK  1 active torsions:
REMARK  status: ('A' for Active; 'I' for Inactive)
REMARK    1  A    between atoms: C1_2  and  C2_3 
ROOT
ATOM      1  C2  UNL d   1       3.023   5.778   4.586  0.00  0.00    -0.081 A 
ATOM      2  C3  UNL d   1       2.357   5.398   3.414  0.00  0.00     0.006 A 
ATOM      3  C4  UNL d   1       0.968   5.252   3.404  0.00  0.00     0.002 A 
ATOM      4  C5  UNL d   1       0.221   5.492   4.563  0.00  0.00    -0.080 A 
ATOM      5  C6  UNL d   1      -1.274   5.369   4.558  0.00  0.00     0.076 C 
ATOM      6  C7  UNL d   1       0.887   5.855   5.738  0.00  0.00     0.002 A 
ATOM      7  C8  UNL d   1       2.276   6.000   5.749  0.00  0.00     0.006 A 
ENDROOT
BRANCH   1   8
ATOM      8  C1  UNL d   1       4.514   5.999   4.583  0.00  0.00     0.054 C 
ATOM      9  C   UNL d   1       5.076   6.000   5.998  0.00  0.00     0.018 C 
ENDBRANCH   1   8
TORSDOF 1
ENDMDL
