MODEL 1
REMARK minimizedAffinity 5.49423265
REMARK minimizedRMSD -1
REMARK  1 active torsions:
REMARK  status: ('A' for Active; 'I' for Inactive)
REMARK    1  A    between atoms: C3_4  and  O_7 
ROOT
ATOM      1  C   UNL d   1       3.222  -1.432   0.594  0.00  0.00    -0.033 A 
ATOM      2  C1  UNL d   1       2.232  -2.290   1.077  0.00  0.00     0.039 A 
ATOM      3  C2  UNL d   1       0.971  -2.312   0.478  0.00  0.00    -0.080 A 
ATOM      4  C3  UNL d   1       0.713  -1.471  -0.601  0.00  0.00     0.150 A 
ATOM      5  C4  UNL d   1       1.695  -0.616  -1.090  0.00  0.00    -0.007 A 
ATOM      6  C5  UNL d   1       2.954  -0.596  -0.490  0.00  0.00     0.039 A 
ENDROOT
BRANCH   4   7
ATOM      7  O   UNL d   1      -0.504  -1.453  -1.215  0.00  0.00    -0.526 OA
ATOM      8  H5  UNL d   1      -1.091  -2.074  -0.753  0.00  0.00     0.418 HD
ENDBRANCH   4   7
TORSDOF 1
ENDMDL
