MODEL 1
REMARK minimizedAffinity 7.70647812
REMARK minimizedRMSD -1
REMARK  1 active torsions:
REMARK  status: ('A' for Active; 'I' for Inactive)
REMARK    1  A    between atoms: C3_4  and  O_7 
ROOT
ATOM      1  C   UNL d   1      -5.067   3.791  -4.282  0.00  0.00    -0.033 A 
ATOM      2  C1  UNL d   1      -4.133   2.884  -3.778  0.00  0.00     0.039 A 
ATOM      3  C2  UNL d   1      -4.132   1.560  -4.222  0.00  0.00    -0.080 A 
ATOM      4  C3  UNL d   1      -5.069   1.157  -5.170  0.00  0.00     0.150 A 
ATOM      5  C4  UNL d   1      -6.000   2.056  -5.679  0.00  0.00    -0.007 A 
ATOM      6  C5  UNL d   1      -6.000   3.377  -5.234  0.00  0.00     0.039 A 
ENDROOT
BRANCH   4   7
ATOM      7  O   UNL d   1      -5.110  -0.126  -5.630  0.00  0.00    -0.526 OA
ATOM      8  H5  UNL d   1      -4.427  -0.640  -5.169  0.00  0.00     0.418 HD
ENDBRANCH   4   7
TORSDOF 1
ENDMDL
