MODEL 1
REMARK minimizedAffinity 6.11853743
REMARK minimizedRMSD -1
REMARK  1 active torsions:
REMARK  status: ('A' for Active; 'I' for Inactive)
REMARK    1  A    between atoms: C3_4  and  O_7 
ROOT
ATOM      1  C   UNL d   1      -2.862  -0.966  -4.976  0.00  0.00    -0.033 A 
ATOM      2  C1  UNL d   1      -2.927  -0.002  -3.968  0.00  0.00     0.039 A 
ATOM      3  C2  UNL d   1      -3.954   0.944  -3.970  0.00  0.00    -0.080 A 
ATOM      4  C3  UNL d   1      -4.909   0.914  -4.982  0.00  0.00     0.150 A 
ATOM      5  C4  UNL d   1      -4.852  -0.046  -5.987  0.00  0.00    -0.007 A 
ATOM      6  C5  UNL d   1      -3.825  -0.989  -5.985  0.00  0.00     0.039 A 
ENDROOT
BRANCH   4   7
ATOM      7  O   UNL d   1      -5.927   1.819  -5.028  0.00  0.00    -0.526 OA
ATOM      8  H5  UNL d   1      -5.822   2.439  -4.287  0.00  0.00     0.418 HD
ENDBRANCH   4   7
TORSDOF 1
ENDMDL
