MODEL 1
REMARK minimizedAffinity 1.85885954
REMARK minimizedRMSD -1
REMARK  1 active torsions:
REMARK  status: ('A' for Active; 'I' for Inactive)
REMARK    1  A    between atoms: C3_4  and  O_7 
ROOT
ATOM      1  C   UNL d   1      -4.556  -0.079  -5.783  0.00  0.00    -0.033 A 
ATOM      2  C1  UNL d   1      -5.450  -0.071  -4.710  0.00  0.00     0.039 A 
ATOM      3  C2  UNL d   1      -5.157  -0.792  -3.551  0.00  0.00    -0.080 A 
ATOM      4  C3  UNL d   1      -3.969  -1.513  -3.476  0.00  0.00     0.150 A 
ATOM      5  C4  UNL d   1      -3.073  -1.522  -4.540  0.00  0.00    -0.007 A 
ATOM      6  C5  UNL d   1      -3.367  -0.803  -5.697  0.00  0.00     0.039 A 
ENDROOT
BRANCH   4   7
ATOM      7  O   UNL d   1      -3.643  -2.235  -2.367  0.00  0.00    -0.526 OA
ATOM      8  H5  UNL d   1      -4.369  -2.159  -1.725  0.00  0.00     0.418 HD
ENDBRANCH   4   7
TORSDOF 1
ENDMDL
