MODEL 1
REMARK minimizedAffinity 6.52938604
REMARK minimizedRMSD -1
REMARK  1 active torsions:
REMARK  status: ('A' for Active; 'I' for Inactive)
REMARK    1  A    between atoms: C3_4  and  O_7 
ROOT
ATOM      1  C   UNL d   1       0.064  -0.720   3.000  0.00  0.00    -0.033 A 
ATOM      2  C1  UNL d   1      -0.580  -1.349   1.932  0.00  0.00     0.039 A 
ATOM      3  C2  UNL d   1      -1.854  -0.934   1.541  0.00  0.00    -0.080 A 
ATOM      4  C3  UNL d   1      -2.473   0.110   2.223  0.00  0.00     0.150 A 
ATOM      5  C4  UNL d   1      -1.836   0.744   3.285  0.00  0.00    -0.007 A 
ATOM      6  C5  UNL d   1      -0.564   0.328   3.675  0.00  0.00     0.039 A 
ENDROOT
BRANCH   4   7
ATOM      7  O   UNL d   1      -3.718   0.547   1.880  0.00  0.00    -0.526 OA
ATOM      8  H5  UNL d   1      -4.046  -0.002   1.149  0.00  0.00     0.418 HD
ENDBRANCH   4   7
TORSDOF 1
ENDMDL
