MODEL 1
REMARK minimizedAffinity 3.13106656
REMARK minimizedRMSD -1
REMARK  1 active torsions:
REMARK  status: ('A' for Active; 'I' for Inactive)
REMARK    1  A    between atoms: C3_4  and  O_7 
ROOT
ATOM      1  C   UNL d   1       3.108  -0.862  -2.895  0.00  0.00    -0.033 A 
ATOM      2  C1  UNL d   1       1.733  -0.721  -2.697  0.00  0.00     0.039 A 
ATOM      3  C2  UNL d   1       1.168  -1.041  -1.461  0.00  0.00    -0.080 A 
ATOM      4  C3  UNL d   1       1.987  -1.498  -0.433  0.00  0.00     0.150 A 
ATOM      5  C4  UNL d   1       3.358  -1.638  -0.622  0.00  0.00    -0.007 A 
ATOM      6  C5  UNL d   1       3.921  -1.319  -1.858  0.00  0.00     0.039 A 
ENDROOT
BRANCH   4   7
ATOM      7  O   UNL d   1       1.481  -1.827   0.789  0.00  0.00    -0.526 OA
ATOM      8  H5  UNL d   1       0.516  -1.709   0.765  0.00  0.00     0.418 HD
ENDBRANCH   4   7
TORSDOF 1
ENDMDL
