MODEL 1
REMARK minimizedAffinity 1.32338095
REMARK minimizedRMSD -1
REMARK  1 active torsions:
REMARK  status: ('A' for Active; 'I' for Inactive)
REMARK    1  A    between atoms: C3_4  and  O_7 
ROOT
ATOM      1  C   UNL d   1       1.887  -0.483  -2.530  0.00  0.00    -0.033 A 
ATOM      2  C1  UNL d   1       2.821  -0.103  -1.564  0.00  0.00     0.039 A 
ATOM      3  C2  UNL d   1       2.618  -0.440  -0.224  0.00  0.00    -0.080 A 
ATOM      4  C3  UNL d   1       1.480  -1.157   0.135  0.00  0.00     0.150 A 
ATOM      5  C4  UNL d   1       0.548  -1.542  -0.823  0.00  0.00    -0.007 A 
ATOM      6  C5  UNL d   1       0.751  -1.203  -2.160  0.00  0.00     0.039 A 
ENDROOT
BRANCH   4   7
ATOM      7  O   UNL d   1       1.236  -1.506   1.430  0.00  0.00    -0.526 OA
ATOM      8  H5  UNL d   1       1.950  -1.148   1.985  0.00  0.00     0.418 HD
ENDBRANCH   4   7
TORSDOF 1
ENDMDL
