MODEL 1
REMARK minimizedAffinity -4.24739552
REMARK minimizedRMSD -1
REMARK  1 active torsions:
REMARK  status: ('A' for Active; 'I' for Inactive)
REMARK    1  A    between atoms: C3_4  and  O_7 
ROOT
ATOM      1  C   UNL d   1       2.778   1.991  -1.156  0.00  0.00    -0.033 A 
ATOM      2  C1  UNL d   1       3.061   1.215  -2.282  0.00  0.00     0.039 A 
ATOM      3  C2  UNL d   1       2.708  -0.136  -2.308  0.00  0.00    -0.080 A 
ATOM      4  C3  UNL d   1       2.074  -0.697  -1.203  0.00  0.00     0.150 A 
ATOM      5  C4  UNL d   1       1.786   0.070  -0.080  0.00  0.00    -0.007 A 
ATOM      6  C5  UNL d   1       2.140   1.419  -0.056  0.00  0.00     0.039 A 
ENDROOT
BRANCH   4   7
ATOM      7  O   UNL d   1       1.716  -2.012  -1.180  0.00  0.00    -0.526 OA
ATOM      8  H5  UNL d   1       2.003  -2.425  -2.012  0.00  0.00     0.418 HD
ENDBRANCH   4   7
TORSDOF 1
ENDMDL
