MODEL 1
REMARK minimizedAffinity 4.57659292
REMARK minimizedRMSD -1
REMARK  1 active torsions:
REMARK  status: ('A' for Active; 'I' for Inactive)
REMARK    1  A    between atoms: C3_4  and  O_7 
ROOT
ATOM      1  C   UNL d   1      -4.155   0.270   1.255  0.00  0.00    -0.033 A 
ATOM      2  C1  UNL d   1      -3.204  -0.155   2.186  0.00  0.00     0.039 A 
ATOM      3  C2  UNL d   1      -3.308   0.239   3.521  0.00  0.00    -0.080 A 
ATOM      4  C3  UNL d   1      -4.365   1.056   3.913  0.00  0.00     0.150 A 
ATOM      5  C4  UNL d   1      -5.317   1.480   2.992  0.00  0.00    -0.007 A 
ATOM      6  C5  UNL d   1      -5.212   1.086   1.658  0.00  0.00     0.039 A 
ENDROOT
BRANCH   4   7
ATOM      7  O   UNL d   1      -4.505   1.470   5.204  0.00  0.00    -0.526 OA
ATOM      8  H5  UNL d   1      -3.758   1.124   5.721  0.00  0.00     0.418 HD
ENDBRANCH   4   7
TORSDOF 1
ENDMDL
