MODEL 1
REMARK minimizedAffinity 5.28175163
REMARK minimizedRMSD -1
REMARK  1 active torsions:
REMARK  status: ('A' for Active; 'I' for Inactive)
REMARK    1  A    between atoms: C1_2  and  C2_3 
ROOT
ATOM      1  C2  UNL d   1       0.807   1.219   2.127  0.00  0.00    -0.077 A 
ATOM      2  C3  UNL d   1      -0.157   0.934   1.150  0.00  0.00     0.002 A 
ATOM      3  C4  UNL d   1      -0.228  -0.338   0.579  0.00  0.00     0.002 A 
ATOM      4  C5  UNL d   1       0.658  -1.335   0.981  0.00  0.00    -0.004 A 
ATOM      5  C6  UNL d   1       1.622  -1.060   1.950  0.00  0.00     0.002 A 
ATOM      6  C7  UNL d   1       1.696   0.211   2.522  0.00  0.00     0.002 A 
ENDROOT
BRANCH   1   7
ATOM      7  C1  UNL d   1       0.854   2.576   2.780  0.00  0.00     0.055 C 
ATOM      8  C   UNL d   1       2.066   2.711   3.691  0.00  0.00     0.019 C 
ENDBRANCH   1   7
TORSDOF 1
ENDMDL
