MODEL 1
REMARK minimizedAffinity -1.12483001
REMARK minimizedRMSD -1
REMARK  1 active torsions:
REMARK  status: ('A' for Active; 'I' for Inactive)
REMARK    1  A    between atoms: C1_2  and  C2_3 
ROOT
ATOM      1  C2  UNL d   1       0.604   1.943   0.780  0.00  0.00    -0.077 A 
ATOM      2  C3  UNL d   1       0.668   0.955   1.773  0.00  0.00     0.002 A 
ATOM      3  C4  UNL d   1       0.644  -0.398   1.426  0.00  0.00     0.002 A 
ATOM      4  C5  UNL d   1       0.560  -0.774   0.087  0.00  0.00    -0.004 A 
ATOM      5  C6  UNL d   1       0.494   0.201  -0.907  0.00  0.00     0.002 A 
ATOM      6  C7  UNL d   1       0.517   1.553  -0.562  0.00  0.00     0.002 A 
ENDROOT
BRANCH   1   7
ATOM      7  C1  UNL d   1       0.680   3.401   1.149  0.00  0.00     0.055 C 
ATOM      8  C   UNL d   1       0.770   4.281  -0.090  0.00  0.00     0.019 C 
ENDBRANCH   1   7
TORSDOF 1
ENDMDL
