MODEL 1
REMARK minimizedAffinity -0.397661656
REMARK minimizedRMSD -1
REMARK  1 active torsions:
REMARK  status: ('A' for Active; 'I' for Inactive)
REMARK    1  A    between atoms: C1_2  and  C2_3 
ROOT
ATOM      1  C2  UNL d   1      -3.115   1.897  -0.692  0.00  0.00    -0.077 A 
ATOM      2  C3  UNL d   1      -2.681   2.968  -1.487  0.00  0.00     0.002 A 
ATOM      3  C4  UNL d   1      -3.603   3.734  -2.204  0.00  0.00     0.002 A 
ATOM      4  C5  UNL d   1      -4.963   3.440  -2.130  0.00  0.00    -0.004 A 
ATOM      5  C6  UNL d   1      -5.403   2.375  -1.345  0.00  0.00     0.002 A 
ATOM      6  C7  UNL d   1      -4.484   1.608  -0.628  0.00  0.00     0.002 A 
ENDROOT
BRANCH   1   7
ATOM      7  C1  UNL d   1      -2.128   1.101   0.120  0.00  0.00     0.055 C 
ATOM      8  C   UNL d   1      -0.704   1.589  -0.104  0.00  0.00     0.019 C 
ENDBRANCH   1   7
TORSDOF 1
ENDMDL
