MODEL 1
REMARK minimizedAffinity -1.96713471
REMARK minimizedRMSD -1
REMARK  1 active torsions:
REMARK  status: ('A' for Active; 'I' for Inactive)
REMARK    1  A    between atoms: C1_2  and  C2_3 
ROOT
ATOM      1  C2  UNL d   1       0.959   2.956   1.881  0.00  0.00    -0.077 A 
ATOM      2  C3  UNL d   1       0.994   4.127   1.110  0.00  0.00     0.002 A 
ATOM      3  C4  UNL d   1       1.890   5.151   1.423  0.00  0.00     0.002 A 
ATOM      4  C5  UNL d   1       2.760   5.013   2.503  0.00  0.00    -0.004 A 
ATOM      5  C6  UNL d   1       2.731   3.854   3.276  0.00  0.00     0.002 A 
ATOM      6  C7  UNL d   1       1.835   2.829   2.966  0.00  0.00     0.002 A 
ENDROOT
BRANCH   1   7
ATOM      7  C1  UNL d   1       0.028   1.829   1.516  0.00  0.00     0.055 C 
ATOM      8  C   UNL d   1       0.776   0.692   0.836  0.00  0.00     0.019 C 
ENDBRANCH   1   7
TORSDOF 1
ENDMDL
