MODEL 1
REMARK minimizedAffinity -1.22588146
REMARK minimizedRMSD -1
REMARK  1 active torsions:
REMARK  status: ('A' for Active; 'I' for Inactive)
REMARK    1  A    between atoms: C1_2  and  C2_3 
ROOT
ATOM      1  C2  UNL d   1       1.105   1.323   1.537  0.00  0.00    -0.077 A 
ATOM      2  C3  UNL d   1       2.043   0.336   1.872  0.00  0.00     0.002 A 
ATOM      3  C4  UNL d   1       2.296  -0.723   0.998  0.00  0.00     0.002 A 
ATOM      4  C5  UNL d   1       1.618  -0.803  -0.217  0.00  0.00    -0.004 A 
ATOM      5  C6  UNL d   1       0.682   0.172  -0.558  0.00  0.00     0.002 A 
ATOM      6  C7  UNL d   1       0.427   1.231   0.315  0.00  0.00     0.002 A 
ENDROOT
BRANCH   1   7
ATOM      7  C1  UNL d   1       0.866   2.493   2.456  0.00  0.00     0.055 C 
ATOM      8  C   UNL d   1       2.154   2.934   3.136  0.00  0.00     0.019 C 
ENDBRANCH   1   7
TORSDOF 1
ENDMDL
