MODEL 1
REMARK minimizedAffinity -1.39894104
REMARK minimizedRMSD -1
REMARK  1 active torsions:
REMARK  status: ('A' for Active; 'I' for Inactive)
REMARK    1  A    between atoms: C1_2  and  C2_3 
ROOT
ATOM      1  C2  UNL d   1       2.662  -0.540   2.209  0.00  0.00    -0.077 A 
ATOM      2  C3  UNL d   1       2.363  -0.392   0.847  0.00  0.00     0.002 A 
ATOM      3  C4  UNL d   1       1.064  -0.085   0.438  0.00  0.00     0.002 A 
ATOM      4  C5  UNL d   1       0.055   0.082   1.385  0.00  0.00    -0.004 A 
ATOM      5  C6  UNL d   1       0.342  -0.065   2.742  0.00  0.00     0.002 A 
ATOM      6  C7  UNL d   1       1.640  -0.373   3.152  0.00  0.00     0.002 A 
ENDROOT
BRANCH   1   7
ATOM      7  C1  UNL d   1       4.073  -0.823   2.654  0.00  0.00     0.055 C 
ATOM      8  C   UNL d   1       4.100  -1.807   3.815  0.00  0.00     0.019 C 
ENDBRANCH   1   7
TORSDOF 1
ENDMDL
