MODEL 1
REMARK minimizedAffinity -4.67829466
REMARK minimizedRMSD -1
REMARK  1 active torsions:
REMARK  status: ('A' for Active; 'I' for Inactive)
REMARK    1  A    between atoms: C1_2  and  C2_3 
ROOT
ATOM      1  C2  UNL d   1       0.774   2.936   1.845  0.00  0.00    -0.077 A 
ATOM      2  C3  UNL d   1       0.497   3.671   0.684  0.00  0.00     0.002 A 
ATOM      3  C4  UNL d   1       1.263   4.792   0.359  0.00  0.00     0.002 A 
ATOM      4  C5  UNL d   1       2.313   5.185   1.186  0.00  0.00    -0.004 A 
ATOM      5  C6  UNL d   1       2.595   4.461   2.344  0.00  0.00     0.002 A 
ATOM      6  C7  UNL d   1       1.829   3.341   2.672  0.00  0.00     0.002 A 
ENDROOT
BRANCH   1   7
ATOM      7  C1  UNL d   1      -0.020   1.698   2.172  0.00  0.00     0.055 C 
ATOM      8  C   UNL d   1       0.378   0.533   1.278  0.00  0.00     0.019 C 
ENDBRANCH   1   7
TORSDOF 1
ENDMDL
