MODEL 1
REMARK minimizedAffinity 0.525758922
REMARK minimizedRMSD -1
REMARK  1 active torsions:
REMARK  status: ('A' for Active; 'I' for Inactive)
REMARK    1  A    between atoms: C1_2  and  C2_3 
ROOT
ATOM      1  C2  UNL d   1       1.221  -0.358   0.636  0.00  0.00    -0.077 A 
ATOM      2  C3  UNL d   1       0.878   0.702  -0.214  0.00  0.00     0.002 A 
ATOM      3  C4  UNL d   1       0.465   1.926   0.315  0.00  0.00     0.002 A 
ATOM      4  C5  UNL d   1       0.394   2.103   1.695  0.00  0.00    -0.004 A 
ATOM      5  C6  UNL d   1       0.731   1.053   2.549  0.00  0.00     0.002 A 
ATOM      6  C7  UNL d   1       1.144  -0.171   2.022  0.00  0.00     0.002 A 
ENDROOT
BRANCH   1   7
ATOM      7  C1  UNL d   1       1.715  -1.663   0.068  0.00  0.00     0.055 C 
ATOM      8  C   UNL d   1       0.563  -2.622  -0.197  0.00  0.00     0.019 C 
ENDBRANCH   1   7
TORSDOF 1
ENDMDL
