MODEL 1
REMARK minimizedAffinity 2.09466696
REMARK minimizedRMSD -1
REMARK  1 active torsions:
REMARK  status: ('A' for Active; 'I' for Inactive)
REMARK    1  A    between atoms: N_2  and  C1_3 
ROOT
ATOM      1  C1  UNL d   1      -2.945   3.014   0.706  0.00  0.00     0.143 A 
ATOM      2  C2  UNL d   1      -3.206   3.213   2.066  0.00  0.00    -0.057 A 
ATOM      3  C3  UNL d   1      -2.330   3.947   2.874  0.00  0.00     0.033 A 
ATOM      4  C4  UNL d   1      -1.158   4.474   2.340  0.00  0.00    -0.042 A 
ATOM      5  C5  UNL d   1      -0.866   4.268   0.996  0.00  0.00     0.033 A 
ATOM      6  C6  UNL d   1      -1.748   3.539   0.193  0.00  0.00    -0.057 A 
ENDROOT
BRANCH   1   7
ATOM      7  N   UNL d   1      -3.727   2.210  -0.127  0.00  0.00    -0.732 N 
ATOM      8  C   UNL d   1      -3.855   0.791   0.126  0.00  0.00     0.284 C 
ATOM      9  H3  UNL d   1      -4.596   2.664  -0.400  0.00  0.00     0.395 HD
ENDBRANCH   1   7
TORSDOF 1
ENDMDL
