MODEL 1
REMARK minimizedAffinity 2.49634075
REMARK minimizedRMSD -1
REMARK  1 active torsions:
REMARK  status: ('A' for Active; 'I' for Inactive)
REMARK    1  A    between atoms: N_2  and  C1_3 
ROOT
ATOM      1  C1  UNL d   1      -0.419   2.702  -0.304  0.00  0.00     0.143 A 
ATOM      2  C2  UNL d   1       0.825   2.066  -0.370  0.00  0.00    -0.057 A 
ATOM      3  C3  UNL d   1       0.948   0.758  -0.855  0.00  0.00     0.033 A 
ATOM      4  C4  UNL d   1      -0.181   0.051  -1.258  0.00  0.00    -0.042 A 
ATOM      5  C5  UNL d   1      -1.431   0.654  -1.177  0.00  0.00     0.033 A 
ATOM      6  C6  UNL d   1      -1.545   1.963  -0.698  0.00  0.00    -0.057 A 
ENDROOT
BRANCH   1   7
ATOM      7  N   UNL d   1      -0.618   3.964   0.261  0.00  0.00    -0.732 N 
ATOM      8  C   UNL d   1       0.122   4.371   1.436  0.00  0.00     0.284 C 
ATOM      9  H3  UNL d   1      -0.716   4.693  -0.442  0.00  0.00     0.395 HD
ENDBRANCH   1   7
TORSDOF 1
ENDMDL
