MODEL 1
REMARK minimizedAffinity 1.73809063
REMARK minimizedRMSD -1
REMARK  1 active torsions:
REMARK  status: ('A' for Active; 'I' for Inactive)
REMARK    1  A    between atoms: N_2  and  C1_3 
ROOT
ATOM      1  C1  UNL d   1       3.047   0.307  -1.815  0.00  0.00     0.143 A 
ATOM      2  C2  UNL d   1       3.729   0.619  -0.634  0.00  0.00    -0.057 A 
ATOM      3  C3  UNL d   1       3.084   0.583   0.608  0.00  0.00     0.033 A 
ATOM      4  C4  UNL d   1       1.733   0.262   0.689  0.00  0.00    -0.042 A 
ATOM      5  C5  UNL d   1       1.029  -0.027  -0.475  0.00  0.00     0.033 A 
ATOM      6  C6  UNL d   1       1.680   0.003  -1.712  0.00  0.00    -0.057 A 
ENDROOT
BRANCH   1   7
ATOM      7  N   UNL d   1       3.607   0.419  -3.090  0.00  0.00    -0.732 N 
ATOM      8  C   UNL d   1       4.649   1.387  -3.354  0.00  0.00     0.284 C 
ATOM      9  H3  UNL d   1       3.759  -0.486  -3.528  0.00  0.00     0.395 HD
ENDBRANCH   1   7
TORSDOF 1
ENDMDL
