MODEL 1
REMARK minimizedAffinity 2.86425567
REMARK minimizedRMSD -1
REMARK  1 active torsions:
REMARK  status: ('A' for Active; 'I' for Inactive)
REMARK    1  A    between atoms: N_2  and  C1_3 
ROOT
ATOM      1  C1  UNL d   1       4.995   2.139  -1.995  0.00  0.00     0.143 A 
ATOM      2  C2  UNL d   1       3.957   1.248  -2.286  0.00  0.00    -0.057 A 
ATOM      3  C3  UNL d   1       3.300   0.542  -1.270  0.00  0.00     0.033 A 
ATOM      4  C4  UNL d   1       3.691   0.694   0.056  0.00  0.00    -0.042 A 
ATOM      5  C5  UNL d   1       4.738   1.556   0.366  0.00  0.00     0.033 A 
ATOM      6  C6  UNL d   1       5.385   2.263  -0.652  0.00  0.00    -0.057 A 
ENDROOT
BRANCH   1   7
ATOM      7  N   UNL d   1       5.753   2.796  -2.968  0.00  0.00    -0.732 N 
ATOM      8  C   UNL d   1       5.567   4.209  -3.217  0.00  0.00     0.284 C 
ATOM      9  H3  UNL d   1       6.725   2.497  -2.970  0.00  0.00     0.395 HD
ENDBRANCH   1   7
TORSDOF 1
ENDMDL
