MODEL 1
REMARK minimizedAffinity 9.53001595
REMARK minimizedRMSD -1
REMARK  1 active torsions:
REMARK  status: ('A' for Active; 'I' for Inactive)
REMARK    1  A    between atoms: N_2  and  C1_3 
ROOT
ATOM      1  C1  UNL d   1       3.949   1.511  -1.773  0.00  0.00     0.143 A 
ATOM      2  C2  UNL d   1       2.860   0.658  -1.983  0.00  0.00    -0.057 A 
ATOM      3  C3  UNL d   1       2.297  -0.072  -0.929  0.00  0.00     0.033 A 
ATOM      4  C4  UNL d   1       2.833   0.016   0.351  0.00  0.00    -0.042 A 
ATOM      5  C5  UNL d   1       3.931   0.839   0.578  0.00  0.00     0.033 A 
ATOM      6  C6  UNL d   1       4.485   1.570  -0.477  0.00  0.00    -0.057 A 
ENDROOT
BRANCH   1   7
ATOM      7  N   UNL d   1       4.615   2.187  -2.798  0.00  0.00    -0.732 N 
ATOM      8  C   UNL d   1       6.000   2.579  -2.644  0.00  0.00     0.284 C 
ATOM      9  H3  UNL d   1       4.388   1.818  -3.719  0.00  0.00     0.395 HD
ENDBRANCH   1   7
TORSDOF 1
ENDMDL
