MODEL 1
REMARK minimizedAffinity -3.82753897
REMARK minimizedRMSD -1
REMARK  1 active torsions:
REMARK  status: ('A' for Active; 'I' for Inactive)
REMARK    1  A    between atoms: N_2  and  C1_3 
ROOT
ATOM      1  C1  UNL d   1      -0.122   0.314   0.065  0.00  0.00     0.143 A 
ATOM      2  C2  UNL d   1      -0.659   0.011   1.321  0.00  0.00    -0.057 A 
ATOM      3  C3  UNL d   1      -0.587   0.924   2.380  0.00  0.00     0.033 A 
ATOM      4  C4  UNL d   1       0.053   2.147   2.209  0.00  0.00    -0.042 A 
ATOM      5  C5  UNL d   1       0.616   2.459   0.977  0.00  0.00     0.033 A 
ATOM      6  C6  UNL d   1       0.534   1.546  -0.079  0.00  0.00    -0.057 A 
ENDROOT
BRANCH   1   7
ATOM      7  N   UNL d   1      -0.076  -0.591  -0.999  0.00  0.00    -0.732 N 
ATOM      8  C   UNL d   1      -1.277  -0.927  -1.734  0.00  0.00     0.284 C 
ATOM      9  H3  UNL d   1       0.746  -0.460  -1.584  0.00  0.00     0.395 HD
ENDBRANCH   1   7
TORSDOF 1
ENDMDL
