MODEL 1
REMARK minimizedAffinity -5.23782349
REMARK minimizedRMSD -1
REMARK  1 active torsions:
REMARK  status: ('A' for Active; 'I' for Inactive)
REMARK    1  A    between atoms: N_2  and  C1_3 
ROOT
ATOM      1  C1  UNL d   1      -0.117  -0.123   0.131  0.00  0.00     0.143 A 
ATOM      2  C2  UNL d   1       0.945   0.579  -0.450  0.00  0.00    -0.057 A 
ATOM      3  C3  UNL d   1       1.572   1.635   0.222  0.00  0.00     0.033 A 
ATOM      4  C4  UNL d   1       1.127   2.028   1.480  0.00  0.00    -0.042 A 
ATOM      5  C5  UNL d   1       0.057   1.361   2.066  0.00  0.00     0.033 A 
ATOM      6  C6  UNL d   1      -0.561   0.303   1.393  0.00  0.00    -0.057 A 
ENDROOT
BRANCH   1   7
ATOM      7  N   UNL d   1      -0.845  -1.117  -0.527  0.00  0.00    -0.732 N 
ATOM      8  C   UNL d   1      -1.452  -0.856  -1.815  0.00  0.00     0.284 C 
ATOM      9  H3  UNL d   1      -0.408  -2.033  -0.452  0.00  0.00     0.395 HD
ENDBRANCH   1   7
TORSDOF 1
ENDMDL
