MODEL 1
REMARK minimizedAffinity -4.0147295
REMARK minimizedRMSD -1
REMARK  1 active torsions:
REMARK  status: ('A' for Active; 'I' for Inactive)
REMARK    1  A    between atoms: N_2  and  C1_3 
ROOT
ATOM      1  C1  UNL d   1      -3.990  -2.144  -1.801  0.00  0.00     0.143 A 
ATOM      2  C2  UNL d   1      -3.879  -1.516  -3.046  0.00  0.00    -0.057 A 
ATOM      3  C3  UNL d   1      -2.636  -1.109  -3.546  0.00  0.00     0.033 A 
ATOM      4  C4  UNL d   1      -1.481  -1.297  -2.793  0.00  0.00    -0.042 A 
ATOM      5  C5  UNL d   1      -1.571  -1.896  -1.542  0.00  0.00     0.033 A 
ATOM      6  C6  UNL d   1      -2.814  -2.306  -1.051  0.00  0.00    -0.057 A 
ENDROOT
BRANCH   1   7
ATOM      7  N   UNL d   1      -5.208  -2.482  -1.206  0.00  0.00    -0.732 N 
ATOM      8  C   UNL d   1      -5.350  -3.721  -0.471  0.00  0.00     0.284 C 
ATOM      9  H3  UNL d   1      -5.661  -1.684  -0.767  0.00  0.00     0.395 HD
ENDBRANCH   1   7
TORSDOF 1
ENDMDL
