MODEL 1
REMARK minimizedAffinity -5.31771612
REMARK minimizedRMSD -1
REMARK  1 active torsions:
REMARK  status: ('A' for Active; 'I' for Inactive)
REMARK    1  A    between atoms: N_2  and  C1_3 
ROOT
ATOM      1  C1  UNL d   1       0.101   0.255   0.445  0.00  0.00     0.143 A 
ATOM      2  C2  UNL d   1       1.137   1.176   0.259  0.00  0.00    -0.057 A 
ATOM      3  C3  UNL d   1       1.297   2.271   1.117  0.00  0.00     0.033 A 
ATOM      4  C4  UNL d   1       0.404   2.480   2.163  0.00  0.00    -0.042 A 
ATOM      5  C5  UNL d   1      -0.648   1.590   2.351  0.00  0.00     0.033 A 
ATOM      6  C6  UNL d   1      -0.799   0.496   1.495  0.00  0.00    -0.057 A 
ENDROOT
BRANCH   1   7
ATOM      7  N   UNL d   1      -0.170  -0.798  -0.433  0.00  0.00    -0.732 N 
ATOM      8  C   UNL d   1      -0.981  -0.584  -1.613  0.00  0.00     0.284 C 
ATOM      9  H3  UNL d   1       0.640  -1.393  -0.587  0.00  0.00     0.395 HD
ENDBRANCH   1   7
TORSDOF 1
ENDMDL
