MODEL 1
REMARK minimizedAffinity -2.34620166
REMARK minimizedRMSD -1
REMARK  1 active torsions:
REMARK  status: ('A' for Active; 'I' for Inactive)
REMARK    1  A    between atoms: N_2  and  C1_3 
ROOT
ATOM      1  C1  UNL d   1      -1.231  -1.174  -1.270  0.00  0.00     0.143 A 
ATOM      2  C2  UNL d   1      -1.228  -0.336  -2.391  0.00  0.00    -0.057 A 
ATOM      3  C3  UNL d   1      -2.019  -0.619  -3.511  0.00  0.00     0.033 A 
ATOM      4  C4  UNL d   1      -2.806  -1.764  -3.543  0.00  0.00    -0.042 A 
ATOM      5  C5  UNL d   1      -2.806  -2.625  -2.451  0.00  0.00     0.033 A 
ATOM      6  C6  UNL d   1      -2.020  -2.333  -1.332  0.00  0.00    -0.057 A 
ENDROOT
BRANCH   1   7
ATOM      7  N   UNL d   1      -0.393  -0.999  -0.166  0.00  0.00    -0.732 N 
ATOM      8  C   UNL d   1      -0.441   0.222   0.610  0.00  0.00     0.284 C 
ATOM      9  H3  UNL d   1      -0.307  -1.844   0.394  0.00  0.00     0.395 HD
ENDBRANCH   1   7
TORSDOF 1
ENDMDL
