MODEL 1
REMARK minimizedAffinity -3.71889448
REMARK minimizedRMSD -1
REMARK  1 active torsions:
REMARK  status: ('A' for Active; 'I' for Inactive)
REMARK    1  A    between atoms: N_2  and  C1_3 
ROOT
ATOM      1  C1  UNL d   1      -1.264  -1.044  -0.316  0.00  0.00     0.143 A 
ATOM      2  C2  UNL d   1      -2.506  -1.464  -0.803  0.00  0.00    -0.057 A 
ATOM      3  C3  UNL d   1      -2.658  -1.899  -2.125  0.00  0.00     0.033 A 
ATOM      4  C4  UNL d   1      -1.572  -1.893  -2.995  0.00  0.00    -0.042 A 
ATOM      5  C5  UNL d   1      -0.334  -1.456  -2.539  0.00  0.00     0.033 A 
ATOM      6  C6  UNL d   1      -0.187  -1.030  -1.216  0.00  0.00    -0.057 A 
ENDROOT
BRANCH   1   7
ATOM      7  N   UNL d   1      -1.069  -0.508   0.960  0.00  0.00    -0.732 N 
ATOM      8  C   UNL d   1      -0.447   0.788   1.128  0.00  0.00     0.284 C 
ATOM      9  H3  UNL d   1      -1.864  -0.670   1.574  0.00  0.00     0.395 HD
ENDBRANCH   1   7
TORSDOF 1
ENDMDL
