MODEL 1
REMARK minimizedAffinity -4.27224255
REMARK minimizedRMSD -1
REMARK  1 active torsions:
REMARK  status: ('A' for Active; 'I' for Inactive)
REMARK    1  A    between atoms: N_2  and  C1_3 
ROOT
ATOM      1  C1  UNL d   1      -0.383   0.104   0.027  0.00  0.00     0.143 A 
ATOM      2  C2  UNL d   1      -0.911   0.600   1.224  0.00  0.00    -0.057 A 
ATOM      3  C3  UNL d   1      -0.372   1.736   1.840  0.00  0.00     0.033 A 
ATOM      4  C4  UNL d   1       0.728   2.380   1.283  0.00  0.00    -0.042 A 
ATOM      5  C5  UNL d   1       1.286   1.890   0.108  0.00  0.00     0.033 A 
ATOM      6  C6  UNL d   1       0.738   0.759  -0.506  0.00  0.00    -0.057 A 
ENDROOT
BRANCH   1   7
ATOM      7  N   UNL d   1      -0.812  -1.078  -0.581  0.00  0.00    -0.732 N 
ATOM      8  C   UNL d   1      -1.583  -1.039  -1.805  0.00  0.00     0.284 C 
ATOM      9  H3  UNL d   1      -0.101  -1.806  -0.562  0.00  0.00     0.395 HD
ENDBRANCH   1   7
TORSDOF 1
ENDMDL
