MODEL 1
REMARK minimizedAffinity -3.73547173
REMARK minimizedRMSD -1
REMARK  1 active torsions:
REMARK  status: ('A' for Active; 'I' for Inactive)
REMARK    1  A    between atoms: N_2  and  C1_3 
ROOT
ATOM      1  C1  UNL d   1       0.262   0.799   0.099  0.00  0.00     0.143 A 
ATOM      2  C2  UNL d   1       1.649   0.866  -0.076  0.00  0.00    -0.057 A 
ATOM      3  C3  UNL d   1       2.424   1.804   0.615  0.00  0.00     0.033 A 
ATOM      4  C4  UNL d   1       1.820   2.715   1.476  0.00  0.00    -0.042 A 
ATOM      5  C5  UNL d   1       0.440   2.684   1.647  0.00  0.00     0.033 A 
ATOM      6  C6  UNL d   1      -0.327   1.740   0.958  0.00  0.00    -0.057 A 
ENDROOT
BRANCH   1   7
ATOM      7  N   UNL d   1      -0.575  -0.046  -0.634  0.00  0.00    -0.732 N 
ATOM      8  C   UNL d   1      -0.350  -1.476  -0.648  0.00  0.00     0.284 C 
ATOM      9  H3  UNL d   1      -1.554   0.220  -0.562  0.00  0.00     0.395 HD
ENDBRANCH   1   7
TORSDOF 1
ENDMDL
