MODEL 1
REMARK minimizedAffinity 0.112492882
REMARK minimizedRMSD -1
REMARK  1 active torsions:
REMARK  status: ('A' for Active; 'I' for Inactive)
REMARK    1  A    between atoms: N_2  and  C1_3 
ROOT
ATOM      1  C1  UNL d   1      -1.025  -0.923  -1.118  0.00  0.00     0.143 A 
ATOM      2  C2  UNL d   1      -2.261  -1.562  -1.262  0.00  0.00    -0.057 A 
ATOM      3  C3  UNL d   1      -2.890  -1.654  -2.510  0.00  0.00     0.033 A 
ATOM      4  C4  UNL d   1      -2.305  -1.081  -3.634  0.00  0.00    -0.042 A 
ATOM      5  C5  UNL d   1      -1.088  -0.419  -3.510  0.00  0.00     0.033 A 
ATOM      6  C6  UNL d   1      -0.462  -0.336  -2.263  0.00  0.00    -0.057 A 
ENDROOT
BRANCH   1   7
ATOM      7  N   UNL d   1      -0.396  -0.713   0.112  0.00  0.00    -0.732 N 
ATOM      8  C   UNL d   1      -1.049   0.053   1.152  0.00  0.00     0.284 C 
ATOM      9  H3  UNL d   1       0.087  -1.543   0.448  0.00  0.00     0.395 HD
ENDBRANCH   1   7
TORSDOF 1
ENDMDL
