MODEL 1
REMARK minimizedAffinity -4.00966311
REMARK minimizedRMSD -1
REMARK  1 active torsions:
REMARK  status: ('A' for Active; 'I' for Inactive)
REMARK    1  A    between atoms: N_2  and  C1_3 
ROOT
ATOM      1  C1  UNL d   1       0.801   0.382   0.060  0.00  0.00     0.143 A 
ATOM      2  C2  UNL d   1       0.131   0.593   1.269  0.00  0.00    -0.057 A 
ATOM      3  C3  UNL d   1       0.194   1.827   1.929  0.00  0.00     0.033 A 
ATOM      4  C4  UNL d   1       0.954   2.866   1.402  0.00  0.00    -0.042 A 
ATOM      5  C5  UNL d   1       1.649   2.671   0.214  0.00  0.00     0.033 A 
ATOM      6  C6  UNL d   1       1.577   1.439  -0.443  0.00  0.00    -0.057 A 
ENDROOT
BRANCH   1   7
ATOM      7  N   UNL d   1       0.858  -0.851  -0.593  0.00  0.00    -0.732 N 
ATOM      8  C   UNL d   1      -0.353  -1.507  -1.037  0.00  0.00     0.284 C 
ATOM      9  H3  UNL d   1       1.627  -0.904  -1.258  0.00  0.00     0.395 HD
ENDBRANCH   1   7
TORSDOF 1
ENDMDL
