MODEL 1
REMARK minimizedAffinity -3.64646506
REMARK minimizedRMSD -1
REMARK  1 active torsions:
REMARK  status: ('A' for Active; 'I' for Inactive)
REMARK    1  A    between atoms: N_2  and  C1_3 
ROOT
ATOM      1  C1  UNL d   1      -0.038   0.019   0.025  0.00  0.00     0.143 A 
ATOM      2  C2  UNL d   1      -0.890  -0.003   1.134  0.00  0.00    -0.057 A 
ATOM      3  C3  UNL d   1      -0.791   0.960   2.146  0.00  0.00     0.033 A 
ATOM      4  C4  UNL d   1       0.184   1.949   2.080  0.00  0.00    -0.042 A 
ATOM      5  C5  UNL d   1       1.058   1.976   0.999  0.00  0.00     0.033 A 
ATOM      6  C6  UNL d   1       0.950   1.016  -0.012  0.00  0.00    -0.057 A 
ENDROOT
BRANCH   1   7
ATOM      7  N   UNL d   1      -0.022  -0.967  -0.964  0.00  0.00    -0.732 N 
ATOM      8  C   UNL d   1      -1.220  -1.280  -1.713  0.00  0.00     0.284 C 
ATOM      9  H3  UNL d   1       0.825  -0.939  -1.527  0.00  0.00     0.395 HD
ENDBRANCH   1   7
TORSDOF 1
ENDMDL
