MODEL 1
REMARK minimizedAffinity -4.89937782
REMARK minimizedRMSD -1
REMARK  0 active torsions:
REMARK  status: ('A' for Active; 'I' for Inactive)
ROOT
ATOM      1  C   UNL d   1       2.203  -2.159   0.225  0.00  0.00     0.020 A 
ATOM      2  C1  UNL d   1       3.433  -1.543   0.452  0.00  0.00     0.020 A 
ATOM      3  C2  UNL d   1       3.536  -0.151   0.406  0.00  0.00     0.034 A 
ATOM      4  C3  UNL d   1       2.407   0.629   0.131  0.00  0.00     0.017 A 
ATOM      5  C4  UNL d   1       1.173   0.010  -0.097  0.00  0.00     0.017 A 
ATOM      6  C5  UNL d   1       1.075  -1.384  -0.049  0.00  0.00     0.034 A 
ATOM      7 Cl   UNL d   1      -0.264   0.907  -0.442  0.00  0.00    -0.070 Cl
ATOM      8 Cl1  UNL d   1       2.608   2.345   0.090  0.00  0.00    -0.070 Cl
ENDROOT
TORSDOF 0
ENDMDL
