MODEL 1
REMARK minimizedAffinity -3.73081827
REMARK minimizedRMSD -1
REMARK  0 active torsions:
REMARK  status: ('A' for Active; 'I' for Inactive)
ROOT
ATOM      1  C   UNL d   1       2.342  -1.687   1.278  0.00  0.00     0.020 A 
ATOM      2  C1  UNL d   1       2.273  -0.411   1.835  0.00  0.00     0.020 A 
ATOM      3  C2  UNL d   1       1.491   0.574   1.229  0.00  0.00     0.034 A 
ATOM      4  C3  UNL d   1       0.775   0.286   0.062  0.00  0.00     0.017 A 
ATOM      5  C4  UNL d   1       0.845  -0.995  -0.498  0.00  0.00     0.017 A 
ATOM      6  C5  UNL d   1       1.629  -1.979   0.114  0.00  0.00     0.034 A 
ATOM      7 Cl   UNL d   1      -0.010  -1.427  -1.936  0.00  0.00    -0.070 Cl
ATOM      8 Cl1  UNL d   1      -0.171   1.553  -0.634  0.00  0.00    -0.070 Cl
ENDROOT
TORSDOF 0
ENDMDL
