MODEL 1
REMARK minimizedAffinity -5.49007988
REMARK minimizedRMSD -1
REMARK  0 active torsions:
REMARK  status: ('A' for Active; 'I' for Inactive)
ROOT
ATOM      1  C   UNL d   1       2.363   0.685   1.066  0.00  0.00     0.020 A 
ATOM      2  C1  UNL d   1       2.724  -0.662   1.097  0.00  0.00     0.020 A 
ATOM      3  C2  UNL d   1       1.887  -1.622   0.524  0.00  0.00     0.034 A 
ATOM      4  C3  UNL d   1       0.685  -1.237  -0.081  0.00  0.00     0.017 A 
ATOM      5  C4  UNL d   1       0.324   0.114  -0.111  0.00  0.00     0.017 A 
ATOM      6  C5  UNL d   1       1.166   1.072   0.463  0.00  0.00     0.034 A 
ATOM      7 Cl   UNL d   1      -1.143   0.666  -0.841  0.00  0.00    -0.070 Cl
ATOM      8 Cl1  UNL d   1      -0.301  -2.478  -0.770  0.00  0.00    -0.070 Cl
ENDROOT
TORSDOF 0
ENDMDL
