MODEL 1
REMARK minimizedAffinity -4.60875702
REMARK minimizedRMSD -1
REMARK  0 active torsions:
REMARK  status: ('A' for Active; 'I' for Inactive)
ROOT
ATOM      1  C   UNL d   1       2.287  -1.870   0.571  0.00  0.00     0.020 A 
ATOM      2  C1  UNL d   1       1.055  -2.232   0.026  0.00  0.00     0.020 A 
ATOM      3  C2  UNL d   1       0.077  -1.261  -0.197  0.00  0.00     0.034 A 
ATOM      4  C3  UNL d   1       0.329   0.078   0.126  0.00  0.00     0.017 A 
ATOM      5  C4  UNL d   1       1.565   0.441   0.672  0.00  0.00     0.017 A 
ATOM      6  C5  UNL d   1       2.541  -0.536   0.893  0.00  0.00     0.034 A 
ATOM      7 Cl   UNL d   1       1.949   2.072   1.095  0.00  0.00    -0.070 Cl
ATOM      8 Cl1  UNL d   1      -0.926   1.227  -0.177  0.00  0.00    -0.070 Cl
ENDROOT
TORSDOF 0
ENDMDL
