MODEL 1
REMARK minimizedAffinity -4.62102413
REMARK minimizedRMSD -1
REMARK  0 active torsions:
REMARK  status: ('A' for Active; 'I' for Inactive)
ROOT
ATOM      1  C   UNL d   1      -0.446  -0.348  -0.627  0.00  0.00     0.020 A 
ATOM      2  C1  UNL d   1       0.063  -1.638  -0.482  0.00  0.00     0.020 A 
ATOM      3  C2  UNL d   1       1.382  -1.826  -0.063  0.00  0.00     0.034 A 
ATOM      4  C3  UNL d   1       2.197  -0.721   0.212  0.00  0.00     0.017 A 
ATOM      5  C4  UNL d   1       1.685   0.573   0.067  0.00  0.00     0.017 A 
ATOM      6  C5  UNL d   1       0.364   0.755  -0.353  0.00  0.00     0.034 A 
ATOM      7 Cl   UNL d   1       2.629   1.985   0.388  0.00  0.00    -0.070 Cl
ATOM      8 Cl1  UNL d   1       3.817  -1.027   0.727  0.00  0.00    -0.070 Cl
ENDROOT
TORSDOF 0
ENDMDL
