MODEL 1
REMARK minimizedAffinity -3.83249712
REMARK minimizedRMSD -1
REMARK  0 active torsions:
REMARK  status: ('A' for Active; 'I' for Inactive)
ROOT
ATOM      1  C   UNL d   1       0.504  -1.663  -0.046  0.00  0.00     0.020 A 
ATOM      2  C1  UNL d   1       1.836  -2.069   0.009  0.00  0.00     0.020 A 
ATOM      3  C2  UNL d   1       2.857  -1.116  -0.018  0.00  0.00     0.034 A 
ATOM      4  C3  UNL d   1       2.547   0.246  -0.102  0.00  0.00     0.017 A 
ATOM      5  C4  UNL d   1       1.209   0.652  -0.158  0.00  0.00     0.017 A 
ATOM      6  C5  UNL d   1       0.191  -0.306  -0.130  0.00  0.00     0.034 A 
ATOM      7 Cl   UNL d   1       0.748   2.314  -0.261  0.00  0.00    -0.070 Cl
ATOM      8 Cl1  UNL d   1       3.860   1.369  -0.131  0.00  0.00    -0.070 Cl
ENDROOT
TORSDOF 0
ENDMDL
