MODEL 1
REMARK minimizedAffinity -5.16924953
REMARK minimizedRMSD -1
REMARK  0 active torsions:
REMARK  status: ('A' for Active; 'I' for Inactive)
ROOT
ATOM      1  C   UNL d   1       2.226  -1.418   0.285  0.00  0.00     0.020 A 
ATOM      2  C1  UNL d   1       1.891  -0.427   1.208  0.00  0.00     0.020 A 
ATOM      3  C2  UNL d   1       0.669   0.240   1.104  0.00  0.00     0.034 A 
ATOM      4  C3  UNL d   1      -0.224  -0.082   0.075  0.00  0.00     0.017 A 
ATOM      5  C4  UNL d   1       0.113  -1.076  -0.850  0.00  0.00     0.017 A 
ATOM      6  C5  UNL d   1       1.338  -1.741  -0.742  0.00  0.00     0.034 A 
ATOM      7 Cl   UNL d   1      -0.937  -1.529  -2.147  0.00  0.00    -0.070 Cl
ATOM      8 Cl1  UNL d   1      -1.718   0.783   0.007  0.00  0.00    -0.070 Cl
ENDROOT
TORSDOF 0
ENDMDL
