MODEL 1
REMARK minimizedAffinity -4.40212536
REMARK minimizedRMSD -1
REMARK  0 active torsions:
REMARK  status: ('A' for Active; 'I' for Inactive)
ROOT
ATOM      1  C   UNL d   1       2.335  -0.778   1.258  0.00  0.00     0.020 A 
ATOM      2  C1  UNL d   1       2.610  -1.789   0.338  0.00  0.00     0.020 A 
ATOM      3  C2  UNL d   1       1.657  -2.136  -0.623  0.00  0.00     0.034 A 
ATOM      4  C3  UNL d   1       0.426  -1.473  -0.665  0.00  0.00     0.017 A 
ATOM      5  C4  UNL d   1       0.151  -0.458   0.260  0.00  0.00     0.017 A 
ATOM      6  C5  UNL d   1       1.108  -0.115   1.219  0.00  0.00     0.034 A 
ATOM      7 Cl   UNL d   1      -1.346   0.406   0.270  0.00  0.00    -0.070 Cl
ATOM      8 Cl1  UNL d   1      -0.705  -1.953  -1.880  0.00  0.00    -0.070 Cl
ENDROOT
TORSDOF 0
ENDMDL
