MODEL 1
REMARK minimizedAffinity -3.26545429
REMARK minimizedRMSD -1
REMARK  0 active torsions:
REMARK  status: ('A' for Active; 'I' for Inactive)
ROOT
ATOM      1  C4' PXY d   1       4.457  -1.119  -1.210  0.00  0.00     0.077 C 
ATOM      2  C1' PXY d   1      -0.721  -0.071   1.136  0.00  0.00     0.077 C 
ATOM      3  C1  PXY d   1       0.637  -0.358   0.526  0.00  0.00    -0.082 A 
ATOM      4  C2  PXY d   1       1.426   0.648   0.186  0.00  0.00     0.003 A 
ATOM      5  C3  PXY d   1       2.644   0.407  -0.396  0.00  0.00     0.003 A 
ATOM      6  C4  PXY d   1       3.081  -0.877  -0.582  0.00  0.00    -0.082 A 
ATOM      7  C5  PXY d   1       2.286  -1.909  -0.228  0.00  0.00     0.003 A 
ATOM      8  C6  PXY d   1       1.036  -1.643   0.323  0.00  0.00     0.003 A 
ENDROOT
TORSDOF 0
ENDMDL
