MODEL 1
REMARK minimizedAffinity -5.32993364
REMARK minimizedRMSD -1
REMARK  0 active torsions:
REMARK  status: ('A' for Active; 'I' for Inactive)
ROOT
ATOM      1  C4' PXY d   1      -0.023  -1.142   1.716  0.00  0.00     0.077 C 
ATOM      2  C1' PXY d   1       3.979   0.125  -2.257  0.00  0.00     0.077 C 
ATOM      3  C1  PXY d   1       2.928  -0.219  -1.221  0.00  0.00    -0.082 A 
ATOM      4  C2  PXY d   1       2.290   0.753  -0.588  0.00  0.00     0.003 A 
ATOM      5  C3  PXY d   1       1.359   0.460   0.375  0.00  0.00     0.003 A 
ATOM      6  C4  PXY d   1       1.039  -0.842   0.656  0.00  0.00    -0.082 A 
ATOM      7  C5  PXY d   1       1.677  -1.839   0.007  0.00  0.00     0.003 A 
ATOM      8  C6  PXY d   1       2.649  -1.520  -0.938  0.00  0.00     0.003 A 
ENDROOT
TORSDOF 0
ENDMDL
