MODEL 1
REMARK minimizedAffinity -6.22233009
REMARK minimizedRMSD -1
REMARK  0 active torsions:
REMARK  status: ('A' for Active; 'I' for Inactive)
ROOT
ATOM      1  C4' PXY d   1       0.405  -0.042   0.873  0.00  0.00     0.077 C 
ATOM      2  C1' PXY d   1       4.914  -0.059  -2.744  0.00  0.00     0.077 C 
ATOM      3  C1  PXY d   1       3.734  -0.042  -1.793  0.00  0.00    -0.082 A 
ATOM      4  C2  PXY d   1       3.277  -1.181  -1.297  0.00  0.00     0.003 A 
ATOM      5  C3  PXY d   1       2.191  -1.186  -0.460  0.00  0.00     0.003 A 
ATOM      6  C4  PXY d   1       1.599  -0.010  -0.084  0.00  0.00    -0.082 A 
ATOM      7  C5  PXY d   1       2.067   1.157  -0.577  0.00  0.00     0.003 A 
ATOM      8  C6  PXY d   1       3.144   1.138  -1.458  0.00  0.00     0.003 A 
ENDROOT
TORSDOF 0
ENDMDL
