MODEL 1
REMARK minimizedAffinity -4.89254713
REMARK minimizedRMSD -1
REMARK  0 active torsions:
REMARK  status: ('A' for Active; 'I' for Inactive)
ROOT
ATOM      1  C4' PXY d   1       0.262  -1.060   0.981  0.00  0.00     0.077 C 
ATOM      2  C1' PXY d   1       5.125  -0.257  -2.039  0.00  0.00     0.077 C 
ATOM      3  C1  PXY d   1       3.851  -0.456  -1.242  0.00  0.00    -0.082 A 
ATOM      4  C2  PXY d   1       3.450  -1.681  -0.945  0.00  0.00     0.003 A 
ATOM      5  C3  PXY d   1       2.283  -1.880  -0.252  0.00  0.00     0.003 A 
ATOM      6  C4  PXY d   1       1.547  -0.812   0.186  0.00  0.00    -0.082 A 
ATOM      7  C5  PXY d   1       1.955   0.442  -0.104  0.00  0.00     0.003 A 
ATOM      8  C6  PXY d   1       3.121   0.621  -0.843  0.00  0.00     0.003 A 
ENDROOT
TORSDOF 0
ENDMDL
