MODEL 1
REMARK minimizedAffinity -2.56986856
REMARK minimizedRMSD -1
REMARK  0 active torsions:
REMARK  status: ('A' for Active; 'I' for Inactive)
ROOT
ATOM      1  C4' PXY d   1       0.331  -0.709   0.708  0.00  0.00     0.077 C 
ATOM      2  C1' PXY d   1       5.210  -0.559  -2.387  0.00  0.00     0.077 C 
ATOM      3  C1  PXY d   1       3.933  -0.586  -1.571  0.00  0.00    -0.082 A 
ATOM      4  C2  PXY d   1       3.441  -1.745  -1.165  0.00  0.00     0.003 A 
ATOM      5  C3  PXY d   1       2.269  -1.790  -0.454  0.00  0.00     0.003 A 
ATOM      6  C4  PXY d   1       1.623  -0.633  -0.110  0.00  0.00    -0.082 A 
ATOM      7  C5  PXY d   1       2.124   0.554  -0.511  0.00  0.00     0.003 A 
ATOM      8  C6  PXY d   1       3.293   0.575  -1.268  0.00  0.00     0.003 A 
ENDROOT
TORSDOF 0
ENDMDL
