MODEL 1
REMARK minimizedAffinity -2.62200522
REMARK minimizedRMSD -1
REMARK  0 active torsions:
REMARK  status: ('A' for Active; 'I' for Inactive)
ROOT
ATOM      1  C4' PXY d   1       0.441  -0.736   0.892  0.00  0.00     0.077 C 
ATOM      2  C1' PXY d   1       5.183  -0.679  -2.414  0.00  0.00     0.077 C 
ATOM      3  C1  PXY d   1       3.941  -0.682  -1.544  0.00  0.00    -0.082 A 
ATOM      4  C2  PXY d   1       3.505  -1.820  -1.029  0.00  0.00     0.003 A 
ATOM      5  C3  PXY d   1       2.366  -1.845  -0.267  0.00  0.00     0.003 A 
ATOM      6  C4  PXY d   1       1.696  -0.685   0.016  0.00  0.00    -0.082 A 
ATOM      7  C5  PXY d   1       2.140   0.482  -0.497  0.00  0.00     0.003 A 
ATOM      8  C6  PXY d   1       3.276   0.480  -1.302  0.00  0.00     0.003 A 
ENDROOT
TORSDOF 0
ENDMDL
