MODEL 1
REMARK minimizedAffinity -3.79545403
REMARK minimizedRMSD -1
REMARK  0 active torsions:
REMARK  status: ('A' for Active; 'I' for Inactive)
ROOT
ATOM      1  C4' PXY d   1      -0.015  -0.856   1.781  0.00  0.00     0.077 C 
ATOM      2  C1' PXY d   1       4.287   0.163  -1.943  0.00  0.00     0.077 C 
ATOM      3  C1  PXY d   1       3.159  -0.092  -0.963  0.00  0.00    -0.082 A 
ATOM      4  C2  PXY d   1       2.951  -1.317  -0.509  0.00  0.00     0.003 A 
ATOM      5  C3  PXY d   1       1.916  -1.571   0.353  0.00  0.00     0.003 A 
ATOM      6  C4  PXY d   1       1.118  -0.551   0.797  0.00  0.00    -0.082 A 
ATOM      7  C5  PXY d   1       1.331   0.704   0.347  0.00  0.00     0.003 A 
ATOM      8  C6  PXY d   1       2.361   0.934  -0.560  0.00  0.00     0.003 A 
ENDROOT
TORSDOF 0
ENDMDL
