MODEL 1
REMARK minimizedAffinity -3.73384929
REMARK minimizedRMSD -1
REMARK  0 active torsions:
REMARK  status: ('A' for Active; 'I' for Inactive)
ROOT
ATOM      1  C4' PXY d   1       0.029  -0.961   0.816  0.00  0.00     0.077 C 
ATOM      2  C1' PXY d   1       4.875  -0.325  -2.270  0.00  0.00     0.077 C 
ATOM      3  C1  PXY d   1       3.606  -0.480  -1.455  0.00  0.00    -0.082 A 
ATOM      4  C2  PXY d   1       3.173  -1.691  -1.142  0.00  0.00     0.003 A 
ATOM      5  C3  PXY d   1       2.010  -1.850  -0.434  0.00  0.00     0.003 A 
ATOM      6  C4  PXY d   1       1.310  -0.757   0.004  0.00  0.00    -0.082 A 
ATOM      7  C5  PXY d   1       1.751   0.482  -0.303  0.00  0.00     0.003 A 
ATOM      8  C6  PXY d   1       2.912   0.621  -1.058  0.00  0.00     0.003 A 
ENDROOT
TORSDOF 0
ENDMDL
