MODEL 1
REMARK minimizedAffinity -2.36864853
REMARK minimizedRMSD -1
REMARK  0 active torsions:
REMARK  status: ('A' for Active; 'I' for Inactive)
ROOT
ATOM      1  C4' PXY d   1      -0.013  -0.729   1.615  0.00  0.00     0.077 C 
ATOM      2  C1' PXY d   1       4.235   0.369  -2.148  0.00  0.00     0.077 C 
ATOM      3  C1  PXY d   1       3.123   0.068  -1.162  0.00  0.00    -0.082 A 
ATOM      4  C2  PXY d   1       2.139   0.938  -1.001  0.00  0.00     0.003 A 
ATOM      5  C3  PXY d   1       1.143   0.696  -0.090  0.00  0.00     0.003 A 
ATOM      6  C4  PXY d   1       1.125  -0.472   0.624  0.00  0.00    -0.082 A 
ATOM      7  C5  PXY d   1       2.120  -1.369   0.457  0.00  0.00     0.003 A 
ATOM      8  C6  PXY d   1       3.144  -1.086  -0.442  0.00  0.00     0.003 A 
ENDROOT
TORSDOF 0
ENDMDL
