MODEL 1
REMARK minimizedAffinity 4.4279108
REMARK minimizedRMSD -1
REMARK  0 active torsions:
REMARK  status: ('A' for Active; 'I' for Inactive)
ROOT
ATOM      1  C4' PXY d   1       3.660   3.071   0.788  0.00  0.00     0.077 C 
ATOM      2  C1' PXY d   1       0.113  -1.493   0.670  0.00  0.00     0.077 C 
ATOM      3  C1  PXY d   1       1.041  -0.294   0.714  0.00  0.00    -0.082 A 
ATOM      4  C2  PXY d   1       1.320   0.358  -0.403  0.00  0.00     0.003 A 
ATOM      5  C3  PXY d   1       2.182   1.424  -0.387  0.00  0.00     0.003 A 
ATOM      6  C4  PXY d   1       2.721   1.861   0.793  0.00  0.00    -0.082 A 
ATOM      7  C5  PXY d   1       2.433   1.207   1.939  0.00  0.00     0.003 A 
ATOM      8  C6  PXY d   1       1.588   0.102   1.895  0.00  0.00     0.003 A 
ENDROOT
TORSDOF 0
ENDMDL
