MODEL 1
REMARK minimizedAffinity -1.35404706
REMARK minimizedRMSD -1
REMARK  0 active torsions:
REMARK  status: ('A' for Active; 'I' for Inactive)
ROOT
ATOM      1  C4' PXY d   1       0.926  -1.139   0.764  0.00  0.00     0.077 C 
ATOM      2  C1' PXY d   1       5.194  -0.233  -3.027  0.00  0.00     0.077 C 
ATOM      3  C1  PXY d   1       4.076  -0.458  -2.029  0.00  0.00    -0.082 A 
ATOM      4  C2  PXY d   1       3.834  -1.680  -1.582  0.00  0.00     0.003 A 
ATOM      5  C3  PXY d   1       2.805  -1.907  -0.704  0.00  0.00     0.003 A 
ATOM      6  C4  PXY d   1       2.051  -0.864  -0.237  0.00  0.00    -0.082 A 
ATOM      7  C5  PXY d   1       2.299   0.387  -0.680  0.00  0.00     0.003 A 
ATOM      8  C6  PXY d   1       3.320   0.590  -1.603  0.00  0.00     0.003 A 
ENDROOT
TORSDOF 0
ENDMDL
