MODEL 1
REMARK minimizedAffinity -3.09414482
REMARK minimizedRMSD -1
REMARK  0 active torsions:
REMARK  status: ('A' for Active; 'I' for Inactive)
ROOT
ATOM      1  C4' PXY d   1       5.364  -0.370  -2.700  0.00  0.00     0.077 C 
ATOM      2  C1' PXY d   1       0.629  -0.529   0.612  0.00  0.00     0.077 C 
ATOM      3  C1  PXY d   1       1.867  -0.476  -0.262  0.00  0.00    -0.082 A 
ATOM      4  C2  PXY d   1       2.530  -1.591  -0.525  0.00  0.00     0.003 A 
ATOM      5  C3  PXY d   1       3.669  -1.557  -1.288  0.00  0.00     0.003 A 
ATOM      6  C4  PXY d   1       4.104  -0.377  -1.831  0.00  0.00    -0.082 A 
ATOM      7  C5  PXY d   1       3.427   0.762  -1.576  0.00  0.00     0.003 A 
ATOM      8  C6  PXY d   1       2.297   0.713  -0.766  0.00  0.00     0.003 A 
ENDROOT
TORSDOF 0
ENDMDL
