MODEL 1
REMARK minimizedAffinity -2.73889518
REMARK minimizedRMSD -1
REMARK  0 active torsions:
REMARK  status: ('A' for Active; 'I' for Inactive)
ROOT
ATOM      1  C4' PXY d   1       0.093  -0.771   1.818  0.00  0.00     0.077 C 
ATOM      2  C1' PXY d   1       4.291  -0.476  -2.145  0.00  0.00     0.077 C 
ATOM      3  C1  PXY d   1       3.187  -0.541  -1.108  0.00  0.00    -0.082 A 
ATOM      4  C2  PXY d   1       3.227  -1.471  -0.168  0.00  0.00     0.003 A 
ATOM      5  C3  PXY d   1       2.221  -1.564   0.759  0.00  0.00     0.003 A 
ATOM      6  C4  PXY d   1       1.191  -0.662   0.756  0.00  0.00    -0.082 A 
ATOM      7  C5  PXY d   1       1.148   0.296  -0.194  0.00  0.00     0.003 A 
ATOM      8  C6  PXY d   1       2.158   0.348  -1.151  0.00  0.00     0.003 A 
ENDROOT
TORSDOF 0
ENDMDL
