MODEL 1
REMARK minimizedAffinity -4.83509922
REMARK minimizedRMSD -1
REMARK  0 active torsions:
REMARK  status: ('A' for Active; 'I' for Inactive)
ROOT
ATOM      1  C4' PXY d   1       5.015  -0.118  -2.465  0.00  0.00     0.077 C 
ATOM      2  C1' PXY d   1       0.330  -0.934   0.821  0.00  0.00     0.077 C 
ATOM      3  C1  PXY d   1       1.553  -0.709  -0.046  0.00  0.00    -0.082 A 
ATOM      4  C2  PXY d   1       2.350  -1.727  -0.328  0.00  0.00     0.003 A 
ATOM      5  C3  PXY d   1       3.478  -1.535  -1.084  0.00  0.00     0.003 A 
ATOM      6  C4  PXY d   1       3.764  -0.300  -1.602  0.00  0.00    -0.082 A 
ATOM      7  C5  PXY d   1       2.949   0.741  -1.327  0.00  0.00     0.003 A 
ATOM      8  C6  PXY d   1       1.832   0.534  -0.523  0.00  0.00     0.003 A 
ENDROOT
TORSDOF 0
ENDMDL
