MODEL 1
REMARK minimizedAffinity -1.61800969
REMARK minimizedRMSD -1
REMARK  0 active torsions:
REMARK  status: ('A' for Active; 'I' for Inactive)
ROOT
ATOM      1  C4' PXY d   1       5.529  -0.259  -2.293  0.00  0.00     0.077 C 
ATOM      2  C1' PXY d   1       0.793   0.136   0.997  0.00  0.00     0.077 C 
ATOM      3  C1  PXY d   1       2.038   0.021   0.140  0.00  0.00    -0.082 A 
ATOM      4  C2  PXY d   1       2.569   1.110  -0.391  0.00  0.00     0.003 A 
ATOM      5  C3  PXY d   1       3.677   1.021  -1.195  0.00  0.00     0.003 A 
ATOM      6  C4  PXY d   1       4.278  -0.190  -1.413  0.00  0.00    -0.082 A 
ATOM      7  C5  PXY d   1       3.748  -1.305  -0.866  0.00  0.00     0.003 A 
ATOM      8  C6  PXY d   1       2.600  -1.198  -0.087  0.00  0.00     0.003 A 
ENDROOT
TORSDOF 0
ENDMDL
