MODEL 1
REMARK minimizedAffinity -4.71205282
REMARK minimizedRMSD -1
REMARK  0 active torsions:
REMARK  status: ('A' for Active; 'I' for Inactive)
ROOT
ATOM      1  C4' PXY d   1       4.505  -0.002  -2.944  0.00  0.00     0.077 C 
ATOM      2  C1' PXY d   1       0.561  -1.259   1.091  0.00  0.00     0.077 C 
ATOM      3  C1  PXY d   1       1.588  -0.919   0.029  0.00  0.00    -0.082 A 
ATOM      4  C2  PXY d   1       2.415  -1.857  -0.405  0.00  0.00     0.003 A 
ATOM      5  C3  PXY d   1       3.371  -1.559  -1.342  0.00  0.00     0.003 A 
ATOM      6  C4  PXY d   1       3.446  -0.302  -1.880  0.00  0.00    -0.082 A 
ATOM      7  C5  PXY d   1       2.598   0.657  -1.450  0.00  0.00     0.003 A 
ATOM      8  C6  PXY d   1       1.662   0.345  -0.468  0.00  0.00     0.003 A 
ENDROOT
TORSDOF 0
ENDMDL
