MODEL 1
REMARK minimizedAffinity -2.32426333
REMARK minimizedRMSD -1
REMARK  0 active torsions:
REMARK  status: ('A' for Active; 'I' for Inactive)
ROOT
ATOM      1  C4' PXY d   1       4.442  -0.043  -2.367  0.00  0.00     0.077 C 
ATOM      2  C1' PXY d   1      -0.284  -0.458   0.936  0.00  0.00     0.077 C 
ATOM      3  C1  PXY d   1       0.949  -0.341   0.063  0.00  0.00    -0.082 A 
ATOM      4  C2  PXY d   1       1.817  -1.338   0.019  0.00  0.00     0.003 A 
ATOM      5  C3  PXY d   1       2.954  -1.236  -0.741  0.00  0.00     0.003 A 
ATOM      6  C4  PXY d   1       3.178  -0.122  -1.506  0.00  0.00    -0.082 A 
ATOM      7  C5  PXY d   1       2.292   0.896  -1.475  0.00  0.00     0.003 A 
ATOM      8  C6  PXY d   1       1.165   0.789  -0.665  0.00  0.00     0.003 A 
ENDROOT
TORSDOF 0
ENDMDL
