MODEL 1
REMARK minimizedAffinity -1.0724566
REMARK minimizedRMSD -1
REMARK  0 active torsions:
REMARK  status: ('A' for Active; 'I' for Inactive)
ROOT
ATOM      1  C4' PXY d   1       3.932   0.050  -2.810  0.00  0.00     0.077 C 
ATOM      2  C1' PXY d   1       0.342  -0.921   1.615  0.00  0.00     0.077 C 
ATOM      3  C1  PXY d   1       1.274  -0.659   0.448  0.00  0.00    -0.082 A 
ATOM      4  C2  PXY d   1       2.283  -1.485   0.219  0.00  0.00     0.003 A 
ATOM      5  C3  PXY d   1       3.154  -1.245  -0.812  0.00  0.00     0.003 A 
ATOM      6  C4  PXY d   1       2.960  -0.180  -1.650  0.00  0.00    -0.082 A 
ATOM      7  C5  PXY d   1       1.927   0.660  -1.429  0.00  0.00     0.003 A 
ATOM      8  C6  PXY d   1       1.078   0.423  -0.352  0.00  0.00     0.003 A 
ENDROOT
TORSDOF 0
ENDMDL
