MODEL 1
REMARK minimizedAffinity -4.37512875
REMARK minimizedRMSD -1
REMARK  0 active torsions:
REMARK  status: ('A' for Active; 'I' for Inactive)
ROOT
ATOM      1  C4' PXY d   1       0.579  -0.754   0.467  0.00  0.00     0.077 C 
ATOM      2  C1' PXY d   1       5.432  -0.085  -2.601  0.00  0.00     0.077 C 
ATOM      3  C1  PXY d   1       4.160  -0.248  -1.792  0.00  0.00    -0.082 A 
ATOM      4  C2  PXY d   1       3.787  -1.454  -1.396  0.00  0.00     0.003 A 
ATOM      5  C3  PXY d   1       2.623  -1.624  -0.692  0.00  0.00     0.003 A 
ATOM      6  C4  PXY d   1       1.861  -0.541  -0.343  0.00  0.00    -0.082 A 
ATOM      7  C5  PXY d   1       2.240   0.694  -0.734  0.00  0.00     0.003 A 
ATOM      8  C6  PXY d   1       3.404   0.840  -1.484  0.00  0.00     0.003 A 
ENDROOT
TORSDOF 0
ENDMDL
