MODEL 1
REMARK minimizedAffinity 7.77491856
REMARK minimizedRMSD -1
REMARK  1 active torsions:
REMARK  status: ('A' for Active; 'I' for Inactive)
REMARK    1  A    between atoms: C1_2  and  C2_3 
ROOT
ATOM      1  C2  UNL d   1      -5.743   4.553   4.533  0.00  0.00    -0.077 A 
ATOM      2  C3  UNL d   1      -5.473   3.198   4.771  0.00  0.00     0.002 A 
ATOM      3  C4  UNL d   1      -5.461   2.284   3.715  0.00  0.00     0.002 A 
ATOM      4  C5  UNL d   1      -5.714   2.716   2.415  0.00  0.00    -0.004 A 
ATOM      5  C6  UNL d   1      -5.985   4.061   2.168  0.00  0.00     0.002 A 
ATOM      6  C7  UNL d   1      -5.999   4.976   3.222  0.00  0.00     0.002 A 
ENDROOT
BRANCH   1   7
ATOM      7  C1  UNL d   1      -5.708   5.548   5.663  0.00  0.00     0.055 C 
ATOM      8  C   UNL d   1      -4.285   5.999   5.959  0.00  0.00     0.019 C 
ENDBRANCH   1   7
TORSDOF 1
ENDMDL
