MODEL 1
REMARK minimizedAffinity 15.4664583
REMARK minimizedRMSD -1
REMARK  1 active torsions:
REMARK  status: ('A' for Active; 'I' for Inactive)
REMARK    1  A    between atoms: C1_2  and  C2_3 
ROOT
ATOM      1  C2  UNL d   1      -3.990   2.782   1.064  0.00  0.00    -0.077 A 
ATOM      2  C3  UNL d   1      -3.620   1.576   0.453  0.00  0.00     0.002 A 
ATOM      3  C4  UNL d   1      -2.368   1.012   0.704  0.00  0.00     0.002 A 
ATOM      4  C5  UNL d   1      -1.478   1.644   1.570  0.00  0.00    -0.004 A 
ATOM      5  C6  UNL d   1      -1.836   2.845   2.181  0.00  0.00     0.002 A 
ATOM      6  C7  UNL d   1      -3.087   3.411   1.930  0.00  0.00     0.002 A 
ENDROOT
BRANCH   1   7
ATOM      7  C1  UNL d   1      -5.359   3.366   0.833  0.00  0.00     0.055 C 
ATOM      8  C   UNL d   1      -5.999   3.811   2.140  0.00  0.00     0.019 C 
ENDBRANCH   1   7
TORSDOF 1
ENDMDL
