MODEL 1
REMARK minimizedAffinity 9.51796913
REMARK minimizedRMSD -1
REMARK  1 active torsions:
REMARK  status: ('A' for Active; 'I' for Inactive)
REMARK    1  A    between atoms: C1_2  and  C2_3 
ROOT
ATOM      1  C2  UNL d   1      -4.936   4.511   3.717  0.00  0.00    -0.077 A 
ATOM      2  C3  UNL d   1      -5.930   4.893   4.629  0.00  0.00     0.002 A 
ATOM      3  C4  UNL d   1      -5.599   5.633   5.766  0.00  0.00     0.002 A 
ATOM      4  C5  UNL d   1      -4.276   6.000   6.000  0.00  0.00    -0.004 A 
ATOM      5  C6  UNL d   1      -3.279   5.622   5.100  0.00  0.00     0.002 A 
ATOM      6  C7  UNL d   1      -3.608   4.882   3.964  0.00  0.00     0.002 A 
ENDROOT
BRANCH   1   7
ATOM      7  C1  UNL d   1      -5.298   3.755   2.465  0.00  0.00     0.055 C 
ATOM      8  C   UNL d   1      -4.097   3.010   1.901  0.00  0.00     0.019 C 
ENDBRANCH   1   7
TORSDOF 1
ENDMDL
