MODEL 1
REMARK minimizedAffinity 2.05179954
REMARK minimizedRMSD -1
REMARK  1 active torsions:
REMARK  status: ('A' for Active; 'I' for Inactive)
REMARK    1  A    between atoms: C1_2  and  C2_3 
ROOT
ATOM      1  C2  UNL d   1       3.706  -5.987   3.455  0.00  0.00    -0.077 A 
ATOM      2  C3  UNL d   1       3.233  -5.988   4.775  0.00  0.00     0.002 A 
ATOM      3  C4  UNL d   1       4.127  -5.950   5.846  0.00  0.00     0.002 A 
ATOM      4  C5  UNL d   1       5.500  -5.907   5.609  0.00  0.00    -0.004 A 
ATOM      5  C6  UNL d   1       5.980  -5.908   4.300  0.00  0.00     0.002 A 
ATOM      6  C7  UNL d   1       5.088  -5.947   3.228  0.00  0.00     0.002 A 
ENDROOT
BRANCH   1   7
ATOM      7  C1  UNL d   1       2.742  -5.978   2.298  0.00  0.00     0.055 C 
ATOM      8  C   UNL d   1       1.299  -5.922   2.780  0.00  0.00     0.019 C 
ENDBRANCH   1   7
TORSDOF 1
ENDMDL
