MODEL 1
REMARK minimizedAffinity 11.5185146
REMARK minimizedRMSD -1
REMARK  1 active torsions:
REMARK  status: ('A' for Active; 'I' for Inactive)
REMARK    1  A    between atoms: C1_2  and  C2_3 
ROOT
ATOM      1  C2  UNL d   1       3.440   1.927  -5.648  0.00  0.00    -0.077 A 
ATOM      2  C3  UNL d   1       2.297   1.552  -4.928  0.00  0.00     0.002 A 
ATOM      3  C4  UNL d   1       2.095   0.219  -4.567  0.00  0.00     0.002 A 
ATOM      4  C5  UNL d   1       3.033  -0.750  -4.919  0.00  0.00    -0.004 A 
ATOM      5  C6  UNL d   1       4.172  -0.388  -5.637  0.00  0.00     0.002 A 
ATOM      6  C7  UNL d   1       4.375   0.944  -5.999  0.00  0.00     0.002 A 
ENDROOT
BRANCH   1   7
ATOM      7  C1  UNL d   1       3.685   3.372  -5.996  0.00  0.00     0.055 C 
ATOM      8  C   UNL d   1       5.151   3.742  -5.824  0.00  0.00     0.019 C 
ENDBRANCH   1   7
TORSDOF 1
ENDMDL
