MODEL 1
REMARK minimizedAffinity 2.03680468
REMARK minimizedRMSD -1
REMARK  1 active torsions:
REMARK  status: ('A' for Active; 'I' for Inactive)
REMARK    1  A    between atoms: C1_2  and  C2_3 
ROOT
ATOM      1  C2  UNL d   1       1.842   0.897   2.024  0.00  0.00    -0.077 A 
ATOM      2  C3  UNL d   1       1.759   1.600   0.814  0.00  0.00     0.002 A 
ATOM      3  C4  UNL d   1       2.833   1.599  -0.078  0.00  0.00     0.002 A 
ATOM      4  C5  UNL d   1       3.995   0.895   0.228  0.00  0.00    -0.004 A 
ATOM      5  C6  UNL d   1       4.088   0.195   1.431  0.00  0.00     0.002 A 
ATOM      6  C7  UNL d   1       3.016   0.195   2.324  0.00  0.00     0.002 A 
ENDROOT
BRANCH   1   7
ATOM      7  C1  UNL d   1       0.666   0.856   2.965  0.00  0.00     0.055 C 
ATOM      8  C   UNL d   1      -0.652   0.878   2.206  0.00  0.00     0.019 C 
ENDBRANCH   1   7
TORSDOF 1
ENDMDL
