MODEL 1
REMARK minimizedAffinity 13.079895
REMARK minimizedRMSD -1
REMARK  1 active torsions:
REMARK  status: ('A' for Active; 'I' for Inactive)
REMARK    1  A    between atoms: C1_2  and  C2_3 
ROOT
ATOM      1  C2  UNL d   1       3.474   4.201  -5.061  0.00  0.00    -0.077 A 
ATOM      2  C3  UNL d   1       3.010   3.006  -5.628  0.00  0.00     0.002 A 
ATOM      3  C4  UNL d   1       3.909   2.005  -6.000  0.00  0.00     0.002 A 
ATOM      4  C5  UNL d   1       5.277   2.187  -5.806  0.00  0.00    -0.004 A 
ATOM      5  C6  UNL d   1       5.748   3.374  -5.245  0.00  0.00     0.002 A 
ATOM      6  C7  UNL d   1       4.851   4.376  -4.874  0.00  0.00     0.002 A 
ENDROOT
BRANCH   1   7
ATOM      7  C1  UNL d   1       2.502   5.262  -4.614  0.00  0.00     0.055 C 
ATOM      8  C   UNL d   1       1.249   5.265  -5.478  0.00  0.00     0.019 C 
ENDBRANCH   1   7
TORSDOF 1
ENDMDL
