MODEL 1
REMARK minimizedAffinity 9.8432312
REMARK minimizedRMSD -1
REMARK  1 active torsions:
REMARK  status: ('A' for Active; 'I' for Inactive)
REMARK    1  A    between atoms: C1_2  and  C2_3 
ROOT
ATOM      1  C2  UNL d   1      -1.400   0.459   2.277  0.00  0.00    -0.077 A 
ATOM      2  C3  UNL d   1      -0.929  -0.693   2.923  0.00  0.00     0.002 A 
ATOM      3  C4  UNL d   1       0.416  -0.802   3.282  0.00  0.00     0.002 A 
ATOM      4  C5  UNL d   1       1.300   0.239   3.003  0.00  0.00    -0.004 A 
ATOM      5  C6  UNL d   1       0.842   1.387   2.359  0.00  0.00     0.002 A 
ATOM      6  C7  UNL d   1      -0.502   1.498   1.999  0.00  0.00     0.002 A 
ENDROOT
BRANCH   1   7
ATOM      7  C1  UNL d   1      -2.860   0.600   1.934  0.00  0.00     0.055 C 
ATOM      8  C   UNL d   1      -3.230   2.052   1.673  0.00  0.00     0.019 C 
ENDBRANCH   1   7
TORSDOF 1
ENDMDL
