MODEL 1
REMARK minimizedAffinity 3.16568756
REMARK minimizedRMSD -1
REMARK  1 active torsions:
REMARK  status: ('A' for Active; 'I' for Inactive)
REMARK    1  A    between atoms: C1_2  and  C2_3 
ROOT
ATOM      1  C2  UNL d   1      -1.553   1.208   2.305  0.00  0.00    -0.077 A 
ATOM      2  C3  UNL d   1      -0.240   1.697   2.247  0.00  0.00     0.002 A 
ATOM      3  C4  UNL d   1       0.814   0.954   2.782  0.00  0.00     0.002 A 
ATOM      4  C5  UNL d   1       0.567  -0.283   3.374  0.00  0.00    -0.004 A 
ATOM      5  C6  UNL d   1      -0.736  -0.777   3.437  0.00  0.00     0.002 A 
ATOM      6  C7  UNL d   1      -1.791  -0.035   2.905  0.00  0.00     0.002 A 
ENDROOT
BRANCH   1   7
ATOM      7  C1  UNL d   1      -2.685   1.986   1.685  0.00  0.00     0.055 C 
ATOM      8  C   UNL d   1      -2.922   3.298   2.418  0.00  0.00     0.019 C 
ENDBRANCH   1   7
TORSDOF 1
ENDMDL
