MODEL 1
REMARK minimizedAffinity 4.8111825
REMARK minimizedRMSD -1
REMARK  1 active torsions:
REMARK  status: ('A' for Active; 'I' for Inactive)
REMARK    1  A    between atoms: C1_2  and  C2_3 
ROOT
ATOM      1  C2  UNL d   1      -2.550   0.424   1.877  0.00  0.00    -0.077 A 
ATOM      2  C3  UNL d   1      -2.656   1.813   1.715  0.00  0.00     0.002 A 
ATOM      3  C4  UNL d   1      -3.906   2.409   1.534  0.00  0.00     0.002 A 
ATOM      4  C5  UNL d   1      -5.058   1.625   1.518  0.00  0.00    -0.004 A 
ATOM      5  C6  UNL d   1      -4.962   0.243   1.676  0.00  0.00     0.002 A 
ATOM      6  C7  UNL d   1      -3.714  -0.354   1.856  0.00  0.00     0.002 A 
ENDROOT
BRANCH   1   7
ATOM      7  C1  UNL d   1      -1.208  -0.215   2.122  0.00  0.00     0.055 C 
ATOM      8  C   UNL d   1      -0.111   0.832   2.252  0.00  0.00     0.019 C 
ENDBRANCH   1   7
TORSDOF 1
ENDMDL
