MODEL 1
REMARK minimizedAffinity 15.9906702
REMARK minimizedRMSD -1
REMARK  1 active torsions:
REMARK  status: ('A' for Active; 'I' for Inactive)
REMARK    1  A    between atoms: C1_2  and  C2_3 
ROOT
ATOM      1  C2  UNL d   1      -2.026  -1.140   0.793  0.00  0.00    -0.077 A 
ATOM      2  C3  UNL d   1      -0.958  -2.044   0.712  0.00  0.00     0.002 A 
ATOM      3  C4  UNL d   1      -1.172  -3.353   0.276  0.00  0.00     0.002 A 
ATOM      4  C5  UNL d   1      -2.451  -3.769  -0.085  0.00  0.00    -0.004 A 
ATOM      5  C6  UNL d   1      -3.521  -2.878  -0.006  0.00  0.00     0.002 A 
ATOM      6  C7  UNL d   1      -3.309  -1.569   0.431  0.00  0.00     0.002 A 
ENDROOT
BRANCH   1   7
ATOM      7  C1  UNL d   1      -1.789   0.286   1.216  0.00  0.00     0.055 C 
ATOM      8  C   UNL d   1      -1.719   0.410   2.731  0.00  0.00     0.019 C 
ENDBRANCH   1   7
TORSDOF 1
ENDMDL
