MODEL 1
REMARK minimizedAffinity -0.835442424
REMARK minimizedRMSD -1
REMARK  1 active torsions:
REMARK  status: ('A' for Active; 'I' for Inactive)
REMARK    1  A    between atoms: C1_2  and  C2_3 
ROOT
ATOM      1  C2  UNL d   1       5.640  -4.741   3.863  0.00  0.00    -0.077 A 
ATOM      2  C3  UNL d   1       5.638  -3.487   4.491  0.00  0.00     0.002 A 
ATOM      3  C4  UNL d   1       5.261  -2.344   3.783  0.00  0.00     0.002 A 
ATOM      4  C5  UNL d   1       4.880  -2.444   2.446  0.00  0.00    -0.004 A 
ATOM      5  C6  UNL d   1       4.881  -3.687   1.813  0.00  0.00     0.002 A 
ATOM      6  C7  UNL d   1       5.259  -4.830   2.519  0.00  0.00     0.002 A 
ENDROOT
BRANCH   1   7
ATOM      7  C1  UNL d   1       6.000  -5.982   4.639  0.00  0.00     0.055 C 
ATOM      8  C   UNL d   1       5.319  -6.000   6.000  0.00  0.00     0.019 C 
ENDBRANCH   1   7
TORSDOF 1
ENDMDL
