MODEL 1
REMARK minimizedAffinity 0.77949065
REMARK minimizedRMSD -1
REMARK  2 active torsions:
REMARK  status: ('A' for Active; 'I' for Inactive)
REMARK    1  A    between atoms: C1_2  and  C2_3 
REMARK    2  A    between atoms: C2_3  and  C3_4 
ROOT
ATOM      1  C3  UNL d   1       0.352  -1.368   1.315  0.00  0.00    -0.075 A 
ATOM      2  C4  UNL d   1       1.295  -2.366   1.028  0.00  0.00     0.002 A 
ATOM      3  C5  UNL d   1       1.311  -3.555   1.757  0.00  0.00     0.002 A 
ATOM      4  C6  UNL d   1       0.395  -3.757   2.787  0.00  0.00    -0.004 A 
ATOM      5  C7  UNL d   1      -0.535  -2.765   3.092  0.00  0.00     0.002 A 
ATOM      6  C8  UNL d   1      -0.557  -1.576   2.361  0.00  0.00     0.002 A 
ENDROOT
BRANCH   1   7
ATOM      7  C2  UNL d   1       0.309  -0.091   0.510  0.00  0.00     0.056 C 
BRANCH   7   8
ATOM      8  C1  UNL d   1       1.054  -0.171  -0.827  0.00  0.00     0.007 C 
ATOM      9  C   UNL d   1       2.086   0.935  -1.006  0.00  0.00     0.009 C 
ENDBRANCH   7   8
ENDBRANCH   1   7
TORSDOF 2
ENDMDL
