MODEL 1
REMARK minimizedAffinity 6.7066226
REMARK minimizedRMSD -1
REMARK  2 active torsions:
REMARK  status: ('A' for Active; 'I' for Inactive)
REMARK    1  A    between atoms: C1_2  and  C2_3 
REMARK    2  A    between atoms: C2_3  and  C3_4 
ROOT
ATOM      1  C3  UNL d   1       0.123  -1.488   2.139  0.00  0.00    -0.075 A 
ATOM      2  C4  UNL d   1       0.646  -2.786   2.229  0.00  0.00     0.002 A 
ATOM      3  C5  UNL d   1      -0.070  -3.795   2.875  0.00  0.00     0.002 A 
ATOM      4  C6  UNL d   1      -1.310  -3.517   3.447  0.00  0.00    -0.004 A 
ATOM      5  C7  UNL d   1      -1.831  -2.227   3.378  0.00  0.00     0.002 A 
ATOM      6  C8  UNL d   1      -1.119  -1.217   2.728  0.00  0.00     0.002 A 
ENDROOT
BRANCH   1   7
ATOM      7  C2  UNL d   1       0.879  -0.399   1.416  0.00  0.00     0.056 C 
BRANCH   7   8
ATOM      8  C1  UNL d   1       1.866  -0.918   0.365  0.00  0.00     0.007 C 
ATOM      9  C   UNL d   1       2.998   0.057   0.072  0.00  0.00     0.009 C 
ENDBRANCH   7   8
ENDBRANCH   1   7
TORSDOF 2
ENDMDL
