MODEL 1
REMARK minimizedAffinity 6.73554039
REMARK minimizedRMSD -1
REMARK  2 active torsions:
REMARK  status: ('A' for Active; 'I' for Inactive)
REMARK    1  A    between atoms: C1_2  and  C2_3 
REMARK    2  A    between atoms: C2_3  and  C3_4 
ROOT
ATOM      1  C3  UNL d   1       1.143  -1.455   1.940  0.00  0.00    -0.075 A 
ATOM      2  C4  UNL d   1       1.775  -2.695   2.112  0.00  0.00     0.002 A 
ATOM      3  C5  UNL d   1       2.466  -3.291   1.056  0.00  0.00     0.002 A 
ATOM      4  C6  UNL d   1       2.524  -2.661  -0.185  0.00  0.00    -0.004 A 
ATOM      5  C7  UNL d   1       1.885  -1.437  -0.373  0.00  0.00     0.002 A 
ATOM      6  C8  UNL d   1       1.198  -0.836   0.684  0.00  0.00     0.002 A 
ENDROOT
BRANCH   1   7
ATOM      7  C2  UNL d   1       0.419  -0.791   3.087  0.00  0.00     0.056 C 
BRANCH   7   8
ATOM      8  C1  UNL d   1      -1.101  -0.983   3.060  0.00  0.00     0.007 C 
ATOM      9  C   UNL d   1      -1.869   0.242   3.537  0.00  0.00     0.009 C 
ENDBRANCH   7   8
ENDBRANCH   1   7
TORSDOF 2
ENDMDL
