MODEL 1
REMARK minimizedAffinity 3.5387032
REMARK minimizedRMSD -1
REMARK  2 active torsions:
REMARK  status: ('A' for Active; 'I' for Inactive)
REMARK    1  A    between atoms: C1_2  and  C2_3 
REMARK    2  A    between atoms: C2_3  and  C3_4 
ROOT
ATOM      1  C3  UNL d   1       0.719  -0.503  -0.136  0.00  0.00    -0.075 A 
ATOM      2  C4  UNL d   1      -0.169  -0.354  -1.211  0.00  0.00     0.002 A 
ATOM      3  C5  UNL d   1      -1.542  -0.248  -0.987  0.00  0.00     0.002 A 
ATOM      4  C6  UNL d   1      -2.045  -0.301   0.311  0.00  0.00    -0.004 A 
ATOM      5  C7  UNL d   1      -1.174  -0.465   1.386  0.00  0.00     0.002 A 
ATOM      6  C8  UNL d   1       0.201  -0.567   1.165  0.00  0.00     0.002 A 
ENDROOT
BRANCH   1   7
ATOM      7  C2  UNL d   1       2.208  -0.588  -0.370  0.00  0.00     0.056 C 
BRANCH   7   8
ATOM      8  C1  UNL d   1       2.941   0.749  -0.219  0.00  0.00     0.007 C 
ATOM      9  C   UNL d   1       2.981   1.560  -1.507  0.00  0.00     0.009 C 
ENDBRANCH   7   8
ENDBRANCH   1   7
TORSDOF 2
ENDMDL
