MODEL 1
REMARK minimizedAffinity 0.338807404
REMARK minimizedRMSD -1
REMARK  2 active torsions:
REMARK  status: ('A' for Active; 'I' for Inactive)
REMARK    1  A    between atoms: C1_2  and  C2_3 
REMARK    2  A    between atoms: C2_3  and  C3_4 
ROOT
ATOM      1  C3  UNL d   1       0.834  -2.214   1.257  0.00  0.00    -0.075 A 
ATOM      2  C4  UNL d   1       0.249  -2.435   2.512  0.00  0.00     0.002 A 
ATOM      3  C5  UNL d   1      -0.850  -1.681   2.924  0.00  0.00     0.002 A 
ATOM      4  C6  UNL d   1      -1.370  -0.691   2.093  0.00  0.00    -0.004 A 
ATOM      5  C7  UNL d   1      -0.787  -0.452   0.851  0.00  0.00     0.002 A 
ATOM      6  C8  UNL d   1       0.310  -1.208   0.434  0.00  0.00     0.002 A 
ENDROOT
BRANCH   1   7
ATOM      7  C2  UNL d   1       2.005  -3.047   0.793  0.00  0.00     0.056 C 
BRANCH   7   8
ATOM      8  C1  UNL d   1       2.160  -4.376   1.539  0.00  0.00     0.007 C 
ATOM      9  C   UNL d   1       3.565  -4.600   2.081  0.00  0.00     0.009 C 
ENDBRANCH   7   8
ENDBRANCH   1   7
TORSDOF 2
ENDMDL
