MODEL 1
REMARK minimizedAffinity -3.16360736
REMARK minimizedRMSD -1
REMARK  2 active torsions:
REMARK  status: ('A' for Active; 'I' for Inactive)
REMARK    1  A    between atoms: C1_2  and  C2_3 
REMARK    2  A    between atoms: C2_3  and  C3_4 
ROOT
ATOM      1  C3  UNL d   1       0.817  -3.127   2.664  0.00  0.00    -0.075 A 
ATOM      2  C4  UNL d   1       0.703  -1.738   2.510  0.00  0.00     0.002 A 
ATOM      3  C5  UNL d   1      -0.507  -1.093   2.770  0.00  0.00     0.002 A 
ATOM      4  C6  UNL d   1      -1.618  -1.828   3.176  0.00  0.00    -0.004 A 
ATOM      5  C7  UNL d   1      -1.521  -3.211   3.316  0.00  0.00     0.002 A 
ATOM      6  C8  UNL d   1      -0.311  -3.858   3.061  0.00  0.00     0.002 A 
ENDROOT
BRANCH   1   7
ATOM      7  C2  UNL d   1       2.131  -3.827   2.413  0.00  0.00     0.056 C 
BRANCH   7   8
ATOM      8  C1  UNL d   1       3.166  -3.628   3.525  0.00  0.00     0.007 C 
ATOM      9  C   UNL d   1       4.009  -4.868   3.790  0.00  0.00     0.009 C 
ENDBRANCH   7   8
ENDBRANCH   1   7
TORSDOF 2
ENDMDL
