MODEL 1
REMARK minimizedAffinity 14.4504938
REMARK minimizedRMSD -1
REMARK  1 active torsions:
REMARK  status: ('A' for Active; 'I' for Inactive)
REMARK    1  A    between atoms: C1_2  and  C2_3 
ROOT
ATOM      1  C2  UNL d   1       3.790   1.997   3.123  0.00  0.00    -0.081 A 
ATOM      2  C3  UNL d   1       4.105   2.968   4.080  0.00  0.00     0.006 A 
ATOM      3  C4  UNL d   1       4.460   4.261   3.688  0.00  0.00     0.002 A 
ATOM      4  C5  UNL d   1       4.498   4.606   2.332  0.00  0.00    -0.080 A 
ATOM      5  C6  UNL d   1       4.848   5.998   1.899  0.00  0.00     0.076 C 
ATOM      6  C7  UNL d   1       4.201   3.630   1.375  0.00  0.00     0.002 A 
ATOM      7  C8  UNL d   1       3.847   2.337   1.767  0.00  0.00     0.006 A 
ENDROOT
BRANCH   1   8
ATOM      8  C1  UNL d   1       3.344   0.620   3.545  0.00  0.00     0.054 C 
ATOM      9  C   UNL d   1       2.027   0.238   2.885  0.00  0.00     0.018 C 
ENDBRANCH   1   8
TORSDOF 1
ENDMDL
