MODEL 1
REMARK minimizedAffinity 13.4015837
REMARK minimizedRMSD -1
REMARK  1 active torsions:
REMARK  status: ('A' for Active; 'I' for Inactive)
REMARK    1  A    between atoms: C1_2  and  C2_3 
ROOT
ATOM      1  C2  UNL d   1      -1.117  -0.299   2.191  0.00  0.00    -0.081 A 
ATOM      2  C3  UNL d   1      -0.166  -1.327   2.182  0.00  0.00     0.006 A 
ATOM      3  C4  UNL d   1       1.144  -1.084   2.603  0.00  0.00     0.002 A 
ATOM      4  C5  UNL d   1       1.522   0.187   3.049  0.00  0.00    -0.080 A 
ATOM      5  C6  UNL d   1       2.916   0.454   3.533  0.00  0.00     0.076 C 
ATOM      6  C7  UNL d   1       0.576   1.218   3.042  0.00  0.00     0.002 A 
ATOM      7  C8  UNL d   1      -0.733   0.976   2.619  0.00  0.00     0.006 A 
ENDROOT
BRANCH   1   8
ATOM      8  C1  UNL d   1      -2.546  -0.574   1.798  0.00  0.00     0.054 C 
ATOM      9  C   UNL d   1      -2.647  -1.797   0.898  0.00  0.00     0.018 C 
ENDBRANCH   1   8
TORSDOF 1
ENDMDL
