MODEL 1
REMARK minimizedAffinity 11.0431814
REMARK minimizedRMSD -1
REMARK  1 active torsions:
REMARK  status: ('A' for Active; 'I' for Inactive)
REMARK    1  A    between atoms: C1_2  and  C2_3 
ROOT
ATOM      1  C2  UNL d   1       2.178  -3.019  -5.682  0.00  0.00    -0.081 A 
ATOM      2  C3  UNL d   1       1.134  -2.104  -5.860  0.00  0.00     0.006 A 
ATOM      3  C4  UNL d   1      -0.186  -2.549  -5.975  0.00  0.00     0.002 A 
ATOM      4  C5  UNL d   1      -0.483  -3.914  -5.906  0.00  0.00    -0.080 A 
ATOM      5  C6  UNL d   1      -1.898  -4.403  -5.998  0.00  0.00     0.076 C 
ATOM      6  C7  UNL d   1       0.563  -4.830  -5.746  0.00  0.00     0.002 A 
ATOM      7  C8  UNL d   1       1.882  -4.386  -5.632  0.00  0.00     0.006 A 
ENDROOT
BRANCH   1   8
ATOM      8  C1  UNL d   1       3.594  -2.538  -5.493  0.00  0.00     0.054 C 
ATOM      9  C   UNL d   1       4.061  -2.743  -4.059  0.00  0.00     0.018 C 
ENDBRANCH   1   8
TORSDOF 1
ENDMDL
