MODEL 1
REMARK minimizedAffinity 15.9373417
REMARK minimizedRMSD -1
REMARK  1 active torsions:
REMARK  status: ('A' for Active; 'I' for Inactive)
REMARK    1  A    between atoms: C1_2  and  C2_3 
ROOT
ATOM      1  C2  UNL d   1      -0.987  -1.546   2.619  0.00  0.00    -0.081 A 
ATOM      2  C3  UNL d   1      -0.898  -0.150   2.554  0.00  0.00     0.006 A 
ATOM      3  C4  UNL d   1       0.250   0.508   3.001  0.00  0.00     0.002 A 
ATOM      4  C5  UNL d   1       1.331  -0.217   3.512  0.00  0.00    -0.080 A 
ATOM      5  C6  UNL d   1       2.581   0.475   3.967  0.00  0.00     0.076 C 
ATOM      6  C7  UNL d   1       1.236  -1.611   3.593  0.00  0.00     0.002 A 
ATOM      7  C8  UNL d   1       0.088  -2.270   3.148  0.00  0.00     0.006 A 
ENDROOT
BRANCH   1   8
ATOM      8  C1  UNL d   1      -2.197  -2.264   2.079  0.00  0.00     0.054 C 
ATOM      9  C   UNL d   1      -3.482  -1.537   2.450  0.00  0.00     0.018 C 
ENDBRANCH   1   8
TORSDOF 1
ENDMDL
