MODEL 1
REMARK minimizedAffinity 16.5058823
REMARK minimizedRMSD -1
REMARK  1 active torsions:
REMARK  status: ('A' for Active; 'I' for Inactive)
REMARK    1  A    between atoms: C1_2  and  C2_3 
ROOT
ATOM      1  C2  UNL d   1      -1.516  -3.390  -5.184  0.00  0.00    -0.081 A 
ATOM      2  C3  UNL d   1      -0.602  -2.714  -6.000  0.00  0.00     0.006 A 
ATOM      3  C4  UNL d   1       0.106  -1.614  -5.510  0.00  0.00     0.002 A 
ATOM      4  C5  UNL d   1      -0.082  -1.177  -4.194  0.00  0.00    -0.080 A 
ATOM      5  C6  UNL d   1       0.694  -0.017  -3.646  0.00  0.00     0.076 C 
ATOM      6  C7  UNL d   1      -1.009  -1.842  -3.384  0.00  0.00     0.002 A 
ATOM      7  C8  UNL d   1      -1.717  -2.942  -3.874  0.00  0.00     0.006 A 
ENDROOT
BRANCH   1   8
ATOM      8  C1  UNL d   1      -2.234  -4.616  -5.689  0.00  0.00     0.054 C 
ATOM      9  C   UNL d   1      -1.796  -5.864  -4.934  0.00  0.00     0.018 C 
ENDBRANCH   1   8
TORSDOF 1
ENDMDL
