MODEL 1
REMARK minimizedAffinity 8.3129406
REMARK minimizedRMSD -1
REMARK  1 active torsions:
REMARK  status: ('A' for Active; 'I' for Inactive)
REMARK    1  A    between atoms: C1_2  and  C2_3 
ROOT
ATOM      1  C2  UNL d   1       1.658  -1.401   1.072  0.00  0.00    -0.073 A 
ATOM      2  C3  UNL d   1       0.403  -1.941   1.377  0.00  0.00    -0.002 A 
ATOM      3  C4  UNL d   1      -0.280  -1.534   2.524  0.00  0.00     0.004 A 
ATOM      4  C5  UNL d   1       0.280  -0.580   3.373  0.00  0.00    -0.004 A 
ATOM      5  C6  UNL d   1       1.528  -0.020   3.079  0.00  0.00    -0.075 A 
ATOM      6  C7  UNL d   1       2.145   1.006   3.984  0.00  0.00     0.076 C 
ATOM      7  C8  UNL d   1       2.209  -0.435   1.927  0.00  0.00     0.001 A 
ENDROOT
BRANCH   1   8
ATOM      8  C1  UNL d   1       2.396  -1.832  -0.169  0.00  0.00     0.053 C 
ATOM      9  C   UNL d   1       1.744  -1.299  -1.434  0.00  0.00     0.018 C 
ENDBRANCH   1   8
TORSDOF 1
ENDMDL
