MODEL 1
REMARK minimizedAffinity -1.19924402
REMARK minimizedRMSD -1
REMARK  1 active torsions:
REMARK  status: ('A' for Active; 'I' for Inactive)
REMARK    1  A    between atoms: C1_2  and  C2_3 
ROOT
ATOM      1  C2  UNL d   1       0.797  -1.175  -0.296  0.00  0.00    -0.073 A 
ATOM      2  C3  UNL d   1       1.138  -2.149   0.650  0.00  0.00    -0.002 A 
ATOM      3  C4  UNL d   1       0.367  -2.313   1.801  0.00  0.00     0.004 A 
ATOM      4  C5  UNL d   1      -0.754  -1.512   2.016  0.00  0.00    -0.004 A 
ATOM      5  C6  UNL d   1      -1.117  -0.541   1.077  0.00  0.00    -0.075 A 
ATOM      6  C7  UNL d   1      -2.319   0.331   1.294  0.00  0.00     0.076 C 
ATOM      7  C8  UNL d   1      -0.337  -0.381  -0.076  0.00  0.00     0.001 A 
ENDROOT
BRANCH   1   8
ATOM      8  C1  UNL d   1       1.623  -0.999  -1.544  0.00  0.00     0.053 C 
ATOM      9  C   UNL d   1       2.891  -0.202  -1.282  0.00  0.00     0.018 C 
ENDBRANCH   1   8
TORSDOF 1
ENDMDL
