MODEL 1
REMARK minimizedAffinity -1.0496999
REMARK minimizedRMSD -1
REMARK  1 active torsions:
REMARK  status: ('A' for Active; 'I' for Inactive)
REMARK    1  A    between atoms: C1_2  and  C2_3 
ROOT
ATOM      1  C2  UNL d   1       0.238  -0.887   1.055  0.00  0.00    -0.073 A 
ATOM      2  C3  UNL d   1       0.474  -2.012   1.854  0.00  0.00    -0.002 A 
ATOM      3  C4  UNL d   1       1.438  -2.950   1.481  0.00  0.00     0.004 A 
ATOM      4  C5  UNL d   1       2.179  -2.770   0.313  0.00  0.00    -0.004 A 
ATOM      5  C6  UNL d   1       1.965  -1.646  -0.492  0.00  0.00    -0.075 A 
ATOM      6  C7  UNL d   1       2.752  -1.439  -1.752  0.00  0.00     0.076 C 
ATOM      7  C8  UNL d   1       0.994  -0.710  -0.112  0.00  0.00     0.001 A 
ENDROOT
BRANCH   1   8
ATOM      8  C1  UNL d   1      -0.797   0.132   1.457  0.00  0.00     0.053 C 
ATOM      9  C   UNL d   1      -0.986   0.190   2.964  0.00  0.00     0.018 C 
ENDBRANCH   1   8
TORSDOF 1
ENDMDL
