MODEL 1
REMARK minimizedAffinity 5.37692833
REMARK minimizedRMSD -1
REMARK  1 active torsions:
REMARK  status: ('A' for Active; 'I' for Inactive)
REMARK    1  A    between atoms: C1_2  and  C2_3 
ROOT
ATOM      1  C2  UNL d   1      -0.186  -1.806   2.013  0.00  0.00    -0.073 A 
ATOM      2  C3  UNL d   1      -1.264  -2.421   1.367  0.00  0.00    -0.002 A 
ATOM      3  C4  UNL d   1      -2.470  -1.738   1.201  0.00  0.00     0.004 A 
ATOM      4  C5  UNL d   1      -2.608  -0.433   1.673  0.00  0.00    -0.004 A 
ATOM      5  C6  UNL d   1      -1.538   0.203   2.311  0.00  0.00    -0.075 A 
ATOM      6  C7  UNL d   1      -1.671   1.606   2.826  0.00  0.00     0.076 C 
ATOM      7  C8  UNL d   1      -0.331  -0.490   2.475  0.00  0.00     0.001 A 
ENDROOT
BRANCH   1   8
ATOM      8  C1  UNL d   1       1.120  -2.536   2.188  0.00  0.00     0.053 C 
ATOM      9  C   UNL d   1       1.728  -2.944   0.855  0.00  0.00     0.018 C 
ENDBRANCH   1   8
TORSDOF 1
ENDMDL
