MODEL 1
REMARK minimizedAffinity 5.99655581
REMARK minimizedRMSD -1
REMARK  1 active torsions:
REMARK  status: ('A' for Active; 'I' for Inactive)
REMARK    1  A    between atoms: C1_2  and  C2_3 
ROOT
ATOM      1  C2  UNL d   1      -0.207  -1.142   1.643  0.00  0.00    -0.073 A 
ATOM      2  C3  UNL d   1      -0.881  -1.946   2.569  0.00  0.00    -0.002 A 
ATOM      3  C4  UNL d   1      -0.442  -3.245   2.828  0.00  0.00     0.004 A 
ATOM      4  C5  UNL d   1       0.679  -3.751   2.169  0.00  0.00    -0.004 A 
ATOM      5  C6  UNL d   1       1.373  -2.959   1.249  0.00  0.00    -0.075 A 
ATOM      6  C7  UNL d   1       2.579  -3.490   0.531  0.00  0.00     0.076 C 
ATOM      7  C8  UNL d   1       0.924  -1.657   0.993  0.00  0.00     0.001 A 
ENDROOT
BRANCH   1   8
ATOM      8  C1  UNL d   1      -0.674   0.263   1.365  0.00  0.00     0.053 C 
ATOM      9  C   UNL d   1      -2.136   0.307   0.951  0.00  0.00     0.018 C 
ENDBRANCH   1   8
TORSDOF 1
ENDMDL
