MODEL 1
REMARK minimizedAffinity 4.2383337
REMARK minimizedRMSD -1
REMARK  1 active torsions:
REMARK  status: ('A' for Active; 'I' for Inactive)
REMARK    1  A    between atoms: C1_2  and  C2_3 
ROOT
ATOM      1  C2  UNL d   1       0.464  -0.841   0.207  0.00  0.00    -0.073 A 
ATOM      2  C3  UNL d   1       0.946  -1.782   1.125  0.00  0.00    -0.002 A 
ATOM      3  C4  UNL d   1       0.381  -1.880   2.396  0.00  0.00     0.004 A 
ATOM      4  C5  UNL d   1      -0.676  -1.045   2.761  0.00  0.00    -0.004 A 
ATOM      5  C6  UNL d   1      -1.179  -0.107   1.854  0.00  0.00    -0.075 A 
ATOM      6  C7  UNL d   1      -2.314   0.799   2.232  0.00  0.00     0.076 C 
ATOM      7  C8  UNL d   1      -0.604  -0.013   0.580  0.00  0.00     0.001 A 
ENDROOT
BRANCH   1   8
ATOM      8  C1  UNL d   1       1.068  -0.736  -1.170  0.00  0.00     0.053 C 
ATOM      9  C   UNL d   1       0.008  -0.751  -2.259  0.00  0.00     0.018 C 
ENDBRANCH   1   8
TORSDOF 1
ENDMDL
