MODEL 1
REMARK minimizedAffinity -2.14886975
REMARK minimizedRMSD -1
REMARK  1 active torsions:
REMARK  status: ('A' for Active; 'I' for Inactive)
REMARK    1  A    between atoms: C1_2  and  C2_3 
ROOT
ATOM      1  C2  UNL d   1       1.424  -0.013   0.085  0.00  0.00    -0.073 A 
ATOM      2  C3  UNL d   1       2.014   0.178   1.339  0.00  0.00    -0.002 A 
ATOM      3  C4  UNL d   1       1.253   0.056   2.502  0.00  0.00     0.004 A 
ATOM      4  C5  UNL d   1      -0.102  -0.264   2.424  0.00  0.00    -0.004 A 
ATOM      5  C6  UNL d   1      -0.707  -0.471   1.180  0.00  0.00    -0.075 A 
ATOM      6  C7  UNL d   1      -2.165  -0.814   1.079  0.00  0.00     0.076 C 
ATOM      7  C8  UNL d   1       0.063  -0.343   0.017  0.00  0.00     0.001 A 
ENDROOT
BRANCH   1   8
ATOM      8  C1  UNL d   1       2.243   0.112  -1.174  0.00  0.00     0.053 C 
ATOM      9  C   UNL d   1       2.243  -1.175  -1.984  0.00  0.00     0.018 C 
ENDBRANCH   1   8
TORSDOF 1
ENDMDL
