MODEL 1
REMARK minimizedAffinity -2.49231911
REMARK minimizedRMSD -1
REMARK  0 active torsions:
REMARK  status: ('A' for Active; 'I' for Inactive)
ROOT
ATOM      1  C   UNL d   1      -1.984  -0.070   0.220  0.00  0.00     0.023 A 
ATOM      2  C1  UNL d   1      -1.354   1.148  -0.034  0.00  0.00     0.003 A 
ATOM      3  C2  UNL d   1       0.022   1.280   0.169  0.00  0.00     0.048 A 
ATOM      4  C3  UNL d   1       0.761   0.189   0.626  0.00  0.00     0.023 A 
ATOM      5  C4  UNL d   1       0.134  -1.032   0.881  0.00  0.00     0.048 A 
ATOM      6  C5  UNL d   1      -1.241  -1.158   0.678  0.00  0.00     0.003 A 
ATOM      7  I   UNL d   1       2.808   0.383   0.929  0.00  0.00    -0.146 I 
ENDROOT
TORSDOF 0
ENDMDL
