MODEL 1
REMARK minimizedAffinity -5.48274946
REMARK minimizedRMSD -1
REMARK  0 active torsions:
REMARK  status: ('A' for Active; 'I' for Inactive)
ROOT
ATOM      1  C   UNL d   1       2.895  -1.699   1.806  0.00  0.00     0.023 A 
ATOM      2  C1  UNL d   1       1.686  -2.298   2.161  0.00  0.00     0.003 A 
ATOM      3  C2  UNL d   1       0.487  -1.826   1.624  0.00  0.00     0.048 A 
ATOM      4  C3  UNL d   1       0.503  -0.754   0.731  0.00  0.00     0.023 A 
ATOM      5  C4  UNL d   1       1.711  -0.152   0.373  0.00  0.00     0.048 A 
ATOM      6  C5  UNL d   1       2.907  -0.627   0.913  0.00  0.00     0.003 A 
ATOM      7  I   UNL d   1      -1.280  -0.050  -0.070  0.00  0.00    -0.146 I 
ENDROOT
TORSDOF 0
ENDMDL
