MODEL 1
REMARK minimizedAffinity 0.760950029
REMARK minimizedRMSD -1
REMARK  0 active torsions:
REMARK  status: ('A' for Active; 'I' for Inactive)
ROOT
ATOM      1  C   UNL d   1      -1.323  -0.516   0.505  0.00  0.00     0.023 A 
ATOM      2  C1  UNL d   1      -0.618   0.621   0.109  0.00  0.00     0.003 A 
ATOM      3  C2  UNL d   1       0.769   0.671   0.257  0.00  0.00     0.048 A 
ATOM      4  C3  UNL d   1       1.446  -0.420   0.802  0.00  0.00     0.023 A 
ATOM      5  C4  UNL d   1       0.745  -1.560   1.199  0.00  0.00     0.048 A 
ATOM      6  C5  UNL d   1      -0.642  -1.605   1.049  0.00  0.00     0.003 A 
ATOM      7  I   UNL d   1       3.511  -0.349   1.023  0.00  0.00    -0.146 I 
ENDROOT
TORSDOF 0
ENDMDL
