MODEL 1
REMARK minimizedAffinity -3.09590054
REMARK minimizedRMSD -1
REMARK  0 active torsions:
REMARK  status: ('A' for Active; 'I' for Inactive)
ROOT
ATOM      1  C   UNL d   1       2.801  -0.787   1.376  0.00  0.00     0.023 A 
ATOM      2  C1  UNL d   1       1.793  -1.748   1.298  0.00  0.00     0.003 A 
ATOM      3  C2  UNL d   1       0.568  -1.430   0.708  0.00  0.00     0.048 A 
ATOM      4  C3  UNL d   1       0.358  -0.150   0.196  0.00  0.00     0.023 A 
ATOM      5  C4  UNL d   1       1.365   0.815   0.271  0.00  0.00     0.048 A 
ATOM      6  C5  UNL d   1       2.587   0.493   0.863  0.00  0.00     0.003 A 
ATOM      7  I   UNL d   1      -1.464   0.325  -0.684  0.00  0.00    -0.146 I 
ENDROOT
TORSDOF 0
ENDMDL
