MODEL 1
REMARK minimizedAffinity -3.06599975
REMARK minimizedRMSD -1
REMARK  0 active torsions:
REMARK  status: ('A' for Active; 'I' for Inactive)
ROOT
ATOM      1  C   UNL d   1       3.040   0.006   0.978  0.00  0.00     0.023 A 
ATOM      2  C1  UNL d   1       2.456   1.247   0.720  0.00  0.00     0.003 A 
ATOM      3  C2  UNL d   1       1.153   1.316   0.223  0.00  0.00     0.048 A 
ATOM      4  C3  UNL d   1       0.438   0.142  -0.011  0.00  0.00     0.023 A 
ATOM      5  C4  UNL d   1       1.018  -1.101   0.247  0.00  0.00     0.048 A 
ATOM      6  C5  UNL d   1       2.322  -1.166   0.742  0.00  0.00     0.003 A 
ATOM      7  I   UNL d   1      -1.502   0.243  -0.749  0.00  0.00    -0.146 I 
ENDROOT
TORSDOF 0
ENDMDL
