MODEL 1
REMARK minimizedAffinity -4.09227133
REMARK minimizedRMSD -1
REMARK  0 active torsions:
REMARK  status: ('A' for Active; 'I' for Inactive)
ROOT
ATOM      1  C   UNL d   1       3.275  -0.981   0.940  0.00  0.00     0.023 A 
ATOM      2  C1  UNL d   1       3.119   0.292   0.391  0.00  0.00     0.003 A 
ATOM      3  C2  UNL d   1       1.850   0.746   0.028  0.00  0.00     0.048 A 
ATOM      4  C3  UNL d   1       0.740  -0.077   0.216  0.00  0.00     0.023 A 
ATOM      5  C4  UNL d   1       0.891  -1.351   0.766  0.00  0.00     0.048 A 
ATOM      6  C5  UNL d   1       2.163  -1.802   1.127  0.00  0.00     0.003 A 
ATOM      7  I   UNL d   1      -1.150   0.597  -0.324  0.00  0.00    -0.146 I 
ENDROOT
TORSDOF 0
ENDMDL
