MODEL 1
REMARK minimizedAffinity -1.36273921
REMARK minimizedRMSD -1
REMARK  0 active torsions:
REMARK  status: ('A' for Active; 'I' for Inactive)
ROOT
ATOM      1  C   UNL d   1       1.259  -0.602   0.950  0.00  0.00     0.023 A 
ATOM      2  C1  UNL d   1       0.111  -1.393   0.899  0.00  0.00     0.003 A 
ATOM      3  C2  UNL d   1      -0.797  -1.240  -0.151  0.00  0.00     0.048 A 
ATOM      4  C3  UNL d   1      -0.551  -0.296  -1.146  0.00  0.00     0.023 A 
ATOM      5  C4  UNL d   1       0.597   0.497  -1.100  0.00  0.00     0.048 A 
ATOM      6  C5  UNL d   1       1.501   0.342  -0.048  0.00  0.00     0.003 A 
ATOM      7  I   UNL d   1      -1.901  -0.067  -2.710  0.00  0.00    -0.146 I 
ENDROOT
TORSDOF 0
ENDMDL
