MODEL 1
REMARK minimizedAffinity 5.888937
REMARK minimizedRMSD -1
REMARK  0 active torsions:
REMARK  status: ('A' for Active; 'I' for Inactive)
ROOT
ATOM      1  C   UNL d   1      -6.000   3.592   0.958  0.00  0.00     0.023 A 
ATOM      2  C1  UNL d   1      -5.446   4.484   0.039  0.00  0.00     0.003 A 
ATOM      3  C2  UNL d   1      -4.875   4.006  -1.142  0.00  0.00     0.048 A 
ATOM      4  C3  UNL d   1      -4.862   2.635  -1.399  0.00  0.00     0.023 A 
ATOM      5  C4  UNL d   1      -5.416   1.739  -0.483  0.00  0.00     0.048 A 
ATOM      6  C5  UNL d   1      -5.985   2.222   0.697  0.00  0.00     0.003 A 
ATOM      7  I   UNL d   1      -4.012   1.922  -3.156  0.00  0.00    -0.146 I 
ENDROOT
TORSDOF 0
ENDMDL
