MODEL 1
REMARK minimizedAffinity 6.53218985
REMARK minimizedRMSD -1
REMARK  1 active torsions:
REMARK  status: ('A' for Active; 'I' for Inactive)
REMARK    1  A    between atoms: C3_4  and  O_7 
ROOT
ATOM      1  C   UNL d   1       2.654   5.688   3.592  0.00  0.00    -0.033 A 
ATOM      2  C1  UNL d   1       3.542   4.611   3.603  0.00  0.00     0.039 A 
ATOM      3  C2  UNL d   1       3.074   3.315   3.376  0.00  0.00    -0.080 A 
ATOM      4  C3  UNL d   1       1.718   3.110   3.140  0.00  0.00     0.150 A 
ATOM      5  C4  UNL d   1       0.828   4.179   3.124  0.00  0.00    -0.007 A 
ATOM      6  C5  UNL d   1       1.296   5.472   3.351  0.00  0.00     0.039 A 
ENDROOT
BRANCH   4   7
ATOM      7  O   UNL d   1       1.214   1.863   2.919  0.00  0.00    -0.526 OA
ATOM      8  H5  UNL d   1       1.940   1.221   2.988  0.00  0.00     0.418 HD
ENDBRANCH   4   7
TORSDOF 1
ENDMDL
