MODEL 1
REMARK minimizedAffinity 5.31651068
REMARK minimizedRMSD -1
REMARK  1 active torsions:
REMARK  status: ('A' for Active; 'I' for Inactive)
REMARK    1  A    between atoms: C3_4  and  O_7 
ROOT
ATOM      1  C   UNL d   1      -4.898   5.999   6.000  0.00  0.00    -0.033 A 
ATOM      2  C1  UNL d   1      -5.976   5.112   5.964  0.00  0.00     0.039 A 
ATOM      3  C2  UNL d   1      -5.997   4.074   5.030  0.00  0.00    -0.080 A 
ATOM      4  C3  UNL d   1      -4.935   3.934   4.140  0.00  0.00     0.150 A 
ATOM      5  C4  UNL d   1      -3.857   4.811   4.173  0.00  0.00    -0.007 A 
ATOM      6  C5  UNL d   1      -3.838   5.848   5.106  0.00  0.00     0.039 A 
ENDROOT
BRANCH   4   7
ATOM      7  O   UNL d   1      -4.914   2.939   3.208  0.00  0.00    -0.526 OA
ATOM      8  H5  UNL d   1      -5.737   2.428   3.284  0.00  0.00     0.418 HD
ENDBRANCH   4   7
TORSDOF 1
ENDMDL
