MODEL 1
REMARK minimizedAffinity -0.711132526
REMARK minimizedRMSD -1
REMARK  1 active torsions:
REMARK  status: ('A' for Active; 'I' for Inactive)
REMARK    1  A    between atoms: C3_4  and  O_7 
ROOT
ATOM      1  C   UNL d   1       1.480  -4.086   5.463  0.00  0.00    -0.033 A 
ATOM      2  C1  UNL d   1       1.112  -5.322   6.000  0.00  0.00     0.039 A 
ATOM      3  C2  UNL d   1      -0.227  -5.716   5.995  0.00  0.00    -0.080 A 
ATOM      4  C3  UNL d   1      -1.187  -4.868   5.450  0.00  0.00     0.150 A 
ATOM      5  C4  UNL d   1      -0.828  -3.638   4.909  0.00  0.00    -0.007 A 
ATOM      6  C5  UNL d   1       0.510  -3.245   4.916  0.00  0.00     0.039 A 
ENDROOT
BRANCH   4   7
ATOM      7  O   UNL d   1      -2.507  -5.208   5.426  0.00  0.00    -0.526 OA
ATOM      8  H5  UNL d   1      -2.610  -6.072   5.859  0.00  0.00     0.418 HD
ENDBRANCH   4   7
TORSDOF 1
ENDMDL
