MODEL 1
REMARK minimizedAffinity 0.837887168
REMARK minimizedRMSD -1
REMARK  1 active torsions:
REMARK  status: ('A' for Active; 'I' for Inactive)
REMARK    1  A    between atoms: C3_4  and  O_7 
ROOT
ATOM      1  C   UNL d   1      -3.470   5.998   1.026  0.00  0.00    -0.033 A 
ATOM      2  C1  UNL d   1      -4.852   5.998   0.825  0.00  0.00     0.039 A 
ATOM      3  C2  UNL d   1      -5.719   5.995   1.919  0.00  0.00    -0.080 A 
ATOM      4  C3  UNL d   1      -5.192   5.995   3.208  0.00  0.00     0.150 A 
ATOM      5  C4  UNL d   1      -3.817   5.999   3.416  0.00  0.00    -0.007 A 
ATOM      6  C5  UNL d   1      -2.953   6.000   2.322  0.00  0.00     0.039 A 
ENDROOT
BRANCH   4   7
ATOM      7  O   UNL d   1      -5.999   5.988   4.307  0.00  0.00    -0.526 OA
ATOM      8  H5  UNL d   1      -6.923   5.956   4.010  0.00  0.00     0.418 HD
ENDBRANCH   4   7
TORSDOF 1
ENDMDL
