MODEL 1
REMARK minimizedAffinity -1.03523338
REMARK minimizedRMSD -1
REMARK  1 active torsions:
REMARK  status: ('A' for Active; 'I' for Inactive)
REMARK    1  A    between atoms: C3_4  and  O_7 
ROOT
ATOM      1  C   UNL d   1      -4.898   5.989   1.878  0.00  0.00    -0.033 A 
ATOM      2  C1  UNL d   1      -3.552   5.984   2.250  0.00  0.00     0.039 A 
ATOM      3  C2  UNL d   1      -3.198   5.980   3.600  0.00  0.00    -0.080 A 
ATOM      4  C3  UNL d   1      -4.199   5.980   4.568  0.00  0.00     0.150 A 
ATOM      5  C4  UNL d   1      -5.542   5.981   4.206  0.00  0.00    -0.007 A 
ATOM      6  C5  UNL d   1      -5.893   5.986   2.856  0.00  0.00     0.039 A 
ENDROOT
BRANCH   4   7
ATOM      7  O   UNL d   1      -3.903   5.980   5.899  0.00  0.00    -0.526 OA
ATOM      8  H5  UNL d   1      -2.937   6.008   5.999  0.00  0.00     0.418 HD
ENDBRANCH   4   7
TORSDOF 1
ENDMDL
