MODEL 1
REMARK minimizedAffinity 0.274405807
REMARK minimizedRMSD -1
REMARK  1 active torsions:
REMARK  status: ('A' for Active; 'I' for Inactive)
REMARK    1  A    between atoms: C3_4  and  O_7 
ROOT
ATOM      1  C   UNL d   1      -0.311  -4.497   5.517  0.00  0.00    -0.033 A 
ATOM      2  C1  UNL d   1       0.900  -4.167   4.904  0.00  0.00     0.039 A 
ATOM      3  C2  UNL d   1       1.275  -2.829   4.770  0.00  0.00    -0.080 A 
ATOM      4  C3  UNL d   1       0.432  -1.831   5.253  0.00  0.00     0.150 A 
ATOM      5  C4  UNL d   1      -0.774  -2.153   5.868  0.00  0.00    -0.007 A 
ATOM      6  C5  UNL d   1      -1.147  -3.489   6.000  0.00  0.00     0.039 A 
ENDROOT
BRANCH   4   7
ATOM      7  O   UNL d   1       0.753  -0.511   5.140  0.00  0.00    -0.526 OA
ATOM      8  H5  UNL d   1       1.600  -0.439   4.669  0.00  0.00     0.418 HD
ENDBRANCH   4   7
TORSDOF 1
ENDMDL
