MODEL 1
REMARK minimizedAffinity 0.864414275
REMARK minimizedRMSD -1
REMARK  1 active torsions:
REMARK  status: ('A' for Active; 'I' for Inactive)
REMARK    1  A    between atoms: C3_4  and  O_7 
ROOT
ATOM      1  C   UNL d   1      -4.896   5.990   4.432  0.00  0.00    -0.033 A 
ATOM      2  C1  UNL d   1      -3.600   5.985   3.913  0.00  0.00     0.039 A 
ATOM      3  C2  UNL d   1      -3.400   5.984   2.531  0.00  0.00    -0.080 A 
ATOM      4  C3  UNL d   1      -4.503   5.989   1.681  0.00  0.00     0.150 A 
ATOM      5  C4  UNL d   1      -5.797   5.998   2.192  0.00  0.00    -0.007 A 
ATOM      6  C5  UNL d   1      -5.995   5.998   3.572  0.00  0.00     0.039 A 
ENDROOT
BRANCH   4   7
ATOM      7  O   UNL d   1      -4.357   5.984   0.325  0.00  0.00    -0.526 OA
ATOM      8  H5  UNL d   1      -3.409   5.948   0.118  0.00  0.00     0.418 HD
ENDBRANCH   4   7
TORSDOF 1
ENDMDL
