MODEL 1
REMARK minimizedAffinity -0.759034336
REMARK minimizedRMSD -1
REMARK  0 active torsions:
REMARK  status: ('A' for Active; 'I' for Inactive)
ROOT
ATOM      1  C2' OXE d   1      -0.454   2.492  -0.781  0.00  0.00     0.078 C 
ATOM      2  C1' OXE d   1      -1.262  -0.191  -0.943  0.00  0.00     0.078 C 
ATOM      3  C1  OXE d   1       0.043   0.110  -0.248  0.00  0.00    -0.078 A 
ATOM      4  C2  OXE d   1       0.453   1.421  -0.214  0.00  0.00    -0.078 A 
ATOM      5  C3  OXE d   1       1.621   1.761   0.462  0.00  0.00     0.003 A 
ATOM      6  C4  OXE d   1       2.459   0.763   0.974  0.00  0.00    -0.002 A 
ATOM      7  C5  OXE d   1       2.080  -0.582   0.915  0.00  0.00    -0.002 A 
ATOM      8  C6  OXE d   1       0.857  -0.921   0.346  0.00  0.00     0.003 A 
ENDROOT
TORSDOF 0
ENDMDL
