MODEL 1
REMARK minimizedAffinity -1.99012852
REMARK minimizedRMSD -1
REMARK  0 active torsions:
REMARK  status: ('A' for Active; 'I' for Inactive)
ROOT
ATOM      1  C2' OXE d   1       1.931   3.213  -0.429  0.00  0.00     0.078 C 
ATOM      2  C1' OXE d   1       0.040   1.168  -0.078  0.00  0.00     0.078 C 
ATOM      3  C1  OXE d   1      -0.259   2.235  -1.101  0.00  0.00    -0.078 A 
ATOM      4  C2  OXE d   1       0.649   3.257  -1.233  0.00  0.00    -0.078 A 
ATOM      5  C3  OXE d   1       0.448   4.238  -2.200  0.00  0.00     0.003 A 
ATOM      6  C4  OXE d   1      -0.745   4.277  -2.932  0.00  0.00    -0.002 A 
ATOM      7  C5  OXE d   1      -1.701   3.267  -2.785  0.00  0.00    -0.002 A 
ATOM      8  C6  OXE d   1      -1.455   2.218  -1.907  0.00  0.00     0.003 A 
ENDROOT
TORSDOF 0
ENDMDL
