MODEL 1
REMARK minimizedAffinity -4.54748964
REMARK minimizedRMSD -1
REMARK  0 active torsions:
REMARK  status: ('A' for Active; 'I' for Inactive)
ROOT
ATOM      1  C2' OXE d   1       1.876  -1.142  -1.553  0.00  0.00     0.078 C 
ATOM      2  C1' OXE d   1      -0.755  -0.296  -1.059  0.00  0.00     0.078 C 
ATOM      3  C1  OXE d   1       0.190  -0.377   0.114  0.00  0.00    -0.078 A 
ATOM      4  C2  OXE d   1       1.462  -0.836  -0.129  0.00  0.00    -0.078 A 
ATOM      5  C3  OXE d   1       2.390  -0.878   0.908  0.00  0.00     0.003 A 
ATOM      6  C4  OXE d   1       1.996  -0.604   2.223  0.00  0.00    -0.002 A 
ATOM      7  C5  OXE d   1       0.694  -0.172   2.499  0.00  0.00    -0.002 A 
ATOM      8  C6  OXE d   1      -0.207  -0.013   1.452  0.00  0.00     0.003 A 
ENDROOT
TORSDOF 0
ENDMDL
