MODEL 1
REMARK minimizedAffinity -0.988587379
REMARK minimizedRMSD -1
REMARK  0 active torsions:
REMARK  status: ('A' for Active; 'I' for Inactive)
ROOT
ATOM      1  C2' OXE d   1      -0.124   0.289  -0.314  0.00  0.00     0.078 C 
ATOM      2  C1' OXE d   1       0.147   2.845   0.814  0.00  0.00     0.078 C 
ATOM      3  C1  OXE d   1      -0.070   2.753  -0.676  0.00  0.00    -0.078 A 
ATOM      4  C2  OXE d   1      -0.155   1.497  -1.226  0.00  0.00    -0.078 A 
ATOM      5  C3  OXE d   1      -0.409   1.356  -2.587  0.00  0.00     0.003 A 
ATOM      6  C4  OXE d   1      -0.427   2.478  -3.425  0.00  0.00    -0.002 A 
ATOM      7  C5  OXE d   1      -0.303   3.765  -2.890  0.00  0.00    -0.002 A 
ATOM      8  C6  OXE d   1      -0.167   3.921  -1.515  0.00  0.00     0.003 A 
ENDROOT
TORSDOF 0
ENDMDL
