MODEL 1
REMARK minimizedAffinity -4.66849375
REMARK minimizedRMSD -1
REMARK  0 active torsions:
REMARK  status: ('A' for Active; 'I' for Inactive)
ROOT
ATOM      1  C2' OXE d   1      -2.512  -1.089  -2.407  0.00  0.00     0.078 C 
ATOM      2  C1' OXE d   1      -3.749  -1.479   0.083  0.00  0.00     0.078 C 
ATOM      3  C1  OXE d   1      -2.381  -0.844   0.069  0.00  0.00    -0.078 A 
ATOM      4  C2  OXE d   1      -1.764  -0.699  -1.150  0.00  0.00    -0.078 A 
ATOM      5  C3  OXE d   1      -0.525  -0.069  -1.225  0.00  0.00     0.003 A 
ATOM      6  C4  OXE d   1       0.165   0.279  -0.057  0.00  0.00    -0.002 A 
ATOM      7  C5  OXE d   1      -0.429   0.104   1.197  0.00  0.00    -0.002 A 
ATOM      8  C6  OXE d   1      -1.717  -0.416   1.275  0.00  0.00     0.003 A 
ENDROOT
TORSDOF 0
ENDMDL
