MODEL 1
REMARK minimizedAffinity -4.96513224
REMARK minimizedRMSD -1
REMARK  0 active torsions:
REMARK  status: ('A' for Active; 'I' for Inactive)
ROOT
ATOM      1  C2' OXE d   1      -0.456   0.363  -0.976  0.00  0.00     0.078 C 
ATOM      2  C1' OXE d   1      -2.203  -1.104   0.660  0.00  0.00     0.078 C 
ATOM      3  C1  OXE d   1      -0.811  -0.840   1.176  0.00  0.00    -0.078 A 
ATOM      4  C2  OXE d   1       0.052  -0.162   0.350  0.00  0.00    -0.078 A 
ATOM      5  C3  OXE d   1       1.330   0.156   0.800  0.00  0.00     0.003 A 
ATOM      6  C4  OXE d   1       1.796  -0.341   2.023  0.00  0.00    -0.002 A 
ATOM      7  C5  OXE d   1       0.946  -1.068   2.863  0.00  0.00    -0.002 A 
ATOM      8  C6  OXE d   1      -0.371  -1.289   2.474  0.00  0.00     0.003 A 
ENDROOT
TORSDOF 0
ENDMDL
