MODEL 1
REMARK minimizedAffinity -3.92495847
REMARK minimizedRMSD -1
REMARK  0 active torsions:
REMARK  status: ('A' for Active; 'I' for Inactive)
ROOT
ATOM      1  C2' OXE d   1      -1.688  -0.226   1.067  0.00  0.00     0.078 C 
ATOM      2  C1' OXE d   1      -0.365  -0.429  -1.400  0.00  0.00     0.078 C 
ATOM      3  C1  OXE d   1       0.479  -0.394  -0.150  0.00  0.00    -0.078 A 
ATOM      4  C2  OXE d   1      -0.175  -0.248   1.050  0.00  0.00    -0.078 A 
ATOM      5  C3  OXE d   1       0.552  -0.265   2.237  0.00  0.00     0.003 A 
ATOM      6  C4  OXE d   1       1.952  -0.276   2.211  0.00  0.00    -0.002 A 
ATOM      7  C5  OXE d   1       2.639  -0.385   0.998  0.00  0.00    -0.002 A 
ATOM      8  C6  OXE d   1       1.917  -0.488  -0.187  0.00  0.00     0.003 A 
ENDROOT
TORSDOF 0
ENDMDL
