MODEL 1
REMARK minimizedAffinity 1.70372629
REMARK minimizedRMSD -1
REMARK  0 active torsions:
REMARK  status: ('A' for Active; 'I' for Inactive)
ROOT
ATOM      1  C2' OXE d   1      -1.250  -0.011   1.380  0.00  0.00     0.078 C 
ATOM      2  C1' OXE d   1       0.984  -1.290   2.500  0.00  0.00     0.078 C 
ATOM      3  C1  OXE d   1       1.024  -0.966   1.027  0.00  0.00    -0.078 A 
ATOM      4  C2  OXE d   1      -0.092  -0.383   0.478  0.00  0.00    -0.078 A 
ATOM      5  C3  OXE d   1      -0.087  -0.013  -0.864  0.00  0.00     0.003 A 
ATOM      6  C4  OXE d   1       0.983  -0.369  -1.694  0.00  0.00    -0.002 A 
ATOM      7  C5  OXE d   1       2.114  -1.000  -1.162  0.00  0.00    -0.002 A 
ATOM      8  C6  OXE d   1       2.168  -1.266   0.201  0.00  0.00     0.003 A 
ENDROOT
TORSDOF 0
ENDMDL
