MODEL 1
REMARK minimizedAffinity -1.74703717
REMARK minimizedRMSD -1
REMARK  0 active torsions:
REMARK  status: ('A' for Active; 'I' for Inactive)
ROOT
ATOM      1  C2' OXE d   1      -1.400   3.388  -2.633  0.00  0.00     0.078 C 
ATOM      2  C1' OXE d   1       1.271   2.988  -3.401  0.00  0.00     0.078 C 
ATOM      3  C1  OXE d   1       0.546   1.837  -2.749  0.00  0.00    -0.078 A 
ATOM      4  C2  OXE d   1      -0.746   2.056  -2.335  0.00  0.00    -0.078 A 
ATOM      5  C3  OXE d   1      -1.478   1.012  -1.778  0.00  0.00     0.003 A 
ATOM      6  C4  OXE d   1      -0.862  -0.214  -1.496  0.00  0.00    -0.002 A 
ATOM      7  C5  OXE d   1       0.465  -0.446  -1.874  0.00  0.00    -0.002 A 
ATOM      8  C6  OXE d   1       1.168   0.553  -2.538  0.00  0.00     0.003 A 
ENDROOT
TORSDOF 0
ENDMDL
