MODEL 1
REMARK minimizedAffinity 5.38019562
REMARK minimizedRMSD -1
REMARK  0 active torsions:
REMARK  status: ('A' for Active; 'I' for Inactive)
ROOT
ATOM      1  N1  IND d   1       2.473   0.795  -1.429  0.00  0.00    -0.196 N 
ATOM      2  C2  IND d   1       3.659   0.710  -0.756  0.00  0.00     0.054 A 
ATOM      3  C3  IND d   1       3.471   0.955   0.560  0.00  0.00    -0.031 A 
ATOM      4  C4  IND d   1       1.287   1.415   1.843  0.00  0.00     0.051 A 
ATOM      5  C5  IND d   1      -0.050   1.626   1.653  0.00  0.00    -0.031 A 
ATOM      6  C6  IND d   1      -0.626   1.566   0.400  0.00  0.00     0.015 A 
ATOM      7  C7  IND d   1       0.114   1.281  -0.712  0.00  0.00    -0.016 A 
ATOM      8  C8  IND d   1       1.473   1.074  -0.523  0.00  0.00    -0.047 A 
ATOM      9  C9  IND d   1       2.071   1.175   0.739  0.00  0.00    -0.096 A 
ATOM     10  HN1 IND d   1       2.368   0.691  -2.277  0.00  0.00     0.298 HD
ENDROOT
TORSDOF 0
ENDMDL
