MODEL 1
REMARK minimizedAffinity 11.7273664
REMARK minimizedRMSD -1
REMARK  0 active torsions:
REMARK  status: ('A' for Active; 'I' for Inactive)
ROOT
ATOM      1  N1  IND d   1      -2.096   1.444  -5.141  0.00  0.00    -0.196 N 
ATOM      2  C2  IND d   1      -3.291   1.696  -5.755  0.00  0.00     0.054 A 
ATOM      3  C3  IND d   1      -4.279   0.980  -5.173  0.00  0.00    -0.031 A 
ATOM      4  C4  IND d   1      -4.180  -0.588  -3.134  0.00  0.00     0.051 A 
ATOM      5  C5  IND d   1      -3.302  -1.162  -2.258  0.00  0.00    -0.031 A 
ATOM      6  C6  IND d   1      -1.950  -0.888  -2.297  0.00  0.00     0.015 A 
ATOM      7  C7  IND d   1      -1.425  -0.018  -3.211  0.00  0.00    -0.016 A 
ATOM      8  C8  IND d   1      -2.313   0.560  -4.106  0.00  0.00    -0.047 A 
ATOM      9  C9  IND d   1      -3.680   0.254  -4.099  0.00  0.00    -0.096 A 
ATOM     10  HN1 IND d   1      -1.337   1.781  -5.363  0.00  0.00     0.298 HD
ENDROOT
TORSDOF 0
ENDMDL
