MODEL 1
REMARK minimizedAffinity 15.7098293
REMARK minimizedRMSD -1
REMARK  0 active torsions:
REMARK  status: ('A' for Active; 'I' for Inactive)
ROOT
ATOM      1  N1  IND d   1       1.903  -2.852  -3.403  0.00  0.00    -0.196 N 
ATOM      2  C2  IND d   1       3.241  -3.097  -3.536  0.00  0.00     0.054 A 
ATOM      3  C3  IND d   1       3.824  -3.199  -2.321  0.00  0.00    -0.031 A 
ATOM      4  C4  IND d   1       2.754  -3.099   0.019  0.00  0.00     0.051 A 
ATOM      5  C5  IND d   1       1.567  -2.857   0.651  0.00  0.00    -0.031 A 
ATOM      6  C6  IND d   1       0.407  -2.599  -0.050  0.00  0.00     0.015 A 
ATOM      7  C7  IND d   1       0.389  -2.584  -1.416  0.00  0.00    -0.016 A 
ATOM      8  C8  IND d   1       1.594  -2.822  -2.061  0.00  0.00    -0.047 A 
ATOM      9  C9  IND d   1       2.783  -3.043  -1.354  0.00  0.00    -0.096 A 
ATOM     10  HN1 IND d   1       1.347  -2.737  -4.049  0.00  0.00     0.298 HD
ENDROOT
TORSDOF 0
ENDMDL
