MODEL 1
REMARK minimizedAffinity 9.81699657
REMARK minimizedRMSD -1
REMARK  0 active torsions:
REMARK  status: ('A' for Active; 'I' for Inactive)
ROOT
ATOM      1  N1  IND d   1      -0.053  -4.414  -0.130  0.00  0.00    -0.196 N 
ATOM      2  C2  IND d   1      -0.897  -4.316  -1.201  0.00  0.00     0.054 A 
ATOM      3  C3  IND d   1      -0.594  -3.226  -1.941  0.00  0.00    -0.031 A 
ATOM      4  C4  IND d   1       1.311  -1.521  -1.636  0.00  0.00     0.051 A 
ATOM      5  C5  IND d   1       2.319  -1.173  -0.781  0.00  0.00    -0.031 A 
ATOM      6  C6  IND d   1       2.595  -1.904   0.356  0.00  0.00     0.015 A 
ATOM      7  C7  IND d   1       1.877  -3.022   0.676  0.00  0.00    -0.016 A 
ATOM      8  C8  IND d   1       0.849  -3.374  -0.186  0.00  0.00    -0.047 A 
ATOM      9  C9  IND d   1       0.536  -2.612  -1.319  0.00  0.00    -0.096 A 
ATOM     10  HN1 IND d   1      -0.081  -5.023   0.477  0.00  0.00     0.298 HD
ENDROOT
TORSDOF 0
ENDMDL
