MODEL 1
REMARK minimizedAffinity 10.9313717
REMARK minimizedRMSD -1
REMARK  0 active torsions:
REMARK  status: ('A' for Active; 'I' for Inactive)
ROOT
ATOM      1  N1  IND d   1      -2.471  -0.314  -2.062  0.00  0.00    -0.196 N 
ATOM      2  C2  IND d   1      -1.812   0.227  -3.130  0.00  0.00     0.054 A 
ATOM      3  C3  IND d   1      -2.601   1.123  -3.766  0.00  0.00    -0.031 A 
ATOM      4  C4  IND d   1      -4.971   1.929  -3.166  0.00  0.00     0.051 A 
ATOM      5  C5  IND d   1      -6.000   1.697  -2.297  0.00  0.00    -0.031 A 
ATOM      6  C6  IND d   1      -5.903   0.766  -1.283  0.00  0.00     0.015 A 
ATOM      7  C7  IND d   1      -4.763   0.037  -1.093  0.00  0.00    -0.016 A 
ATOM      8  C8  IND d   1      -3.718   0.265  -1.978  0.00  0.00    -0.047 A 
ATOM      9  C9  IND d   1      -3.827   1.178  -3.034  0.00  0.00    -0.096 A 
ATOM     10  HN1 IND d   1      -2.160  -0.915  -1.532  0.00  0.00     0.298 HD
ENDROOT
TORSDOF 0
ENDMDL
