MODEL 1
REMARK minimizedAffinity 6.9825139
REMARK minimizedRMSD -1
REMARK  0 active torsions:
REMARK  status: ('A' for Active; 'I' for Inactive)
ROOT
ATOM      1  N1  IND d   1       4.072   0.725  -1.796  0.00  0.00    -0.196 N 
ATOM      2  C2  IND d   1       3.654  -0.291  -0.983  0.00  0.00     0.054 A 
ATOM      3  C3  IND d   1       4.063  -0.075   0.288  0.00  0.00    -0.031 A 
ATOM      4  C4  IND d   1       5.342   1.929   1.276  0.00  0.00     0.051 A 
ATOM      5  C5  IND d   1       5.971   3.087   0.918  0.00  0.00    -0.031 A 
ATOM      6  C6  IND d   1       5.998   3.528  -0.390  0.00  0.00     0.015 A 
ATOM      7  C7  IND d   1       5.384   2.829  -1.390  0.00  0.00    -0.016 A 
ATOM      8  C8  IND d   1       4.750   1.648  -1.031  0.00  0.00    -0.047 A 
ATOM      9  C9  IND d   1       4.755   1.174   0.287  0.00  0.00    -0.096 A 
ATOM     10  HN1 IND d   1       3.935   0.778  -2.643  0.00  0.00     0.298 HD
ENDROOT
TORSDOF 0
ENDMDL
