MODEL 1
REMARK minimizedAffinity 6.42906523
REMARK minimizedRMSD -1
REMARK  0 active torsions:
REMARK  status: ('A' for Active; 'I' for Inactive)
ROOT
ATOM      1  N1  IND d   1       4.503  -0.395  -2.338  0.00  0.00    -0.196 N 
ATOM      2  C2  IND d   1       4.370   0.286  -1.161  0.00  0.00     0.054 A 
ATOM      3  C3  IND d   1       3.526  -0.369  -0.331  0.00  0.00    -0.031 A 
ATOM      4  C4  IND d   1       2.330  -2.624  -0.662  0.00  0.00     0.051 A 
ATOM      5  C5  IND d   1       2.115  -3.603  -1.591  0.00  0.00    -0.031 A 
ATOM      6  C6  IND d   1       2.698  -3.563  -2.841  0.00  0.00     0.015 A 
ATOM      7  C7  IND d   1       3.532  -2.544  -3.206  0.00  0.00    -0.016 A 
ATOM      8  C8  IND d   1       3.747  -1.545  -2.267  0.00  0.00    -0.047 A 
ATOM      9  C9  IND d   1       3.125  -1.558  -1.013  0.00  0.00    -0.096 A 
ATOM     10  HN1 IND d   1       4.979  -0.148  -3.010  0.00  0.00     0.298 HD
ENDROOT
TORSDOF 0
ENDMDL
