MODEL 1
REMARK minimizedAffinity -2.72214723
REMARK minimizedRMSD -1
REMARK  0 active torsions:
REMARK  status: ('A' for Active; 'I' for Inactive)
ROOT
ATOM      1  C2' OXE d   1      -3.739  -0.202   1.397  0.00  0.00     0.078 C 
ATOM      2  C1' OXE d   1      -2.941   2.487   1.531  0.00  0.00     0.078 C 
ATOM      3  C1  OXE d   1      -1.917   1.470   1.093  0.00  0.00    -0.078 A 
ATOM      4  C2  OXE d   1      -2.302   0.151   1.075  0.00  0.00    -0.078 A 
ATOM      5  C3  OXE d   1      -1.413  -0.821   0.627  0.00  0.00     0.003 A 
ATOM      6  C4  OXE d   1      -0.083  -0.487   0.341  0.00  0.00    -0.002 A 
ATOM      7  C5  OXE d   1       0.341   0.845   0.391  0.00  0.00    -0.002 A 
ATOM      8  C6  OXE d   1      -0.573   1.839   0.723  0.00  0.00     0.003 A 
ENDROOT
TORSDOF 0
ENDMDL
