MODEL 1
REMARK minimizedAffinity -5.08341312
REMARK minimizedRMSD -1
REMARK  0 active torsions:
REMARK  status: ('A' for Active; 'I' for Inactive)
ROOT
ATOM      1  C2' OXE d   1       1.465   1.966   0.662  0.00  0.00     0.078 C 
ATOM      2  C1' OXE d   1      -0.725   0.232   0.944  0.00  0.00     0.078 C 
ATOM      3  C1  OXE d   1       0.119   0.102  -0.299  0.00  0.00    -0.078 A 
ATOM      4  C2  OXE d   1       1.161   0.986  -0.450  0.00  0.00    -0.078 A 
ATOM      5  C3  OXE d   1       2.005   0.874  -1.552  0.00  0.00     0.003 A 
ATOM      6  C4  OXE d   1       1.711  -0.029  -2.581  0.00  0.00    -0.002 A 
ATOM      7  C5  OXE d   1       0.631  -0.911  -2.465  0.00  0.00    -0.002 A 
ATOM      8  C6  OXE d   1      -0.148  -0.887  -1.313  0.00  0.00     0.003 A 
ENDROOT
TORSDOF 0
ENDMDL
