MODEL 1
REMARK minimizedAffinity -2.1726191
REMARK minimizedRMSD -1
REMARK  0 active torsions:
REMARK  status: ('A' for Active; 'I' for Inactive)
ROOT
ATOM      1  C2' OXE d   1      -4.326   0.204  -5.709  0.00  0.00     0.078 C 
ATOM      2  C1' OXE d   1      -2.220   1.888  -4.927  0.00  0.00     0.078 C 
ATOM      3  C1  OXE d   1      -3.540   2.528  -5.279  0.00  0.00    -0.078 A 
ATOM      4  C2  OXE d   1      -4.550   1.701  -5.706  0.00  0.00    -0.078 A 
ATOM      5  C3  OXE d   1      -5.804   2.235  -5.991  0.00  0.00     0.003 A 
ATOM      6  C4  OXE d   1      -6.000   3.621  -5.995  0.00  0.00    -0.002 A 
ATOM      7  C5  OXE d   1      -4.972   4.485  -5.602  0.00  0.00    -0.002 A 
ATOM      8  C6  OXE d   1      -3.751   3.953  -5.201  0.00  0.00     0.003 A 
ENDROOT
TORSDOF 0
ENDMDL
