MODEL 1
REMARK minimizedAffinity -2.14631557
REMARK minimizedRMSD -1
REMARK  0 active torsions:
REMARK  status: ('A' for Active; 'I' for Inactive)
ROOT
ATOM      1  C2' OXE d   1      -0.647  -2.140  -1.643  0.00  0.00     0.078 C 
ATOM      2  C1' OXE d   1       0.566   0.002  -2.994  0.00  0.00     0.078 C 
ATOM      3  C1  OXE d   1       0.558   0.035  -1.486  0.00  0.00    -0.078 A 
ATOM      4  C2  OXE d   1      -0.079  -0.994  -0.834  0.00  0.00    -0.078 A 
ATOM      5  C3  OXE d   1      -0.067  -1.041   0.557  0.00  0.00     0.003 A 
ATOM      6  C4  OXE d   1       0.452   0.028   1.298  0.00  0.00    -0.002 A 
ATOM      7  C5  OXE d   1       1.069   1.105   0.653  0.00  0.00    -0.002 A 
ATOM      8  C6  OXE d   1       1.168   1.103  -0.734  0.00  0.00     0.003 A 
ENDROOT
TORSDOF 0
ENDMDL
