MODEL 1
REMARK minimizedAffinity -2.80938721
REMARK minimizedRMSD -1
REMARK  0 active torsions:
REMARK  status: ('A' for Active; 'I' for Inactive)
ROOT
ATOM      1  C2' OXE d   1      -0.631  -1.105   0.626  0.00  0.00     0.078 C 
ATOM      2  C1' OXE d   1       1.064  -2.827  -0.802  0.00  0.00     0.078 C 
ATOM      3  C1  OXE d   1       1.258  -1.342  -0.980  0.00  0.00    -0.078 A 
ATOM      4  C2  OXE d   1       0.394  -0.507  -0.314  0.00  0.00    -0.078 A 
ATOM      5  C3  OXE d   1       0.563   0.871  -0.400  0.00  0.00     0.003 A 
ATOM      6  C4  OXE d   1       1.507   1.416  -1.279  0.00  0.00    -0.002 A 
ATOM      7  C5  OXE d   1       2.371   0.583  -1.998  0.00  0.00    -0.002 A 
ATOM      8  C6  OXE d   1       2.288  -0.795  -1.827  0.00  0.00     0.003 A 
ENDROOT
TORSDOF 0
ENDMDL
