MODEL 1
REMARK minimizedAffinity -1.96178639
REMARK minimizedRMSD -1
REMARK  0 active torsions:
REMARK  status: ('A' for Active; 'I' for Inactive)
ROOT
ATOM      1  C2' OXE d   1       2.690  -0.386  -2.869  0.00  0.00     0.078 C 
ATOM      2  C1' OXE d   1       3.996   1.245  -0.993  0.00  0.00     0.078 C 
ATOM      3  C1  OXE d   1       2.565   0.859  -0.714  0.00  0.00    -0.078 A 
ATOM      4  C2  OXE d   1       1.919   0.099  -1.660  0.00  0.00    -0.078 A 
ATOM      5  C3  OXE d   1       0.616  -0.330  -1.427  0.00  0.00     0.003 A 
ATOM      6  C4  OXE d   1      -0.094   0.131  -0.312  0.00  0.00    -0.002 A 
ATOM      7  C5  OXE d   1       0.532   0.938   0.644  0.00  0.00    -0.002 A 
ATOM      8  C6  OXE d   1       1.871   1.275   0.480  0.00  0.00     0.003 A 
ENDROOT
TORSDOF 0
ENDMDL
