MODEL 1
REMARK minimizedAffinity -4.90668392
REMARK minimizedRMSD -1
REMARK  0 active torsions:
REMARK  status: ('A' for Active; 'I' for Inactive)
ROOT
ATOM      1  C2' OXE d   1      -0.182  -0.254   0.733  0.00  0.00     0.078 C 
ATOM      2  C1' OXE d   1       0.625  -2.620  -0.543  0.00  0.00     0.078 C 
ATOM      3  C1  OXE d   1       1.031  -1.309  -1.170  0.00  0.00    -0.078 A 
ATOM      4  C2  OXE d   1       0.592  -0.156  -0.564  0.00  0.00    -0.078 A 
ATOM      5  C3  OXE d   1       0.983   1.080  -1.069  0.00  0.00     0.003 A 
ATOM      6  C4  OXE d   1       1.691   1.161  -2.275  0.00  0.00    -0.002 A 
ATOM      7  C5  OXE d   1       2.114  -0.000  -2.929  0.00  0.00    -0.002 A 
ATOM      8  C6  OXE d   1       1.829  -1.240  -2.368  0.00  0.00     0.003 A 
ENDROOT
TORSDOF 0
ENDMDL
