MODEL 1
REMARK minimizedAffinity -4.42855644
REMARK minimizedRMSD -1
REMARK  0 active torsions:
REMARK  status: ('A' for Active; 'I' for Inactive)
ROOT
ATOM      1  C2' OXE d   1       1.583   0.102  -2.528  0.00  0.00     0.078 C 
ATOM      2  C1' OXE d   1       1.036   2.146  -0.683  0.00  0.00     0.078 C 
ATOM      3  C1  OXE d   1       0.562   0.753  -0.351  0.00  0.00    -0.078 A 
ATOM      4  C2  OXE d   1       0.793  -0.232  -1.281  0.00  0.00    -0.078 A 
ATOM      5  C3  OXE d   1       0.425  -1.544  -1.000  0.00  0.00     0.003 A 
ATOM      6  C4  OXE d   1      -0.314  -1.843   0.151  0.00  0.00    -0.002 A 
ATOM      7  C5  OXE d   1      -0.595  -0.847   1.092  0.00  0.00    -0.002 A 
ATOM      8  C6  OXE d   1      -0.128   0.445   0.877  0.00  0.00     0.003 A 
ENDROOT
TORSDOF 0
ENDMDL
