MODEL 1
REMARK minimizedAffinity -5.07303286
REMARK minimizedRMSD -1
REMARK  0 active torsions:
REMARK  status: ('A' for Active; 'I' for Inactive)
ROOT
ATOM      1  C2' OXE d   1       0.512  -2.349  -1.602  0.00  0.00     0.078 C 
ATOM      2  C1' OXE d   1       2.014  -0.435  -3.002  0.00  0.00     0.078 C 
ATOM      3  C1  OXE d   1       1.410  -0.027  -1.681  0.00  0.00    -0.078 A 
ATOM      4  C2  OXE d   1       0.638  -0.956  -1.026  0.00  0.00    -0.078 A 
ATOM      5  C3  OXE d   1       0.102  -0.649   0.222  0.00  0.00     0.003 A 
ATOM      6  C4  OXE d   1       0.215   0.645   0.744  0.00  0.00    -0.002 A 
ATOM      7  C5  OXE d   1       0.964   1.618   0.073  0.00  0.00    -0.002 A 
ATOM      8  C6  OXE d   1       1.602   1.286  -1.117  0.00  0.00     0.003 A 
ENDROOT
TORSDOF 0
ENDMDL
