MODEL 1
REMARK minimizedAffinity -5.09589911
REMARK minimizedRMSD -1
REMARK  0 active torsions:
REMARK  status: ('A' for Active; 'I' for Inactive)
ROOT
ATOM      1  C2' OXE d   1      -0.261  -0.171   0.393  0.00  0.00     0.078 C 
ATOM      2  C1' OXE d   1       0.162  -2.914  -0.028  0.00  0.00     0.078 C 
ATOM      3  C1  OXE d   1       0.896  -1.944  -0.920  0.00  0.00    -0.078 A 
ATOM      4  C2  OXE d   1       0.647  -0.605  -0.737  0.00  0.00    -0.078 A 
ATOM      5  C3  OXE d   1       1.339   0.334  -1.496  0.00  0.00     0.003 A 
ATOM      6  C4  OXE d   1       2.170  -0.075  -2.546  0.00  0.00    -0.002 A 
ATOM      7  C5  OXE d   1       2.406  -1.435  -2.775  0.00  0.00    -0.002 A 
ATOM      8  C6  OXE d   1       1.812  -2.379  -1.945  0.00  0.00     0.003 A 
ENDROOT
TORSDOF 0
ENDMDL
