MODEL 1
REMARK minimizedAffinity -4.5844326
REMARK minimizedRMSD -1
REMARK  0 active torsions:
REMARK  status: ('A' for Active; 'I' for Inactive)
ROOT
ATOM      1  C2' OXE d   1      -0.195  -2.569  -1.727  0.00  0.00     0.078 C 
ATOM      2  C1' OXE d   1       1.067  -0.355  -2.905  0.00  0.00     0.078 C 
ATOM      3  C1  OXE d   1       0.622  -0.230  -1.469  0.00  0.00    -0.078 A 
ATOM      4  C2  OXE d   1      -0.037  -1.301  -0.915  0.00  0.00    -0.078 A 
ATOM      5  C3  OXE d   1      -0.420  -1.258   0.422  0.00  0.00     0.003 A 
ATOM      6  C4  OXE d   1      -0.279  -0.078   1.162  0.00  0.00    -0.002 A 
ATOM      7  C5  OXE d   1       0.353   1.038   0.605  0.00  0.00    -0.002 A 
ATOM      8  C6  OXE d   1       0.846   0.965  -0.693  0.00  0.00     0.003 A 
ENDROOT
TORSDOF 0
ENDMDL
