MODEL 1
REMARK minimizedAffinity -4.8749752
REMARK minimizedRMSD -1
REMARK  0 active torsions:
REMARK  status: ('A' for Active; 'I' for Inactive)
ROOT
ATOM      1  C2' OXE d   1       0.547  -2.495  -1.387  0.00  0.00     0.078 C 
ATOM      2  C1' OXE d   1       1.521  -0.124  -2.532  0.00  0.00     0.078 C 
ATOM      3  C1  OXE d   1       0.784  -0.021  -1.219  0.00  0.00    -0.078 A 
ATOM      4  C2  OXE d   1       0.271  -1.180  -0.690  0.00  0.00    -0.078 A 
ATOM      5  C3  OXE d   1      -0.369  -1.149   0.546  0.00  0.00     0.003 A 
ATOM      6  C4  OXE d   1      -0.630   0.072   1.179  0.00  0.00    -0.002 A 
ATOM      7  C5  OXE d   1      -0.150   1.269   0.637  0.00  0.00    -0.002 A 
ATOM      8  C6  OXE d   1       0.594   1.235  -0.538  0.00  0.00     0.003 A 
ENDROOT
TORSDOF 0
ENDMDL
