MODEL 1
REMARK minimizedAffinity -2.61903667
REMARK minimizedRMSD -1
REMARK  0 active torsions:
REMARK  status: ('A' for Active; 'I' for Inactive)
ROOT
ATOM      1  C2' OXE d   1      -0.735  -0.719   1.020  0.00  0.00     0.078 C 
ATOM      2  C1' OXE d   1       0.505  -2.500  -0.761  0.00  0.00     0.078 C 
ATOM      3  C1  OXE d   1       0.961  -1.062  -0.772  0.00  0.00    -0.078 A 
ATOM      4  C2  OXE d   1       0.316  -0.188   0.070  0.00  0.00    -0.078 A 
ATOM      5  C3  OXE d   1       0.734   1.138   0.139  0.00  0.00     0.003 A 
ATOM      6  C4  OXE d   1       1.701   1.624  -0.751  0.00  0.00    -0.002 A 
ATOM      7  C5  OXE d   1       2.342   0.759  -1.644  0.00  0.00    -0.002 A 
ATOM      8  C6  OXE d   1       2.015  -0.593  -1.637  0.00  0.00     0.003 A 
ENDROOT
TORSDOF 0
ENDMDL
