MODEL 1
REMARK minimizedAffinity -0.694995701
REMARK minimizedRMSD -1
REMARK  0 active torsions:
REMARK  status: ('A' for Active; 'I' for Inactive)
ROOT
ATOM      1  C2' OXE d   1      -0.269  -1.705   0.049  0.00  0.00     0.078 C 
ATOM      2  C1' OXE d   1       0.348   0.816   1.119  0.00  0.00     0.078 C 
ATOM      3  C1  OXE d   1      -1.076   0.332   1.236  0.00  0.00    -0.078 A 
ATOM      4  C2  OXE d   1      -1.379  -0.882   0.668  0.00  0.00    -0.078 A 
ATOM      5  C3  OXE d   1      -2.665  -1.401   0.795  0.00  0.00     0.003 A 
ATOM      6  C4  OXE d   1      -3.687  -0.629   1.360  0.00  0.00    -0.002 A 
ATOM      7  C5  OXE d   1      -3.408   0.627   1.909  0.00  0.00    -0.002 A 
ATOM      8  C6  OXE d   1      -2.102   1.103   1.893  0.00  0.00     0.003 A 
ENDROOT
TORSDOF 0
ENDMDL
