MODEL 1
REMARK minimizedAffinity -1.90966237
REMARK minimizedRMSD -1
REMARK  0 active torsions:
REMARK  status: ('A' for Active; 'I' for Inactive)
ROOT
ATOM      1  C2' OXE d   1       3.123  -2.073  -1.929  0.00  0.00     0.078 C 
ATOM      2  C1' OXE d   1       0.762  -2.588  -0.500  0.00  0.00     0.078 C 
ATOM      3  C1  OXE d   1       1.169  -1.148  -0.691  0.00  0.00    -0.078 A 
ATOM      4  C2  OXE d   1       2.349  -0.907  -1.351  0.00  0.00    -0.078 A 
ATOM      5  C3  OXE d   1       2.743   0.404  -1.603  0.00  0.00     0.003 A 
ATOM      6  C4  OXE d   1       2.028   1.476  -1.056  0.00  0.00    -0.002 A 
ATOM      7  C5  OXE d   1       0.843   1.251  -0.347  0.00  0.00    -0.002 A 
ATOM      8  C6  OXE d   1       0.378  -0.050  -0.192  0.00  0.00     0.003 A 
ENDROOT
TORSDOF 0
ENDMDL
