MODEL 1
REMARK minimizedAffinity -4.39169979
REMARK minimizedRMSD -1
REMARK  0 active torsions:
REMARK  status: ('A' for Active; 'I' for Inactive)
ROOT
ATOM      1  C2' OXE d   1      -0.425   0.316   0.309  0.00  0.00     0.078 C 
ATOM      2  C1' OXE d   1       1.208   1.458  -1.668  0.00  0.00     0.078 C 
ATOM      3  C1  OXE d   1       1.204  -0.045  -1.541  0.00  0.00    -0.078 A 
ATOM      4  C2  OXE d   1       0.437  -0.593  -0.540  0.00  0.00    -0.078 A 
ATOM      5  C3  OXE d   1       0.355  -1.976  -0.414  0.00  0.00     0.003 A 
ATOM      6  C4  OXE d   1       1.163  -2.809  -1.196  0.00  0.00    -0.002 A 
ATOM      7  C5  OXE d   1       1.981  -2.270  -2.195  0.00  0.00    -0.002 A 
ATOM      8  C6  OXE d   1       1.981  -0.896  -2.408  0.00  0.00     0.003 A 
ENDROOT
TORSDOF 0
ENDMDL
