MODEL 1
REMARK minimizedAffinity -1.19311368
REMARK minimizedRMSD -1
REMARK  0 active torsions:
REMARK  status: ('A' for Active; 'I' for Inactive)
ROOT
ATOM      1  C2' OXE d   1      -0.154  -1.327   0.498  0.00  0.00     0.078 C 
ATOM      2  C1' OXE d   1       1.082  -3.192  -1.198  0.00  0.00     0.078 C 
ATOM      3  C1  OXE d   1       1.246  -1.729  -1.523  0.00  0.00    -0.078 A 
ATOM      4  C2  OXE d   1       0.600  -0.825  -0.715  0.00  0.00    -0.078 A 
ATOM      5  C3  OXE d   1       0.763   0.540  -0.938  0.00  0.00     0.003 A 
ATOM      6  C4  OXE d   1       1.453   0.995  -2.068  0.00  0.00    -0.002 A 
ATOM      7  C5  OXE d   1       2.086   0.090  -2.926  0.00  0.00    -0.002 A 
ATOM      8  C6  OXE d   1       2.028  -1.270  -2.645  0.00  0.00     0.003 A 
ENDROOT
TORSDOF 0
ENDMDL
