MODEL 1
REMARK minimizedAffinity -3.86179519
REMARK minimizedRMSD -1
REMARK  0 active torsions:
REMARK  status: ('A' for Active; 'I' for Inactive)
ROOT
ATOM      1  C2' OXE d   1      -0.065  -2.404  -1.368  0.00  0.00     0.078 C 
ATOM      2  C1' OXE d   1      -0.392  -0.699   0.838  0.00  0.00     0.078 C 
ATOM      3  C1  OXE d   1       0.319  -0.152  -0.374  0.00  0.00    -0.078 A 
ATOM      4  C2  OXE d   1       0.516  -1.008  -1.431  0.00  0.00    -0.078 A 
ATOM      5  C3  OXE d   1       1.118  -0.538  -2.595  0.00  0.00     0.003 A 
ATOM      6  C4  OXE d   1       1.662   0.751  -2.641  0.00  0.00    -0.002 A 
ATOM      7  C5  OXE d   1       1.508   1.626  -1.561  0.00  0.00    -0.002 A 
ATOM      8  C6  OXE d   1       0.803   1.205  -0.438  0.00  0.00     0.003 A 
ENDROOT
TORSDOF 0
ENDMDL
