MODEL 1
REMARK minimizedAffinity -5.80877829
REMARK minimizedRMSD -1
REMARK  1 active torsions:
REMARK  status: ('A' for Active; 'I' for Inactive)
REMARK    1  A    between atoms: C1_2  and  C2_3 
ROOT
ATOM      1  C2  UNL d   1      -2.975  -0.492  -4.135  0.00  0.00    -0.076 A 
ATOM      2  C3  UNL d   1      -2.708  -1.845  -4.409  0.00  0.00     0.004 A 
ATOM      3  C4  UNL d   1      -3.478  -2.557  -5.328  0.00  0.00    -0.003 A 
ATOM      4  C5  UNL d   1      -4.527  -1.927  -5.988  0.00  0.00     0.000 A 
ATOM      5  C6  UNL d   1      -4.795  -0.581  -5.742  0.00  0.00     0.000 A 
ATOM      6  C7  UNL d   1      -4.019   0.155  -4.831  0.00  0.00    -0.073 A 
ATOM      7  C8  UNL d   1      -4.356   1.603  -4.599  0.00  0.00     0.078 C 
ENDROOT
BRANCH   1   8
ATOM      8  C1  UNL d   1      -2.124   0.221  -3.109  0.00  0.00     0.053 C 
ATOM      9  C   UNL d   1      -1.312  -0.742  -2.256  0.00  0.00     0.018 C 
ENDBRANCH   1   8
TORSDOF 1
ENDMDL
