MODEL 1
REMARK minimizedAffinity -5.13610983
REMARK minimizedRMSD -1
REMARK  1 active torsions:
REMARK  status: ('A' for Active; 'I' for Inactive)
REMARK    1  A    between atoms: C1_2  and  C2_3 
ROOT
ATOM      1  C2  UNL d   1      -3.177   0.510  -4.540  0.00  0.00    -0.076 A 
ATOM      2  C3  UNL d   1      -4.237   0.778  -5.423  0.00  0.00     0.004 A 
ATOM      3  C4  UNL d   1      -5.367  -0.038  -5.455  0.00  0.00    -0.003 A 
ATOM      4  C5  UNL d   1      -5.456  -1.134  -4.604  0.00  0.00     0.000 A 
ATOM      5  C6  UNL d   1      -4.421  -1.404  -3.709  0.00  0.00     0.000 A 
ATOM      6  C7  UNL d   1      -3.282  -0.582  -3.652  0.00  0.00    -0.073 A 
ATOM      7  C8  UNL d   1      -2.193  -0.923  -2.672  0.00  0.00     0.078 C 
ENDROOT
BRANCH   1   8
ATOM      8  C1  UNL d   1      -1.965   1.414  -4.569  0.00  0.00     0.053 C 
ATOM      9  C   UNL d   1      -1.972   2.435  -3.442  0.00  0.00     0.018 C 
ENDBRANCH   1   8
TORSDOF 1
ENDMDL
