MODEL 1
REMARK minimizedAffinity 4.9715271
REMARK minimizedRMSD -1
REMARK  1 active torsions:
REMARK  status: ('A' for Active; 'I' for Inactive)
REMARK    1  A    between atoms: C1_2  and  C2_3 
ROOT
ATOM      1  C2  UNL d   1      -4.454  -0.677  -3.926  0.00  0.00    -0.076 A 
ATOM      2  C3  UNL d   1      -5.593   0.103  -4.188  0.00  0.00     0.004 A 
ATOM      3  C4  UNL d   1      -5.597   1.045  -5.215  0.00  0.00    -0.003 A 
ATOM      4  C5  UNL d   1      -4.461   1.222  -5.998  0.00  0.00     0.000 A 
ATOM      5  C6  UNL d   1      -3.328   0.444  -5.763  0.00  0.00     0.000 A 
ATOM      6  C7  UNL d   1      -3.313  -0.522  -4.742  0.00  0.00    -0.073 A 
ATOM      7  C8  UNL d   1      -2.061  -1.328  -4.529  0.00  0.00     0.078 C 
ENDROOT
BRANCH   1   8
ATOM      8  C1  UNL d   1      -4.499  -1.664  -2.781  0.00  0.00     0.053 C 
ATOM      9  C   UNL d   1      -3.772  -1.157  -1.546  0.00  0.00     0.018 C 
ENDBRANCH   1   8
TORSDOF 1
ENDMDL
