MODEL 1
REMARK minimizedAffinity 2.04544711
REMARK minimizedRMSD -1
REMARK  1 active torsions:
REMARK  status: ('A' for Active; 'I' for Inactive)
REMARK    1  A    between atoms: C1_2  and  C2_3 
ROOT
ATOM      1  C2  UNL d   1      -4.011   1.192  -3.788  0.00  0.00    -0.076 A 
ATOM      2  C3  UNL d   1      -3.291   0.194  -3.109  0.00  0.00     0.004 A 
ATOM      3  C4  UNL d   1      -3.738  -1.126  -3.091  0.00  0.00    -0.003 A 
ATOM      4  C5  UNL d   1      -4.912  -1.470  -3.753  0.00  0.00     0.000 A 
ATOM      5  C6  UNL d   1      -5.629  -0.496  -4.447  0.00  0.00     0.000 A 
ATOM      6  C7  UNL d   1      -5.184   0.837  -4.489  0.00  0.00    -0.073 A 
ATOM      7  C8  UNL d   1      -6.000   1.847  -5.247  0.00  0.00     0.078 C 
ENDROOT
BRANCH   1   8
ATOM      8  C1  UNL d   1      -3.492   2.612  -3.750  0.00  0.00     0.053 C 
ATOM      9  C   UNL d   1      -2.360   2.792  -2.751  0.00  0.00     0.018 C 
ENDBRANCH   1   8
TORSDOF 1
ENDMDL
