MODEL 1
REMARK minimizedAffinity -1.02864516
REMARK minimizedRMSD -1
REMARK  1 active torsions:
REMARK  status: ('A' for Active; 'I' for Inactive)
REMARK    1  A    between atoms: C1_2  and  C2_3 
ROOT
ATOM      1  C2  UNL d   1       3.189  -1.450  -0.468  0.00  0.00    -0.076 A 
ATOM      2  C3  UNL d   1       3.794  -2.703  -0.274  0.00  0.00     0.004 A 
ATOM      3  C4  UNL d   1       3.356  -3.563   0.732  0.00  0.00    -0.003 A 
ATOM      4  C5  UNL d   1       2.305  -3.184   1.559  0.00  0.00     0.000 A 
ATOM      5  C6  UNL d   1       1.682  -1.951   1.370  0.00  0.00     0.000 A 
ATOM      6  C7  UNL d   1       2.100  -1.079   0.350  0.00  0.00    -0.073 A 
ATOM      7  C8  UNL d   1       1.396   0.241   0.194  0.00  0.00     0.078 C 
ENDROOT
BRANCH   1   8
ATOM      8  C1  UNL d   1       3.725  -0.548  -1.557  0.00  0.00     0.053 C 
ATOM      9  C   UNL d   1       3.007  -0.747  -2.884  0.00  0.00     0.018 C 
ENDBRANCH   1   8
TORSDOF 1
ENDMDL
