MODEL 1
REMARK minimizedAffinity -0.0964078009
REMARK minimizedRMSD -1
REMARK  0 active torsions:
REMARK  status: ('A' for Active; 'I' for Inactive)
ROOT
ATOM      1  C4' PXY d   1       1.914  -1.655   0.338  0.00  0.00     0.077 C 
ATOM      2  C1' PXY d   1      -3.224  -3.762  -1.268  0.00  0.00     0.077 C 
ATOM      3  C1  PXY d   1      -1.882  -3.198  -0.844  0.00  0.00    -0.082 A 
ATOM      4  C2  PXY d   1      -0.768  -3.739  -1.311  0.00  0.00     0.003 A 
ATOM      5  C3  PXY d   1       0.454  -3.262  -0.913  0.00  0.00     0.003 A 
ATOM      6  C4  PXY d   1       0.537  -2.186  -0.070  0.00  0.00    -0.082 A 
ATOM      7  C5  PXY d   1      -0.595  -1.622   0.402  0.00  0.00     0.003 A 
ATOM      8  C6  PXY d   1      -1.825  -2.147   0.018  0.00  0.00     0.003 A 
ENDROOT
TORSDOF 0
ENDMDL
