MODEL 1
REMARK minimizedAffinity 7.50133324
REMARK minimizedRMSD -1
REMARK  0 active torsions:
REMARK  status: ('A' for Active; 'I' for Inactive)
ROOT
ATOM      1  C4' PXY d   1       4.547   5.351   3.360  0.00  0.00     0.077 C 
ATOM      2  C1' PXY d   1       2.220   0.592   1.046  0.00  0.00     0.077 C 
ATOM      3  C1  PXY d   1       2.840   1.833   1.657  0.00  0.00    -0.082 A 
ATOM      4  C2  PXY d   1       2.073   2.870   1.952  0.00  0.00     0.003 A 
ATOM      5  C3  PXY d   1       2.622   4.012   2.476  0.00  0.00     0.003 A 
ATOM      6  C4  PXY d   1       3.963   4.074   2.750  0.00  0.00    -0.082 A 
ATOM      7  C5  PXY d   1       4.750   3.016   2.462  0.00  0.00     0.003 A 
ATOM      8  C6  PXY d   1       4.180   1.881   1.892  0.00  0.00     0.003 A 
ENDROOT
TORSDOF 0
ENDMDL
