MODEL 1
REMARK minimizedAffinity 9.32518482
REMARK minimizedRMSD -1
REMARK  0 active torsions:
REMARK  status: ('A' for Active; 'I' for Inactive)
ROOT
ATOM      1  C4' PXY d   1      -5.031  -0.420  -1.469  0.00  0.00     0.077 C 
ATOM      2  C1' PXY d   1      -0.379  -3.431   0.177  0.00  0.00     0.077 C 
ATOM      3  C1  PXY d   1      -1.598  -2.645  -0.267  0.00  0.00    -0.082 A 
ATOM      4  C2  PXY d   1      -1.996  -1.601   0.441  0.00  0.00     0.003 A 
ATOM      5  C3  PXY d   1      -3.114  -0.898   0.071  0.00  0.00     0.003 A 
ATOM      6  C4  PXY d   1      -3.801  -1.237  -1.063  0.00  0.00    -0.082 A 
ATOM      7  C5  PXY d   1      -3.395  -2.295  -1.796  0.00  0.00     0.003 A 
ATOM      8  C6  PXY d   1      -2.282  -3.020  -1.382  0.00  0.00     0.003 A 
ENDROOT
TORSDOF 0
ENDMDL
