MODEL 1
REMARK minimizedAffinity 3.02303076
REMARK minimizedRMSD -1
REMARK  0 active torsions:
REMARK  status: ('A' for Active; 'I' for Inactive)
ROOT
ATOM      1  C4' PXY d   1       4.673   5.406   3.939  0.00  0.00     0.077 C 
ATOM      2  C1' PXY d   1       2.411   0.967   1.007  0.00  0.00     0.077 C 
ATOM      3  C1  PXY d   1       3.015   2.124   1.778  0.00  0.00    -0.082 A 
ATOM      4  C2  PXY d   1       2.222   3.041   2.310  0.00  0.00     0.003 A 
ATOM      5  C3  PXY d   1       2.753   4.110   2.983  0.00  0.00     0.003 A 
ATOM      6  C4  PXY d   1       4.107   4.215   3.160  0.00  0.00    -0.082 A 
ATOM      7  C5  PXY d   1       4.922   3.279   2.630  0.00  0.00     0.003 A 
ATOM      8  C6  PXY d   1       4.365   2.223   1.914  0.00  0.00     0.003 A 
ENDROOT
TORSDOF 0
ENDMDL
