MODEL 1
REMARK minimizedAffinity 0.678132653
REMARK minimizedRMSD -1
REMARK  0 active torsions:
REMARK  status: ('A' for Active; 'I' for Inactive)
ROOT
ATOM      1  C4' PXY d   1       0.764  -6.000  -2.619  0.00  0.00     0.077 C 
ATOM      2  C1' PXY d   1      -2.624  -2.125   0.011  0.00  0.00     0.077 C 
ATOM      3  C1  PXY d   1      -1.744  -3.151  -0.676  0.00  0.00    -0.082 A 
ATOM      4  C2  PXY d   1      -0.436  -2.959  -0.731  0.00  0.00     0.003 A 
ATOM      5  C3  PXY d   1       0.370  -3.860  -1.377  0.00  0.00     0.003 A 
ATOM      6  C4  PXY d   1      -0.161  -4.996  -1.927  0.00  0.00    -0.082 A 
ATOM      7  C5  PXY d   1      -1.493  -5.204  -1.866  0.00  0.00     0.003 A 
ATOM      8  C6  PXY d   1      -2.300  -4.257  -1.241  0.00  0.00     0.003 A 
ENDROOT
TORSDOF 0
ENDMDL
