MODEL 1
REMARK minimizedAffinity 3.77392316
REMARK minimizedRMSD -1
REMARK  0 active torsions:
REMARK  status: ('A' for Active; 'I' for Inactive)
ROOT
ATOM      1  C4' PXY d   1      -3.813  -5.009  -0.015  0.00  0.00     0.077 C 
ATOM      2  C1' PXY d   1       0.344  -1.046   0.642  0.00  0.00     0.077 C 
ATOM      3  C1  PXY d   1      -0.752  -2.081   0.480  0.00  0.00    -0.082 A 
ATOM      4  C2  PXY d   1      -0.504  -3.199  -0.182  0.00  0.00     0.003 A 
ATOM      5  C3  PXY d   1      -1.493  -4.131  -0.365  0.00  0.00     0.003 A 
ATOM      6  C4  PXY d   1      -2.734  -3.941   0.181  0.00  0.00    -0.082 A 
ATOM      7  C5  PXY d   1      -2.992  -2.808   0.867  0.00  0.00     0.003 A 
ATOM      8  C6  PXY d   1      -1.987  -1.855   1.007  0.00  0.00     0.003 A 
ENDROOT
TORSDOF 0
ENDMDL
