MODEL 1
REMARK minimizedAffinity 5.6616478
REMARK minimizedRMSD -1
REMARK  0 active torsions:
REMARK  status: ('A' for Active; 'I' for Inactive)
ROOT
ATOM      1  C4' PXY d   1       0.790   2.312   2.989  0.00  0.00     0.077 C 
ATOM      2  C1' PXY d   1       2.956  -1.281  -0.988  0.00  0.00     0.077 C 
ATOM      3  C1  PXY d   1       2.400  -0.338   0.061  0.00  0.00    -0.082 A 
ATOM      4  C2  PXY d   1       1.100  -0.329   0.309  0.00  0.00     0.003 A 
ATOM      5  C3  PXY d   1       0.576   0.539   1.231  0.00  0.00     0.003 A 
ATOM      6  C4  PXY d   1       1.397   1.370   1.945  0.00  0.00    -0.082 A 
ATOM      7  C5  PXY d   1       2.726   1.359   1.705  0.00  0.00     0.003 A 
ATOM      8  C6  PXY d   1       3.233   0.499   0.736  0.00  0.00     0.003 A 
ENDROOT
TORSDOF 0
ENDMDL
