MODEL 1
REMARK minimizedAffinity 11.8328896
REMARK minimizedRMSD -1
REMARK  0 active torsions:
REMARK  status: ('A' for Active; 'I' for Inactive)
ROOT
ATOM      1  C4' PXY d   1      -5.607   4.132  -4.200  0.00  0.00     0.077 C 
ATOM      2  C1' PXY d   1      -5.498   0.241   0.073  0.00  0.00     0.077 C 
ATOM      3  C1  PXY d   1      -5.526   1.252  -1.056  0.00  0.00    -0.082 A 
ATOM      4  C2  PXY d   1      -5.114   2.490  -0.837  0.00  0.00     0.003 A 
ATOM      5  C3  PXY d   1      -5.163   3.425  -1.838  0.00  0.00     0.003 A 
ATOM      6  C4  PXY d   1      -5.588   3.076  -3.092  0.00  0.00    -0.082 A 
ATOM      7  C5  PXY d   1      -6.000   1.812  -3.327  0.00  0.00     0.003 A 
ATOM      8  C6  PXY d   1      -5.982   0.888  -2.286  0.00  0.00     0.003 A 
ENDROOT
TORSDOF 0
ENDMDL
