MODEL 1
REMARK minimizedAffinity 7.46963215
REMARK minimizedRMSD -1
REMARK  0 active torsions:
REMARK  status: ('A' for Active; 'I' for Inactive)
ROOT
ATOM      1  C4' PXY d   1       2.394   1.052   1.287  0.00  0.00     0.077 C 
ATOM      2  C1' PXY d   1       4.565   5.739   3.882  0.00  0.00     0.077 C 
ATOM      3  C1  PXY d   1       4.008   4.507   3.196  0.00  0.00    -0.082 A 
ATOM      4  C2  PXY d   1       2.705   4.408   2.988  0.00  0.00     0.003 A 
ATOM      5  C3  PXY d   1       2.180   3.287   2.398  0.00  0.00     0.003 A 
ATOM      6  C4  PXY d   1       3.003   2.281   1.968  0.00  0.00    -0.082 A 
ATOM      7  C5  PXY d   1       4.334   2.379   2.167  0.00  0.00     0.003 A 
ATOM      8  C6  PXY d   1       4.843   3.507   2.805  0.00  0.00     0.003 A 
ENDROOT
TORSDOF 0
ENDMDL
