MODEL 1
REMARK minimizedAffinity 13.9652958
REMARK minimizedRMSD -1
REMARK  0 active torsions:
REMARK  status: ('A' for Active; 'I' for Inactive)
ROOT
ATOM      1  C4' PXY d   1      -2.673  -0.804   1.243  0.00  0.00     0.077 C 
ATOM      2  C1' PXY d   1      -5.803   2.971  -1.818  0.00  0.00     0.077 C 
ATOM      3  C1  PXY d   1      -4.974   1.990  -1.012  0.00  0.00    -0.082 A 
ATOM      4  C2  PXY d   1      -5.041   0.697  -1.285  0.00  0.00     0.003 A 
ATOM      5  C3  PXY d   1      -4.323  -0.206  -0.545  0.00  0.00     0.003 A 
ATOM      6  C4  PXY d   1      -3.485   0.223   0.449  0.00  0.00    -0.082 A 
ATOM      7  C5  PXY d   1      -3.403   1.541   0.727  0.00  0.00     0.003 A 
ATOM      8  C6  PXY d   1      -4.172   2.439  -0.009  0.00  0.00     0.003 A 
ENDROOT
TORSDOF 0
ENDMDL
