MODEL 1
REMARK minimizedAffinity 11.0001211
REMARK minimizedRMSD -1
REMARK  0 active torsions:
REMARK  status: ('A' for Active; 'I' for Inactive)
ROOT
ATOM      1  C4' PXY d   1      -3.916  -6.000  -0.841  0.00  0.00     0.077 C 
ATOM      2  C1' PXY d   1       0.522  -2.372  -0.093  0.00  0.00     0.077 C 
ATOM      3  C1  PXY d   1      -0.634  -3.332  -0.295  0.00  0.00    -0.082 A 
ATOM      4  C2  PXY d   1      -1.875  -2.873  -0.279  0.00  0.00     0.003 A 
ATOM      5  C3  PXY d   1      -2.933  -3.732  -0.429  0.00  0.00     0.003 A 
ATOM      6  C4  PXY d   1      -2.718  -5.066  -0.650  0.00  0.00    -0.082 A 
ATOM      7  C5  PXY d   1      -1.454  -5.540  -0.679  0.00  0.00     0.003 A 
ATOM      8  C6  PXY d   1      -0.395  -4.658  -0.484  0.00  0.00     0.003 A 
ENDROOT
TORSDOF 0
ENDMDL
