MODEL 1
REMARK minimizedAffinity 11.084939
REMARK minimizedRMSD -1
REMARK  0 active torsions:
REMARK  status: ('A' for Active; 'I' for Inactive)
ROOT
ATOM      1  C4' PXY d   1       1.574  -5.998  -1.630  0.00  0.00     0.077 C 
ATOM      2  C1' PXY d   1      -3.307  -2.909  -1.390  0.00  0.00     0.077 C 
ATOM      3  C1  PXY d   1      -2.034  -3.730  -1.456  0.00  0.00    -0.082 A 
ATOM      4  C2  PXY d   1      -0.959  -3.324  -0.799  0.00  0.00     0.003 A 
ATOM      5  C3  PXY d   1       0.210  -4.037  -0.874  0.00  0.00     0.003 A 
ATOM      6  C4  PXY d   1       0.264  -5.206  -1.584  0.00  0.00    -0.082 A 
ATOM      7  C5  PXY d   1      -0.831  -5.632  -2.248  0.00  0.00     0.003 A 
ATOM      8  C6  PXY d   1      -1.996  -4.872  -2.194  0.00  0.00     0.003 A 
ENDROOT
TORSDOF 0
ENDMDL
