MODEL 1
REMARK minimizedAffinity 6.95682955
REMARK minimizedRMSD -1
REMARK  0 active torsions:
REMARK  status: ('A' for Active; 'I' for Inactive)
ROOT
ATOM      1  C4' PXY d   1      -1.899   0.130   1.879  0.00  0.00     0.077 C 
ATOM      2  C1' PXY d   1      -6.000  -3.618   3.477  0.00  0.00     0.077 C 
ATOM      3  C1  PXY d   1      -4.919  -2.635   3.070  0.00  0.00    -0.082 A 
ATOM      4  C2  PXY d   1      -5.127  -1.820   2.048  0.00  0.00     0.003 A 
ATOM      5  C3  PXY d   1      -4.149  -0.947   1.647  0.00  0.00     0.003 A 
ATOM      6  C4  PXY d   1      -2.965  -0.871   2.331  0.00  0.00    -0.082 A 
ATOM      7  C5  PXY d   1      -2.749  -1.692   3.380  0.00  0.00     0.003 A 
ATOM      8  C6  PXY d   1      -3.739  -2.599   3.746  0.00  0.00     0.003 A 
ENDROOT
TORSDOF 0
ENDMDL
