MODEL 1
REMARK minimizedAffinity 1.16503835
REMARK minimizedRMSD -1
REMARK  0 active torsions:
REMARK  status: ('A' for Active; 'I' for Inactive)
ROOT
ATOM      1  C4' PXY d   1       2.393  -1.709   0.043  0.00  0.00     0.077 C 
ATOM      2  C1' PXY d   1      -1.069  -5.999  -1.695  0.00  0.00     0.077 C 
ATOM      3  C1  PXY d   1      -0.151  -4.882  -1.239  0.00  0.00    -0.082 A 
ATOM      4  C2  PXY d   1      -0.662  -3.819  -0.640  0.00  0.00     0.003 A 
ATOM      5  C3  PXY d   1       0.150  -2.785  -0.249  0.00  0.00     0.003 A 
ATOM      6  C4  PXY d   1       1.505  -2.865  -0.426  0.00  0.00    -0.082 A 
ATOM      7  C5  PXY d   1       2.036  -3.951  -1.027  0.00  0.00     0.003 A 
ATOM      8  C6  PXY d   1       1.190  -4.971  -1.453  0.00  0.00     0.003 A 
ENDROOT
TORSDOF 0
ENDMDL
