MODEL 1
REMARK minimizedAffinity 8.67897034
REMARK minimizedRMSD -1
REMARK  0 active torsions:
REMARK  status: ('A' for Active; 'I' for Inactive)
ROOT
ATOM      1  C4' PXY d   1      -1.337   1.901  -6.000  0.00  0.00     0.077 C 
ATOM      2  C1' PXY d   1       3.468   0.140  -3.312  0.00  0.00     0.077 C 
ATOM      3  C1  PXY d   1       2.213   0.614  -4.017  0.00  0.00    -0.082 A 
ATOM      4  C2  PXY d   1       1.084  -0.060  -3.867  0.00  0.00     0.003 A 
ATOM      5  C3  PXY d   1      -0.053   0.336  -4.523  0.00  0.00     0.003 A 
ATOM      6  C4  PXY d   1      -0.047   1.464  -5.299  0.00  0.00    -0.082 A 
ATOM      7  C5  PXY d   1       1.098   2.164  -5.449  0.00  0.00     0.003 A 
ATOM      8  C6  PXY d   1       2.251   1.721  -4.807  0.00  0.00     0.003 A 
ENDROOT
TORSDOF 0
ENDMDL
