MODEL 1
REMARK minimizedAffinity 3.87790751
REMARK minimizedRMSD -1
REMARK  0 active torsions:
REMARK  status: ('A' for Active; 'I' for Inactive)
ROOT
ATOM      1  C4' PXY d   1      -0.950   2.118  -5.993  0.00  0.00     0.077 C 
ATOM      2  C1' PXY d   1       3.865   1.049  -2.978  0.00  0.00     0.077 C 
ATOM      3  C1  PXY d   1       2.598   1.317  -3.767  0.00  0.00    -0.082 A 
ATOM      4  C2  PXY d   1       2.558   2.333  -4.614  0.00  0.00     0.003 A 
ATOM      5  C3  PXY d   1       1.411   2.609  -5.312  0.00  0.00     0.003 A 
ATOM      6  C4  PXY d   1       0.310   1.805  -5.182  0.00  0.00    -0.082 A 
ATOM      7  C5  PXY d   1       0.347   0.760  -4.328  0.00  0.00     0.003 A 
ATOM      8  C6  PXY d   1       1.508   0.522  -3.598  0.00  0.00     0.003 A 
ENDROOT
TORSDOF 0
ENDMDL
