MODEL 1
REMARK minimizedAffinity 11.0410566
REMARK minimizedRMSD -1
REMARK  0 active torsions:
REMARK  status: ('A' for Active; 'I' for Inactive)
ROOT
ATOM      1  C4' PXY d   1       5.632   1.519   1.957  0.00  0.00     0.077 C 
ATOM      2  C1' PXY d   1       1.003   4.765   3.163  0.00  0.00     0.077 C 
ATOM      3  C1  PXY d   1       2.210   3.903   2.849  0.00  0.00    -0.082 A 
ATOM      4  C2  PXY d   1       3.426   4.407   2.983  0.00  0.00     0.003 A 
ATOM      5  C3  PXY d   1       4.528   3.651   2.672  0.00  0.00     0.003 A 
ATOM      6  C4  PXY d   1       4.385   2.350   2.272  0.00  0.00    -0.082 A 
ATOM      7  C5  PXY d   1       3.148   1.825   2.144  0.00  0.00     0.003 A 
ATOM      8  C6  PXY d   1       2.041   2.621   2.424  0.00  0.00     0.003 A 
ENDROOT
TORSDOF 0
ENDMDL
