MODEL 1
REMARK minimizedAffinity 7.79476595
REMARK minimizedRMSD -1
REMARK  0 active torsions:
REMARK  status: ('A' for Active; 'I' for Inactive)
ROOT
ATOM      1  C4' PXY d   1       0.276  -5.427  -0.674  0.00  0.00     0.077 C 
ATOM      2  C1' PXY d   1      -4.091  -1.647  -0.912  0.00  0.00     0.077 C 
ATOM      3  C1  PXY d   1      -2.938  -2.629  -0.845  0.00  0.00    -0.082 A 
ATOM      4  C2  PXY d   1      -2.943  -3.698  -1.625  0.00  0.00     0.003 A 
ATOM      5  C3  PXY d   1      -1.923  -4.612  -1.554  0.00  0.00     0.003 A 
ATOM      6  C4  PXY d   1      -0.862  -4.404  -0.715  0.00  0.00    -0.082 A 
ATOM      7  C5  PXY d   1      -0.845  -3.310   0.076  0.00  0.00     0.003 A 
ATOM      8  C6  PXY d   1      -1.909  -2.415   0.019  0.00  0.00     0.003 A 
ENDROOT
TORSDOF 0
ENDMDL
