MODEL 1
REMARK minimizedAffinity 1.09482741
REMARK minimizedRMSD -1
REMARK  0 active torsions:
REMARK  status: ('A' for Active; 'I' for Inactive)
ROOT
ATOM      1  C4' PXY d   1       0.975  -2.503   0.370  0.00  0.00     0.077 C 
ATOM      2  C1' PXY d   1      -3.236  -6.000  -1.489  0.00  0.00     0.077 C 
ATOM      3  C1  PXY d   1      -2.128  -5.092  -0.993  0.00  0.00    -0.082 A 
ATOM      4  C2  PXY d   1      -2.241  -3.781  -1.138  0.00  0.00     0.003 A 
ATOM      5  C3  PXY d   1      -1.234  -2.948  -0.724  0.00  0.00     0.003 A 
ATOM      6  C4  PXY d   1      -0.123  -3.457  -0.107  0.00  0.00    -0.082 A 
ATOM      7  C5  PXY d   1      -0.005  -4.792   0.055  0.00  0.00     0.003 A 
ATOM      8  C6  PXY d   1      -1.020  -5.624  -0.410  0.00  0.00     0.003 A 
ENDROOT
TORSDOF 0
ENDMDL
