MODEL 1
REMARK minimizedAffinity 2.45086765
REMARK minimizedRMSD -1
REMARK  0 active torsions:
REMARK  status: ('A' for Active; 'I' for Inactive)
ROOT
ATOM      1  C4' PXY d   1      -3.074  -4.204  -1.284  0.00  0.00     0.077 C 
ATOM      2  C1' PXY d   1       1.913  -1.904   0.519  0.00  0.00     0.077 C 
ATOM      3  C1  PXY d   1       0.599  -2.501   0.055  0.00  0.00    -0.082 A 
ATOM      4  C2  PXY d   1       0.595  -3.659  -0.585  0.00  0.00     0.003 A 
ATOM      5  C3  PXY d   1      -0.581  -4.197  -1.039  0.00  0.00     0.003 A 
ATOM      6  C4  PXY d   1      -1.772  -3.569  -0.790  0.00  0.00    -0.082 A 
ATOM      7  C5  PXY d   1      -1.778  -2.393  -0.128  0.00  0.00     0.003 A 
ATOM      8  C6  PXY d   1      -0.569  -1.843   0.289  0.00  0.00     0.003 A 
ENDROOT
TORSDOF 0
ENDMDL
