MODEL 1
REMARK minimizedAffinity -4.88263845
REMARK minimizedRMSD -1
REMARK  0 active torsions:
REMARK  status: ('A' for Active; 'I' for Inactive)
ROOT
ATOM      1  C1  DEN d   1      -2.042   2.223   1.033  0.00  0.00     0.130 A 
ATOM      2  C2  DEN d   1      -1.466   2.726   2.277  0.00  0.00    -0.031 A 
ATOM      3  C3  DEN d   1      -0.264   1.923   2.580  0.00  0.00     0.027 A 
ATOM      4  C4  DEN d   1       0.758  -0.036   1.249  0.00  0.00     0.027 A 
ATOM      5  C5  DEN d   1       0.615  -0.830   0.132  0.00  0.00    -0.003 A 
ATOM      6  C6  DEN d   1      -0.434  -0.686  -0.737  0.00  0.00     0.001 A 
ATOM      7  C7  DEN d   1      -1.357   0.305  -0.528  0.00  0.00     0.017 A 
ATOM      8  C8  DEN d   1      -1.224   1.105   0.599  0.00  0.00    -0.094 A 
ATOM      9  C9  DEN d   1      -0.149   0.951   1.459  0.00  0.00    -0.072 A 
ENDROOT
TORSDOF 0
ENDMDL
