MODEL 1
REMARK minimizedAffinity -6.42384005
REMARK minimizedRMSD -1
REMARK  0 active torsions:
REMARK  status: ('A' for Active; 'I' for Inactive)
ROOT
ATOM      1  C1  DEN d   1      -0.225   1.461   2.327  0.00  0.00     0.130 A 
ATOM      2  C2  DEN d   1      -1.316   1.973   1.502  0.00  0.00    -0.031 A 
ATOM      3  C3  DEN d   1      -1.198   1.366   0.161  0.00  0.00     0.027 A 
ATOM      4  C4  DEN d   1       0.555  -0.313  -0.711  0.00  0.00     0.027 A 
ATOM      5  C5  DEN d   1       1.683  -1.031  -0.382  0.00  0.00    -0.003 A 
ATOM      6  C6  DEN d   1       2.269  -0.944   0.853  0.00  0.00     0.001 A 
ATOM      7  C7  DEN d   1       1.703  -0.154   1.819  0.00  0.00     0.017 A 
ATOM      8  C8  DEN d   1       0.569   0.579   1.491  0.00  0.00    -0.094 A 
ATOM      9  C9  DEN d   1      -0.015   0.467   0.241  0.00  0.00    -0.072 A 
ENDROOT
TORSDOF 0
ENDMDL
