MODEL 1
REMARK minimizedAffinity -4.60605383
REMARK minimizedRMSD -1
REMARK  0 active torsions:
REMARK  status: ('A' for Active; 'I' for Inactive)
ROOT
ATOM      1  C1  DEN d   1       1.750  -0.351   0.539  0.00  0.00     0.130 A 
ATOM      2  C2  DEN d   1       1.225  -1.386  -0.348  0.00  0.00    -0.031 A 
ATOM      3  C3  DEN d   1      -0.171  -1.037  -0.681  0.00  0.00     0.027 A 
ATOM      4  C4  DEN d   1      -1.560   0.997   0.082  0.00  0.00     0.027 A 
ATOM      5  C5  DEN d   1      -1.548   2.142   0.848  0.00  0.00    -0.003 A 
ATOM      6  C6  DEN d   1      -0.455   2.515   1.585  0.00  0.00     0.001 A 
ATOM      7  C7  DEN d   1       0.686   1.759   1.537  0.00  0.00     0.017 A 
ATOM      8  C8  DEN d   1       0.679   0.600   0.773  0.00  0.00    -0.094 A 
ATOM      9  C9  DEN d   1      -0.431   0.246   0.025  0.00  0.00    -0.072 A 
ENDROOT
TORSDOF 0
ENDMDL
