MODEL 1
REMARK minimizedAffinity -5.05358315
REMARK minimizedRMSD -1
REMARK  0 active torsions:
REMARK  status: ('A' for Active; 'I' for Inactive)
ROOT
ATOM      1  C1  DEN d   1       1.071  -0.086   0.092  0.00  0.00     0.130 A 
ATOM      2  C2  DEN d   1       1.531  -0.176   1.475  0.00  0.00    -0.031 A 
ATOM      3  C3  DEN d   1       0.577   0.567   2.323  0.00  0.00     0.027 A 
ATOM      4  C4  DEN d   1      -1.559   1.836   1.633  0.00  0.00     0.027 A 
ATOM      5  C5  DEN d   1      -2.353   2.202   0.569  0.00  0.00    -0.003 A 
ATOM      6  C6  DEN d   1      -2.046   1.863  -0.722  0.00  0.00     0.001 A 
ATOM      7  C7  DEN d   1      -0.939   1.097  -0.978  0.00  0.00     0.017 A 
ATOM      8  C8  DEN d   1      -0.130   0.730   0.090  0.00  0.00    -0.094 A 
ATOM      9  C9  DEN d   1      -0.464   1.073   1.389  0.00  0.00    -0.072 A 
ENDROOT
TORSDOF 0
ENDMDL
