MODEL 1
REMARK minimizedAffinity -0.48364085
REMARK minimizedRMSD -1
REMARK  0 active torsions:
REMARK  status: ('A' for Active; 'I' for Inactive)
ROOT
ATOM      1  C1  DEN d   1       0.772  -3.022  -1.013  0.00  0.00     0.130 A 
ATOM      2  C2  DEN d   1      -0.286  -3.541  -1.875  0.00  0.00    -0.031 A 
ATOM      3  C3  DEN d   1      -1.228  -2.439  -2.156  0.00  0.00     0.027 A 
ATOM      4  C4  DEN d   1      -1.146   0.010  -1.349  0.00  0.00     0.027 A 
ATOM      5  C5  DEN d   1      -0.444   0.918  -0.589  0.00  0.00    -0.003 A 
ATOM      6  C6  DEN d   1       0.685   0.572   0.105  0.00  0.00     0.001 A 
ATOM      7  C7  DEN d   1       1.171  -0.706   0.016  0.00  0.00     0.017 A 
ATOM      8  C8  DEN d   1       0.464  -1.630  -0.742  0.00  0.00    -0.094 A 
ATOM      9  C9  DEN d   1      -0.669  -1.257  -1.446  0.00  0.00    -0.072 A 
ENDROOT
TORSDOF 0
ENDMDL
