MODEL 1
REMARK minimizedAffinity -3.04967618
REMARK minimizedRMSD -1
REMARK  0 active torsions:
REMARK  status: ('A' for Active; 'I' for Inactive)
ROOT
ATOM      1  C1  DEN d   1       1.366  -0.030   1.232  0.00  0.00     0.130 A 
ATOM      2  C2  DEN d   1       1.293  -0.905   0.065  0.00  0.00    -0.031 A 
ATOM      3  C3  DEN d   1       0.244  -0.382  -0.833  0.00  0.00     0.027 A 
ATOM      4  C4  DEN d   1      -1.263   1.690  -0.534  0.00  0.00     0.027 A 
ATOM      5  C5  DEN d   1      -1.577   2.739   0.303  0.00  0.00    -0.003 A 
ATOM      6  C6  DEN d   1      -0.960   2.917   1.513  0.00  0.00     0.001 A 
ATOM      7  C7  DEN d   1       0.034   2.058   1.901  0.00  0.00     0.017 A 
ATOM      8  C8  DEN d   1       0.351   0.995   1.067  0.00  0.00    -0.094 A 
ATOM      9  C9  DEN d   1      -0.275   0.839  -0.159  0.00  0.00    -0.072 A 
ENDROOT
TORSDOF 0
ENDMDL
