MODEL 1
REMARK minimizedAffinity -4.18729448
REMARK minimizedRMSD -1
REMARK  0 active torsions:
REMARK  status: ('A' for Active; 'I' for Inactive)
ROOT
ATOM      1  C1  DEN d   1       0.799  -0.336   1.425  0.00  0.00     0.130 A 
ATOM      2  C2  DEN d   1       0.592  -1.260   0.313  0.00  0.00    -0.031 A 
ATOM      3  C3  DEN d   1      -0.356  -0.633  -0.630  0.00  0.00     0.027 A 
ATOM      4  C4  DEN d   1      -1.513   1.668  -0.480  0.00  0.00     0.027 A 
ATOM      5  C5  DEN d   1      -1.657   2.803   0.286  0.00  0.00    -0.003 A 
ATOM      6  C6  DEN d   1      -1.025   2.956   1.492  0.00  0.00     0.001 A 
ATOM      7  C7  DEN d   1      -0.182   1.976   1.946  0.00  0.00     0.017 A 
ATOM      8  C8  DEN d   1      -0.037   0.825   1.183  0.00  0.00    -0.094 A 
ATOM      9  C9  DEN d   1      -0.676   0.694  -0.039  0.00  0.00    -0.072 A 
ENDROOT
TORSDOF 0
ENDMDL
