MODEL 1
REMARK minimizedAffinity -0.750324249
REMARK minimizedRMSD -1
REMARK  0 active torsions:
REMARK  status: ('A' for Active; 'I' for Inactive)
ROOT
ATOM      1  C   UNL d   1       0.740  -0.793  -1.408  0.00  0.00     0.020 A 
ATOM      2  C1  UNL d   1       1.403  -0.746  -0.182  0.00  0.00     0.020 A 
ATOM      3  C2  UNL d   1       0.708  -0.383   0.974  0.00  0.00     0.034 A 
ATOM      4  C3  UNL d   1      -0.654  -0.066   0.906  0.00  0.00     0.017 A 
ATOM      5  C4  UNL d   1      -1.318  -0.114  -0.325  0.00  0.00     0.017 A 
ATOM      6  C5  UNL d   1      -0.617  -0.478  -1.479  0.00  0.00     0.034 A 
ATOM      7 Cl   UNL d   1      -2.997   0.263  -0.487  0.00  0.00    -0.070 Cl
ATOM      8 Cl1  UNL d   1      -1.450   0.373   2.375  0.00  0.00    -0.070 Cl
ENDROOT
TORSDOF 0
ENDMDL
