MODEL 1
REMARK minimizedAffinity -3.83573151
REMARK minimizedRMSD -1
REMARK  0 active torsions:
REMARK  status: ('A' for Active; 'I' for Inactive)
ROOT
ATOM      1  C   UNL d   1       1.518   0.419  -4.164  0.00  0.00     0.020 A 
ATOM      2  C1  UNL d   1       0.333   1.127  -3.968  0.00  0.00     0.020 A 
ATOM      3  C2  UNL d   1      -0.414   0.929  -2.805  0.00  0.00     0.034 A 
ATOM      4  C3  UNL d   1       0.022   0.020  -1.834  0.00  0.00     0.017 A 
ATOM      5  C4  UNL d   1       1.212  -0.690  -2.032  0.00  0.00     0.017 A 
ATOM      6  C5  UNL d   1       1.956  -0.488  -3.198  0.00  0.00     0.034 A 
ATOM      7 Cl   UNL d   1       1.814  -1.828  -0.879  0.00  0.00    -0.070 Cl
ATOM      8 Cl1  UNL d   1      -0.952  -0.175  -0.421  0.00  0.00    -0.070 Cl
ENDROOT
TORSDOF 0
ENDMDL
