MODEL 1
REMARK minimizedAffinity -2.90304923
REMARK minimizedRMSD -1
REMARK  0 active torsions:
REMARK  status: ('A' for Active; 'I' for Inactive)
ROOT
ATOM      1  C   UNL d   1      -0.144  -0.619  -0.952  0.00  0.00     0.020 A 
ATOM      2  C1  UNL d   1      -1.394  -0.053  -0.704  0.00  0.00     0.020 A 
ATOM      3  C2  UNL d   1      -1.598   0.712   0.447  0.00  0.00     0.034 A 
ATOM      4  C3  UNL d   1      -0.551   0.911   1.354  0.00  0.00     0.017 A 
ATOM      5  C4  UNL d   1       0.703   0.342   1.104  0.00  0.00     0.017 A 
ATOM      6  C5  UNL d   1       0.902  -0.422  -0.050  0.00  0.00     0.034 A 
ATOM      7 Cl   UNL d   1       2.043   0.544   2.177  0.00  0.00    -0.070 Cl
ATOM      8 Cl1  UNL d   1      -0.874   1.867   2.756  0.00  0.00    -0.070 Cl
ENDROOT
TORSDOF 0
ENDMDL
