MODEL 1
REMARK minimizedAffinity -2.51479697
REMARK minimizedRMSD -1
REMARK  0 active torsions:
REMARK  status: ('A' for Active; 'I' for Inactive)
ROOT
ATOM      1  C   UNL d   1      -0.770   0.540   3.349  0.00  0.00     0.020 A 
ATOM      2  C1  UNL d   1      -1.622   0.817   2.281  0.00  0.00     0.020 A 
ATOM      3  C2  UNL d   1      -1.204   0.570   0.972  0.00  0.00     0.034 A 
ATOM      4  C3  UNL d   1       0.071   0.044   0.728  0.00  0.00     0.017 A 
ATOM      5  C4  UNL d   1       0.925  -0.233   1.801  0.00  0.00     0.017 A 
ATOM      6  C5  UNL d   1       0.500   0.016   3.110  0.00  0.00     0.034 A 
ATOM      7 Cl   UNL d   1       2.511  -0.883   1.579  0.00  0.00    -0.070 Cl
ATOM      8 Cl1  UNL d   1       0.522  -0.237  -0.916  0.00  0.00    -0.070 Cl
ENDROOT
TORSDOF 0
ENDMDL
