MODEL 1
REMARK minimizedAffinity -2.88942122
REMARK minimizedRMSD -1
REMARK  0 active torsions:
REMARK  status: ('A' for Active; 'I' for Inactive)
ROOT
ATOM      1  C   UNL d   1      -0.001  -0.759  -1.085  0.00  0.00     0.020 A 
ATOM      2  C1  UNL d   1      -1.260  -0.269  -0.740  0.00  0.00     0.020 A 
ATOM      3  C2  UNL d   1      -1.450   0.362   0.491  0.00  0.00     0.034 A 
ATOM      4  C3  UNL d   1      -0.380   0.505   1.381  0.00  0.00     0.017 A 
ATOM      5  C4  UNL d   1       0.884   0.013   1.034  0.00  0.00     0.017 A 
ATOM      6  C5  UNL d   1       1.068  -0.618  -0.200  0.00  0.00     0.034 A 
ATOM      7 Cl   UNL d   1       2.252   0.153   2.080  0.00  0.00    -0.070 Cl
ATOM      8 Cl1  UNL d   1      -0.687   1.297   2.886  0.00  0.00    -0.070 Cl
ENDROOT
TORSDOF 0
ENDMDL
