MODEL 1
REMARK minimizedAffinity -3.94996715
REMARK minimizedRMSD -1
REMARK  0 active torsions:
REMARK  status: ('A' for Active; 'I' for Inactive)
ROOT
ATOM      1  C   UNL d   1      -1.224   0.809   2.778  0.00  0.00     0.020 A 
ATOM      2  C1  UNL d   1       0.026   1.300   2.406  0.00  0.00     0.020 A 
ATOM      3  C2  UNL d   1       0.597   0.909   1.193  0.00  0.00     0.034 A 
ATOM      4  C3  UNL d   1      -0.083   0.024   0.348  0.00  0.00     0.017 A 
ATOM      5  C4  UNL d   1      -1.338  -0.468   0.723  0.00  0.00     0.017 A 
ATOM      6  C5  UNL d   1      -1.905  -0.073   1.938  0.00  0.00     0.034 A 
ATOM      7 Cl   UNL d   1      -2.237  -1.563  -0.267  0.00  0.00    -0.070 Cl
ATOM      8 Cl1  UNL d   1       0.683  -0.417  -1.137  0.00  0.00    -0.070 Cl
ENDROOT
TORSDOF 0
ENDMDL
