MODEL 1
REMARK minimizedAffinity -3.78278518
REMARK minimizedRMSD -1
REMARK  0 active torsions:
REMARK  status: ('A' for Active; 'I' for Inactive)
ROOT
ATOM      1  C   UNL d   1       0.663   0.971   2.137  0.00  0.00     0.020 A 
ATOM      2  C1  UNL d   1      -0.649   1.046   2.604  0.00  0.00     0.020 A 
ATOM      3  C2  UNL d   1      -1.705   0.631   1.789  0.00  0.00     0.034 A 
ATOM      4  C3  UNL d   1      -1.451   0.137   0.505  0.00  0.00     0.017 A 
ATOM      5  C4  UNL d   1      -0.133   0.061   0.037  0.00  0.00     0.017 A 
ATOM      6  C5  UNL d   1       0.920   0.479   0.857  0.00  0.00     0.034 A 
ATOM      7 Cl   UNL d   1       0.259  -0.536  -1.536  0.00  0.00    -0.070 Cl
ATOM      8 Cl1  UNL d   1      -2.804  -0.360  -0.448  0.00  0.00    -0.070 Cl
ENDROOT
TORSDOF 0
ENDMDL
