MODEL 1
REMARK minimizedAffinity -5.48224068
REMARK minimizedRMSD -1
REMARK  0 active torsions:
REMARK  status: ('A' for Active; 'I' for Inactive)
ROOT
ATOM      1  C   UNL d   1       1.609  -0.001   2.850  0.00  0.00     0.020 A 
ATOM      2  C1  UNL d   1       0.519   0.641   3.434  0.00  0.00     0.020 A 
ATOM      3  C2  UNL d   1      -0.640   0.868   2.689  0.00  0.00     0.034 A 
ATOM      4  C3  UNL d   1      -0.711   0.453   1.354  0.00  0.00     0.017 A 
ATOM      5  C4  UNL d   1       0.385  -0.191   0.768  0.00  0.00     0.017 A 
ATOM      6  C5  UNL d   1       1.543  -0.416   1.519  0.00  0.00     0.034 A 
ATOM      7 Cl   UNL d   1       0.373  -0.732  -0.874  0.00  0.00    -0.070 Cl
ATOM      8 Cl1  UNL d   1      -2.175   0.767   0.491  0.00  0.00    -0.070 Cl
ENDROOT
TORSDOF 0
ENDMDL
