MODEL 1
REMARK minimizedAffinity -3.78634
REMARK minimizedRMSD -1
REMARK  0 active torsions:
REMARK  status: ('A' for Active; 'I' for Inactive)
ROOT
ATOM      1  C   UNL d   1       0.752  -0.917  -0.709  0.00  0.00     0.020 A 
ATOM      2  C1  UNL d   1      -0.330  -0.040  -0.773  0.00  0.00     0.020 A 
ATOM      3  C2  UNL d   1      -0.600   0.814   0.299  0.00  0.00     0.034 A 
ATOM      4  C3  UNL d   1       0.212   0.793   1.438  0.00  0.00     0.017 A 
ATOM      5  C4  UNL d   1       1.298  -0.088   1.501  0.00  0.00     0.017 A 
ATOM      6  C5  UNL d   1       1.565  -0.941   0.425  0.00  0.00     0.034 A 
ATOM      7 Cl   UNL d   1       2.346  -0.172   2.873  0.00  0.00    -0.070 Cl
ATOM      8 Cl1  UNL d   1      -0.181   1.876   2.726  0.00  0.00    -0.070 Cl
ENDROOT
TORSDOF 0
ENDMDL
