MODEL 1
REMARK minimizedAffinity -4.3343935
REMARK minimizedRMSD -1
REMARK  0 active torsions:
REMARK  status: ('A' for Active; 'I' for Inactive)
ROOT
ATOM      1  C   UNL d   1       1.034   0.699   3.106  0.00  0.00     0.020 A 
ATOM      2  C1  UNL d   1      -0.305   0.959   3.395  0.00  0.00     0.020 A 
ATOM      3  C2  UNL d   1      -1.276   0.798   2.405  0.00  0.00     0.034 A 
ATOM      4  C3  UNL d   1      -0.910   0.376   1.121  0.00  0.00     0.017 A 
ATOM      5  C4  UNL d   1       0.434   0.115   0.833  0.00  0.00     0.017 A 
ATOM      6  C5  UNL d   1       1.403   0.278   1.828  0.00  0.00     0.034 A 
ATOM      7 Cl   UNL d   1       0.962  -0.409  -0.727  0.00  0.00    -0.070 Cl
ATOM      8 Cl1  UNL d   1      -2.164   0.198  -0.054  0.00  0.00    -0.070 Cl
ENDROOT
TORSDOF 0
ENDMDL
