MODEL 1
REMARK minimizedAffinity 2.21955228
REMARK minimizedRMSD -1
REMARK  1 active torsions:
REMARK  status: ('A' for Active; 'I' for Inactive)
REMARK    1  A    between atoms: C1_2  and  C2_3 
ROOT
ATOM      1  C2  UNL d   1       0.937  -0.617   0.947  0.00  0.00    -0.076 A 
ATOM      2  C3  UNL d   1      -0.332  -1.064   0.538  0.00  0.00     0.004 A 
ATOM      3  C4  UNL d   1      -1.470  -0.289   0.753  0.00  0.00    -0.003 A 
ATOM      4  C5  UNL d   1      -1.358   0.947   1.380  0.00  0.00     0.000 A 
ATOM      5  C6  UNL d   1      -0.105   1.415   1.776  0.00  0.00     0.000 A 
ATOM      6  C7  UNL d   1       1.054   0.652   1.552  0.00  0.00    -0.073 A 
ATOM      7  C8  UNL d   1       2.379   1.202   2.005  0.00  0.00     0.078 C 
ENDROOT
BRANCH   1   8
ATOM      8  C1  UNL d   1       2.131  -1.514   0.711  0.00  0.00     0.053 C 
ATOM      9  C   UNL d   1       2.765  -1.294  -0.654  0.00  0.00     0.018 C 
ENDBRANCH   1   8
TORSDOF 1
ENDMDL
