MODEL 1
REMARK minimizedAffinity 9.8257494
REMARK minimizedRMSD -1
REMARK  1 active torsions:
REMARK  status: ('A' for Active; 'I' for Inactive)
REMARK    1  A    between atoms: C1_2  and  C2_3 
ROOT
ATOM      1  C2  UNL d   1      -1.092  -0.040   3.042  0.00  0.00    -0.076 A 
ATOM      2  C3  UNL d   1      -0.799  -0.949   4.074  0.00  0.00     0.004 A 
ATOM      3  C4  UNL d   1      -1.758  -1.851   4.529  0.00  0.00    -0.003 A 
ATOM      4  C5  UNL d   1      -3.027  -1.860   3.960  0.00  0.00     0.000 A 
ATOM      5  C6  UNL d   1      -3.330  -0.978   2.924  0.00  0.00     0.000 A 
ATOM      6  C7  UNL d   1      -2.369  -0.073   2.441  0.00  0.00    -0.073 A 
ATOM      7  C8  UNL d   1      -2.752   0.860   1.325  0.00  0.00     0.078 C 
ENDROOT
BRANCH   1   8
ATOM      8  C1  UNL d   1      -0.020   0.934   2.608  0.00  0.00     0.053 C 
ATOM      9  C   UNL d   1       0.063   2.151   3.515  0.00  0.00     0.018 C 
ENDBRANCH   1   8
TORSDOF 1
ENDMDL
