MODEL 1
REMARK minimizedAffinity 8.17006588
REMARK minimizedRMSD -1
REMARK  1 active torsions:
REMARK  status: ('A' for Active; 'I' for Inactive)
REMARK    1  A    between atoms: C1_2  and  C2_3 
ROOT
ATOM      1  C2  UNL d   1       1.583   0.121  -2.938  0.00  0.00    -0.076 A 
ATOM      2  C3  UNL d   1       0.311  -0.318  -3.344  0.00  0.00     0.004 A 
ATOM      3  C4  UNL d   1      -0.062  -0.295  -4.687  0.00  0.00    -0.003 A 
ATOM      4  C5  UNL d   1       0.832   0.167  -5.646  0.00  0.00     0.000 A 
ATOM      5  C6  UNL d   1       2.104   0.591  -5.264  0.00  0.00     0.000 A 
ATOM      6  C7  UNL d   1       2.502   0.559  -3.916  0.00  0.00    -0.073 A 
ATOM      7  C8  UNL d   1       3.884   1.033  -3.559  0.00  0.00     0.078 C 
ENDROOT
BRANCH   1   8
ATOM      8  C1  UNL d   1       1.921   0.099  -1.465  0.00  0.00     0.053 C 
ATOM      9  C   UNL d   1       1.128  -0.950  -0.701  0.00  0.00     0.018 C 
ENDBRANCH   1   8
TORSDOF 1
ENDMDL
