MODEL 1
REMARK minimizedAffinity 8.17100906
REMARK minimizedRMSD -1
REMARK  1 active torsions:
REMARK  status: ('A' for Active; 'I' for Inactive)
REMARK    1  A    between atoms: C1_2  and  C2_3 
ROOT
ATOM      1  C2  UNL d   1       1.563  -0.285  -2.494  0.00  0.00    -0.076 A 
ATOM      2  C3  UNL d   1       2.881   0.201  -2.442  0.00  0.00     0.004 A 
ATOM      3  C4  UNL d   1       3.462   0.819  -3.548  0.00  0.00    -0.003 A 
ATOM      4  C5  UNL d   1       2.733   0.962  -4.724  0.00  0.00     0.000 A 
ATOM      5  C6  UNL d   1       1.418   0.503  -4.787  0.00  0.00     0.000 A 
ATOM      6  C7  UNL d   1       0.812  -0.108  -3.676  0.00  0.00    -0.073 A 
ATOM      7  C8  UNL d   1      -0.607  -0.591  -3.802  0.00  0.00     0.078 C 
ENDROOT
BRANCH   1   8
ATOM      8  C1  UNL d   1       0.995  -0.970  -1.272  0.00  0.00     0.053 C 
ATOM      9  C   UNL d   1       1.889  -0.820  -0.051  0.00  0.00     0.018 C 
ENDBRANCH   1   8
TORSDOF 1
ENDMDL
