MODEL 1
REMARK minimizedAffinity 4.83415842
REMARK minimizedRMSD -1
REMARK  1 active torsions:
REMARK  status: ('A' for Active; 'I' for Inactive)
REMARK    1  A    between atoms: C1_2  and  C2_3 
ROOT
ATOM      1  C2  UNL d   1       0.178   0.152   1.825  0.00  0.00    -0.076 A 
ATOM      2  C3  UNL d   1      -0.368  -0.754   0.899  0.00  0.00     0.004 A 
ATOM      3  C4  UNL d   1      -1.747  -0.866   0.732  0.00  0.00    -0.003 A 
ATOM      4  C5  UNL d   1      -2.603  -0.073   1.488  0.00  0.00     0.000 A 
ATOM      5  C6  UNL d   1      -2.079   0.843   2.399  0.00  0.00     0.000 A 
ATOM      6  C7  UNL d   1      -0.690   0.980   2.568  0.00  0.00    -0.073 A 
ATOM      7  C8  UNL d   1      -0.179   1.981   3.568  0.00  0.00     0.078 C 
ENDROOT
BRANCH   1   8
ATOM      8  C1  UNL d   1       1.681   0.210   1.982  0.00  0.00     0.053 C 
ATOM      9  C   UNL d   1       2.402  -0.750   1.048  0.00  0.00     0.018 C 
ENDBRANCH   1   8
TORSDOF 1
ENDMDL
