MODEL 1
REMARK minimizedAffinity 2.80614662
REMARK minimizedRMSD -1
REMARK  1 active torsions:
REMARK  status: ('A' for Active; 'I' for Inactive)
REMARK    1  A    between atoms: C1_2  and  C2_3 
ROOT
ATOM      1  C2  UNL d   1       1.935  -0.256  -2.319  0.00  0.00    -0.076 A 
ATOM      2  C3  UNL d   1       0.594  -0.443  -2.698  0.00  0.00     0.004 A 
ATOM      3  C4  UNL d   1       0.132  -0.002  -3.937  0.00  0.00    -0.003 A 
ATOM      4  C5  UNL d   1       1.002   0.632  -4.817  0.00  0.00     0.000 A 
ATOM      5  C6  UNL d   1       2.340   0.809  -4.464  0.00  0.00     0.000 A 
ATOM      6  C7  UNL d   1       2.826   0.356  -3.226  0.00  0.00    -0.073 A 
ATOM      7  C8  UNL d   1       4.276   0.579  -2.895  0.00  0.00     0.078 C 
ENDROOT
BRANCH   1   8
ATOM      8  C1  UNL d   1       2.373  -0.731  -0.952  0.00  0.00     0.053 C 
ATOM      9  C   UNL d   1       1.208  -1.211  -0.100  0.00  0.00     0.018 C 
ENDBRANCH   1   8
TORSDOF 1
ENDMDL
