MODEL 1
REMARK minimizedAffinity -4.85628843
REMARK minimizedRMSD -1
REMARK  1 active torsions:
REMARK  status: ('A' for Active; 'I' for Inactive)
REMARK    1  A    between atoms: C3_4  and  O_7 
ROOT
ATOM      1  C   UNL d   1       3.055   0.072   0.639  0.00  0.00    -0.033 A 
ATOM      2  C1  UNL d   1       2.526   1.360   0.537  0.00  0.00     0.039 A 
ATOM      3  C2  UNL d   1       1.172   1.539   0.246  0.00  0.00    -0.080 A 
ATOM      4  C3  UNL d   1       0.359   0.424   0.062  0.00  0.00     0.150 A 
ATOM      5  C4  UNL d   1       0.878  -0.862   0.166  0.00  0.00    -0.007 A 
ATOM      6  C5  UNL d   1       2.231  -1.039   0.455  0.00  0.00     0.039 A 
ENDROOT
BRANCH   4   7
ATOM      7  O   UNL d   1      -0.967   0.550  -0.228  0.00  0.00    -0.526 OA
ATOM      8  H5  UNL d   1      -1.179   1.496  -0.298  0.00  0.00     0.418 HD
ENDBRANCH   4   7
TORSDOF 1
ENDMDL
