MODEL 1
REMARK minimizedAffinity -1.17981434
REMARK minimizedRMSD -1
REMARK  1 active torsions:
REMARK  status: ('A' for Active; 'I' for Inactive)
REMARK    1  A    between atoms: C3_4  and  O_7 
ROOT
ATOM      1  C   UNL d   1      -2.724   0.508  -2.951  0.00  0.00    -0.033 A 
ATOM      2  C1  UNL d   1      -2.204  -0.787  -2.983  0.00  0.00     0.039 A 
ATOM      3  C2  UNL d   1      -1.468  -1.273  -1.900  0.00  0.00    -0.080 A 
ATOM      4  C3  UNL d   1      -1.262  -0.454  -0.792  0.00  0.00     0.150 A 
ATOM      5  C4  UNL d   1      -1.782   0.835  -0.753  0.00  0.00    -0.007 A 
ATOM      6  C5  UNL d   1      -2.515   1.319  -1.836  0.00  0.00     0.039 A 
ENDROOT
BRANCH   4   7
ATOM      7  O   UNL d   1      -0.547  -0.882   0.287  0.00  0.00    -0.526 OA
ATOM      8  H5  UNL d   1      -0.226  -1.782   0.106  0.00  0.00     0.418 HD
ENDBRANCH   4   7
TORSDOF 1
ENDMDL
