MODEL 1
REMARK minimizedAffinity -4.78468561
REMARK minimizedRMSD -1
REMARK  1 active torsions:
REMARK  status: ('A' for Active; 'I' for Inactive)
REMARK    1  A    between atoms: C3_4  and  O_7 
ROOT
ATOM      1  C   UNL d   1      -0.230  -0.136  -0.041  0.00  0.00    -0.033 A 
ATOM      2  C1  UNL d   1       0.467   1.068   0.069  0.00  0.00     0.039 A 
ATOM      3  C2  UNL d   1       1.832   1.062   0.360  0.00  0.00    -0.080 A 
ATOM      4  C3  UNL d   1       2.488  -0.153   0.539  0.00  0.00     0.150 A 
ATOM      5  C4  UNL d   1       1.800  -1.357   0.427  0.00  0.00    -0.007 A 
ATOM      6  C5  UNL d   1       0.436  -1.349   0.137  0.00  0.00     0.039 A 
ENDROOT
BRANCH   4   7
ATOM      7  O   UNL d   1       3.818  -0.209   0.830  0.00  0.00    -0.526 OA
ATOM      8  H5  UNL d   1       4.156   0.699   0.905  0.00  0.00     0.418 HD
ENDBRANCH   4   7
TORSDOF 1
ENDMDL
