MODEL 1
REMARK minimizedAffinity -4.22502708
REMARK minimizedRMSD -1
REMARK  1 active torsions:
REMARK  status: ('A' for Active; 'I' for Inactive)
REMARK    1  A    between atoms: C3_4  and  O_7 
ROOT
ATOM      1  C   UNL d   1       2.881   0.535   0.468  0.00  0.00    -0.033 A 
ATOM      2  C1  UNL d   1       2.088   1.684   0.479  0.00  0.00     0.039 A 
ATOM      3  C2  UNL d   1       0.706   1.582   0.310  0.00  0.00    -0.080 A 
ATOM      4  C3  UNL d   1       0.130   0.327   0.132  0.00  0.00     0.150 A 
ATOM      5  C4  UNL d   1       0.914  -0.822   0.124  0.00  0.00    -0.007 A 
ATOM      6  C5  UNL d   1       2.294  -0.718   0.292  0.00  0.00     0.039 A 
ENDROOT
BRANCH   4   7
ATOM      7  O   UNL d   1      -1.214   0.177  -0.042  0.00  0.00    -0.526 OA
ATOM      8  H5  UNL d   1      -1.624   1.058  -0.042  0.00  0.00     0.418 HD
ENDBRANCH   4   7
TORSDOF 1
ENDMDL
