MODEL 1
REMARK minimizedAffinity -5.48772335
REMARK minimizedRMSD -1
REMARK  1 active torsions:
REMARK  status: ('A' for Active; 'I' for Inactive)
REMARK    1  A    between atoms: C3_4  and  O_7 
ROOT
ATOM      1  C   UNL d   1      -0.404  -1.159   0.766  0.00  0.00    -0.033 A 
ATOM      2  C1  UNL d   1       0.701  -1.866   1.246  0.00  0.00     0.039 A 
ATOM      3  C2  UNL d   1       1.993  -1.396   1.001  0.00  0.00    -0.080 A 
ATOM      4  C3  UNL d   1       2.166  -0.219   0.277  0.00  0.00     0.150 A 
ATOM      5  C4  UNL d   1       1.070   0.492  -0.200  0.00  0.00    -0.007 A 
ATOM      6  C5  UNL d   1      -0.219   0.021   0.045  0.00  0.00     0.039 A 
ENDROOT
BRANCH   4   7
ATOM      7  O   UNL d   1       3.408   0.276   0.009  0.00  0.00    -0.526 OA
ATOM      8  H5  UNL d   1       4.068  -0.335   0.376  0.00  0.00     0.418 HD
ENDBRANCH   4   7
TORSDOF 1
ENDMDL
