MODEL 1
REMARK minimizedAffinity -4.91165113
REMARK minimizedRMSD -1
REMARK  1 active torsions:
REMARK  status: ('A' for Active; 'I' for Inactive)
REMARK    1  A    between atoms: C3_4  and  O_7 
ROOT
ATOM      1  C   UNL d   1       3.067   0.009   0.989  0.00  0.00    -0.033 A 
ATOM      2  C1  UNL d   1       2.507   1.251   0.684  0.00  0.00     0.039 A 
ATOM      3  C2  UNL d   1       1.215   1.326   0.158  0.00  0.00    -0.080 A 
ATOM      4  C3  UNL d   1       0.496   0.154  -0.056  0.00  0.00     0.150 A 
ATOM      5  C4  UNL d   1       1.046  -1.087   0.250  0.00  0.00    -0.007 A 
ATOM      6  C5  UNL d   1       2.336  -1.160   0.773  0.00  0.00     0.039 A 
ENDROOT
BRANCH   4   7
ATOM      7  O   UNL d   1      -0.766   0.176  -0.572  0.00  0.00    -0.526 OA
ATOM      8  H5  UNL d   1      -1.005   1.099  -0.761  0.00  0.00     0.418 HD
ENDBRANCH   4   7
TORSDOF 1
ENDMDL
