MODEL 1
REMARK minimizedAffinity -5.1945076
REMARK minimizedRMSD -1
REMARK  1 active torsions:
REMARK  status: ('A' for Active; 'I' for Inactive)
REMARK    1  A    between atoms: C3_4  and  O_7 
ROOT
ATOM      1  C   UNL d   1       2.228   1.258   0.792  0.00  0.00    -0.033 A 
ATOM      2  C1  UNL d   1       2.238  -0.131   0.655  0.00  0.00     0.039 A 
ATOM      3  C2  UNL d   1       1.126  -0.791   0.129  0.00  0.00    -0.080 A 
ATOM      4  C3  UNL d   1       0.012  -0.050  -0.257  0.00  0.00     0.150 A 
ATOM      5  C4  UNL d   1      -0.004   1.335  -0.127  0.00  0.00    -0.007 A 
ATOM      6  C5  UNL d   1       1.108   1.991   0.399  0.00  0.00     0.039 A 
ENDROOT
BRANCH   4   7
ATOM      7  O   UNL d   1      -1.100  -0.650  -0.771  0.00  0.00    -0.526 OA
ATOM      8  H5  UNL d   1      -0.956  -1.611  -0.775  0.00  0.00     0.418 HD
ENDBRANCH   4   7
TORSDOF 1
ENDMDL
