MODEL 1
REMARK minimizedAffinity 1.84390545
REMARK minimizedRMSD -1
REMARK  1 active torsions:
REMARK  status: ('A' for Active; 'I' for Inactive)
REMARK    1  A    between atoms: C3_4  and  O_7 
ROOT
ATOM      1  C   UNL d   1       3.691   1.148  -0.318  0.00  0.00    -0.033 A 
ATOM      2  C1  UNL d   1       2.532   1.580   0.330  0.00  0.00     0.039 A 
ATOM      3  C2  UNL d   1       1.724   0.662   1.005  0.00  0.00    -0.080 A 
ATOM      4  C3  UNL d   1       2.087  -0.682   1.025  0.00  0.00     0.150 A 
ATOM      5  C4  UNL d   1       3.243  -1.118   0.385  0.00  0.00    -0.007 A 
ATOM      6  C5  UNL d   1       4.047  -0.200  -0.290  0.00  0.00     0.039 A 
ENDROOT
BRANCH   4   7
ATOM      7  O   UNL d   1       1.329  -1.616   1.666  0.00  0.00    -0.526 OA
ATOM      8  H5  UNL d   1       0.547  -1.174   2.038  0.00  0.00     0.418 HD
ENDBRANCH   4   7
TORSDOF 1
ENDMDL
