MODEL 1
REMARK minimizedAffinity -2.30503201
REMARK minimizedRMSD -1
REMARK  1 active torsions:
REMARK  status: ('A' for Active; 'I' for Inactive)
REMARK    1  A    between atoms: C3_4  and  O_7 
ROOT
ATOM      1  C   UNL d   1      -0.764   0.326   0.140  0.00  0.00    -0.033 A 
ATOM      2  C1  UNL d   1      -0.033  -0.814   0.482  0.00  0.00     0.039 A 
ATOM      3  C2  UNL d   1       1.320  -0.705   0.811  0.00  0.00    -0.080 A 
ATOM      4  C3  UNL d   1       1.928   0.547   0.796  0.00  0.00     0.150 A 
ATOM      5  C4  UNL d   1       1.205   1.687   0.460  0.00  0.00    -0.007 A 
ATOM      6  C5  UNL d   1      -0.145   1.576   0.131  0.00  0.00     0.039 A 
ENDROOT
BRANCH   4   7
ATOM      7  O   UNL d   1       3.247   0.702   1.106  0.00  0.00    -0.526 OA
ATOM      8  H5  UNL d   1       3.625  -0.174   1.289  0.00  0.00     0.418 HD
ENDBRANCH   4   7
TORSDOF 1
ENDMDL
