MODEL 1
REMARK minimizedAffinity -4.51168013
REMARK minimizedRMSD -1
REMARK  1 active torsions:
REMARK  status: ('A' for Active; 'I' for Inactive)
REMARK    1  A    between atoms: C3_4  and  O_7 
ROOT
ATOM      1  C   UNL d   1       2.866  -0.229   1.264  0.00  0.00    -0.033 A 
ATOM      2  C1  UNL d   1       2.648   0.947   0.543  0.00  0.00     0.039 A 
ATOM      3  C2  UNL d   1       1.463   1.117  -0.176  0.00  0.00    -0.080 A 
ATOM      4  C3  UNL d   1       0.506   0.106  -0.166  0.00  0.00     0.150 A 
ATOM      5  C4  UNL d   1       0.715  -1.066   0.554  0.00  0.00    -0.007 A 
ATOM      6  C5  UNL d   1       1.899  -1.234   1.271  0.00  0.00     0.039 A 
ENDROOT
BRANCH   4   7
ATOM      7  O   UNL d   1      -0.663   0.224  -0.856  0.00  0.00    -0.526 OA
ATOM      8  H5  UNL d   1      -0.657   1.073  -1.329  0.00  0.00     0.418 HD
ENDBRANCH   4   7
TORSDOF 1
ENDMDL
