MODEL 1
REMARK minimizedAffinity -5.22976255
REMARK minimizedRMSD -1
REMARK  1 active torsions:
REMARK  status: ('A' for Active; 'I' for Inactive)
REMARK    1  A    between atoms: C3_4  and  O_7 
ROOT
ATOM      1  C   UNL d   1       0.080   1.268   0.028  0.00  0.00    -0.033 A 
ATOM      2  C1  UNL d   1       1.105   2.045   0.570  0.00  0.00     0.039 A 
ATOM      3  C2  UNL d   1       2.343   1.467   0.860  0.00  0.00    -0.080 A 
ATOM      4  C3  UNL d   1       2.543   0.114   0.601  0.00  0.00     0.150 A 
ATOM      5  C4  UNL d   1       1.527  -0.665   0.057  0.00  0.00    -0.007 A 
ATOM      6  C5  UNL d   1       0.291  -0.087  -0.231  0.00  0.00     0.039 A 
ENDROOT
BRANCH   4   7
ATOM      7  O   UNL d   1       3.732  -0.495   0.871  0.00  0.00    -0.526 OA
ATOM      8  H5  UNL d   1       4.329   0.159   1.270  0.00  0.00     0.418 HD
ENDBRANCH   4   7
TORSDOF 1
ENDMDL
