MODEL 1
REMARK minimizedAffinity -4.33678675
REMARK minimizedRMSD -1
REMARK  1 active torsions:
REMARK  status: ('A' for Active; 'I' for Inactive)
REMARK    1  A    between atoms: C3_4  and  O_7 
ROOT
ATOM      1  C   UNL d   1       3.260  -0.096   1.310  0.00  0.00    -0.033 A 
ATOM      2  C1  UNL d   1       2.539  -1.212   1.741  0.00  0.00     0.039 A 
ATOM      3  C2  UNL d   1       1.276  -1.478   1.207  0.00  0.00    -0.080 A 
ATOM      4  C3  UNL d   1       0.747  -0.623   0.244  0.00  0.00     0.150 A 
ATOM      5  C4  UNL d   1       1.461   0.488  -0.193  0.00  0.00    -0.007 A 
ATOM      6  C5  UNL d   1       2.722   0.752   0.342  0.00  0.00     0.039 A 
ENDROOT
BRANCH   4   7
ATOM      7  O   UNL d   1      -0.483  -0.839  -0.302  0.00  0.00    -0.526 OA
ATOM      8  H5  UNL d   1      -0.872  -1.626   0.116  0.00  0.00     0.418 HD
ENDBRANCH   4   7
TORSDOF 1
ENDMDL
