MODEL 1
REMARK minimizedAffinity 17.5381374
REMARK minimizedRMSD -1
REMARK  0 active torsions:
REMARK  status: ('A' for Active; 'I' for Inactive)
ROOT
ATOM      1  C   UNL d   1      -0.405   2.974  -3.417  0.00  0.00     0.077 C 
ATOM      2  C1  UNL d   1      -1.905   2.969  -3.452  0.00  0.00    -0.074 A 
ATOM      3  C2  UNL d   1      -2.609   1.865  -3.941  0.00  0.00    -0.005 A 
ATOM      4  C3  UNL d   1      -4.004   1.871  -3.959  0.00  0.00     0.006 A 
ATOM      5  C4  UNL d   1      -4.707   2.981  -3.488  0.00  0.00    -0.005 A 
ATOM      6  C5  UNL d   1      -4.020   4.094  -2.994  0.00  0.00    -0.074 A 
ATOM      7  C6  UNL d   1      -4.761   5.291  -2.475  0.00  0.00     0.077 C 
ATOM      8  C7  UNL d   1      -2.619   4.077  -2.973  0.00  0.00    -0.001 A 
ENDROOT
TORSDOF 0
ENDMDL
