MODEL 1
REMARK minimizedAffinity 12.3129187
REMARK minimizedRMSD -1
REMARK  0 active torsions:
REMARK  status: ('A' for Active; 'I' for Inactive)
ROOT
ATOM      1  C   UNL d   1      -0.224  -3.301  -5.992  0.00  0.00     0.077 C 
ATOM      2  C1  UNL d   1       1.166  -2.738  -5.999  0.00  0.00    -0.074 A 
ATOM      3  C2  UNL d   1       1.382  -1.356  -5.996  0.00  0.00    -0.005 A 
ATOM      4  C3  UNL d   1       2.680  -0.847  -5.993  0.00  0.00     0.006 A 
ATOM      5  C4  UNL d   1       3.774  -1.713  -5.993  0.00  0.00    -0.005 A 
ATOM      6  C5  UNL d   1       3.578  -3.098  -5.995  0.00  0.00    -0.074 A 
ATOM      7  C6  UNL d   1       4.743  -4.043  -5.985  0.00  0.00     0.077 C 
ATOM      8  C7  UNL d   1       2.270  -3.602  -5.991  0.00  0.00    -0.001 A 
ENDROOT
TORSDOF 0
ENDMDL
