MODEL 1
REMARK minimizedAffinity 19.4375629
REMARK minimizedRMSD -1
REMARK  0 active torsions:
REMARK  status: ('A' for Active; 'I' for Inactive)
ROOT
ATOM      1  C   UNL d   1      -5.983  -5.933   4.499  0.00  0.00     0.077 C 
ATOM      2  C1  UNL d   1      -5.278  -4.667   4.885  0.00  0.00    -0.074 A 
ATOM      3  C2  UNL d   1      -5.926  -3.684   5.640  0.00  0.00    -0.005 A 
ATOM      4  C3  UNL d   1      -5.254  -2.516   6.000  0.00  0.00     0.006 A 
ATOM      5  C4  UNL d   1      -3.929  -2.319   5.609  0.00  0.00    -0.005 A 
ATOM      6  C5  UNL d   1      -3.264  -3.291   4.855  0.00  0.00    -0.074 A 
ATOM      7  C6  UNL d   1      -1.837  -3.100   4.436  0.00  0.00     0.077 C 
ATOM      8  C7  UNL d   1      -3.944  -4.465   4.503  0.00  0.00    -0.001 A 
ENDROOT
TORSDOF 0
ENDMDL
