MODEL 1
REMARK minimizedAffinity 15.9068871
REMARK minimizedRMSD -1
REMARK  0 active torsions:
REMARK  status: ('A' for Active; 'I' for Inactive)
ROOT
ATOM      1  C   UNL d   1      -0.040  -4.175   3.920  0.00  0.00     0.077 C 
ATOM      2  C1  UNL d   1      -1.348  -3.547   4.299  0.00  0.00    -0.074 A 
ATOM      3  C2  UNL d   1      -1.398  -2.477   5.197  0.00  0.00    -0.005 A 
ATOM      4  C3  UNL d   1      -2.621  -1.896   5.533  0.00  0.00     0.006 A 
ATOM      5  C4  UNL d   1      -3.805  -2.379   4.973  0.00  0.00    -0.005 A 
ATOM      6  C5  UNL d   1      -3.774  -3.448   4.072  0.00  0.00    -0.074 A 
ATOM      7  C6  UNL d   1      -5.036  -3.973   3.454  0.00  0.00     0.077 C 
ATOM      8  C7  UNL d   1      -2.540  -4.021   3.735  0.00  0.00    -0.001 A 
ENDROOT
TORSDOF 0
ENDMDL
