MODEL 1
REMARK minimizedAffinity 17.4784698
REMARK minimizedRMSD -1
REMARK  0 active torsions:
REMARK  status: ('A' for Active; 'I' for Inactive)
ROOT
ATOM      1  C   UNL d   1      -6.000   1.333  -4.745  0.00  0.00     0.077 C 
ATOM      2  C1  UNL d   1      -4.801   2.027  -4.171  0.00  0.00    -0.074 A 
ATOM      3  C2  UNL d   1      -3.564   1.378  -4.092  0.00  0.00    -0.005 A 
ATOM      4  C3  UNL d   1      -2.455   2.040  -3.564  0.00  0.00     0.006 A 
ATOM      5  C4  UNL d   1      -2.572   3.354  -3.111  0.00  0.00    -0.005 A 
ATOM      6  C5  UNL d   1      -3.800   4.019  -3.182  0.00  0.00    -0.074 A 
ATOM      7  C6  UNL d   1      -3.940   5.435  -2.708  0.00  0.00     0.077 C 
ATOM      8  C7  UNL d   1      -4.908   3.350  -3.720  0.00  0.00    -0.001 A 
ENDROOT
TORSDOF 0
ENDMDL
