MODEL 1
REMARK minimizedAffinity 11.2937822
REMARK minimizedRMSD -1
REMARK  0 active torsions:
REMARK  status: ('A' for Active; 'I' for Inactive)
ROOT
ATOM      1  C   UNL d   1      -4.468   5.996   1.772  0.00  0.00     0.077 C 
ATOM      2  C1  UNL d   1      -4.044   5.513   0.417  0.00  0.00    -0.074 A 
ATOM      3  C2  UNL d   1      -4.685   5.966  -0.740  0.00  0.00    -0.005 A 
ATOM      4  C3  UNL d   1      -4.273   5.516  -1.995  0.00  0.00     0.006 A 
ATOM      5  C4  UNL d   1      -3.218   4.609  -2.104  0.00  0.00    -0.005 A 
ATOM      6  C5  UNL d   1      -2.564   4.146  -0.958  0.00  0.00    -0.074 A 
ATOM      7  C6  UNL d   1      -1.422   3.180  -1.058  0.00  0.00     0.077 C 
ATOM      8  C7  UNL d   1      -2.979   4.609   0.299  0.00  0.00    -0.001 A 
ENDROOT
TORSDOF 0
ENDMDL
