MODEL 1
REMARK minimizedAffinity 16.3382645
REMARK minimizedRMSD -1
REMARK  0 active torsions:
REMARK  status: ('A' for Active; 'I' for Inactive)
ROOT
ATOM      1  C   UNL d   1       0.527   2.594  -0.029  0.00  0.00     0.077 C 
ATOM      2  C1  UNL d   1       0.263   3.261  -1.346  0.00  0.00    -0.074 A 
ATOM      3  C2  UNL d   1      -0.839   2.898  -2.127  0.00  0.00    -0.005 A 
ATOM      4  C3  UNL d   1      -1.078   3.534  -3.345  0.00  0.00     0.006 A 
ATOM      5  C4  UNL d   1      -0.219   4.538  -3.794  0.00  0.00    -0.005 A 
ATOM      6  C5  UNL d   1       0.887   4.916  -3.025  0.00  0.00    -0.074 A 
ATOM      7  C6  UNL d   1       1.815   6.000  -3.488  0.00  0.00     0.077 C 
ATOM      8  C7  UNL d   1       1.116   4.276  -1.799  0.00  0.00    -0.001 A 
ENDROOT
TORSDOF 0
ENDMDL
