MODEL 1
REMARK minimizedAffinity 6.4560523
REMARK minimizedRMSD -1
REMARK  0 active torsions:
REMARK  status: ('A' for Active; 'I' for Inactive)
ROOT
ATOM      1  C   UNL d   1      -1.235   3.724  -3.247  0.00  0.00     0.077 C 
ATOM      2  C1  UNL d   1      -0.694   3.735  -1.848  0.00  0.00    -0.074 A 
ATOM      3  C2  UNL d   1       0.206   4.721  -1.433  0.00  0.00    -0.005 A 
ATOM      4  C3  UNL d   1       0.693   4.724  -0.125  0.00  0.00     0.006 A 
ATOM      5  C4  UNL d   1       0.284   3.742   0.778  0.00  0.00    -0.005 A 
ATOM      6  C5  UNL d   1      -0.617   2.749   0.382  0.00  0.00    -0.074 A 
ATOM      7  C6  UNL d   1      -1.074   1.692   1.343  0.00  0.00     0.077 C 
ATOM      8  C7  UNL d   1      -1.106   2.757  -0.932  0.00  0.00    -0.001 A 
ENDROOT
TORSDOF 0
ENDMDL
