MODEL 1
REMARK minimizedAffinity 3.14922094
REMARK minimizedRMSD -1
REMARK  0 active torsions:
REMARK  status: ('A' for Active; 'I' for Inactive)
ROOT
ATOM      1  C   UNL d   1      -0.592   1.764   1.167  0.00  0.00     0.077 C 
ATOM      2  C1  UNL d   1      -0.505   2.833   0.119  0.00  0.00    -0.074 A 
ATOM      3  C2  UNL d   1       0.112   4.058   0.392  0.00  0.00    -0.005 A 
ATOM      4  C3  UNL d   1       0.194   5.040  -0.596  0.00  0.00     0.006 A 
ATOM      5  C4  UNL d   1      -0.340   4.807  -1.864  0.00  0.00    -0.005 A 
ATOM      6  C5  UNL d   1      -0.960   3.588  -2.155  0.00  0.00    -0.074 A 
ATOM      7  C6  UNL d   1      -1.531   3.317  -3.516  0.00  0.00     0.077 C 
ATOM      8  C7  UNL d   1      -1.032   2.604  -1.159  0.00  0.00    -0.001 A 
ENDROOT
TORSDOF 0
ENDMDL
