MODEL 1
REMARK minimizedAffinity 4.2698617
REMARK minimizedRMSD -1
REMARK  0 active torsions:
REMARK  status: ('A' for Active; 'I' for Inactive)
ROOT
ATOM      1  C   UNL d   1      -0.310   4.579  -0.444  0.00  0.00     0.077 C 
ATOM      2  C1  UNL d   1      -0.343   3.189  -1.006  0.00  0.00    -0.074 A 
ATOM      3  C2  UNL d   1       0.765   2.342  -0.894  0.00  0.00    -0.005 A 
ATOM      4  C3  UNL d   1       0.716   1.048  -1.413  0.00  0.00     0.006 A 
ATOM      5  C4  UNL d   1      -0.439   0.589  -2.048  0.00  0.00    -0.005 A 
ATOM      6  C5  UNL d   1      -1.556   1.421  -2.168  0.00  0.00    -0.074 A 
ATOM      7  C6  UNL d   1      -2.809   0.939  -2.838  0.00  0.00     0.077 C 
ATOM      8  C7  UNL d   1      -1.502   2.717  -1.638  0.00  0.00    -0.001 A 
ENDROOT
TORSDOF 0
ENDMDL
