MODEL 1
REMARK minimizedAffinity 0.301596791
REMARK minimizedRMSD -1
REMARK  0 active torsions:
REMARK  status: ('A' for Active; 'I' for Inactive)
ROOT
ATOM      1  C   UNL d   1      -0.605   2.117   0.923  0.00  0.00     0.077 C 
ATOM      2  C1  UNL d   1      -0.000   3.466   0.670  0.00  0.00    -0.074 A 
ATOM      3  C2  UNL d   1      -0.197   4.125  -0.548  0.00  0.00    -0.005 A 
ATOM      4  C3  UNL d   1       0.364   5.383  -0.765  0.00  0.00     0.006 A 
ATOM      5  C4  UNL d   1       1.125   5.995   0.232  0.00  0.00    -0.005 A 
ATOM      6  C5  UNL d   1       1.331   5.352   1.456  0.00  0.00    -0.074 A 
ATOM      7  C6  UNL d   1       2.138   6.000   2.542  0.00  0.00     0.077 C 
ATOM      8  C7  UNL d   1       0.759   4.090   1.669  0.00  0.00    -0.001 A 
ENDROOT
TORSDOF 0
ENDMDL
