MODEL 1
REMARK minimizedAffinity 3.81876659
REMARK minimizedRMSD -1
REMARK  0 active torsions:
REMARK  status: ('A' for Active; 'I' for Inactive)
ROOT
ATOM      1  C   UNL d   1       0.220   3.356  -0.593  0.00  0.00     0.077 C 
ATOM      2  C1  UNL d   1       0.043   2.803   0.790  0.00  0.00    -0.074 A 
ATOM      3  C2  UNL d   1       0.865   3.219   1.842  0.00  0.00    -0.005 A 
ATOM      4  C3  UNL d   1       0.682   2.703   3.124  0.00  0.00     0.006 A 
ATOM      5  C4  UNL d   1      -0.323   1.767   3.368  0.00  0.00    -0.005 A 
ATOM      6  C5  UNL d   1      -1.156   1.339   2.329  0.00  0.00    -0.074 A 
ATOM      7  C6  UNL d   1      -2.247   0.341   2.576  0.00  0.00     0.077 C 
ATOM      8  C7  UNL d   1      -0.970   1.868   1.044  0.00  0.00    -0.001 A 
ENDROOT
TORSDOF 0
ENDMDL
