MODEL 1
REMARK minimizedAffinity 2.79167461
REMARK minimizedRMSD -1
REMARK  0 active torsions:
REMARK  status: ('A' for Active; 'I' for Inactive)
ROOT
ATOM      1  C   UNL d   1      -4.139  -0.046  -2.252  0.00  0.00     0.077 C 
ATOM      2  C1  UNL d   1      -4.783  -0.757  -1.099  0.00  0.00    -0.074 A 
ATOM      3  C2  UNL d   1      -5.294  -0.044  -0.010  0.00  0.00    -0.005 A 
ATOM      4  C3  UNL d   1      -5.899  -0.718   1.051  0.00  0.00     0.006 A 
ATOM      5  C4  UNL d   1      -5.999  -2.110   1.033  0.00  0.00    -0.005 A 
ATOM      6  C5  UNL d   1      -5.495  -2.840  -0.048  0.00  0.00    -0.074 A 
ATOM      7  C6  UNL d   1      -5.603  -4.335  -0.088  0.00  0.00     0.077 C 
ATOM      8  C7  UNL d   1      -4.895  -2.154  -1.113  0.00  0.00    -0.001 A 
ENDROOT
TORSDOF 0
ENDMDL
