MODEL 1
REMARK minimizedAffinity 16.9039841
REMARK minimizedRMSD -1
REMARK  0 active torsions:
REMARK  status: ('A' for Active; 'I' for Inactive)
ROOT
ATOM      1  C   UNL d   1       1.438  -3.729  -1.110  0.00  0.00     0.077 C 
ATOM      2  C1  UNL d   1       1.337  -3.076   0.236  0.00  0.00    -0.074 A 
ATOM      3  C2  UNL d   1       2.033  -1.896   0.517  0.00  0.00    -0.005 A 
ATOM      4  C3  UNL d   1       1.922  -1.295   1.771  0.00  0.00     0.006 A 
ATOM      5  C4  UNL d   1       1.115  -1.867   2.755  0.00  0.00    -0.005 A 
ATOM      6  C5  UNL d   1       0.412  -3.047   2.492  0.00  0.00    -0.074 A 
ATOM      7  C6  UNL d   1      -0.467  -3.670   3.536  0.00  0.00     0.077 C 
ATOM      8  C7  UNL d   1       0.523  -3.641   1.228  0.00  0.00    -0.001 A 
ENDROOT
TORSDOF 0
ENDMDL
