MODEL 1
REMARK minimizedAffinity 11.0808353
REMARK minimizedRMSD -1
REMARK  0 active torsions:
REMARK  status: ('A' for Active; 'I' for Inactive)
ROOT
ATOM      1  C   UNL d   1      -1.889   6.000   0.845  0.00  0.00     0.077 C 
ATOM      2  C1  UNL d   1      -0.964   5.227  -0.048  0.00  0.00    -0.074 A 
ATOM      3  C2  UNL d   1       0.334   4.907   0.365  0.00  0.00    -0.005 A 
ATOM      4  C3  UNL d   1       1.179   4.180  -0.472  0.00  0.00     0.006 A 
ATOM      5  C4  UNL d   1       0.737   3.767  -1.730  0.00  0.00    -0.005 A 
ATOM      6  C5  UNL d   1      -0.557   4.077  -2.159  0.00  0.00    -0.074 A 
ATOM      7  C6  UNL d   1      -1.051   3.631  -3.504  0.00  0.00     0.077 C 
ATOM      8  C7  UNL d   1      -1.403   4.802  -1.309  0.00  0.00    -0.001 A 
ENDROOT
TORSDOF 0
ENDMDL
