MODEL 1
REMARK minimizedAffinity 4.6837635
REMARK minimizedRMSD -1
REMARK  0 active torsions:
REMARK  status: ('A' for Active; 'I' for Inactive)
ROOT
ATOM      1  C   UNL d   1      -0.902   1.870   2.203  0.00  0.00     0.077 C 
ATOM      2  C1  UNL d   1      -1.001   2.124   0.728  0.00  0.00    -0.074 A 
ATOM      3  C2  UNL d   1      -0.111   2.992   0.087  0.00  0.00    -0.005 A 
ATOM      4  C3  UNL d   1      -0.210   3.210  -1.287  0.00  0.00     0.006 A 
ATOM      5  C4  UNL d   1      -1.197   2.565  -2.033  0.00  0.00    -0.005 A 
ATOM      6  C5  UNL d   1      -2.095   1.693  -1.409  0.00  0.00    -0.074 A 
ATOM      7  C6  UNL d   1      -3.155   0.983  -2.197  0.00  0.00     0.077 C 
ATOM      8  C7  UNL d   1      -1.985   1.473  -0.029  0.00  0.00    -0.001 A 
ENDROOT
TORSDOF 0
ENDMDL
