MODEL 1
REMARK minimizedAffinity -0.763635635
REMARK minimizedRMSD -1
REMARK  0 active torsions:
REMARK  status: ('A' for Active; 'I' for Inactive)
ROOT
ATOM      1  C   UNL d   1      -0.918   0.967   1.621  0.00  0.00     0.023 A 
ATOM      2  C1  UNL d   1      -1.176   2.274   2.036  0.00  0.00     0.003 A 
ATOM      3  C2  UNL d   1      -2.232   2.534   2.912  0.00  0.00     0.048 A 
ATOM      4  C3  UNL d   1      -3.024   1.482   3.372  0.00  0.00     0.023 A 
ATOM      5  C4  UNL d   1      -2.769   0.173   2.960  0.00  0.00     0.048 A 
ATOM      6  C5  UNL d   1      -1.713  -0.082   2.083  0.00  0.00     0.003 A 
ATOM      7  I   UNL d   1      -4.595   1.867   4.677  0.00  0.00    -0.146 I 
ENDROOT
TORSDOF 0
ENDMDL
