MODEL 1
REMARK minimizedAffinity 1.86753535
REMARK minimizedRMSD -1
REMARK  0 active torsions:
REMARK  status: ('A' for Active; 'I' for Inactive)
ROOT
ATOM      1  C   UNL d   1      -0.916   2.972   0.748  0.00  0.00     0.023 A 
ATOM      2  C1  UNL d   1      -1.551   2.249   1.757  0.00  0.00     0.003 A 
ATOM      3  C2  UNL d   1      -0.892   1.186   2.377  0.00  0.00     0.048 A 
ATOM      4  C3  UNL d   1       0.403   0.851   1.983  0.00  0.00     0.023 A 
ATOM      5  C4  UNL d   1       1.043   1.573   0.973  0.00  0.00     0.048 A 
ATOM      6  C5  UNL d   1       0.380   2.634   0.356  0.00  0.00     0.003 A 
ATOM      7  I   UNL d   1       1.387  -0.731   2.904  0.00  0.00    -0.146 I 
ENDROOT
TORSDOF 0
ENDMDL
