MODEL 1
REMARK minimizedAffinity 0.097423397
REMARK minimizedRMSD -1
REMARK  0 active torsions:
REMARK  status: ('A' for Active; 'I' for Inactive)
ROOT
ATOM      1  C   UNL d   1       0.243   0.372   1.308  0.00  0.00     0.023 A 
ATOM      2  C1  UNL d   1      -0.624  -0.623   1.762  0.00  0.00     0.003 A 
ATOM      3  C2  UNL d   1      -1.851  -0.275   2.330  0.00  0.00     0.048 A 
ATOM      4  C3  UNL d   1      -2.205   1.070   2.440  0.00  0.00     0.023 A 
ATOM      5  C4  UNL d   1      -1.341   2.068   1.987  0.00  0.00     0.048 A 
ATOM      6  C5  UNL d   1      -0.115   1.715   1.420  0.00  0.00     0.003 A 
ATOM      7  I   UNL d   1      -4.031   1.590   3.285  0.00  0.00    -0.146 I 
ENDROOT
TORSDOF 0
ENDMDL
