MODEL 1
REMARK minimizedAffinity -0.947087526
REMARK minimizedRMSD -1
REMARK  0 active torsions:
REMARK  status: ('A' for Active; 'I' for Inactive)
ROOT
ATOM      1  C   UNL d   1      -0.003   1.402   0.991  0.00  0.00     0.023 A 
ATOM      2  C1  UNL d   1      -0.652   0.235   1.394  0.00  0.00     0.003 A 
ATOM      3  C2  UNL d   1      -1.742   0.305   2.263  0.00  0.00     0.048 A 
ATOM      4  C3  UNL d   1      -2.178   1.546   2.726  0.00  0.00     0.023 A 
ATOM      5  C4  UNL d   1      -1.532   2.717   2.326  0.00  0.00     0.048 A 
ATOM      6  C5  UNL d   1      -0.442   2.641   1.457  0.00  0.00     0.003 A 
ATOM      7  I   UNL d   1      -3.801   1.654   4.021  0.00  0.00    -0.146 I 
ENDROOT
TORSDOF 0
ENDMDL
