MODEL 1
REMARK minimizedAffinity -0.605845869
REMARK minimizedRMSD -1
REMARK  0 active torsions:
REMARK  status: ('A' for Active; 'I' for Inactive)
ROOT
ATOM      1  C   UNL d   1       0.504   1.529   0.901  0.00  0.00     0.023 A 
ATOM      2  C1  UNL d   1       0.206   0.483   1.775  0.00  0.00     0.003 A 
ATOM      3  C2  UNL d   1      -0.935   0.547   2.578  0.00  0.00     0.048 A 
ATOM      4  C3  UNL d   1      -1.772   1.660   2.502  0.00  0.00     0.023 A 
ATOM      5  C4  UNL d   1      -1.478   2.708   1.628  0.00  0.00     0.048 A 
ATOM      6  C5  UNL d   1      -0.336   2.639   0.828  0.00  0.00     0.003 A 
ATOM      7  I   UNL d   1      -3.470   1.757   3.697  0.00  0.00    -0.146 I 
ENDROOT
TORSDOF 0
ENDMDL
