MODEL 1
REMARK minimizedAffinity -0.171813145
REMARK minimizedRMSD -1
REMARK  0 active torsions:
REMARK  status: ('A' for Active; 'I' for Inactive)
ROOT
ATOM      1  C   UNL d   1      -3.389  -0.100   3.253  0.00  0.00     0.023 A 
ATOM      2  C1  UNL d   1      -2.971   1.230   3.210  0.00  0.00     0.003 A 
ATOM      3  C2  UNL d   1      -1.781   1.569   2.563  0.00  0.00     0.048 A 
ATOM      4  C3  UNL d   1      -1.013   0.572   1.961  0.00  0.00     0.023 A 
ATOM      5  C4  UNL d   1      -1.428  -0.760   2.000  0.00  0.00     0.048 A 
ATOM      6  C5  UNL d   1      -2.618  -1.094   2.649  0.00  0.00     0.003 A 
ATOM      7  I   UNL d   1       0.759   1.074   0.997  0.00  0.00    -0.146 I 
ENDROOT
TORSDOF 0
ENDMDL
