MODEL 1
REMARK minimizedAffinity -1.90167344
REMARK minimizedRMSD -1
REMARK  0 active torsions:
REMARK  status: ('A' for Active; 'I' for Inactive)
ROOT
ATOM      1  C   UNL d   1       0.547   0.142   0.890  0.00  0.00     0.023 A 
ATOM      2  C1  UNL d   1      -0.569  -0.647   1.169  0.00  0.00     0.003 A 
ATOM      3  C2  UNL d   1      -1.647  -0.110   1.875  0.00  0.00     0.048 A 
ATOM      4  C3  UNL d   1      -1.604   1.218   2.298  0.00  0.00     0.023 A 
ATOM      5  C4  UNL d   1      -0.489   2.012   2.020  0.00  0.00     0.048 A 
ATOM      6  C5  UNL d   1       0.587   1.470   1.315  0.00  0.00     0.003 A 
ATOM      7  I   UNL d   1      -3.207   2.021   3.348  0.00  0.00    -0.146 I 
ENDROOT
TORSDOF 0
ENDMDL
