MODEL 1
REMARK minimizedAffinity 0.525350273
REMARK minimizedRMSD -1
REMARK  0 active torsions:
REMARK  status: ('A' for Active; 'I' for Inactive)
ROOT
ATOM      1  C   UNL d   1       0.153   0.309   0.943  0.00  0.00     0.023 A 
ATOM      2  C1  UNL d   1      -0.926  -0.458   1.381  0.00  0.00     0.003 A 
ATOM      3  C2  UNL d   1      -1.969   0.142   2.091  0.00  0.00     0.048 A 
ATOM      4  C3  UNL d   1      -1.925   1.510   2.358  0.00  0.00     0.023 A 
ATOM      5  C4  UNL d   1      -0.847   2.281   1.921  0.00  0.00     0.048 A 
ATOM      6  C5  UNL d   1       0.193   1.677   1.213  0.00  0.00     0.003 A 
ATOM      7  I   UNL d   1      -3.475   2.405   3.414  0.00  0.00    -0.146 I 
ENDROOT
TORSDOF 0
ENDMDL
