MODEL 1
REMARK minimizedAffinity 2.18725896
REMARK minimizedRMSD -1
REMARK  0 active torsions:
REMARK  status: ('A' for Active; 'I' for Inactive)
ROOT
ATOM      1  C   UNL d   1      -0.793   3.040   1.759  0.00  0.00     0.023 A 
ATOM      2  C1  UNL d   1      -0.009   2.065   1.143  0.00  0.00     0.003 A 
ATOM      3  C2  UNL d   1      -0.231   0.713   1.418  0.00  0.00     0.048 A 
ATOM      4  C3  UNL d   1      -1.239   0.345   2.308  0.00  0.00     0.023 A 
ATOM      5  C4  UNL d   1      -2.026   1.318   2.925  0.00  0.00     0.048 A 
ATOM      6  C5  UNL d   1      -1.800   2.668   2.649  0.00  0.00     0.003 A 
ATOM      7  I   UNL d   1      -1.571  -1.665   2.717  0.00  0.00    -0.146 I 
ENDROOT
TORSDOF 0
ENDMDL
