MODEL 1
REMARK minimizedAffinity 2.76687288
REMARK minimizedRMSD -1
REMARK  0 active torsions:
REMARK  status: ('A' for Active; 'I' for Inactive)
ROOT
ATOM      1  C   UNL d   1      -1.838   0.854   2.284  0.00  0.00     0.023 A 
ATOM      2  C1  UNL d   1      -1.734   2.193   2.664  0.00  0.00     0.003 A 
ATOM      3  C2  UNL d   1      -2.595   2.714   3.632  0.00  0.00     0.048 A 
ATOM      4  C3  UNL d   1      -3.557   1.892   4.217  0.00  0.00     0.023 A 
ATOM      5  C4  UNL d   1      -3.664   0.552   3.841  0.00  0.00     0.048 A 
ATOM      6  C5  UNL d   1      -2.802   0.035   2.872  0.00  0.00     0.003 A 
ATOM      7  I   UNL d   1      -4.838   2.666   5.658  0.00  0.00    -0.146 I 
ENDROOT
TORSDOF 0
ENDMDL
