MODEL 1
REMARK minimizedAffinity 0.9678303
REMARK minimizedRMSD -1
REMARK  0 active torsions:
REMARK  status: ('A' for Active; 'I' for Inactive)
ROOT
ATOM      1  C   UNL d   1      -3.285  -1.355  -2.427  0.00  0.00     0.023 A 
ATOM      2  C1  UNL d   1      -3.577  -1.744  -1.120  0.00  0.00     0.003 A 
ATOM      3  C2  UNL d   1      -3.417  -3.077  -0.735  0.00  0.00     0.048 A 
ATOM      4  C3  UNL d   1      -2.965  -4.015  -1.662  0.00  0.00     0.023 A 
ATOM      5  C4  UNL d   1      -2.671  -3.630  -2.971  0.00  0.00     0.048 A 
ATOM      6  C5  UNL d   1      -2.833  -2.296  -3.352  0.00  0.00     0.003 A 
ATOM      7  I   UNL d   1      -2.726  -5.999  -1.092  0.00  0.00    -0.146 I 
ENDROOT
TORSDOF 0
ENDMDL
