MODEL 1
REMARK minimizedAffinity -4.91115952
REMARK minimizedRMSD -1
REMARK  3 active torsions:
REMARK  status: ('A' for Active; 'I' for Inactive)
REMARK    1  A    between atoms: C3'_2  and  C2'_3 
REMARK    2  A    between atoms: C2'_3  and  C1'_4 
REMARK    3  A    between atoms: C1'_4  and  C1_5 
ROOT
ATOM      1  C1  N4B d   1      -0.307  -0.544   0.567  0.00  0.00    -0.075 A 
ATOM      2  C2  N4B d   1      -0.239  -1.854   1.090  0.00  0.00     0.002 A 
ATOM      3  C3  N4B d   1      -1.333  -2.401   1.715  0.00  0.00     0.002 A 
ATOM      4  C4  N4B d   1      -2.494  -1.653   1.844  0.00  0.00    -0.004 A 
ATOM      5  C5  N4B d   1      -2.560  -0.398   1.314  0.00  0.00     0.002 A 
ATOM      6  C6  N4B d   1      -1.469   0.163   0.680  0.00  0.00     0.002 A 
ENDROOT
BRANCH   1   7
ATOM      7  C1' N4B d   1       0.890   0.129  -0.049  0.00  0.00     0.057 C 
BRANCH   7   8
ATOM      8  C2' N4B d   1       0.500   1.534  -0.496  0.00  0.00     0.009 C 
BRANCH   8   9
ATOM      9  C3' N4B d   1       1.463   2.089  -1.531  0.00  0.00     0.004 C 
ATOM     10  C4' N4B d   1       0.763   2.674  -2.721  0.00  0.00     0.003 C 
ENDBRANCH   8   9
ENDBRANCH   7   8
ENDBRANCH   1   7
TORSDOF 3
ENDMDL
