MODEL 1
REMARK minimizedAffinity -5.2129488
REMARK minimizedRMSD -1
REMARK  3 active torsions:
REMARK  status: ('A' for Active; 'I' for Inactive)
REMARK    1  A    between atoms: C3'_2  and  C2'_3 
REMARK    2  A    between atoms: C2'_3  and  C1'_4 
REMARK    3  A    between atoms: C1'_4  and  C1_5 
ROOT
ATOM      1  C1  N4B d   1      -0.957   0.210   0.719  0.00  0.00    -0.075 A 
ATOM      2  C2  N4B d   1      -0.203  -0.978   0.595  0.00  0.00     0.002 A 
ATOM      3  C3  N4B d   1      -0.720  -2.169   1.040  0.00  0.00     0.002 A 
ATOM      4  C4  N4B d   1      -1.977  -2.196   1.626  0.00  0.00    -0.004 A 
ATOM      5  C5  N4B d   1      -2.710  -1.049   1.718  0.00  0.00     0.002 A 
ATOM      6  C6  N4B d   1      -2.204   0.156   1.272  0.00  0.00     0.002 A 
ENDROOT
BRANCH   1   7
ATOM      7  C1' N4B d   1      -0.399   1.550   0.325  0.00  0.00     0.057 C 
BRANCH   7   8
ATOM      8  C2' N4B d   1       0.623   1.359  -0.791  0.00  0.00     0.009 C 
BRANCH   8   9
ATOM      9  C3' N4B d   1       0.037   1.666  -2.158  0.00  0.00     0.004 C 
ATOM     10  C4' N4B d   1       1.084   1.797  -3.223  0.00  0.00     0.003 C 
ENDBRANCH   8   9
ENDBRANCH   7   8
ENDBRANCH   1   7
TORSDOF 3
ENDMDL
