MODEL 1
REMARK minimizedAffinity -2.67421889
REMARK minimizedRMSD -1
REMARK  3 active torsions:
REMARK  status: ('A' for Active; 'I' for Inactive)
REMARK    1  A    between atoms: C3'_2  and  C2'_3 
REMARK    2  A    between atoms: C2'_3  and  C1'_4 
REMARK    3  A    between atoms: C1'_4  and  C1_5 
ROOT
ATOM      1  C1  N4B d   1      -0.077  -0.060   0.093  0.00  0.00    -0.075 A 
ATOM      2  C2  N4B d   1      -1.252  -0.492   0.748  0.00  0.00     0.002 A 
ATOM      3  C3  N4B d   1      -1.376  -1.801   1.143  0.00  0.00     0.002 A 
ATOM      4  C4  N4B d   1      -0.352  -2.698   0.877  0.00  0.00    -0.004 A 
ATOM      5  C5  N4B d   1       0.790  -2.267   0.267  0.00  0.00     0.002 A 
ATOM      6  C6  N4B d   1       0.930  -0.953  -0.132  0.00  0.00     0.002 A 
ENDROOT
BRANCH   1   7
ATOM      7  C1' N4B d   1       0.069   1.342  -0.433  0.00  0.00     0.057 C 
BRANCH   7   8
ATOM      8  C2' N4B d   1       1.542   1.618  -0.719  0.00  0.00     0.009 C 
BRANCH   8   9
ATOM      9  C3' N4B d   1       1.768   2.065  -2.153  0.00  0.00     0.004 C 
ATOM     10  C4' N4B d   1       0.495   2.158  -2.940  0.00  0.00     0.003 C 
ENDBRANCH   8   9
ENDBRANCH   7   8
ENDBRANCH   1   7
TORSDOF 3
ENDMDL
