MODEL 1
REMARK minimizedAffinity -2.78277922
REMARK minimizedRMSD -1
REMARK  3 active torsions:
REMARK  status: ('A' for Active; 'I' for Inactive)
REMARK    1  A    between atoms: C3'_2  and  C2'_3 
REMARK    2  A    between atoms: C2'_3  and  C1'_4 
REMARK    3  A    between atoms: C1'_4  and  C1_5 
ROOT
ATOM      1  C1  N4B d   1       0.185   0.128   0.233  0.00  0.00    -0.075 A 
ATOM      2  C2  N4B d   1      -0.955   0.704   0.836  0.00  0.00     0.002 A 
ATOM      3  C3  N4B d   1      -1.752  -0.053   1.660  0.00  0.00     0.002 A 
ATOM      4  C4  N4B d   1      -1.440  -1.386   1.880  0.00  0.00    -0.004 A 
ATOM      5  C5  N4B d   1      -0.323  -1.927   1.314  0.00  0.00     0.002 A 
ATOM      6  C6  N4B d   1       0.489  -1.178   0.487  0.00  0.00     0.002 A 
ENDROOT
BRANCH   1   7
ATOM      7  C1' N4B d   1       1.038   0.892  -0.743  0.00  0.00     0.057 C 
BRANCH   7   8
ATOM      8  C2' N4B d   1       0.355   0.896  -2.107  0.00  0.00     0.009 C 
BRANCH   8   9
ATOM      9  C3' N4B d   1       1.082   1.784  -3.103  0.00  0.00     0.004 C 
ATOM     10  C4' N4B d   1       0.153   2.671  -3.877  0.00  0.00     0.003 C 
ENDBRANCH   8   9
ENDBRANCH   7   8
ENDBRANCH   1   7
TORSDOF 3
ENDMDL
