MODEL 1
REMARK minimizedAffinity -5.04813194
REMARK minimizedRMSD -1
REMARK  3 active torsions:
REMARK  status: ('A' for Active; 'I' for Inactive)
REMARK    1  A    between atoms: C3'_2  and  C2'_3 
REMARK    2  A    between atoms: C2'_3  and  C1'_4 
REMARK    3  A    between atoms: C1'_4  and  C1_5 
ROOT
ATOM      1  C1  N4B d   1      -0.344   0.230   0.377  0.00  0.00    -0.075 A 
ATOM      2  C2  N4B d   1       0.500  -0.893   0.233  0.00  0.00     0.002 A 
ATOM      3  C3  N4B d   1       0.124  -2.106   0.755  0.00  0.00     0.002 A 
ATOM      4  C4  N4B d   1      -1.078  -2.215   1.439  0.00  0.00    -0.004 A 
ATOM      5  C5  N4B d   1      -1.899  -1.132   1.551  0.00  0.00     0.002 A 
ATOM      6  C6  N4B d   1      -1.536   0.093   1.028  0.00  0.00     0.002 A 
ENDROOT
BRANCH   1   7
ATOM      7  C1' N4B d   1       0.064   1.597  -0.102  0.00  0.00     0.057 C 
BRANCH   7   8
ATOM      8  C2' N4B d   1       0.855   1.457  -1.399  0.00  0.00     0.009 C 
BRANCH   8   9
ATOM      9  C3' N4B d   1       1.036   2.792  -2.100  0.00  0.00     0.004 C 
ATOM     10  C4' N4B d   1       0.364   2.841  -3.440  0.00  0.00     0.003 C 
ENDBRANCH   8   9
ENDBRANCH   7   8
ENDBRANCH   1   7
TORSDOF 3
ENDMDL
