MODEL 1
REMARK minimizedAffinity -4.33193302
REMARK minimizedRMSD -1
REMARK  3 active torsions:
REMARK  status: ('A' for Active; 'I' for Inactive)
REMARK    1  A    between atoms: C3'_2  and  C2'_3 
REMARK    2  A    between atoms: C2'_3  and  C1'_4 
REMARK    3  A    between atoms: C1'_4  and  C1_5 
ROOT
ATOM      1  C1  N4B d   1       0.911   0.891  -0.602  0.00  0.00    -0.075 A 
ATOM      2  C2  N4B d   1       2.097   1.502  -1.065  0.00  0.00     0.002 A 
ATOM      3  C3  N4B d   1       2.044   2.414  -2.091  0.00  0.00     0.002 A 
ATOM      4  C4  N4B d   1       0.825   2.715  -2.678  0.00  0.00    -0.004 A 
ATOM      5  C5  N4B d   1      -0.319   2.140  -2.208  0.00  0.00     0.002 A 
ATOM      6  C6  N4B d   1      -0.282   1.225  -1.176  0.00  0.00     0.002 A 
ENDROOT
BRANCH   1   7
ATOM      7  C1' N4B d   1       0.929  -0.175   0.459  0.00  0.00     0.057 C 
BRANCH   7   8
ATOM      8  C2' N4B d   1      -0.273  -1.095   0.265  0.00  0.00     0.009 C 
BRANCH   8   9
ATOM      9  C3' N4B d   1      -0.333  -2.184   1.322  0.00  0.00     0.004 C 
ATOM     10  C4' N4B d   1      -1.736  -2.584   1.665  0.00  0.00     0.003 C 
ENDBRANCH   8   9
ENDBRANCH   7   8
ENDBRANCH   1   7
TORSDOF 3
ENDMDL
