MODEL 1
REMARK minimizedAffinity 1.22855902
REMARK minimizedRMSD -1
REMARK  3 active torsions:
REMARK  status: ('A' for Active; 'I' for Inactive)
REMARK    1  A    between atoms: C3'_2  and  C2'_3 
REMARK    2  A    between atoms: C2'_3  and  C1'_4 
REMARK    3  A    between atoms: C1'_4  and  C1_5 
ROOT
ATOM      1  C1  N4B d   1       0.227   0.106   0.036  0.00  0.00    -0.075 A 
ATOM      2  C2  N4B d   1       0.636  -1.230  -0.169  0.00  0.00     0.002 A 
ATOM      3  C3  N4B d   1      -0.068  -2.260   0.405  0.00  0.00     0.002 A 
ATOM      4  C4  N4B d   1      -1.168  -1.978   1.200  0.00  0.00    -0.004 A 
ATOM      5  C5  N4B d   1      -1.572  -0.687   1.373  0.00  0.00     0.002 A 
ATOM      6  C6  N4B d   1      -0.877   0.358   0.799  0.00  0.00     0.002 A 
ENDROOT
BRANCH   1   7
ATOM      7  C1' N4B d   1       1.015   1.270  -0.500  0.00  0.00     0.057 C 
BRANCH   7   8
ATOM      8  C2' N4B d   1       0.883   1.306  -2.020  0.00  0.00     0.009 C 
BRANCH   8   9
ATOM      9  C3' N4B d   1       2.086   1.956  -2.680  0.00  0.00     0.004 C 
ATOM     10  C4' N4B d   1       2.130   1.728  -4.161  0.00  0.00     0.003 C 
ENDBRANCH   8   9
ENDBRANCH   7   8
ENDBRANCH   1   7
TORSDOF 3
ENDMDL
