MODEL 1
REMARK minimizedAffinity -3.95878696
REMARK minimizedRMSD -1
REMARK  3 active torsions:
REMARK  status: ('A' for Active; 'I' for Inactive)
REMARK    1  A    between atoms: C3'_2  and  C2'_3 
REMARK    2  A    between atoms: C2'_3  and  C1'_4 
REMARK    3  A    between atoms: C1'_4  and  C1_5 
ROOT
ATOM      1  C1  N4B d   1      -0.796  -0.780   0.152  0.00  0.00    -0.075 A 
ATOM      2  C2  N4B d   1      -0.836  -2.188   0.252  0.00  0.00     0.002 A 
ATOM      3  C3  N4B d   1      -1.764  -2.793   1.063  0.00  0.00     0.002 A 
ATOM      4  C4  N4B d   1      -2.646  -2.013   1.796  0.00  0.00    -0.004 A 
ATOM      5  C5  N4B d   1      -2.618  -0.654   1.675  0.00  0.00     0.002 A 
ATOM      6  C6  N4B d   1      -1.693  -0.033   0.859  0.00  0.00     0.002 A 
ENDROOT
BRANCH   1   7
ATOM      7  C1' N4B d   1       0.256  -0.071  -0.656  0.00  0.00     0.057 C 
BRANCH   7   8
ATOM      8  C2' N4B d   1       1.368   0.403   0.275  0.00  0.00     0.009 C 
BRANCH   8   9
ATOM      9  C3' N4B d   1       1.829  -0.697   1.216  0.00  0.00     0.004 C 
ATOM     10  C4' N4B d   1       2.641  -1.750   0.523  0.00  0.00     0.003 C 
ENDBRANCH   8   9
ENDBRANCH   7   8
ENDBRANCH   1   7
TORSDOF 3
ENDMDL
