MODEL 1
REMARK minimizedAffinity -4.02568626
REMARK minimizedRMSD -1
REMARK  3 active torsions:
REMARK  status: ('A' for Active; 'I' for Inactive)
REMARK    1  A    between atoms: C3'_2  and  C2'_3 
REMARK    2  A    between atoms: C2'_3  and  C1'_4 
REMARK    3  A    between atoms: C1'_4  and  C1_5 
ROOT
ATOM      1  C1  N4B d   1      -0.076  -0.057   0.357  0.00  0.00    -0.075 A 
ATOM      2  C2  N4B d   1      -1.199   0.670   0.810  0.00  0.00     0.002 A 
ATOM      3  C3  N4B d   1      -2.267   0.009   1.365  0.00  0.00     0.002 A 
ATOM      4  C4  N4B d   1      -2.242  -1.374   1.461  0.00  0.00    -0.004 A 
ATOM      5  C5  N4B d   1      -1.143  -2.067   1.044  0.00  0.00     0.002 A 
ATOM      6  C6  N4B d   1      -0.061  -1.415   0.488  0.00  0.00     0.002 A 
ENDROOT
BRANCH   1   7
ATOM      7  C1' N4B d   1       1.078   0.615  -0.336  0.00  0.00     0.057 C 
BRANCH   7   8
ATOM      8  C2' N4B d   1       0.577   1.282  -1.613  0.00  0.00     0.009 C 
BRANCH   8   9
ATOM      9  C3' N4B d   1       1.702   1.947  -2.386  0.00  0.00     0.004 C 
ATOM     10  C4' N4B d   1       1.375   2.141  -3.837  0.00  0.00     0.003 C 
ENDBRANCH   8   9
ENDBRANCH   7   8
ENDBRANCH   1   7
TORSDOF 3
ENDMDL
