MODEL 1
REMARK minimizedAffinity -3.98466063
REMARK minimizedRMSD -1
REMARK  3 active torsions:
REMARK  status: ('A' for Active; 'I' for Inactive)
REMARK    1  A    between atoms: C3'_2  and  C2'_3 
REMARK    2  A    between atoms: C2'_3  and  C1'_4 
REMARK    3  A    between atoms: C1'_4  and  C1_5 
ROOT
ATOM      1  C1  N4B d   1      -0.922  -1.943   0.587  0.00  0.00    -0.075 A 
ATOM      2  C2  N4B d   1      -1.165  -0.817  -0.231  0.00  0.00     0.002 A 
ATOM      3  C3  N4B d   1      -0.186   0.131  -0.401  0.00  0.00     0.002 A 
ATOM      4  C4  N4B d   1       1.031  -0.015   0.249  0.00  0.00    -0.004 A 
ATOM      5  C5  N4B d   1       1.266  -1.118   1.016  0.00  0.00     0.002 A 
ATOM      6  C6  N4B d   1       0.293  -2.081   1.193  0.00  0.00     0.002 A 
ENDROOT
BRANCH   1   7
ATOM      7  C1' N4B d   1      -1.991  -2.962   0.872  0.00  0.00     0.057 C 
BRANCH   7   8
ATOM      8  C2' N4B d   1      -2.798  -2.516   2.087  0.00  0.00     0.009 C 
BRANCH   8   9
ATOM      9  C3' N4B d   1      -3.053  -1.019   2.081  0.00  0.00     0.004 C 
ATOM     10  C4' N4B d   1      -2.398  -0.313   3.231  0.00  0.00     0.003 C 
ENDBRANCH   8   9
ENDBRANCH   7   8
ENDBRANCH   1   7
TORSDOF 3
ENDMDL
