MODEL 1
REMARK minimizedAffinity 5.73971653
REMARK minimizedRMSD -1
REMARK  0 active torsions:
REMARK  status: ('A' for Active; 'I' for Inactive)
ROOT
ATOM      1  C   UNL d   1       4.255   2.999   1.897  0.00  0.00     0.077 C 
ATOM      2  C1  UNL d   1       4.871   2.331   3.089  0.00  0.00    -0.074 A 
ATOM      3  C2  UNL d   1       5.431   3.084   4.126  0.00  0.00    -0.005 A 
ATOM      4  C3  UNL d   1       5.993   2.449   5.234  0.00  0.00     0.006 A 
ATOM      5  C4  UNL d   1       6.000   1.056   5.316  0.00  0.00    -0.005 A 
ATOM      6  C5  UNL d   1       5.444   0.286   4.289  0.00  0.00    -0.074 A 
ATOM      7  C6  UNL d   1       5.435  -1.212   4.366  0.00  0.00     0.077 C 
ATOM      8  C7  UNL d   1       4.876   0.932   3.183  0.00  0.00    -0.001 A 
ENDROOT
TORSDOF 0
ENDMDL
