MODEL 1
REMARK minimizedAffinity 5.48899746
REMARK minimizedRMSD -1
REMARK  0 active torsions:
REMARK  status: ('A' for Active; 'I' for Inactive)
ROOT
ATOM      1  C   UNL d   1       1.181   3.605  -0.516  0.00  0.00     0.077 C 
ATOM      2  C1  UNL d   1      -0.266   3.213  -0.548  0.00  0.00    -0.074 A 
ATOM      3  C2  UNL d   1      -0.652   1.914  -0.895  0.00  0.00    -0.005 A 
ATOM      4  C3  UNL d   1      -2.002   1.562  -0.911  0.00  0.00     0.006 A 
ATOM      5  C4  UNL d   1      -2.978   2.504  -0.580  0.00  0.00    -0.005 A 
ATOM      6  C5  UNL d   1      -2.610   3.807  -0.230  0.00  0.00    -0.074 A 
ATOM      7  C6  UNL d   1      -3.646   4.828   0.137  0.00  0.00     0.077 C 
ATOM      8  C7  UNL d   1      -1.252   4.151  -0.210  0.00  0.00    -0.001 A 
ENDROOT
TORSDOF 0
ENDMDL
