MODEL 1
REMARK minimizedAffinity 3.7531867
REMARK minimizedRMSD -1
REMARK  0 active torsions:
REMARK  status: ('A' for Active; 'I' for Inactive)
ROOT
ATOM      1  C   UNL d   1       6.000   1.743   6.000  0.00  0.00     0.077 C 
ATOM      2  C1  UNL d   1       5.402   1.451   4.656  0.00  0.00    -0.074 A 
ATOM      3  C2  UNL d   1       5.329   0.141   4.171  0.00  0.00    -0.005 A 
ATOM      4  C3  UNL d   1       4.762  -0.116   2.923  0.00  0.00     0.006 A 
ATOM      5  C4  UNL d   1       4.261   0.932   2.149  0.00  0.00    -0.005 A 
ATOM      6  C5  UNL d   1       4.324   2.248   2.618  0.00  0.00    -0.074 A 
ATOM      7  C6  UNL d   1       3.782   3.384   1.803  0.00  0.00     0.077 C 
ATOM      8  C7  UNL d   1       4.890   2.498   3.876  0.00  0.00    -0.001 A 
ENDROOT
TORSDOF 0
ENDMDL
