MODEL 1
REMARK minimizedAffinity 6.91119194
REMARK minimizedRMSD -1
REMARK  0 active torsions:
REMARK  status: ('A' for Active; 'I' for Inactive)
ROOT
ATOM      1  C   UNL d   1       3.518   3.004   1.886  0.00  0.00     0.077 C 
ATOM      2  C1  UNL d   1       4.282   1.946   2.625  0.00  0.00    -0.074 A 
ATOM      3  C2  UNL d   1       4.534   0.700   2.040  0.00  0.00    -0.005 A 
ATOM      4  C3  UNL d   1       5.255  -0.271   2.736  0.00  0.00     0.006 A 
ATOM      5  C4  UNL d   1       5.729  -0.007   4.021  0.00  0.00    -0.005 A 
ATOM      6  C5  UNL d   1       5.488   1.233   4.622  0.00  0.00    -0.074 A 
ATOM      7  C6  UNL d   1       5.999   1.536   5.999  0.00  0.00     0.077 C 
ATOM      8  C7  UNL d   1       4.769   2.206   3.914  0.00  0.00    -0.001 A 
ENDROOT
TORSDOF 0
ENDMDL
