MODEL 1
REMARK minimizedAffinity 2.97741103
REMARK minimizedRMSD -1
REMARK  0 active torsions:
REMARK  status: ('A' for Active; 'I' for Inactive)
ROOT
ATOM      1  C   UNL d   1      -1.870  -1.917  -0.588  0.00  0.00     0.077 C 
ATOM      2  C1  UNL d   1      -2.932  -1.527   0.397  0.00  0.00    -0.074 A 
ATOM      3  C2  UNL d   1      -4.241  -1.270  -0.022  0.00  0.00    -0.005 A 
ATOM      4  C3  UNL d   1      -5.220  -0.918   0.906  0.00  0.00     0.006 A 
ATOM      5  C4  UNL d   1      -4.901  -0.820   2.261  0.00  0.00    -0.005 A 
ATOM      6  C5  UNL d   1      -3.597  -1.074   2.699  0.00  0.00    -0.074 A 
ATOM      7  C6  UNL d   1      -3.240  -0.982   4.153  0.00  0.00     0.077 C 
ATOM      8  C7  UNL d   1      -2.620  -1.434   1.761  0.00  0.00    -0.001 A 
ENDROOT
TORSDOF 0
ENDMDL
