MODEL 1
REMARK minimizedAffinity 5.31872988
REMARK minimizedRMSD -1
REMARK  0 active torsions:
REMARK  status: ('A' for Active; 'I' for Inactive)
ROOT
ATOM      1  C   UNL d   1       6.000   0.038   5.186  0.00  0.00     0.077 C 
ATOM      2  C1  UNL d   1       5.505   1.189   4.361  0.00  0.00    -0.074 A 
ATOM      3  C2  UNL d   1       4.584   0.990   3.328  0.00  0.00    -0.005 A 
ATOM      4  C3  UNL d   1       4.125   2.071   2.576  0.00  0.00     0.006 A 
ATOM      5  C4  UNL d   1       4.584   3.361   2.848  0.00  0.00    -0.005 A 
ATOM      6  C5  UNL d   1       5.505   3.580   3.878  0.00  0.00    -0.074 A 
ATOM      7  C6  UNL d   1       6.000   4.961   4.190  0.00  0.00     0.077 C 
ATOM      8  C7  UNL d   1       5.955   2.489   4.634  0.00  0.00    -0.001 A 
ENDROOT
TORSDOF 0
ENDMDL
