MODEL 1
REMARK minimizedAffinity 1.27739418
REMARK minimizedRMSD -1
REMARK  0 active torsions:
REMARK  status: ('A' for Active; 'I' for Inactive)
ROOT
ATOM      1  C   UNL d   1       6.000   0.821   5.940  0.00  0.00     0.077 C 
ATOM      2  C1  UNL d   1       5.717   1.719   4.772  0.00  0.00    -0.074 A 
ATOM      3  C2  UNL d   1       5.183   1.209   3.585  0.00  0.00    -0.005 A 
ATOM      4  C3  UNL d   1       4.917   2.058   2.511  0.00  0.00     0.006 A 
ATOM      5  C4  UNL d   1       5.182   3.424   2.614  0.00  0.00    -0.005 A 
ATOM      6  C5  UNL d   1       5.716   3.953   3.793  0.00  0.00    -0.074 A 
ATOM      7  C6  UNL d   1       5.998   5.420   3.923  0.00  0.00     0.077 C 
ATOM      8  C7  UNL d   1       5.974   3.094   4.870  0.00  0.00    -0.001 A 
ENDROOT
TORSDOF 0
ENDMDL
