MODEL 1
REMARK minimizedAffinity 3.44810295
REMARK minimizedRMSD -1
REMARK  0 active torsions:
REMARK  status: ('A' for Active; 'I' for Inactive)
ROOT
ATOM      1  C   UNL d   1       5.998   0.610   6.000  0.00  0.00     0.077 C 
ATOM      2  C1  UNL d   1       5.551   1.295   4.743  0.00  0.00    -0.074 A 
ATOM      3  C2  UNL d   1       4.850   0.597   3.754  0.00  0.00    -0.005 A 
ATOM      4  C3  UNL d   1       4.432   1.250   2.594  0.00  0.00     0.006 A 
ATOM      5  C4  UNL d   1       4.710   2.605   2.412  0.00  0.00    -0.005 A 
ATOM      6  C5  UNL d   1       5.409   3.320   3.390  0.00  0.00    -0.074 A 
ATOM      7  C6  UNL d   1       5.707   4.779   3.214  0.00  0.00     0.077 C 
ATOM      8  C7  UNL d   1       5.819   2.659   4.556  0.00  0.00    -0.001 A 
ENDROOT
TORSDOF 0
ENDMDL
