MODEL 1
REMARK minimizedAffinity -5.61943436
REMARK minimizedRMSD -1
REMARK  0 active torsions:
REMARK  status: ('A' for Active; 'I' for Inactive)
ROOT
ATOM      1  C   UNL d   1      -3.022   0.351   3.357  0.00  0.00     0.077 C 
ATOM      2  C1  UNL d   1      -3.274   1.817   3.167  0.00  0.00    -0.074 A 
ATOM      3  C2  UNL d   1      -2.963   2.450   1.959  0.00  0.00    -0.005 A 
ATOM      4  C3  UNL d   1      -3.213   3.812   1.794  0.00  0.00     0.006 A 
ATOM      5  C4  UNL d   1      -3.775   4.554   2.833  0.00  0.00    -0.005 A 
ATOM      6  C5  UNL d   1      -4.094   3.939   4.048  0.00  0.00    -0.074 A 
ATOM      7  C6  UNL d   1      -4.708   4.720   5.172  0.00  0.00     0.077 C 
ATOM      8  C7  UNL d   1      -3.846   2.568   4.204  0.00  0.00    -0.001 A 
ENDROOT
TORSDOF 0
ENDMDL
