MODEL 1
REMARK minimizedAffinity -0.602603495
REMARK minimizedRMSD -1
REMARK  0 active torsions:
REMARK  status: ('A' for Active; 'I' for Inactive)
ROOT
ATOM      1  C   UNL d   1       6.000  -1.144  -4.127  0.00  0.00     0.077 C 
ATOM      2  C1  UNL d   1       5.088   0.022  -4.372  0.00  0.00    -0.074 A 
ATOM      3  C2  UNL d   1       5.449   1.044  -5.255  0.00  0.00    -0.005 A 
ATOM      4  C3  UNL d   1       4.587   2.116  -5.481  0.00  0.00     0.006 A 
ATOM      5  C4  UNL d   1       3.356   2.178  -4.826  0.00  0.00    -0.005 A 
ATOM      6  C5  UNL d   1       2.977   1.164  -3.940  0.00  0.00    -0.074 A 
ATOM      7  C6  UNL d   1       1.654   1.210  -3.236  0.00  0.00     0.077 C 
ATOM      8  C7  UNL d   1       3.846   0.086  -3.724  0.00  0.00    -0.001 A 
ENDROOT
TORSDOF 0
ENDMDL
