MODEL 1
REMARK minimizedAffinity 5.16687489
REMARK minimizedRMSD -1
REMARK  0 active torsions:
REMARK  status: ('A' for Active; 'I' for Inactive)
ROOT
ATOM      1  C   UNL d   1       5.955  -0.422  -3.740  0.00  0.00     0.077 C 
ATOM      2  C1  UNL d   1       5.250   0.637  -4.534  0.00  0.00    -0.074 A 
ATOM      3  C2  UNL d   1       4.088   0.342  -5.254  0.00  0.00    -0.005 A 
ATOM      4  C3  UNL d   1       3.438   1.340  -5.981  0.00  0.00     0.006 A 
ATOM      5  C4  UNL d   1       3.943   2.641  -5.995  0.00  0.00    -0.005 A 
ATOM      6  C5  UNL d   1       5.104   2.955  -5.280  0.00  0.00    -0.074 A 
ATOM      7  C6  UNL d   1       5.654   4.350  -5.277  0.00  0.00     0.077 C 
ATOM      8  C7  UNL d   1       5.747   1.948  -4.547  0.00  0.00    -0.001 A 
ENDROOT
TORSDOF 0
ENDMDL
