MODEL 1
REMARK minimizedAffinity 4.90145826
REMARK minimizedRMSD -1
REMARK  0 active torsions:
REMARK  status: ('A' for Active; 'I' for Inactive)
ROOT
ATOM      1  C   UNL d   1       0.808   0.894  -2.633  0.00  0.00     0.077 C 
ATOM      2  C1  UNL d   1      -0.223   0.362  -1.682  0.00  0.00    -0.074 A 
ATOM      3  C2  UNL d   1      -1.122   1.221  -1.043  0.00  0.00    -0.005 A 
ATOM      4  C3  UNL d   1      -2.082   0.711  -0.168  0.00  0.00     0.006 A 
ATOM      5  C4  UNL d   1      -2.151  -0.661   0.076  0.00  0.00    -0.005 A 
ATOM      6  C5  UNL d   1      -1.260  -1.536  -0.554  0.00  0.00    -0.074 A 
ATOM      7  C6  UNL d   1      -1.327  -3.014  -0.310  0.00  0.00     0.077 C 
ATOM      8  C7  UNL d   1      -0.303  -1.016  -1.437  0.00  0.00    -0.001 A 
ENDROOT
TORSDOF 0
ENDMDL
