MODEL 1
REMARK minimizedAffinity -5.45312357
REMARK minimizedRMSD -1
REMARK  0 active torsions:
REMARK  status: ('A' for Active; 'I' for Inactive)
ROOT
ATOM      1  C   UNL d   1      -4.112  -0.748   3.353  0.00  0.00     0.077 C 
ATOM      2  C1  UNL d   1      -3.710   0.688   3.196  0.00  0.00    -0.074 A 
ATOM      3  C2  UNL d   1      -2.829   1.081   2.182  0.00  0.00    -0.005 A 
ATOM      4  C3  UNL d   1      -2.472   2.422   2.043  0.00  0.00     0.006 A 
ATOM      5  C4  UNL d   1      -2.990   3.382   2.913  0.00  0.00    -0.005 A 
ATOM      6  C5  UNL d   1      -3.872   3.008   3.932  0.00  0.00    -0.074 A 
ATOM      7  C6  UNL d   1      -4.446   4.028   4.870  0.00  0.00     0.077 C 
ATOM      8  C7  UNL d   1      -4.232   1.659   4.061  0.00  0.00    -0.001 A 
ENDROOT
TORSDOF 0
ENDMDL
