MODEL 1
REMARK minimizedAffinity 4.12027788
REMARK minimizedRMSD -1
REMARK  0 active torsions:
REMARK  status: ('A' for Active; 'I' for Inactive)
ROOT
ATOM      1  C   UNL d   1      -1.939  -0.004   4.590  0.00  0.00     0.077 C 
ATOM      2  C1  UNL d   1      -2.852  -0.465   3.492  0.00  0.00    -0.074 A 
ATOM      3  C2  UNL d   1      -3.921  -1.326   3.760  0.00  0.00    -0.005 A 
ATOM      4  C3  UNL d   1      -4.767  -1.738   2.731  0.00  0.00     0.006 A 
ATOM      5  C4  UNL d   1      -4.554  -1.294   1.426  0.00  0.00    -0.005 A 
ATOM      6  C5  UNL d   1      -3.490  -0.432   1.139  0.00  0.00    -0.074 A 
ATOM      7  C6  UNL d   1      -3.253   0.062  -0.257  0.00  0.00     0.077 C 
ATOM      8  C7  UNL d   1      -2.648  -0.017   2.179  0.00  0.00    -0.001 A 
ENDROOT
TORSDOF 0
ENDMDL
