MODEL 1
REMARK minimizedAffinity 6.88682652
REMARK minimizedRMSD -1
REMARK  0 active torsions:
REMARK  status: ('A' for Active; 'I' for Inactive)
ROOT
ATOM      1  C   UNL d   1       6.000   2.592   5.999  0.00  0.00     0.077 C 
ATOM      2  C1  UNL d   1       5.474   2.014   4.719  0.00  0.00    -0.074 A 
ATOM      3  C2  UNL d   1       5.734   0.684   4.371  0.00  0.00    -0.005 A 
ATOM      4  C3  UNL d   1       5.230   0.158   3.182  0.00  0.00     0.006 A 
ATOM      5  C4  UNL d   1       4.463   0.953   2.330  0.00  0.00    -0.005 A 
ATOM      6  C5  UNL d   1       4.192   2.285   2.662  0.00  0.00    -0.074 A 
ATOM      7  C6  UNL d   1       3.362   3.151   1.762  0.00  0.00     0.077 C 
ATOM      8  C7  UNL d   1       4.696   2.805   3.862  0.00  0.00    -0.001 A 
ENDROOT
TORSDOF 0
ENDMDL
