MODEL 1
REMARK minimizedAffinity 9.03955936
REMARK minimizedRMSD -1
REMARK  0 active torsions:
REMARK  status: ('A' for Active; 'I' for Inactive)
ROOT
ATOM      1  C   UNL d   1       3.501   3.370   1.558  0.00  0.00     0.077 C 
ATOM      2  C1  UNL d   1       4.320   2.602   2.552  0.00  0.00    -0.074 A 
ATOM      3  C2  UNL d   1       5.251   3.249   3.370  0.00  0.00    -0.005 A 
ATOM      4  C3  UNL d   1       5.999   2.522   4.296  0.00  0.00     0.006 A 
ATOM      5  C4  UNL d   1       5.824   1.143   4.413  0.00  0.00    -0.005 A 
ATOM      6  C5  UNL d   1       4.897   0.478   3.604  0.00  0.00    -0.074 A 
ATOM      7  C6  UNL d   1       4.690  -1.002   3.724  0.00  0.00     0.077 C 
ATOM      8  C7  UNL d   1       4.144   1.217   2.681  0.00  0.00    -0.001 A 
ENDROOT
TORSDOF 0
ENDMDL
