MODEL 1
REMARK minimizedAffinity 3.7093327
REMARK minimizedRMSD -1
REMARK  0 active torsions:
REMARK  status: ('A' for Active; 'I' for Inactive)
ROOT
ATOM      1  C   UNL d   1      -2.645   3.546  -0.003  0.00  0.00     0.077 C 
ATOM      2  C1  UNL d   1      -2.870   2.143   0.475  0.00  0.00    -0.074 A 
ATOM      3  C2  UNL d   1      -3.469   1.188  -0.353  0.00  0.00    -0.005 A 
ATOM      4  C3  UNL d   1      -3.663  -0.116   0.103  0.00  0.00     0.006 A 
ATOM      5  C4  UNL d   1      -3.261  -0.478   1.389  0.00  0.00    -0.005 A 
ATOM      6  C5  UNL d   1      -2.659   0.463   2.231  0.00  0.00    -0.074 A 
ATOM      7  C6  UNL d   1      -2.212   0.088   3.613  0.00  0.00     0.077 C 
ATOM      8  C7  UNL d   1      -2.461   1.769   1.764  0.00  0.00    -0.001 A 
ENDROOT
TORSDOF 0
ENDMDL
