MODEL 1
REMARK minimizedAffinity 2.50542355
REMARK minimizedRMSD -1
REMARK  0 active torsions:
REMARK  status: ('A' for Active; 'I' for Inactive)
ROOT
ATOM      1  C   UNL d   1      -2.875   0.499   3.214  0.00  0.00     0.077 C 
ATOM      2  C1  UNL d   1      -2.957   1.099   1.842  0.00  0.00    -0.074 A 
ATOM      3  C2  UNL d   1      -3.068   0.288   0.709  0.00  0.00    -0.005 A 
ATOM      4  C3  UNL d   1      -3.154   0.861  -0.560  0.00  0.00     0.006 A 
ATOM      5  C4  UNL d   1      -3.129   2.248  -0.708  0.00  0.00    -0.005 A 
ATOM      6  C5  UNL d   1      -3.020   3.075   0.414  0.00  0.00    -0.074 A 
ATOM      7  C6  UNL d   1      -3.002   4.569   0.274  0.00  0.00     0.077 C 
ATOM      8  C7  UNL d   1      -2.942   2.493   1.686  0.00  0.00    -0.001 A 
ENDROOT
TORSDOF 0
ENDMDL
