MODEL 1
REMARK minimizedAffinity -0.895351708
REMARK minimizedRMSD -1
REMARK  0 active torsions:
REMARK  status: ('A' for Active; 'I' for Inactive)
ROOT
ATOM      1  O1  BZF d   1      -1.011   2.617   0.345  0.00  0.00    -0.204 OA
ATOM      2  C2  BZF d   1      -1.547   2.177   1.539  0.00  0.00     0.174 A 
ATOM      3  C3  BZF d   1      -1.276   0.870   1.732  0.00  0.00    -0.012 A 
ATOM      4  C3A BZF d   1      -0.444   0.491   0.630  0.00  0.00    -0.107 A 
ATOM      5  C4  BZF d   1       0.162  -0.678   0.270  0.00  0.00     0.055 A 
ATOM      6  C5  BZF d   1       0.845  -0.733  -0.904  0.00  0.00    -0.016 A 
ATOM      7  C6  BZF d   1       0.936   0.358  -1.743  0.00  0.00     0.022 A 
ATOM      8  C7  BZF d   1       0.355   1.541  -1.426  0.00  0.00     0.029 A 
ATOM      9  C7A BZF d   1      -0.308   1.609  -0.225  0.00  0.00     0.058 A 
ENDROOT
TORSDOF 0
ENDMDL
