MODEL 1
REMARK minimizedAffinity 7.55485106
REMARK minimizedRMSD -1
REMARK  0 active torsions:
REMARK  status: ('A' for Active; 'I' for Inactive)
ROOT
ATOM      1  O1  BZF d   1       0.109   2.087  -0.143  0.00  0.00    -0.204 OA
ATOM      2  C2  BZF d   1      -0.763   2.345  -1.183  0.00  0.00     0.174 A 
ATOM      3  C3  BZF d   1      -1.322   1.202  -1.632  0.00  0.00    -0.012 A 
ATOM      4  C3A BZF d   1      -0.834   0.177  -0.762  0.00  0.00    -0.107 A 
ATOM      5  C4  BZF d   1      -1.043  -1.171  -0.689  0.00  0.00     0.055 A 
ATOM      6  C5  BZF d   1      -0.357  -1.897   0.233  0.00  0.00    -0.016 A 
ATOM      7  C6  BZF d   1       0.548  -1.309   1.093  0.00  0.00     0.022 A 
ATOM      8  C7  BZF d   1       0.785   0.025   1.061  0.00  0.00     0.029 A 
ATOM      9  C7A BZF d   1       0.069   0.766   0.153  0.00  0.00     0.058 A 
ENDROOT
TORSDOF 0
ENDMDL
