MODEL 1
REMARK minimizedAffinity -6.31821156
REMARK minimizedRMSD -1
REMARK  0 active torsions:
REMARK  status: ('A' for Active; 'I' for Inactive)
ROOT
ATOM      1  O1  BZF d   1       0.208  -0.166  -0.788  0.00  0.00    -0.204 OA
ATOM      2  C2  BZF d   1       0.243  -1.280   0.029  0.00  0.00     0.174 A 
ATOM      3  C3  BZF d   1      -0.361  -1.028   1.209  0.00  0.00    -0.012 A 
ATOM      4  C3A BZF d   1      -0.883   0.299   1.088  0.00  0.00    -0.107 A 
ATOM      5  C4  BZF d   1      -1.599   1.106   1.925  0.00  0.00     0.055 A 
ATOM      6  C5  BZF d   1      -1.889   2.374   1.532  0.00  0.00    -0.016 A 
ATOM      7  C6  BZF d   1      -1.473   2.870   0.313  0.00  0.00     0.022 A 
ATOM      8  C7  BZF d   1      -0.764   2.105  -0.553  0.00  0.00     0.029 A 
ATOM      9  C7A BZF d   1      -0.499   0.812  -0.173  0.00  0.00     0.058 A 
ENDROOT
TORSDOF 0
ENDMDL
