MODEL 1
REMARK minimizedAffinity -1.37675774
REMARK minimizedRMSD -1
REMARK  0 active torsions:
REMARK  status: ('A' for Active; 'I' for Inactive)
ROOT
ATOM      1  O1  BZF d   1       0.750  -4.983  -1.110  0.00  0.00    -0.204 OA
ATOM      2  C2  BZF d   1       1.390  -5.237   0.087  0.00  0.00     0.174 A 
ATOM      3  C3  BZF d   1       1.946  -4.112   0.581  0.00  0.00    -0.012 A 
ATOM      4  C3A BZF d   1       1.555  -3.072  -0.321  0.00  0.00    -0.107 A 
ATOM      5  C4  BZF d   1       1.784  -1.726  -0.357  0.00  0.00     0.055 A 
ATOM      6  C5  BZF d   1       1.322  -1.006  -1.413  0.00  0.00    -0.016 A 
ATOM      7  C6  BZF d   1       0.633  -1.600  -2.451  0.00  0.00     0.022 A 
ATOM      8  C7  BZF d   1       0.377  -2.931  -2.456  0.00  0.00     0.029 A 
ATOM      9  C7A BZF d   1       0.814  -3.655  -1.374  0.00  0.00     0.058 A 
ENDROOT
TORSDOF 0
ENDMDL
