MODEL 1
REMARK minimizedAffinity -5.79907703
REMARK minimizedRMSD -1
REMARK  0 active torsions:
REMARK  status: ('A' for Active; 'I' for Inactive)
ROOT
ATOM      1  O1  BZF d   1       1.093   0.307  -0.744  0.00  0.00    -0.204 OA
ATOM      2  C2  BZF d   1       0.914  -0.796   0.068  0.00  0.00     0.174 A 
ATOM      3  C3  BZF d   1       0.143  -0.488   1.131  0.00  0.00    -0.012 A 
ATOM      4  C3A BZF d   1      -0.256   0.870   0.926  0.00  0.00    -0.107 A 
ATOM      5  C4  BZF d   1      -1.042   1.735   1.632  0.00  0.00     0.055 A 
ATOM      6  C5  BZF d   1      -1.171   3.016   1.197  0.00  0.00    -0.016 A 
ATOM      7  C6  BZF d   1      -0.527   3.466   0.063  0.00  0.00     0.022 A 
ATOM      8  C7  BZF d   1       0.259   2.644  -0.673  0.00  0.00     0.029 A 
ATOM      9  C7A BZF d   1       0.366   1.340  -0.254  0.00  0.00     0.058 A 
ENDROOT
TORSDOF 0
ENDMDL
