MODEL 1
REMARK minimizedAffinity -0.551541686
REMARK minimizedRMSD -1
REMARK  0 active torsions:
REMARK  status: ('A' for Active; 'I' for Inactive)
ROOT
ATOM      1  O1  BZF d   1      -0.344  -0.444  -1.106  0.00  0.00    -0.204 OA
ATOM      2  C2  BZF d   1       0.645   0.001  -0.250  0.00  0.00     0.174 A 
ATOM      3  C3  BZF d   1       1.586  -0.949  -0.071  0.00  0.00    -0.012 A 
ATOM      4  C3A BZF d   1       1.206  -2.023  -0.937  0.00  0.00    -0.107 A 
ATOM      5  C4  BZF d   1       1.754  -3.242  -1.216  0.00  0.00     0.055 A 
ATOM      6  C5  BZF d   1       1.096  -4.085  -2.055  0.00  0.00    -0.016 A 
ATOM      7  C6  BZF d   1      -0.112  -3.744  -2.627  0.00  0.00     0.022 A 
ATOM      8  C7  BZF d   1      -0.692  -2.544  -2.384  0.00  0.00     0.029 A 
ATOM      9  C7A BZF d   1      -0.014  -1.676  -1.563  0.00  0.00     0.058 A 
ENDROOT
TORSDOF 0
ENDMDL
