MODEL 1
REMARK minimizedAffinity -4.83357143
REMARK minimizedRMSD -1
REMARK  0 active torsions:
REMARK  status: ('A' for Active; 'I' for Inactive)
ROOT
ATOM      1  O1  BZF d   1       0.525   0.090  -1.144  0.00  0.00    -0.204 OA
ATOM      2  C2  BZF d   1       1.212  -0.957  -0.561  0.00  0.00     0.174 A 
ATOM      3  C3  BZF d   1       0.879  -1.081   0.740  0.00  0.00    -0.012 A 
ATOM      4  C3A BZF d   1      -0.144  -0.106   0.962  0.00  0.00    -0.107 A 
ATOM      5  C4  BZF d   1      -0.886   0.244   2.053  0.00  0.00     0.055 A 
ATOM      6  C5  BZF d   1      -1.751   1.288   1.956  0.00  0.00    -0.016 A 
ATOM      7  C6  BZF d   1      -1.895   2.005   0.786  0.00  0.00     0.022 A 
ATOM      8  C7  BZF d   1      -1.184   1.691  -0.324  0.00  0.00     0.029 A 
ATOM      9  C7A BZF d   1      -0.334   0.616  -0.239  0.00  0.00     0.058 A 
ENDROOT
TORSDOF 0
ENDMDL
