MODEL 1
REMARK minimizedAffinity 2.39809442
REMARK minimizedRMSD -1
REMARK  0 active torsions:
REMARK  status: ('A' for Active; 'I' for Inactive)
ROOT
ATOM      1  O1  BZF d   1       1.738   0.606  -1.728  0.00  0.00    -0.204 OA
ATOM      2  C2  BZF d   1       1.224   1.842  -2.071  0.00  0.00     0.174 A 
ATOM      3  C3  BZF d   1       0.253   2.212  -1.212  0.00  0.00    -0.012 A 
ATOM      4  C3A BZF d   1       0.218   1.182  -0.219  0.00  0.00    -0.107 A 
ATOM      5  C4  BZF d   1      -0.529   0.990   0.908  0.00  0.00     0.055 A 
ATOM      6  C5  BZF d   1      -0.369  -0.157   1.620  0.00  0.00    -0.016 A 
ATOM      7  C6  BZF d   1       0.524  -1.133   1.230  0.00  0.00     0.022 A 
ATOM      8  C7  BZF d   1       1.291  -0.986   0.123  0.00  0.00     0.029 A 
ATOM      9  C7A BZF d   1       1.155   0.187  -0.580  0.00  0.00     0.058 A 
ENDROOT
TORSDOF 0
ENDMDL
