MODEL 1
REMARK minimizedAffinity -2.08385515
REMARK minimizedRMSD -1
REMARK  0 active torsions:
REMARK  status: ('A' for Active; 'I' for Inactive)
ROOT
ATOM      1  O1  BZF d   1       0.186   0.159  -0.934  0.00  0.00    -0.204 OA
ATOM      2  C2  BZF d   1       0.181  -0.997  -0.177  0.00  0.00     0.174 A 
ATOM      3  C3  BZF d   1      -0.308  -0.759   1.057  0.00  0.00    -0.012 A 
ATOM      4  C3A BZF d   1      -0.715   0.613   1.042  0.00  0.00    -0.107 A 
ATOM      5  C4  BZF d   1      -1.292   1.431   1.971  0.00  0.00     0.055 A 
ATOM      6  C5  BZF d   1      -1.494   2.739   1.665  0.00  0.00    -0.016 A 
ATOM      7  C6  BZF d   1      -1.127   3.264   0.442  0.00  0.00     0.022 A 
ATOM      8  C7  BZF d   1      -0.557   2.490  -0.513  0.00  0.00     0.029 A 
ATOM      9  C7A BZF d   1      -0.382   1.160  -0.218  0.00  0.00     0.058 A 
ENDROOT
TORSDOF 0
ENDMDL
