MODEL 1
REMARK minimizedAffinity -4.01634407
REMARK minimizedRMSD -1
REMARK  0 active torsions:
REMARK  status: ('A' for Active; 'I' for Inactive)
ROOT
ATOM      1  O1  BZF d   1       0.381   0.584  -0.958  0.00  0.00    -0.204 OA
ATOM      2  C2  BZF d   1       1.001  -0.650  -0.926  0.00  0.00     0.174 A 
ATOM      3  C3  BZF d   1       0.799  -1.256   0.262  0.00  0.00    -0.012 A 
ATOM      4  C3A BZF d   1      -0.074  -0.384   0.986  0.00  0.00    -0.107 A 
ATOM      5  C4  BZF d   1      -0.647  -0.445   2.223  0.00  0.00     0.055 A 
ATOM      6  C5  BZF d   1      -1.391   0.605   2.660  0.00  0.00    -0.016 A 
ATOM      7  C6  BZF d   1      -1.576   1.733   1.888  0.00  0.00     0.022 A 
ATOM      8  C7  BZF d   1      -1.032   1.838   0.651  0.00  0.00     0.029 A 
ATOM      9  C7A BZF d   1      -0.307   0.764   0.194  0.00  0.00     0.058 A 
ENDROOT
TORSDOF 0
ENDMDL
