MODEL 1
REMARK minimizedAffinity 0.79661572
REMARK minimizedRMSD -1
REMARK  0 active torsions:
REMARK  status: ('A' for Active; 'I' for Inactive)
ROOT
ATOM      1  O1  BZF d   1      -0.682   0.218  -1.446  0.00  0.00    -0.204 OA
ATOM      2  C2  BZF d   1      -0.633   0.408  -0.078  0.00  0.00     0.174 A 
ATOM      3  C3  BZF d   1      -0.056  -0.648   0.531  0.00  0.00    -0.012 A 
ATOM      4  C3A BZF d   1       0.361  -1.513  -0.529  0.00  0.00    -0.107 A 
ATOM      5  C4  BZF d   1       1.008  -2.715  -0.561  0.00  0.00     0.055 A 
ATOM      6  C5  BZF d   1       1.199  -3.331  -1.757  0.00  0.00    -0.016 A 
ATOM      7  C6  BZF d   1       0.752  -2.777  -2.939  0.00  0.00     0.022 A 
ATOM      8  C7  BZF d   1       0.109  -1.584  -2.958  0.00  0.00     0.029 A 
ATOM      9  C7A BZF d   1      -0.057  -0.943  -1.755  0.00  0.00     0.058 A 
ENDROOT
TORSDOF 0
ENDMDL
