MODEL 1
REMARK minimizedAffinity -0.747956932
REMARK minimizedRMSD -1
REMARK  0 active torsions:
REMARK  status: ('A' for Active; 'I' for Inactive)
ROOT
ATOM      1  O1  BZF d   1      -0.684   2.107   3.380  0.00  0.00    -0.204 OA
ATOM      2  C2  BZF d   1       0.103   1.280   4.156  0.00  0.00     0.174 A 
ATOM      3  C3  BZF d   1       0.441   0.165   3.477  0.00  0.00    -0.012 A 
ATOM      4  C3A BZF d   1      -0.097   0.347   2.164  0.00  0.00    -0.107 A 
ATOM      5  C4  BZF d   1      -0.079  -0.411   1.028  0.00  0.00     0.055 A 
ATOM      6  C5  BZF d   1      -0.762   0.020  -0.065  0.00  0.00    -0.016 A 
ATOM      7  C6  BZF d   1      -1.477   1.199  -0.056  0.00  0.00     0.022 A 
ATOM      8  C7  BZF d   1      -1.521   1.988   1.046  0.00  0.00     0.029 A 
ATOM      9  C7A BZF d   1      -0.805   1.571   2.141  0.00  0.00     0.058 A 
ENDROOT
TORSDOF 0
ENDMDL
