MODEL 1
REMARK minimizedAffinity -4.14631081
REMARK minimizedRMSD -1
REMARK  0 active torsions:
REMARK  status: ('A' for Active; 'I' for Inactive)
ROOT
ATOM      1  O1  BZF d   1      -1.229   1.178   2.541  0.00  0.00    -0.204 OA
ATOM      2  C2  BZF d   1      -1.950   2.153   1.878  0.00  0.00     0.174 A 
ATOM      3  C3  BZF d   1      -1.698   2.116   0.554  0.00  0.00    -0.012 A 
ATOM      4  C3A BZF d   1      -0.833   0.992   0.366  0.00  0.00    -0.107 A 
ATOM      5  C4  BZF d   1      -0.249   0.430  -0.733  0.00  0.00     0.055 A 
ATOM      6  C5  BZF d   1       0.601  -0.618  -0.566  0.00  0.00    -0.016 A 
ATOM      7  C6  BZF d   1       0.892  -1.125   0.683  0.00  0.00     0.022 A 
ATOM      8  C7  BZF d   1       0.332  -0.604   1.803  0.00  0.00     0.029 A 
ATOM      9  C7A BZF d   1      -0.552   0.434   1.635  0.00  0.00     0.058 A 
ENDROOT
TORSDOF 0
ENDMDL
