MODEL 1
REMARK minimizedAffinity -1.75904572
REMARK minimizedRMSD -1
REMARK  0 active torsions:
REMARK  status: ('A' for Active; 'I' for Inactive)
ROOT
ATOM      1  O1  BZF d   1      -1.758   2.000   2.433  0.00  0.00    -0.204 OA
ATOM      2  C2  BZF d   1      -2.352   2.850   1.520  0.00  0.00     0.174 A 
ATOM      3  C3  BZF d   1      -2.059   2.476   0.258  0.00  0.00    -0.012 A 
ATOM      4  C3A BZF d   1      -1.306   1.266   0.389  0.00  0.00    -0.107 A 
ATOM      5  C4  BZF d   1      -0.744   0.408  -0.513  0.00  0.00     0.055 A 
ATOM      6  C5  BZF d   1      -0.012  -0.642  -0.056  0.00  0.00    -0.016 A 
ATOM      7  C6  BZF d   1       0.181  -0.861   1.292  0.00  0.00     0.022 A 
ATOM      8  C7  BZF d   1      -0.361  -0.040   2.224  0.00  0.00     0.029 A 
ATOM      9  C7A BZF d   1      -1.128   1.003   1.767  0.00  0.00     0.058 A 
ENDROOT
TORSDOF 0
ENDMDL
