MODEL 1
REMARK minimizedAffinity -3.86655307
REMARK minimizedRMSD -1
REMARK  0 active torsions:
REMARK  status: ('A' for Active; 'I' for Inactive)
ROOT
ATOM      1  O1  BZF d   1      -2.185   1.319   2.212  0.00  0.00    -0.204 OA
ATOM      2  C2  BZF d   1      -2.772   2.075   1.217  0.00  0.00     0.174 A 
ATOM      3  C3  BZF d   1      -2.129   1.905   0.044  0.00  0.00    -0.012 A 
ATOM      4  C3A BZF d   1      -1.131   0.914   0.303  0.00  0.00    -0.107 A 
ATOM      5  C4  BZF d   1      -0.184   0.310  -0.474  0.00  0.00     0.055 A 
ATOM      6  C5  BZF d   1       0.684  -0.563   0.101  0.00  0.00    -0.016 A 
ATOM      7  C6  BZF d   1       0.637  -0.852   1.449  0.00  0.00     0.022 A 
ATOM      8  C7  BZF d   1      -0.288  -0.282   2.259  0.00  0.00     0.029 A 
ATOM      9  C7A BZF d   1      -1.188   0.576   1.675  0.00  0.00     0.058 A 
ENDROOT
TORSDOF 0
ENDMDL
