MODEL 1
REMARK minimizedAffinity -2.15565944
REMARK minimizedRMSD -1
REMARK  0 active torsions:
REMARK  status: ('A' for Active; 'I' for Inactive)
ROOT
ATOM      1  O1  BZF d   1       0.954  -0.885  -1.412  0.00  0.00    -0.204 OA
ATOM      2  C2  BZF d   1       0.605  -1.874  -0.512  0.00  0.00     0.174 A 
ATOM      3  C3  BZF d   1      -0.190  -1.378   0.458  0.00  0.00    -0.012 A 
ATOM      4  C3A BZF d   1      -0.424  -0.015   0.093  0.00  0.00    -0.107 A 
ATOM      5  C4  BZF d   1      -1.152   0.995   0.653  0.00  0.00     0.055 A 
ATOM      6  C5  BZF d   1      -1.114   2.230   0.087  0.00  0.00    -0.016 A 
ATOM      7  C6  BZF d   1      -0.355   2.491  -1.036  0.00  0.00     0.022 A 
ATOM      8  C7  BZF d   1       0.379   1.519  -1.630  0.00  0.00     0.029 A 
ATOM      9  C7A BZF d   1       0.316   0.263  -1.079  0.00  0.00     0.058 A 
ENDROOT
TORSDOF 0
ENDMDL
