MODEL 1
REMARK minimizedAffinity -5.48264503
REMARK minimizedRMSD -1
REMARK  0 active torsions:
REMARK  status: ('A' for Active; 'I' for Inactive)
ROOT
ATOM      1  O1  BZF d   1       0.639   0.541  -1.099  0.00  0.00    -0.204 OA
ATOM      2  C2  BZF d   1       0.419  -0.748  -0.655  0.00  0.00     0.174 A 
ATOM      3  C3  BZF d   1      -0.369  -0.749   0.439  0.00  0.00    -0.012 A 
ATOM      4  C3A BZF d   1      -0.735   0.619   0.640  0.00  0.00    -0.107 A 
ATOM      5  C4  BZF d   1      -1.519   1.256   1.560  0.00  0.00     0.055 A 
ATOM      6  C5  BZF d   1      -1.612   2.611   1.523  0.00  0.00    -0.016 A 
ATOM      7  C6  BZF d   1      -0.932   3.361   0.585  0.00  0.00     0.022 A 
ATOM      8  C7  BZF d   1      -0.147   2.773  -0.351  0.00  0.00     0.029 A 
ATOM      9  C7A BZF d   1      -0.077   1.402  -0.337  0.00  0.00     0.058 A 
ENDROOT
TORSDOF 0
ENDMDL
