MODEL 1
REMARK minimizedAffinity -1.84519637
REMARK minimizedRMSD -1
REMARK  0 active torsions:
REMARK  status: ('A' for Active; 'I' for Inactive)
ROOT
ATOM      1  C   UNL d   1       0.751   2.493  -2.755  0.00  0.00     0.078 C 
ATOM      2  C1  UNL d   1       0.647   2.251  -1.279  0.00  0.00    -0.077 A 
ATOM      3  C2  UNL d   1       0.097   1.064  -0.780  0.00  0.00    -0.001 A 
ATOM      4  C3  UNL d   1      -0.003   0.856   0.597  0.00  0.00     0.003 A 
ATOM      5  C4  UNL d   1       0.445   1.831   1.486  0.00  0.00    -0.005 A 
ATOM      6  C5  UNL d   1       0.993   3.016   0.999  0.00  0.00     0.003 A 
ATOM      7  C6  UNL d   1       1.093   3.226  -0.377  0.00  0.00    -0.001 A 
ENDROOT
TORSDOF 0
ENDMDL
