MODEL 1
REMARK minimizedAffinity 5.63419962
REMARK minimizedRMSD -1
REMARK  0 active torsions:
REMARK  status: ('A' for Active; 'I' for Inactive)
ROOT
ATOM      1  C   UNL d   1       4.016   4.370  -6.000  0.00  0.00     0.078 C 
ATOM      2  C1  UNL d   1       2.717   3.619  -5.994  0.00  0.00    -0.077 A 
ATOM      3  C2  UNL d   1       1.492   4.298  -5.987  0.00  0.00    -0.001 A 
ATOM      4  C3  UNL d   1       0.292   3.586  -5.971  0.00  0.00     0.003 A 
ATOM      5  C4  UNL d   1       0.304   2.193  -5.961  0.00  0.00    -0.005 A 
ATOM      6  C5  UNL d   1       1.518   1.509  -5.966  0.00  0.00     0.003 A 
ATOM      7  C6  UNL d   1       2.720   2.219  -5.981  0.00  0.00    -0.001 A 
ENDROOT
TORSDOF 0
ENDMDL
