MODEL 1
REMARK minimizedAffinity -2.84012294
REMARK minimizedRMSD -1
REMARK  0 active torsions:
REMARK  status: ('A' for Active; 'I' for Inactive)
ROOT
ATOM      1  C   UNL d   1       1.429   5.309  -5.965  0.00  0.00     0.078 C 
ATOM      2  C1  UNL d   1       2.892   4.982  -5.966  0.00  0.00    -0.077 A 
ATOM      3  C2  UNL d   1       3.858   5.996  -5.959  0.00  0.00    -0.001 A 
ATOM      4  C3  UNL d   1       5.217   5.677  -5.970  0.00  0.00     0.003 A 
ATOM      5  C4  UNL d   1       5.622   4.344  -5.988  0.00  0.00    -0.005 A 
ATOM      6  C5  UNL d   1       4.669   3.328  -5.997  0.00  0.00     0.003 A 
ATOM      7  C6  UNL d   1       3.310   3.645  -5.987  0.00  0.00    -0.001 A 
ENDROOT
TORSDOF 0
ENDMDL
