MODEL 1
REMARK minimizedAffinity -2.8608861
REMARK minimizedRMSD -1
REMARK  0 active torsions:
REMARK  status: ('A' for Active; 'I' for Inactive)
ROOT
ATOM      1  C   UNL d   1       0.632   4.386  -5.989  0.00  0.00     0.078 C 
ATOM      2  C1  UNL d   1      -0.866   4.319  -5.996  0.00  0.00    -0.077 A 
ATOM      3  C2  UNL d   1      -1.640   5.486  -5.998  0.00  0.00    -0.001 A 
ATOM      4  C3  UNL d   1      -3.034   5.408  -5.995  0.00  0.00     0.003 A 
ATOM      5  C4  UNL d   1      -3.665   4.166  -5.987  0.00  0.00    -0.005 A 
ATOM      6  C5  UNL d   1      -2.903   2.999  -5.982  0.00  0.00     0.003 A 
ATOM      7  C6  UNL d   1      -1.509   3.075  -5.986  0.00  0.00    -0.001 A 
ENDROOT
TORSDOF 0
ENDMDL
