MODEL 1
REMARK minimizedAffinity -2.49900341
REMARK minimizedRMSD -1
REMARK  0 active torsions:
REMARK  status: ('A' for Active; 'I' for Inactive)
ROOT
ATOM      1  C   UNL d   1       0.628   2.236  -6.000  0.00  0.00     0.078 C 
ATOM      2  C1  UNL d   1      -0.582   3.122  -5.999  0.00  0.00    -0.077 A 
ATOM      3  C2  UNL d   1      -0.454   4.516  -5.993  0.00  0.00    -0.001 A 
ATOM      4  C3  UNL d   1      -1.589   5.328  -5.983  0.00  0.00     0.003 A 
ATOM      5  C4  UNL d   1      -2.860   4.756  -5.978  0.00  0.00    -0.005 A 
ATOM      6  C5  UNL d   1      -2.996   3.369  -5.982  0.00  0.00     0.003 A 
ATOM      7  C6  UNL d   1      -1.862   2.555  -5.992  0.00  0.00    -0.001 A 
ENDROOT
TORSDOF 0
ENDMDL
