MODEL 1
REMARK minimizedAffinity 1.49092877
REMARK minimizedRMSD -1
REMARK  0 active torsions:
REMARK  status: ('A' for Active; 'I' for Inactive)
ROOT
ATOM      1  C   UNL d   1      -2.172   2.626  -5.957  0.00  0.00     0.078 C 
ATOM      2  C1  UNL d   1      -0.936   3.474  -5.965  0.00  0.00    -0.077 A 
ATOM      3  C2  UNL d   1      -1.020   4.872  -5.973  0.00  0.00    -0.001 A 
ATOM      4  C3  UNL d   1       0.139   5.649  -5.990  0.00  0.00     0.003 A 
ATOM      5  C4  UNL d   1       1.391   5.038  -5.999  0.00  0.00    -0.005 A 
ATOM      6  C5  UNL d   1       1.485   3.648  -5.993  0.00  0.00     0.003 A 
ATOM      7  C6  UNL d   1       0.327   2.869  -5.977  0.00  0.00    -0.001 A 
ENDROOT
TORSDOF 0
ENDMDL
