MODEL 1
REMARK minimizedAffinity -1.05099666
REMARK minimizedRMSD -1
REMARK  0 active torsions:
REMARK  status: ('A' for Active; 'I' for Inactive)
ROOT
ATOM      1  C   UNL d   1       1.314   4.094  -5.982  0.00  0.00     0.078 C 
ATOM      2  C1  UNL d   1       2.810   4.196  -5.996  0.00  0.00    -0.077 A 
ATOM      3  C2  UNL d   1       3.611   3.047  -5.996  0.00  0.00    -0.001 A 
ATOM      4  C3  UNL d   1       5.002   3.156  -5.999  0.00  0.00     0.003 A 
ATOM      5  C4  UNL d   1       5.605   4.413  -6.000  0.00  0.00    -0.005 A 
ATOM      6  C5  UNL d   1       4.817   5.561  -5.997  0.00  0.00     0.003 A 
ATOM      7  C6  UNL d   1       3.425   5.454  -5.994  0.00  0.00    -0.001 A 
ENDROOT
TORSDOF 0
ENDMDL
