MODEL 1
REMARK minimizedAffinity -1.87736237
REMARK minimizedRMSD -1
REMARK  0 active torsions:
REMARK  status: ('A' for Active; 'I' for Inactive)
ROOT
ATOM      1  C   UNL d   1       0.410   2.657  -5.973  0.00  0.00     0.078 C 
ATOM      2  C1  UNL d   1      -0.763   3.591  -5.989  0.00  0.00    -0.077 A 
ATOM      3  C2  UNL d   1      -0.580   4.979  -5.993  0.00  0.00    -0.001 A 
ATOM      4  C3  UNL d   1      -1.681   5.837  -5.999  0.00  0.00     0.003 A 
ATOM      5  C4  UNL d   1      -2.974   5.316  -6.000  0.00  0.00    -0.005 A 
ATOM      6  C5  UNL d   1      -3.166   3.936  -5.994  0.00  0.00     0.003 A 
ATOM      7  C6  UNL d   1      -2.066   3.077  -5.988  0.00  0.00    -0.001 A 
ENDROOT
TORSDOF 0
ENDMDL
