MODEL 1
REMARK minimizedAffinity -2.98572016
REMARK minimizedRMSD -1
REMARK  0 active torsions:
REMARK  status: ('A' for Active; 'I' for Inactive)
ROOT
ATOM      1  C   UNL d   1       0.220   5.203  -6.000  0.00  0.00     0.078 C 
ATOM      2  C1  UNL d   1      -1.234   4.839  -5.982  0.00  0.00    -0.077 A 
ATOM      3  C2  UNL d   1      -1.642   3.499  -6.000  0.00  0.00    -0.001 A 
ATOM      4  C3  UNL d   1      -3.000   3.175  -5.993  0.00  0.00     0.003 A 
ATOM      5  C4  UNL d   1      -3.960   4.184  -5.970  0.00  0.00    -0.005 A 
ATOM      6  C5  UNL d   1      -3.564   5.520  -5.955  0.00  0.00     0.003 A 
ATOM      7  C6  UNL d   1      -2.207   5.846  -5.962  0.00  0.00    -0.001 A 
ENDROOT
TORSDOF 0
ENDMDL
