MODEL 1
REMARK minimizedAffinity -2.38984227
REMARK minimizedRMSD -1
REMARK  0 active torsions:
REMARK  status: ('A' for Active; 'I' for Inactive)
ROOT
ATOM      1  C   UNL d   1       0.945   2.642  -5.976  0.00  0.00     0.078 C 
ATOM      2  C1  UNL d   1      -0.431   3.238  -5.976  0.00  0.00    -0.077 A 
ATOM      3  C2  UNL d   1      -1.570   2.424  -5.981  0.00  0.00    -0.001 A 
ATOM      4  C3  UNL d   1      -2.845   2.993  -5.990  0.00  0.00     0.003 A 
ATOM      5  C4  UNL d   1      -2.992   4.378  -5.995  0.00  0.00    -0.005 A 
ATOM      6  C5  UNL d   1      -1.865   5.197  -5.992  0.00  0.00     0.003 A 
ATOM      7  C6  UNL d   1      -0.589   4.630  -5.983  0.00  0.00    -0.001 A 
ENDROOT
TORSDOF 0
ENDMDL
