MODEL 1
REMARK minimizedAffinity 4.49593401
REMARK minimizedRMSD -1
REMARK  0 active torsions:
REMARK  status: ('A' for Active; 'I' for Inactive)
ROOT
ATOM      1  C   UNL d   1       2.266   2.856  -1.441  0.00  0.00     0.078 C 
ATOM      2  C1  UNL d   1       2.242   1.647  -2.328  0.00  0.00    -0.077 A 
ATOM      3  C2  UNL d   1       2.057   0.365  -1.796  0.00  0.00    -0.001 A 
ATOM      4  C3  UNL d   1       2.046  -0.751  -2.633  0.00  0.00     0.003 A 
ATOM      5  C4  UNL d   1       2.221  -0.598  -4.007  0.00  0.00    -0.005 A 
ATOM      6  C5  UNL d   1       2.407   0.674  -4.546  0.00  0.00     0.003 A 
ATOM      7  C6  UNL d   1       2.418   1.792  -3.710  0.00  0.00    -0.001 A 
ENDROOT
TORSDOF 0
ENDMDL
