MODEL 1
REMARK minimizedAffinity -2.24382949
REMARK minimizedRMSD -1
REMARK  0 active torsions:
REMARK  status: ('A' for Active; 'I' for Inactive)
ROOT
ATOM      1  C   UNL d   1      -3.346   5.672  -5.957  0.00  0.00     0.078 C 
ATOM      2  C1  UNL d   1      -1.947   5.134  -5.965  0.00  0.00    -0.077 A 
ATOM      3  C2  UNL d   1      -0.843   5.995  -5.978  0.00  0.00    -0.001 A 
ATOM      4  C3  UNL d   1       0.454   5.480  -5.995  0.00  0.00     0.003 A 
ATOM      5  C4  UNL d   1       0.660   4.102  -6.000  0.00  0.00    -0.005 A 
ATOM      6  C5  UNL d   1      -0.432   3.237  -5.989  0.00  0.00     0.003 A 
ATOM      7  C6  UNL d   1      -1.730   3.750  -5.972  0.00  0.00    -0.001 A 
ENDROOT
TORSDOF 0
ENDMDL
