MODEL 1
REMARK minimizedAffinity 4.11500931
REMARK minimizedRMSD -1
REMARK  0 active torsions:
REMARK  status: ('A' for Active; 'I' for Inactive)
ROOT
ATOM      1  C   UNL d   1       2.865   2.966   2.323  0.00  0.00     0.078 C 
ATOM      2  C1  UNL d   1       1.436   2.594   2.064  0.00  0.00    -0.077 A 
ATOM      3  C2  UNL d   1       0.462   2.737   3.059  0.00  0.00    -0.001 A 
ATOM      4  C3  UNL d   1      -0.863   2.377   2.807  0.00  0.00     0.003 A 
ATOM      5  C4  UNL d   1      -1.226   1.871   1.560  0.00  0.00    -0.005 A 
ATOM      6  C5  UNL d   1      -0.263   1.723   0.564  0.00  0.00     0.003 A 
ATOM      7  C6  UNL d   1       1.063   2.082   0.815  0.00  0.00    -0.001 A 
ENDROOT
TORSDOF 0
ENDMDL
