MODEL 1
REMARK minimizedAffinity -3.49717069
REMARK minimizedRMSD -1
REMARK  0 active torsions:
REMARK  status: ('A' for Active; 'I' for Inactive)
ROOT
ATOM      1  C1  DEN d   1       0.633  -1.467   0.566  0.00  0.00     0.130 A 
ATOM      2  C2  DEN d   1       0.436  -0.079   0.977  0.00  0.00    -0.031 A 
ATOM      3  C3  DEN d   1       0.535   0.771  -0.227  0.00  0.00     0.027 A 
ATOM      4  C4  DEN d   1       0.966   0.077  -2.673  0.00  0.00     0.027 A 
ATOM      5  C5  DEN d   1       1.207  -0.989  -3.512  0.00  0.00    -0.003 A 
ATOM      6  C6  DEN d   1       1.307  -2.274  -3.049  0.00  0.00     0.001 A 
ATOM      7  C7  DEN d   1       1.120  -2.532  -1.716  0.00  0.00     0.017 A 
ATOM      8  C8  DEN d   1       0.884  -1.462  -0.864  0.00  0.00    -0.094 A 
ATOM      9  C9  DEN d   1       0.774  -0.171  -1.353  0.00  0.00    -0.072 A 
ENDROOT
TORSDOF 0
ENDMDL
