MODEL 1
REMARK minimizedAffinity -1.86828363
REMARK minimizedRMSD -1
REMARK  0 active torsions:
REMARK  status: ('A' for Active; 'I' for Inactive)
ROOT
ATOM      1  C1  DEN d   1      -1.335   1.327  -1.075  0.00  0.00     0.130 A 
ATOM      2  C2  DEN d   1      -2.594   1.098  -0.371  0.00  0.00    -0.031 A 
ATOM      3  C3  DEN d   1      -2.276   0.677   1.008  0.00  0.00     0.027 A 
ATOM      4  C4  DEN d   1       0.032   0.365   2.118  0.00  0.00     0.027 A 
ATOM      5  C5  DEN d   1       1.393   0.430   1.915  0.00  0.00    -0.003 A 
ATOM      6  C6  DEN d   1       1.936   0.762   0.702  0.00  0.00     0.001 A 
ATOM      7  C7  DEN d   1       1.112   1.087  -0.344  0.00  0.00     0.017 A 
ATOM      8  C8  DEN d   1      -0.261   1.017  -0.149  0.00  0.00    -0.094 A 
ATOM      9  C9  DEN d   1      -0.790   0.690   1.088  0.00  0.00    -0.072 A 
ENDROOT
TORSDOF 0
ENDMDL
