MODEL 1
REMARK minimizedAffinity -0.387491137
REMARK minimizedRMSD -1
REMARK  0 active torsions:
REMARK  status: ('A' for Active; 'I' for Inactive)
ROOT
ATOM      1  C1  DEN d   1       1.708   0.402   1.257  0.00  0.00     0.130 A 
ATOM      2  C2  DEN d   1       1.290   0.503   2.653  0.00  0.00    -0.031 A 
ATOM      3  C3  DEN d   1      -0.185   0.566   2.684  0.00  0.00     0.027 A 
ATOM      4  C4  DEN d   1      -1.853   0.513   0.718  0.00  0.00     0.027 A 
ATOM      5  C5  DEN d   1      -1.971   0.446  -0.652  0.00  0.00    -0.003 A 
ATOM      6  C6  DEN d   1      -0.879   0.395  -1.478  0.00  0.00     0.001 A 
ATOM      7  C7  DEN d   1       0.379   0.364  -0.937  0.00  0.00     0.017 A 
ATOM      8  C8  DEN d   1       0.506   0.438   0.444  0.00  0.00    -0.094 A 
ATOM      9  C9  DEN d   1      -0.610   0.477   1.262  0.00  0.00    -0.072 A 
ENDROOT
TORSDOF 0
ENDMDL
