MODEL 1
REMARK minimizedAffinity -3.86510444
REMARK minimizedRMSD -1
REMARK  0 active torsions:
REMARK  status: ('A' for Active; 'I' for Inactive)
ROOT
ATOM      1  C1  DEN d   1       1.261   0.251  -0.075  0.00  0.00     0.130 A 
ATOM      2  C2  DEN d   1      -0.031   0.657   0.472  0.00  0.00    -0.031 A 
ATOM      3  C3  DEN d   1      -1.090   0.042  -0.354  0.00  0.00     0.027 A 
ATOM      4  C4  DEN d   1      -0.855  -1.496  -2.411  0.00  0.00     0.027 A 
ATOM      5  C5  DEN d   1       0.042  -2.111  -3.257  0.00  0.00    -0.003 A 
ATOM      6  C6  DEN d   1       1.396  -1.955  -3.123  0.00  0.00     0.001 A 
ATOM      7  C7  DEN d   1       1.894  -1.202  -2.092  0.00  0.00     0.017 A 
ATOM      8  C8  DEN d   1       0.996  -0.573  -1.240  0.00  0.00    -0.094 A 
ATOM      9  C9  DEN d   1      -0.369  -0.752  -1.385  0.00  0.00    -0.072 A 
ENDROOT
TORSDOF 0
ENDMDL
