MODEL 1
REMARK minimizedAffinity -0.420158207
REMARK minimizedRMSD -1
REMARK  0 active torsions:
REMARK  status: ('A' for Active; 'I' for Inactive)
ROOT
ATOM      1  C1  DEN d   1       1.663  -0.084   1.456  0.00  0.00     0.130 A 
ATOM      2  C2  DEN d   1       0.849   0.046   2.662  0.00  0.00    -0.031 A 
ATOM      3  C3  DEN d   1      -0.529   0.378   2.248  0.00  0.00     0.027 A 
ATOM      4  C4  DEN d   1      -1.479   0.695  -0.129  0.00  0.00     0.027 A 
ATOM      5  C5  DEN d   1      -1.168   0.696  -1.471  0.00  0.00    -0.003 A 
ATOM      6  C6  DEN d   1       0.105   0.472  -1.926  0.00  0.00     0.001 A 
ATOM      7  C7  DEN d   1       1.105   0.193  -1.033  0.00  0.00     0.017 A 
ATOM      8  C8  DEN d   1       0.801   0.198   0.322  0.00  0.00    -0.094 A 
ATOM      9  C9  DEN d   1      -0.494   0.415   0.762  0.00  0.00    -0.072 A 
ENDROOT
TORSDOF 0
ENDMDL
