MODEL 1
REMARK minimizedAffinity -3.20940399
REMARK minimizedRMSD -1
REMARK  0 active torsions:
REMARK  status: ('A' for Active; 'I' for Inactive)
ROOT
ATOM      1  C1  DEN d   1      -0.856  -0.975   0.256  0.00  0.00     0.130 A 
ATOM      2  C2  DEN d   1      -0.178   0.021   1.081  0.00  0.00    -0.031 A 
ATOM      3  C3  DEN d   1       0.878   0.650   0.261  0.00  0.00     0.027 A 
ATOM      4  C4  DEN d   1       1.520   0.185  -2.193  0.00  0.00     0.027 A 
ATOM      5  C5  DEN d   1       1.237  -0.582  -3.302  0.00  0.00    -0.003 A 
ATOM      6  C6  DEN d   1       0.267  -1.549  -3.292  0.00  0.00     0.001 A 
ATOM      7  C7  DEN d   1      -0.486  -1.743  -2.164  0.00  0.00     0.017 A 
ATOM      8  C8  DEN d   1      -0.201  -0.980  -1.040  0.00  0.00    -0.094 A 
ATOM      9  C9  DEN d   1       0.775   0.001  -1.074  0.00  0.00    -0.072 A 
ENDROOT
TORSDOF 0
ENDMDL
