MODEL 1
REMARK minimizedAffinity -2.69814587
REMARK minimizedRMSD -1
REMARK  0 active torsions:
REMARK  status: ('A' for Active; 'I' for Inactive)
ROOT
ATOM      1  C1  DEN d   1      -1.478   0.165  -1.063  0.00  0.00     0.130 A 
ATOM      2  C2  DEN d   1      -0.376   0.352  -2.003  0.00  0.00    -0.031 A 
ATOM      3  C3  DEN d   1       0.873   0.476  -1.224  0.00  0.00     0.027 A 
ATOM      4  C4  DEN d   1       1.205   0.393   1.332  0.00  0.00     0.027 A 
ATOM      5  C5  DEN d   1       0.564   0.264   2.544  0.00  0.00    -0.003 A 
ATOM      6  C6  DEN d   1      -0.796   0.128   2.639  0.00  0.00     0.001 A 
ATOM      7  C7  DEN d   1      -1.554   0.073   1.500  0.00  0.00     0.017 A 
ATOM      8  C8  DEN d   1      -0.915   0.210   0.275  0.00  0.00    -0.094 A 
ATOM      9  C9  DEN d   1       0.462   0.334   0.199  0.00  0.00    -0.072 A 
ENDROOT
TORSDOF 0
ENDMDL
