MODEL 1
REMARK minimizedAffinity -1.56983185
REMARK minimizedRMSD -1
REMARK  0 active torsions:
REMARK  status: ('A' for Active; 'I' for Inactive)
ROOT
ATOM      1  C1  DEN d   1       4.877  -4.838   5.972  0.00  0.00     0.130 A 
ATOM      2  C2  DEN d   1       3.993  -6.000   5.967  0.00  0.00    -0.031 A 
ATOM      3  C3  DEN d   1       3.247  -6.000   4.693  0.00  0.00     0.027 A 
ATOM      4  C4  DEN d   1       3.377  -4.324   2.736  0.00  0.00     0.027 A 
ATOM      5  C5  DEN d   1       3.975  -3.168   2.286  0.00  0.00    -0.003 A 
ATOM      6  C6  DEN d   1       4.883  -2.474   3.042  0.00  0.00     0.001 A 
ATOM      7  C7  DEN d   1       5.253  -2.955   4.270  0.00  0.00     0.017 A 
ATOM      8  C8  DEN d   1       4.649  -4.117   4.733  0.00  0.00    -0.094 A 
ATOM      9  C9  DEN d   1       3.742  -4.810   3.949  0.00  0.00    -0.072 A 
ENDROOT
TORSDOF 0
ENDMDL
