MODEL 1
REMARK minimizedAffinity 0.960778236
REMARK minimizedRMSD -1
REMARK  0 active torsions:
REMARK  status: ('A' for Active; 'I' for Inactive)
ROOT
ATOM      1  C1  DEN d   1       0.613   0.432   2.849  0.00  0.00     0.130 A 
ATOM      2  C2  DEN d   1       2.047   0.332   2.593  0.00  0.00    -0.031 A 
ATOM      3  C3  DEN d   1       2.249   0.306   1.131  0.00  0.00     0.027 A 
ATOM      4  C4  DEN d   1       0.490   0.415  -0.752  0.00  0.00     0.027 A 
ATOM      5  C5  DEN d   1      -0.858   0.493  -1.026  0.00  0.00    -0.003 A 
ATOM      6  C6  DEN d   1      -1.804   0.521  -0.036  0.00  0.00     0.001 A 
ATOM      7  C7  DEN d   1      -1.413   0.517   1.277  0.00  0.00     0.017 A 
ATOM      8  C8  DEN d   1      -0.056   0.431   1.561  0.00  0.00    -0.094 A 
ATOM      9  C9  DEN d   1       0.885   0.415   0.546  0.00  0.00    -0.072 A 
ENDROOT
TORSDOF 0
ENDMDL
