MODEL 1
REMARK minimizedAffinity -3.62948799
REMARK minimizedRMSD -1
REMARK  0 active torsions:
REMARK  status: ('A' for Active; 'I' for Inactive)
ROOT
ATOM      1  C1  DEN d   1      -0.307   0.474  -1.027  0.00  0.00     0.130 A 
ATOM      2  C2  DEN d   1       1.152   0.461  -0.953  0.00  0.00    -0.031 A 
ATOM      3  C3  DEN d   1       1.536   0.427   0.473  0.00  0.00     0.027 A 
ATOM      4  C4  DEN d   1       0.023   0.386   2.561  0.00  0.00     0.027 A 
ATOM      5  C5  DEN d   1      -1.282   0.397   3.002  0.00  0.00    -0.003 A 
ATOM      6  C6  DEN d   1      -2.344   0.467   2.140  0.00  0.00     0.001 A 
ATOM      7  C7  DEN d   1      -2.120   0.485   0.788  0.00  0.00     0.017 A 
ATOM      8  C8  DEN d   1      -0.807   0.482   0.336  0.00  0.00    -0.094 A 
ATOM      9  C9  DEN d   1       0.252   0.398   1.224  0.00  0.00    -0.072 A 
ENDROOT
TORSDOF 0
ENDMDL
