MODEL 1
REMARK minimizedAffinity -6.28634739
REMARK minimizedRMSD -1
REMARK  0 active torsions:
REMARK  status: ('A' for Active; 'I' for Inactive)
ROOT
ATOM      1  C1  DEN d   1      -1.377  -0.523   2.118  0.00  0.00     0.130 A 
ATOM      2  C2  DEN d   1      -0.057  -0.863   2.640  0.00  0.00    -0.031 A 
ATOM      3  C3  DEN d   1       0.939  -0.572   1.588  0.00  0.00     0.027 A 
ATOM      4  C4  DEN d   1       0.566   0.371  -0.783  0.00  0.00     0.027 A 
ATOM      5  C5  DEN d   1      -0.384   0.803  -1.683  0.00  0.00    -0.003 A 
ATOM      6  C6  DEN d   1      -1.723   0.791  -1.394  0.00  0.00     0.001 A 
ATOM      7  C7  DEN d   1      -2.146   0.381  -0.157  0.00  0.00     0.017 A 
ATOM      8  C8  DEN d   1      -1.196  -0.063   0.753  0.00  0.00    -0.094 A 
ATOM      9  C9  DEN d   1       0.154  -0.032   0.446  0.00  0.00    -0.072 A 
ENDROOT
TORSDOF 0
ENDMDL
