MODEL 1
REMARK minimizedAffinity -0.898142159
REMARK minimizedRMSD -1
REMARK  0 active torsions:
REMARK  status: ('A' for Active; 'I' for Inactive)
ROOT
ATOM      1  C1  DEN d   1       1.517   0.746   0.098  0.00  0.00     0.130 A 
ATOM      2  C2  DEN d   1       0.509   0.356   1.080  0.00  0.00    -0.031 A 
ATOM      3  C3  DEN d   1      -0.361  -0.664   0.460  0.00  0.00     0.027 A 
ATOM      4  C4  DEN d   1      -0.243  -1.675  -1.910  0.00  0.00     0.027 A 
ATOM      5  C5  DEN d   1       0.435  -1.649  -3.109  0.00  0.00    -0.003 A 
ATOM      6  C6  DEN d   1       1.490  -0.805  -3.333  0.00  0.00     0.001 A 
ATOM      7  C7  DEN d   1       1.929   0.015  -2.327  0.00  0.00     0.017 A 
ATOM      8  C8  DEN d   1       1.246   0.000  -1.118  0.00  0.00    -0.094 A 
ATOM      9  C9  DEN d   1       0.189  -0.868  -0.907  0.00  0.00    -0.072 A 
ENDROOT
TORSDOF 0
ENDMDL
