MODEL 1
REMARK minimizedAffinity -2.19706941
REMARK minimizedRMSD -1
REMARK  0 active torsions:
REMARK  status: ('A' for Active; 'I' for Inactive)
ROOT
ATOM      1  C1  DEN d   1      -1.078   0.371  -0.786  0.00  0.00     0.130 A 
ATOM      2  C2  DEN d   1       0.365   0.147  -0.778  0.00  0.00    -0.031 A 
ATOM      3  C3  DEN d   1       0.816   0.124   0.628  0.00  0.00     0.027 A 
ATOM      4  C4  DEN d   1      -0.574   0.409   2.782  0.00  0.00     0.027 A 
ATOM      5  C5  DEN d   1      -1.838   0.634   3.281  0.00  0.00    -0.003 A 
ATOM      6  C6  DEN d   1      -2.922   0.820   2.466  0.00  0.00     0.001 A 
ATOM      7  C7  DEN d   1      -2.771   0.739   1.107  0.00  0.00     0.017 A 
ATOM      8  C8  DEN d   1      -1.499   0.519   0.596  0.00  0.00    -0.094 A 
ATOM      9  C9  DEN d   1      -0.417   0.322   1.437  0.00  0.00    -0.072 A 
ENDROOT
TORSDOF 0
ENDMDL
