MODEL 1
REMARK minimizedAffinity -1.78914666
REMARK minimizedRMSD -1
REMARK  0 active torsions:
REMARK  status: ('A' for Active; 'I' for Inactive)
ROOT
ATOM      1  C   UNL d   1       2.425   1.123   0.980  0.00  0.00     0.172 C 
ATOM      2  N   UNL d   1       2.322  -0.215   0.448  0.00  0.00    -0.070 N 
ATOM      3  C1  UNL d   1       1.516  -1.208   0.936  0.00  0.00    -0.004 A 
ATOM      4  C2  UNL d   1       1.706  -2.328   0.155  0.00  0.00    -0.047 A 
ATOM      5  C3  UNL d   1       2.661  -1.996  -0.836  0.00  0.00    -0.047 A 
ATOM      6  C4  UNL d   1       3.025  -0.682  -0.631  0.00  0.00    -0.004 A 
ENDROOT
TORSDOF 0
ENDMDL
