MODEL 1
REMARK minimizedAffinity 0.578168154
REMARK minimizedRMSD -1
REMARK  0 active torsions:
REMARK  status: ('A' for Active; 'I' for Inactive)
ROOT
ATOM      1  C   UNL d   1      -0.817   1.472   2.221  0.00  0.00     0.172 C 
ATOM      2  N   UNL d   1      -0.291   1.086   0.933  0.00  0.00    -0.070 N 
ATOM      3  C1  UNL d   1       1.033   1.065   0.586  0.00  0.00    -0.004 A 
ATOM      4  C2  UNL d   1       1.120   0.641  -0.723  0.00  0.00    -0.047 A 
ATOM      5  C3  UNL d   1      -0.198   0.398  -1.177  0.00  0.00    -0.047 A 
ATOM      6  C4  UNL d   1      -1.052   0.682  -0.132  0.00  0.00    -0.004 A 
ENDROOT
TORSDOF 0
ENDMDL
