MODEL 1
REMARK minimizedAffinity -1.76503241
REMARK minimizedRMSD -1
REMARK  0 active torsions:
REMARK  status: ('A' for Active; 'I' for Inactive)
ROOT
ATOM      1  C   UNL d   1       1.206  -3.345  -0.309  0.00  0.00     0.172 C 
ATOM      2  N   UNL d   1       1.529  -1.946  -0.156  0.00  0.00    -0.070 N 
ATOM      3  C1  UNL d   1       2.508  -1.436   0.655  0.00  0.00    -0.004 A 
ATOM      4  C2  UNL d   1       2.499  -0.065   0.518  0.00  0.00    -0.047 A 
ATOM      5  C3  UNL d   1       1.478   0.261  -0.407  0.00  0.00    -0.047 A 
ATOM      6  C4  UNL d   1       0.895  -0.922  -0.809  0.00  0.00    -0.004 A 
ENDROOT
TORSDOF 0
ENDMDL
