MODEL 1
REMARK minimizedAffinity 8.76879978
REMARK minimizedRMSD -1
REMARK  0 active torsions:
REMARK  status: ('A' for Active; 'I' for Inactive)
ROOT
ATOM      1  C   UNL d   1       4.439   4.321   1.523  0.00  0.00     0.172 C 
ATOM      2  N   UNL d   1       4.835   3.980   2.869  0.00  0.00    -0.070 N 
ATOM      3  C1  UNL d   1       5.997   4.367   3.482  0.00  0.00    -0.004 A 
ATOM      4  C2  UNL d   1       6.000   3.839   4.755  0.00  0.00    -0.047 A 
ATOM      5  C3  UNL d   1       4.798   3.108   4.912  0.00  0.00    -0.047 A 
ATOM      6  C4  UNL d   1       4.096   3.212   3.730  0.00  0.00    -0.004 A 
ENDROOT
TORSDOF 0
ENDMDL
