MODEL 1
REMARK minimizedAffinity 4.08686876
REMARK minimizedRMSD -1
REMARK  0 active torsions:
REMARK  status: ('A' for Active; 'I' for Inactive)
ROOT
ATOM      1  C   UNL d   1       3.476   0.747   0.443  0.00  0.00     0.172 C 
ATOM      2  N   UNL d   1       2.740  -0.482   0.263  0.00  0.00    -0.070 N 
ATOM      3  C1  UNL d   1       2.966  -1.653   0.934  0.00  0.00    -0.004 A 
ATOM      4  C2  UNL d   1       2.056  -2.583   0.479  0.00  0.00    -0.047 A 
ATOM      5  C3  UNL d   1       1.257  -1.948  -0.501  0.00  0.00    -0.047 A 
ATOM      6  C4  UNL d   1       1.701  -0.648  -0.615  0.00  0.00    -0.004 A 
ENDROOT
TORSDOF 0
ENDMDL
