MODEL 1
REMARK minimizedAffinity 2.11894965
REMARK minimizedRMSD -1
REMARK  0 active torsions:
REMARK  status: ('A' for Active; 'I' for Inactive)
ROOT
ATOM      1  C   UNL d   1      -5.999   4.277  -3.293  0.00  0.00     0.172 C 
ATOM      2  N   UNL d   1      -5.507   2.968  -2.931  0.00  0.00    -0.070 N 
ATOM      3  C1  UNL d   1      -5.290   2.522  -1.655  0.00  0.00    -0.004 A 
ATOM      4  C2  UNL d   1      -4.822   1.228  -1.734  0.00  0.00    -0.047 A 
ATOM      5  C3  UNL d   1      -4.755   0.885  -3.106  0.00  0.00    -0.047 A 
ATOM      6  C4  UNL d   1      -5.185   1.981  -3.824  0.00  0.00    -0.004 A 
ENDROOT
TORSDOF 0
ENDMDL
