MODEL 1
REMARK minimizedAffinity 1.91699827
REMARK minimizedRMSD -1
REMARK  0 active torsions:
REMARK  status: ('A' for Active; 'I' for Inactive)
ROOT
ATOM      1  C   UNL d   1       4.081   0.523   0.459  0.00  0.00     0.172 C 
ATOM      2  N   UNL d   1       3.450  -0.755   0.694  0.00  0.00    -0.070 N 
ATOM      3  C1  UNL d   1       2.313  -1.208   0.081  0.00  0.00    -0.004 A 
ATOM      4  C2  UNL d   1       2.038  -2.465   0.576  0.00  0.00    -0.047 A 
ATOM      5  C3  UNL d   1       3.045  -2.776   1.521  0.00  0.00    -0.047 A 
ATOM      6  C4  UNL d   1       3.906  -1.700   1.574  0.00  0.00    -0.004 A 
ENDROOT
TORSDOF 0
ENDMDL
