MODEL 1
REMARK minimizedAffinity 5.42762661
REMARK minimizedRMSD -1
REMARK  3 active torsions:
REMARK  status: ('A' for Active; 'I' for Inactive)
REMARK    1  A    between atoms: C3'_2  and  C2'_3 
REMARK    2  A    between atoms: C2'_3  and  C1'_4 
REMARK    3  A    between atoms: C1'_4  and  C1_5 
ROOT
ATOM      1  C1  N4B d   1       0.667  -0.004  -1.182  0.00  0.00    -0.075 A 
ATOM      2  C2  N4B d   1       0.824   1.354  -1.534  0.00  0.00     0.002 A 
ATOM      3  C3  N4B d   1       1.035   2.297  -0.557  0.00  0.00     0.002 A 
ATOM      4  C4  N4B d   1       1.073   1.908   0.774  0.00  0.00    -0.004 A 
ATOM      5  C5  N4B d   1       0.946   0.590   1.103  0.00  0.00     0.002 A 
ATOM      6  C6  N4B d   1       0.738  -0.368   0.132  0.00  0.00     0.002 A 
ENDROOT
BRANCH   1   7
ATOM      7  C1' N4B d   1       0.349  -1.058  -2.207  0.00  0.00     0.057 C 
BRANCH   7   8
ATOM      8  C2' N4B d   1      -1.086  -1.535  -2.007  0.00  0.00     0.009 C 
BRANCH   8   9
ATOM      9  C3' N4B d   1      -1.267  -2.984  -2.425  0.00  0.00     0.004 C 
ATOM     10  C4' N4B d   1      -1.410  -3.913  -1.257  0.00  0.00     0.003 C 
ENDBRANCH   8   9
ENDBRANCH   7   8
ENDBRANCH   1   7
TORSDOF 3
ENDMDL
