MODEL 1
REMARK minimizedAffinity 2.85707211
REMARK minimizedRMSD -1
REMARK  3 active torsions:
REMARK  status: ('A' for Active; 'I' for Inactive)
REMARK    1  A    between atoms: C3'_2  and  C2'_3 
REMARK    2  A    between atoms: C2'_3  and  C1'_4 
REMARK    3  A    between atoms: C1'_4  and  C1_5 
ROOT
ATOM      1  C1  N4B d   1       1.111   3.186  -0.909  0.00  0.00    -0.075 A 
ATOM      2  C2  N4B d   1       1.008   3.250   0.498  0.00  0.00     0.002 A 
ATOM      3  C3  N4B d   1       1.068   4.465   1.136  0.00  0.00     0.002 A 
ATOM      4  C4  N4B d   1       1.249   5.621   0.393  0.00  0.00    -0.004 A 
ATOM      5  C5  N4B d   1       1.322   5.553  -0.967  0.00  0.00     0.002 A 
ATOM      6  C6  N4B d   1       1.260   4.340  -1.622  0.00  0.00     0.002 A 
ENDROOT
BRANCH   1   7
ATOM      7  C1' N4B d   1       1.138   1.873  -1.644  0.00  0.00     0.057 C 
BRANCH   7   8
ATOM      8  C2' N4B d   1       2.412   1.118  -1.275  0.00  0.00     0.009 C 
BRANCH   8   9
ATOM      9  C3' N4B d   1       2.112  -0.172  -0.532  0.00  0.00     0.004 C 
ATOM     10  C4' N4B d   1       1.319  -1.144  -1.353  0.00  0.00     0.003 C 
ENDBRANCH   8   9
ENDBRANCH   7   8
ENDBRANCH   1   7
TORSDOF 3
ENDMDL
