MODEL 1
REMARK minimizedAffinity 1.01906407
REMARK minimizedRMSD -1
REMARK  3 active torsions:
REMARK  status: ('A' for Active; 'I' for Inactive)
REMARK    1  A    between atoms: C3'_2  and  C2'_3 
REMARK    2  A    between atoms: C2'_3  and  C1'_4 
REMARK    3  A    between atoms: C1'_4  and  C1_5 
ROOT
ATOM      1  C1  N4B d   1       0.974  -0.375  -0.575  0.00  0.00    -0.075 A 
ATOM      2  C2  N4B d   1       0.760   0.660  -1.511  0.00  0.00     0.002 A 
ATOM      3  C3  N4B d   1       0.681   1.964  -1.088  0.00  0.00     0.002 A 
ATOM      4  C4  N4B d   1       0.794   2.254   0.264  0.00  0.00    -0.004 A 
ATOM      5  C5  N4B d   1       1.025   1.252   1.159  0.00  0.00     0.002 A 
ATOM      6  C6  N4B d   1       1.111  -0.063   0.747  0.00  0.00     0.002 A 
ENDROOT
BRANCH   1   7
ATOM      7  C1' N4B d   1       0.981  -1.823  -0.980  0.00  0.00     0.057 C 
BRANCH   7   8
ATOM      8  C2' N4B d   1       1.069  -2.693   0.271  0.00  0.00     0.009 C 
BRANCH   8   9
ATOM      9  C3' N4B d   1       2.076  -3.819   0.111  0.00  0.00     0.004 C 
ATOM     10  C4' N4B d   1       3.488  -3.324   0.003  0.00  0.00     0.003 C 
ENDBRANCH   8   9
ENDBRANCH   7   8
ENDBRANCH   1   7
TORSDOF 3
ENDMDL
