MODEL 1
REMARK minimizedAffinity 6.04072571
REMARK minimizedRMSD -1
REMARK  3 active torsions:
REMARK  status: ('A' for Active; 'I' for Inactive)
REMARK    1  A    between atoms: C3'_2  and  C2'_3 
REMARK    2  A    between atoms: C2'_3  and  C1'_4 
REMARK    3  A    between atoms: C1'_4  and  C1_5 
ROOT
ATOM      1  C1  N4B d   1       0.810   2.166  -1.273  0.00  0.00    -0.075 A 
ATOM      2  C2  N4B d   1       0.395   1.192  -2.207  0.00  0.00     0.002 A 
ATOM      3  C3  N4B d   1       0.679  -0.134  -1.988  0.00  0.00     0.002 A 
ATOM      4  C4  N4B d   1       1.390  -0.505  -0.857  0.00  0.00    -0.004 A 
ATOM      5  C5  N4B d   1       1.766   0.439   0.053  0.00  0.00     0.002 A 
ATOM      6  C6  N4B d   1       1.483   1.775  -0.152  0.00  0.00     0.002 A 
ENDROOT
BRANCH   1   7
ATOM      7  C1' N4B d   1       0.598   3.636  -1.512  0.00  0.00     0.057 C 
BRANCH   7   8
ATOM      8  C2' N4B d   1       1.213   4.425  -0.359  0.00  0.00     0.009 C 
BRANCH   8   9
ATOM      9  C3' N4B d   1       1.574   5.842  -0.769  0.00  0.00     0.004 C 
ATOM     10  C4' N4B d   1       3.027   5.998  -1.104  0.00  0.00     0.003 C 
ENDBRANCH   8   9
ENDBRANCH   7   8
ENDBRANCH   1   7
TORSDOF 3
ENDMDL
