MODEL 1
REMARK minimizedAffinity 12.3881435
REMARK minimizedRMSD -1
REMARK  3 active torsions:
REMARK  status: ('A' for Active; 'I' for Inactive)
REMARK    1  A    between atoms: C3'_2  and  C2'_3 
REMARK    2  A    between atoms: C2'_3  and  C1'_4 
REMARK    3  A    between atoms: C1'_4  and  C1_5 
ROOT
ATOM      1  C1  N4B d   1       1.010   2.162  -1.434  0.00  0.00    -0.075 A 
ATOM      2  C2  N4B d   1       1.482   2.000  -0.113  0.00  0.00     0.002 A 
ATOM      3  C3  N4B d   1       1.867   0.759   0.332  0.00  0.00     0.002 A 
ATOM      4  C4  N4B d   1       1.770  -0.334  -0.516  0.00  0.00    -0.004 A 
ATOM      5  C5  N4B d   1       1.336  -0.165  -1.799  0.00  0.00     0.002 A 
ATOM      6  C6  N4B d   1       0.950   1.078  -2.261  0.00  0.00     0.002 A 
ENDROOT
BRANCH   1   7
ATOM      7  C1' N4B d   1       0.498   3.484  -1.938  0.00  0.00     0.057 C 
BRANCH   7   8
ATOM      8  C2' N4B d   1      -0.566   3.235  -3.003  0.00  0.00     0.009 C 
BRANCH   8   9
ATOM      9  C3' N4B d   1      -1.883   3.909  -2.660  0.00  0.00     0.004 C 
ATOM     10  C4' N4B d   1      -2.742   3.078  -1.755  0.00  0.00     0.003 C 
ENDBRANCH   8   9
ENDBRANCH   7   8
ENDBRANCH   1   7
TORSDOF 3
ENDMDL
