MODEL 1
REMARK minimizedAffinity 12.4684238
REMARK minimizedRMSD -1
REMARK  0 active torsions:
REMARK  status: ('A' for Active; 'I' for Inactive)
ROOT
ATOM      1  O1  BZF d   1      -0.908  -2.425   3.845  0.00  0.00    -0.204 OA
ATOM      2  C2  BZF d   1       0.013  -1.510   3.372  0.00  0.00     0.174 A 
ATOM      3  C3  BZF d   1       1.243  -1.777   3.856  0.00  0.00    -0.012 A 
ATOM      4  C3A BZF d   1       1.098  -2.985   4.609  0.00  0.00    -0.107 A 
ATOM      5  C4  BZF d   1       1.970  -3.760   5.318  0.00  0.00     0.055 A 
ATOM      6  C5  BZF d   1       1.495  -4.836   5.999  0.00  0.00    -0.016 A 
ATOM      7  C6  BZF d   1       0.155  -5.162   5.998  0.00  0.00     0.022 A 
ATOM      8  C7  BZF d   1      -0.748  -4.426   5.305  0.00  0.00     0.029 A 
ATOM      9  C7A BZF d   1      -0.266  -3.357   4.589  0.00  0.00     0.058 A 
ENDROOT
TORSDOF 0
ENDMDL
