MODEL 1
REMARK minimizedAffinity 14.0928278
REMARK minimizedRMSD -1
REMARK  0 active torsions:
REMARK  status: ('A' for Active; 'I' for Inactive)
ROOT
ATOM      1  O1  BZF d   1      -3.226   4.727   3.950  0.00  0.00    -0.204 OA
ATOM      2  C2  BZF d   1      -3.624   5.994   4.330  0.00  0.00     0.174 A 
ATOM      3  C3  BZF d   1      -4.735   5.938   5.091  0.00  0.00    -0.012 A 
ATOM      4  C3A BZF d   1      -4.999   4.543   5.270  0.00  0.00    -0.107 A 
ATOM      5  C4  BZF d   1      -5.961   3.849   5.946  0.00  0.00     0.055 A 
ATOM      6  C5  BZF d   1      -5.980   2.493   5.861  0.00  0.00    -0.016 A 
ATOM      7  C6  BZF d   1      -5.057   1.800   5.106  0.00  0.00     0.022 A 
ATOM      8  C7  BZF d   1      -4.080   2.445   4.422  0.00  0.00     0.029 A 
ATOM      9  C7A BZF d   1      -4.039   3.813   4.533  0.00  0.00     0.058 A 
ENDROOT
TORSDOF 0
ENDMDL
