MODEL 1
REMARK minimizedAffinity 1.71156061
REMARK minimizedRMSD -1
REMARK  0 active torsions:
REMARK  status: ('A' for Active; 'I' for Inactive)
ROOT
ATOM      1  O1  BZF d   1       1.716   1.136  -0.424  0.00  0.00    -0.204 OA
ATOM      2  C2  BZF d   1       3.021   1.346  -0.824  0.00  0.00     0.174 A 
ATOM      3  C3  BZF d   1       3.623   0.177  -1.125  0.00  0.00    -0.012 A 
ATOM      4  C3A BZF d   1       2.603  -0.818  -0.987  0.00  0.00    -0.107 A 
ATOM      5  C4  BZF d   1       2.581  -2.171  -1.166  0.00  0.00     0.055 A 
ATOM      6  C5  BZF d   1       1.445  -2.858  -0.877  0.00  0.00    -0.016 A 
ATOM      7  C6  BZF d   1       0.315  -2.224  -0.402  0.00  0.00     0.022 A 
ATOM      8  C7  BZF d   1       0.287  -0.882  -0.213  0.00  0.00     0.029 A 
ATOM      9  C7A BZF d   1       1.423  -0.182  -0.536  0.00  0.00     0.058 A 
ENDROOT
TORSDOF 0
ENDMDL
