MODEL 1
REMARK minimizedAffinity 2.70593405
REMARK minimizedRMSD -1
REMARK  0 active torsions:
REMARK  status: ('A' for Active; 'I' for Inactive)
ROOT
ATOM      1  O1  BZF d   1       1.454  -3.152  -0.342  0.00  0.00    -0.204 OA
ATOM      2  C2  BZF d   1       2.547  -2.404   0.051  0.00  0.00     0.174 A 
ATOM      3  C3  BZF d   1       2.327  -1.090  -0.155  0.00  0.00    -0.012 A 
ATOM      4  C3A BZF d   1       0.978  -1.004  -0.626  0.00  0.00    -0.107 A 
ATOM      5  C4  BZF d   1       0.175   0.039  -0.989  0.00  0.00     0.055 A 
ATOM      6  C5  BZF d   1      -1.067  -0.221  -1.473  0.00  0.00    -0.016 A 
ATOM      7  C6  BZF d   1      -1.536  -1.511  -1.613  0.00  0.00     0.022 A 
ATOM      8  C7  BZF d   1      -0.778  -2.578  -1.261  0.00  0.00     0.029 A 
ATOM      9  C7A BZF d   1       0.465  -2.317  -0.740  0.00  0.00     0.058 A 
ENDROOT
TORSDOF 0
ENDMDL
