MODEL 1
REMARK minimizedAffinity 2.69048858
REMARK minimizedRMSD -1
REMARK  0 active torsions:
REMARK  status: ('A' for Active; 'I' for Inactive)
ROOT
ATOM      1  O1  BZF d   1       2.287  -2.621  -1.789  0.00  0.00    -0.204 OA
ATOM      2  C2  BZF d   1       3.363  -2.680  -2.654  0.00  0.00     0.174 A 
ATOM      3  C3  BZF d   1       4.028  -1.507  -2.672  0.00  0.00    -0.012 A 
ATOM      4  C3A BZF d   1       3.379  -0.692  -1.692  0.00  0.00    -0.107 A 
ATOM      5  C4  BZF d   1       3.592   0.578  -1.238  0.00  0.00     0.055 A 
ATOM      6  C5  BZF d   1       2.733   1.106  -0.326  0.00  0.00    -0.016 A 
ATOM      7  C6  BZF d   1       1.650   0.395   0.148  0.00  0.00     0.022 A 
ATOM      8  C7  BZF d   1       1.401  -0.870  -0.269  0.00  0.00     0.029 A 
ATOM      9  C7A BZF d   1       2.286  -1.418  -1.166  0.00  0.00     0.058 A 
ENDROOT
TORSDOF 0
ENDMDL
