MODEL 1
REMARK minimizedAffinity 11.0373268
REMARK minimizedRMSD -1
REMARK  0 active torsions:
REMARK  status: ('A' for Active; 'I' for Inactive)
ROOT
ATOM      1  O1  BZF d   1       4.307   1.802  -3.304  0.00  0.00    -0.204 OA
ATOM      2  C2  BZF d   1       4.223   2.808  -2.361  0.00  0.00     0.174 A 
ATOM      3  C3  BZF d   1       3.698   2.341  -1.210  0.00  0.00    -0.012 A 
ATOM      4  C3A BZF d   1       3.524   0.936  -1.418  0.00  0.00    -0.107 A 
ATOM      5  C4  BZF d   1       3.056  -0.078  -0.633  0.00  0.00     0.055 A 
ATOM      6  C5  BZF d   1       2.946  -1.326  -1.161  0.00  0.00    -0.016 A 
ATOM      7  C6  BZF d   1       3.290  -1.592  -2.470  0.00  0.00     0.022 A 
ATOM      8  C7  BZF d   1       3.763  -0.619  -3.286  0.00  0.00     0.029 A 
ATOM      9  C7A BZF d   1       3.906   0.635  -2.746  0.00  0.00     0.058 A 
ENDROOT
TORSDOF 0
ENDMDL
