MODEL 1
REMARK minimizedAffinity 15.2495718
REMARK minimizedRMSD -1
REMARK  0 active torsions:
REMARK  status: ('A' for Active; 'I' for Inactive)
ROOT
ATOM      1  O1  BZF d   1       2.907   0.991   2.201  0.00  0.00    -0.204 OA
ATOM      2  C2  BZF d   1       3.350   2.228   2.627  0.00  0.00     0.174 A 
ATOM      3  C3  BZF d   1       3.797   2.960   1.586  0.00  0.00    -0.012 A 
ATOM      4  C3A BZF d   1       3.538   2.163   0.427  0.00  0.00    -0.107 A 
ATOM      5  C4  BZF d   1       3.744   2.355  -0.910  0.00  0.00     0.055 A 
ATOM      6  C5  BZF d   1       3.447   1.350  -1.775  0.00  0.00    -0.016 A 
ATOM      7  C6  BZF d   1       2.946   0.141  -1.338  0.00  0.00     0.022 A 
ATOM      8  C7  BZF d   1       2.720  -0.094  -0.023  0.00  0.00     0.029 A 
ATOM      9  C7A BZF d   1       2.989   0.931   0.851  0.00  0.00     0.058 A 
ENDROOT
TORSDOF 0
ENDMDL
