MODEL 1
REMARK minimizedAffinity 7.71704245
REMARK minimizedRMSD -1
REMARK  0 active torsions:
REMARK  status: ('A' for Active; 'I' for Inactive)
ROOT
ATOM      1  O1  BZF d   1       4.949   3.134   0.851  0.00  0.00    -0.204 OA
ATOM      2  C2  BZF d   1       4.546   2.942   2.159  0.00  0.00     0.174 A 
ATOM      3  C3  BZF d   1       3.620   1.964   2.235  0.00  0.00    -0.012 A 
ATOM      4  C3A BZF d   1       3.500   1.455   0.904  0.00  0.00    -0.107 A 
ATOM      5  C4  BZF d   1       2.749   0.462   0.343  0.00  0.00     0.055 A 
ATOM      6  C5  BZF d   1       2.811   0.266  -1.001  0.00  0.00    -0.016 A 
ATOM      7  C6  BZF d   1       3.608   1.046  -1.812  0.00  0.00     0.022 A 
ATOM      8  C7  BZF d   1       4.375   2.039  -1.301  0.00  0.00     0.029 A 
ATOM      9  C7A BZF d   1       4.340   2.219   0.060  0.00  0.00     0.058 A 
ENDROOT
TORSDOF 0
ENDMDL
