MODEL 1
REMARK minimizedAffinity 8.09562016
REMARK minimizedRMSD -1
REMARK  0 active torsions:
REMARK  status: ('A' for Active; 'I' for Inactive)
ROOT
ATOM      1  O1  BZF d   1      -2.478  -0.089  -0.115  0.00  0.00    -0.204 OA
ATOM      2  C2  BZF d   1      -1.627  -0.039  -1.202  0.00  0.00     0.174 A 
ATOM      3  C3  BZF d   1      -2.300   0.298  -2.321  0.00  0.00    -0.012 A 
ATOM      4  C3A BZF d   1      -3.639   0.559  -1.891  0.00  0.00    -0.107 A 
ATOM      5  C4  BZF d   1      -4.775   0.952  -2.540  0.00  0.00     0.055 A 
ATOM      6  C5  BZF d   1      -5.936   1.046  -1.841  0.00  0.00    -0.016 A 
ATOM      7  C6  BZF d   1      -6.000   0.750  -0.495  0.00  0.00     0.022 A 
ATOM      8  C7  BZF d   1      -4.899   0.361   0.193  0.00  0.00     0.029 A 
ATOM      9  C7A BZF d   1      -3.717   0.297  -0.503  0.00  0.00     0.058 A 
ENDROOT
TORSDOF 0
ENDMDL
