MODEL 1
REMARK minimizedAffinity 1.04713023
REMARK minimizedRMSD -1
REMARK  0 active torsions:
REMARK  status: ('A' for Active; 'I' for Inactive)
ROOT
ATOM      1  C   UNL d   1       0.608  -0.101   0.125  0.00  0.00     0.172 C 
ATOM      2  N   UNL d   1       1.880   0.549  -0.091  0.00  0.00    -0.070 N 
ATOM      3  C1  UNL d   1       2.250   1.766   0.416  0.00  0.00    -0.004 A 
ATOM      4  C2  UNL d   1       3.532   2.030  -0.017  0.00  0.00    -0.047 A 
ATOM      5  C3  UNL d   1       3.945   0.934  -0.811  0.00  0.00    -0.047 A 
ATOM      6  C4  UNL d   1       2.903   0.032  -0.840  0.00  0.00    -0.004 A 
ENDROOT
TORSDOF 0
ENDMDL
