MODEL 1
REMARK minimizedAffinity -2.08457541
REMARK minimizedRMSD -1
REMARK  0 active torsions:
REMARK  status: ('A' for Active; 'I' for Inactive)
ROOT
ATOM      1  C   UNL d   1       3.868  -1.520  -2.459  0.00  0.00     0.172 C 
ATOM      2  N   UNL d   1       3.669  -1.232  -1.058  0.00  0.00    -0.070 N 
ATOM      3  C1  UNL d   1       2.773  -1.859  -0.234  0.00  0.00    -0.004 A 
ATOM      4  C2  UNL d   1       2.890  -1.300   1.020  0.00  0.00    -0.047 A 
ATOM      5  C3  UNL d   1       3.890  -0.302   0.947  0.00  0.00    -0.047 A 
ATOM      6  C4  UNL d   1       4.356  -0.281  -0.351  0.00  0.00    -0.004 A 
ENDROOT
TORSDOF 0
ENDMDL
