MODEL 1
REMARK minimizedAffinity 1.00985146
REMARK minimizedRMSD -1
REMARK  0 active torsions:
REMARK  status: ('A' for Active; 'I' for Inactive)
ROOT
ATOM      1  C   UNL d   1       2.567  -1.936   0.173  0.00  0.00     0.172 C 
ATOM      2  N   UNL d   1       2.888  -0.545   0.390  0.00  0.00    -0.070 N 
ATOM      3  C1  UNL d   1       4.148  -0.031   0.543  0.00  0.00    -0.004 A 
ATOM      4  C2  UNL d   1       4.030   1.330   0.727  0.00  0.00    -0.047 A 
ATOM      5  C3  UNL d   1       2.650   1.644   0.685  0.00  0.00    -0.047 A 
ATOM      6  C4  UNL d   1       1.967   0.465   0.475  0.00  0.00    -0.004 A 
ENDROOT
TORSDOF 0
ENDMDL
