MODEL 1
REMARK minimizedAffinity 1.11133468
REMARK minimizedRMSD -1
REMARK  0 active torsions:
REMARK  status: ('A' for Active; 'I' for Inactive)
ROOT
ATOM      1  C   UNL d   1       2.174   2.238   3.524  0.00  0.00     0.172 C 
ATOM      2  N   UNL d   1       1.500   1.406   4.492  0.00  0.00    -0.070 N 
ATOM      3  C1  UNL d   1       0.190   1.527   4.875  0.00  0.00    -0.004 A 
ATOM      4  C2  UNL d   1      -0.068   0.551   5.812  0.00  0.00    -0.047 A 
ATOM      5  C3  UNL d   1       1.128  -0.182   6.000  0.00  0.00    -0.047 A 
ATOM      6  C4  UNL d   1       2.082   0.369   5.171  0.00  0.00    -0.004 A 
ENDROOT
TORSDOF 0
ENDMDL
