MODEL 1
REMARK minimizedAffinity 5.33985329
REMARK minimizedRMSD -1
REMARK  1 active torsions:
REMARK  status: ('A' for Active; 'I' for Inactive)
REMARK    1  A    between atoms: N_2  and  C1_3 
ROOT
ATOM      1  C1  UNL d   1       0.862   0.034   1.484  0.00  0.00     0.143 A 
ATOM      2  C2  UNL d   1       0.023   0.665   2.408  0.00  0.00    -0.057 A 
ATOM      3  C3  UNL d   1      -0.946  -0.053   3.119  0.00  0.00     0.033 A 
ATOM      4  C4  UNL d   1      -1.113  -1.416   2.895  0.00  0.00    -0.042 A 
ATOM      5  C5  UNL d   1      -0.308  -2.060   1.963  0.00  0.00     0.033 A 
ATOM      6  C6  UNL d   1       0.663  -1.338   1.261  0.00  0.00    -0.057 A 
ENDROOT
BRANCH   1   7
ATOM      7  N   UNL d   1       1.777   0.711   0.675  0.00  0.00    -0.732 N 
ATOM      8  C   UNL d   1       1.964   0.327  -0.708  0.00  0.00     0.284 C 
ATOM      9  H3  UNL d   1       1.761   1.717   0.828  0.00  0.00     0.395 HD
ENDBRANCH   1   7
TORSDOF 1
ENDMDL
