MODEL 1
REMARK minimizedAffinity 6.15414047
REMARK minimizedRMSD -1
REMARK  1 active torsions:
REMARK  status: ('A' for Active; 'I' for Inactive)
REMARK    1  A    between atoms: N_2  and  C1_3 
ROOT
ATOM      1  C1  UNL d   1       5.300   4.114   4.354  0.00  0.00     0.143 A 
ATOM      2  C2  UNL d   1       6.000   5.089   5.073  0.00  0.00    -0.057 A 
ATOM      3  C3  UNL d   1       5.331   6.000   5.900  0.00  0.00     0.033 A 
ATOM      4  C4  UNL d   1       3.944   5.970   6.000  0.00  0.00    -0.042 A 
ATOM      5  C5  UNL d   1       3.227   5.025   5.274  0.00  0.00     0.033 A 
ATOM      6  C6  UNL d   1       3.900   4.114   4.455  0.00  0.00    -0.057 A 
ENDROOT
BRANCH   1   7
ATOM      7  N   UNL d   1       5.899   3.244   3.439  0.00  0.00    -0.732 N 
ATOM      8  C   UNL d   1       5.221   2.884   2.212  0.00  0.00     0.284 C 
ATOM      9  H3  UNL d   1       6.894   3.422   3.327  0.00  0.00     0.395 HD
ENDBRANCH   1   7
TORSDOF 1
ENDMDL
