MODEL 1
REMARK minimizedAffinity 6.13108158
REMARK minimizedRMSD -1
REMARK  1 active torsions:
REMARK  status: ('A' for Active; 'I' for Inactive)
REMARK    1  A    between atoms: N_2  and  C1_3 
ROOT
ATOM      1  C1  UNL d   1      -0.078  -0.885   3.867  0.00  0.00     0.143 A 
ATOM      2  C2  UNL d   1       1.272  -1.063   4.184  0.00  0.00    -0.057 A 
ATOM      3  C3  UNL d   1       2.247  -1.156   3.183  0.00  0.00     0.033 A 
ATOM      4  C4  UNL d   1       1.882  -1.101   1.842  0.00  0.00    -0.042 A 
ATOM      5  C5  UNL d   1       0.543  -0.950   1.503  0.00  0.00     0.033 A 
ATOM      6  C6  UNL d   1      -0.425  -0.851   2.507  0.00  0.00    -0.057 A 
ENDROOT
BRANCH   1   7
ATOM      7  N   UNL d   1      -1.106  -0.884   4.813  0.00  0.00    -0.732 N 
ATOM      8  C   UNL d   1      -2.083  -1.951   4.841  0.00  0.00     0.284 C 
ATOM      9  H3  UNL d   1      -0.787  -0.589   5.733  0.00  0.00     0.395 HD
ENDBRANCH   1   7
TORSDOF 1
ENDMDL
