MODEL 1
REMARK minimizedAffinity 9.45737362
REMARK minimizedRMSD -1
REMARK  1 active torsions:
REMARK  status: ('A' for Active; 'I' for Inactive)
REMARK    1  A    between atoms: N_2  and  C1_3 
ROOT
ATOM      1  C1  UNL d   1       3.428   5.299   4.820  0.00  0.00     0.143 A 
ATOM      2  C2  UNL d   1       4.318   5.854   5.746  0.00  0.00    -0.057 A 
ATOM      3  C3  UNL d   1       5.578   5.286   5.971  0.00  0.00     0.033 A 
ATOM      4  C4  UNL d   1       5.959   4.133   5.293  0.00  0.00    -0.042 A 
ATOM      5  C5  UNL d   1       5.080   3.550   4.387  0.00  0.00     0.033 A 
ATOM      6  C6  UNL d   1       3.826   4.126   4.162  0.00  0.00    -0.057 A 
ENDROOT
BRANCH   1   7
ATOM      7  N   UNL d   1       2.123   5.760   4.624  0.00  0.00    -0.732 N 
ATOM      8  C   UNL d   1       1.248   5.997   5.751  0.00  0.00     0.284 C 
ATOM      9  H3  UNL d   1       2.067   6.470   3.898  0.00  0.00     0.395 HD
ENDBRANCH   1   7
TORSDOF 1
ENDMDL
