MODEL 1
REMARK minimizedAffinity 2.66850066
REMARK minimizedRMSD -1
REMARK  1 active torsions:
REMARK  status: ('A' for Active; 'I' for Inactive)
REMARK    1  A    between atoms: N_2  and  C1_3 
ROOT
ATOM      1  C1  UNL d   1       3.653   5.271   4.917  0.00  0.00     0.143 A 
ATOM      2  C2  UNL d   1       4.841   6.000   5.045  0.00  0.00    -0.057 A 
ATOM      3  C3  UNL d   1       6.000   5.413   5.567  0.00  0.00     0.033 A 
ATOM      4  C4  UNL d   1       5.983   4.091   6.000  0.00  0.00    -0.042 A 
ATOM      5  C5  UNL d   1       4.808   3.356   5.905  0.00  0.00     0.033 A 
ATOM      6  C6  UNL d   1       3.655   3.945   5.377  0.00  0.00    -0.057 A 
ENDROOT
BRANCH   1   7
ATOM      7  N   UNL d   1       2.442   5.826   4.498  0.00  0.00    -0.732 N 
ATOM      8  C   UNL d   1       1.348   5.999   5.430  0.00  0.00     0.284 C 
ATOM      9  H3  UNL d   1       2.573   6.608   3.861  0.00  0.00     0.395 HD
ENDBRANCH   1   7
TORSDOF 1
ENDMDL
