MODEL 1
REMARK minimizedAffinity 8.29147053
REMARK minimizedRMSD -1
REMARK  1 active torsions:
REMARK  status: ('A' for Active; 'I' for Inactive)
REMARK    1  A    between atoms: N_2  and  C1_3 
ROOT
ATOM      1  C1  UNL d   1       5.157   3.725   3.902  0.00  0.00     0.143 A 
ATOM      2  C2  UNL d   1       5.194   5.111   3.715  0.00  0.00    -0.057 A 
ATOM      3  C3  UNL d   1       4.650   5.986   4.663  0.00  0.00     0.033 A 
ATOM      4  C4  UNL d   1       4.031   5.487   5.804  0.00  0.00    -0.042 A 
ATOM      5  C5  UNL d   1       3.961   4.112   5.998  0.00  0.00     0.033 A 
ATOM      6  C6  UNL d   1       4.512   3.244   5.052  0.00  0.00    -0.057 A 
ENDROOT
BRANCH   1   7
ATOM      7  N   UNL d   1       5.593   2.799   2.950  0.00  0.00    -0.732 N 
ATOM      8  C   UNL d   1       5.522   3.107   1.537  0.00  0.00     0.284 C 
ATOM      9  H3  UNL d   1       6.449   2.327   3.230  0.00  0.00     0.395 HD
ENDBRANCH   1   7
TORSDOF 1
ENDMDL
