MODEL 1
REMARK minimizedAffinity 10.4245262
REMARK minimizedRMSD -1
REMARK  1 active torsions:
REMARK  status: ('A' for Active; 'I' for Inactive)
REMARK    1  A    between atoms: N_2  and  C1_3 
ROOT
ATOM      1  C1  UNL d   1       5.061   3.897   4.133  0.00  0.00     0.143 A 
ATOM      2  C2  UNL d   1       5.992   4.939   4.207  0.00  0.00    -0.057 A 
ATOM      3  C3  UNL d   1       5.852   5.973   5.140  0.00  0.00     0.033 A 
ATOM      4  C4  UNL d   1       4.758   5.999   5.999  0.00  0.00    -0.042 A 
ATOM      5  C5  UNL d   1       3.807   4.988   5.926  0.00  0.00     0.033 A 
ATOM      6  C6  UNL d   1       3.956   3.954   4.997  0.00  0.00    -0.057 A 
ENDROOT
BRANCH   1   7
ATOM      7  N   UNL d   1       5.092   2.893   3.162  0.00  0.00    -0.732 N 
ATOM      8  C   UNL d   1       5.129   3.230   1.755  0.00  0.00     0.284 C 
ATOM      9  H3  UNL d   1       5.703   2.122   3.420  0.00  0.00     0.395 HD
ENDBRANCH   1   7
TORSDOF 1
ENDMDL
