MODEL 1
REMARK minimizedAffinity -0.498545229
REMARK minimizedRMSD -1
REMARK  1 active torsions:
REMARK  status: ('A' for Active; 'I' for Inactive)
REMARK    1  A    between atoms: N_2  and  C1_3 
ROOT
ATOM      1  C1  UNL d   1       4.904   3.887   5.049  0.00  0.00     0.143 A 
ATOM      2  C2  UNL d   1       4.819   5.214   4.613  0.00  0.00    -0.057 A 
ATOM      3  C3  UNL d   1       3.691   5.997   4.887  0.00  0.00     0.033 A 
ATOM      4  C4  UNL d   1       2.613   5.456   5.579  0.00  0.00    -0.042 A 
ATOM      5  C5  UNL d   1       2.665   4.132   6.000  0.00  0.00     0.033 A 
ATOM      6  C6  UNL d   1       3.797   3.357   5.729  0.00  0.00    -0.057 A 
ENDROOT
BRANCH   1   7
ATOM      7  N   UNL d   1       5.956   3.028   4.723  0.00  0.00    -0.732 N 
ATOM      8  C   UNL d   1       5.885   2.188   3.547  0.00  0.00     0.284 C 
ATOM      9  H3  UNL d   1       6.867   3.454   4.874  0.00  0.00     0.395 HD
ENDBRANCH   1   7
TORSDOF 1
ENDMDL
