MODEL 1
REMARK minimizedAffinity 3.82638884
REMARK minimizedRMSD -1
REMARK  1 active torsions:
REMARK  status: ('A' for Active; 'I' for Inactive)
REMARK    1  A    between atoms: N_2  and  C1_3 
ROOT
ATOM      1  C1  UNL d   1      -1.490   0.720  -2.502  0.00  0.00     0.143 A 
ATOM      2  C2  UNL d   1      -2.820   0.737  -2.068  0.00  0.00    -0.057 A 
ATOM      3  C3  UNL d   1      -3.331  -0.280  -1.253  0.00  0.00     0.033 A 
ATOM      4  C4  UNL d   1      -2.525  -1.351  -0.879  0.00  0.00    -0.042 A 
ATOM      5  C5  UNL d   1      -1.208  -1.401  -1.319  0.00  0.00     0.033 A 
ATOM      6  C6  UNL d   1      -0.702  -0.379  -2.128  0.00  0.00    -0.057 A 
ENDROOT
BRANCH   1   7
ATOM      7  N   UNL d   1      -0.952   1.650  -3.394  0.00  0.00    -0.732 N 
ATOM      8  C   UNL d   1      -1.686   2.847  -3.745  0.00  0.00     0.284 C 
ATOM      9  H3  UNL d   1       0.043   1.802  -3.243  0.00  0.00     0.395 HD
ENDBRANCH   1   7
TORSDOF 1
ENDMDL
