MODEL 1
REMARK minimizedAffinity 1.37372029
REMARK minimizedRMSD -1
REMARK  1 active torsions:
REMARK  status: ('A' for Active; 'I' for Inactive)
REMARK    1  A    between atoms: N_2  and  C1_3 
ROOT
ATOM      1  C1  UNL d   1       5.235  -0.483  -2.100  0.00  0.00     0.143 A 
ATOM      2  C2  UNL d   1       5.246  -0.662  -0.712  0.00  0.00    -0.057 A 
ATOM      3  C3  UNL d   1       5.601   0.381   0.152  0.00  0.00     0.033 A 
ATOM      4  C4  UNL d   1       5.980   1.618  -0.360  0.00  0.00    -0.042 A 
ATOM      5  C5  UNL d   1       6.000   1.811  -1.737  0.00  0.00     0.033 A 
ATOM      6  C6  UNL d   1       5.638   0.767  -2.594  0.00  0.00    -0.057 A 
ENDROOT
BRANCH   1   7
ATOM      7  N   UNL d   1       4.987  -1.509  -3.014  0.00  0.00    -0.732 N 
ATOM      8  C   UNL d   1       5.988  -1.885  -3.990  0.00  0.00     0.284 C 
ATOM      9  H3  UNL d   1       4.502  -2.298  -2.592  0.00  0.00     0.395 HD
ENDBRANCH   1   7
TORSDOF 1
ENDMDL
