MODEL 1
REMARK minimizedAffinity -2.73244929
REMARK minimizedRMSD -1
REMARK  1 active torsions:
REMARK  status: ('A' for Active; 'I' for Inactive)
REMARK    1  A    between atoms: N_2  and  C1_3 
ROOT
ATOM      1  C1  UNL d   1      -0.918   0.001  -0.770  0.00  0.00     0.143 A 
ATOM      2  C2  UNL d   1      -0.995   0.339   0.585  0.00  0.00    -0.057 A 
ATOM      3  C3  UNL d   1      -2.187   0.187   1.305  0.00  0.00     0.033 A 
ATOM      4  C4  UNL d   1      -3.334  -0.279   0.671  0.00  0.00    -0.042 A 
ATOM      5  C5  UNL d   1      -3.287  -0.597  -0.682  0.00  0.00     0.033 A 
ATOM      6  C6  UNL d   1      -2.092  -0.450  -1.393  0.00  0.00    -0.057 A 
ENDROOT
BRANCH   1   7
ATOM      7  N   UNL d   1       0.211   0.222  -1.563  0.00  0.00    -0.732 N 
ATOM      8  C   UNL d   1       0.081   0.795  -2.886  0.00  0.00     0.284 C 
ATOM      9  H3  UNL d   1       0.997   0.583  -1.028  0.00  0.00     0.395 HD
ENDBRANCH   1   7
TORSDOF 1
ENDMDL
