MODEL 1
REMARK minimizedAffinity -3.08794928
REMARK minimizedRMSD -1
REMARK  1 active torsions:
REMARK  status: ('A' for Active; 'I' for Inactive)
REMARK    1  A    between atoms: N_2  and  C1_3 
ROOT
ATOM      1  C1  UNL d   1      -0.376  -0.609   0.721  0.00  0.00     0.143 A 
ATOM      2  C2  UNL d   1      -1.309  -0.221  -0.247  0.00  0.00    -0.057 A 
ATOM      3  C3  UNL d   1      -2.499  -0.935  -0.435  0.00  0.00     0.033 A 
ATOM      4  C4  UNL d   1      -2.764  -2.070   0.324  0.00  0.00    -0.042 A 
ATOM      5  C5  UNL d   1      -1.839  -2.488   1.274  0.00  0.00     0.033 A 
ATOM      6  C6  UNL d   1      -0.656  -1.767   1.462  0.00  0.00    -0.057 A 
ENDROOT
BRANCH   1   7
ATOM      7  N   UNL d   1       0.869   0.002   0.888  0.00  0.00    -0.732 N 
ATOM      8  C   UNL d   1       1.617   0.478  -0.256  0.00  0.00     0.284 C 
ATOM      9  H3  UNL d   1       0.890   0.629   1.689  0.00  0.00     0.395 HD
ENDBRANCH   1   7
TORSDOF 1
ENDMDL
