MODEL 1
REMARK minimizedAffinity -2.02532363
REMARK minimizedRMSD -1
REMARK  1 active torsions:
REMARK  status: ('A' for Active; 'I' for Inactive)
REMARK    1  A    between atoms: C1_2  and  C2_3 
ROOT
ATOM      1  C2  UNL d   1       3.493  -0.802  -1.067  0.00  0.00    -0.077 A 
ATOM      2  C3  UNL d   1       3.132   0.551  -1.121  0.00  0.00     0.002 A 
ATOM      3  C4  UNL d   1       1.986   1.003  -0.463  0.00  0.00     0.002 A 
ATOM      4  C5  UNL d   1       1.195   0.109   0.256  0.00  0.00    -0.004 A 
ATOM      5  C6  UNL d   1       1.545  -1.239   0.314  0.00  0.00     0.002 A 
ATOM      6  C7  UNL d   1       2.690  -1.693  -0.344  0.00  0.00     0.002 A 
ENDROOT
BRANCH   1   7
ATOM      7  C1  UNL d   1       4.755  -1.282  -1.735  0.00  0.00     0.055 C 
ATOM      8  C   UNL d   1       5.316  -0.230  -2.681  0.00  0.00     0.019 C 
ENDBRANCH   1   7
TORSDOF 1
ENDMDL
