MODEL 1
REMARK minimizedAffinity -3.40287828
REMARK minimizedRMSD -1
REMARK  1 active torsions:
REMARK  status: ('A' for Active; 'I' for Inactive)
REMARK    1  A    between atoms: C1_2  and  C2_3 
ROOT
ATOM      1  C2  UNL d   1       2.174  -0.128  -0.457  0.00  0.00    -0.077 A 
ATOM      2  C3  UNL d   1       2.768  -1.366  -0.172  0.00  0.00     0.002 A 
ATOM      3  C4  UNL d   1       3.884  -1.796  -0.892  0.00  0.00     0.002 A 
ATOM      4  C5  UNL d   1       4.418  -0.994  -1.898  0.00  0.00    -0.004 A 
ATOM      5  C6  UNL d   1       3.834   0.238  -2.190  0.00  0.00     0.002 A 
ATOM      6  C7  UNL d   1       2.718   0.669  -1.472  0.00  0.00     0.002 A 
ENDROOT
BRANCH   1   7
ATOM      7  C1  UNL d   1       1.001   0.360   0.352  0.00  0.00     0.055 C 
ATOM      8  C   UNL d   1       0.589  -0.662   1.401  0.00  0.00     0.019 C 
ENDBRANCH   1   7
TORSDOF 1
ENDMDL
