MODEL 1
REMARK minimizedAffinity -3.79337597
REMARK minimizedRMSD -1
REMARK  1 active torsions:
REMARK  status: ('A' for Active; 'I' for Inactive)
REMARK    1  A    between atoms: C1_2  and  C2_3 
ROOT
ATOM      1  C2  UNL d   1       1.467  -0.711  -0.010  0.00  0.00    -0.077 A 
ATOM      2  C3  UNL d   1       2.395  -1.532  -0.665  0.00  0.00     0.002 A 
ATOM      3  C4  UNL d   1       3.498  -0.973  -1.314  0.00  0.00     0.002 A 
ATOM      4  C5  UNL d   1       3.685   0.408  -1.310  0.00  0.00    -0.004 A 
ATOM      5  C6  UNL d   1       2.766   1.233  -0.662  0.00  0.00     0.002 A 
ATOM      6  C7  UNL d   1       1.663   0.676  -0.014  0.00  0.00     0.002 A 
ENDROOT
BRANCH   1   7
ATOM      7  C1  UNL d   1       0.304  -1.316   0.732  0.00  0.00     0.055 C 
ATOM      8  C   UNL d   1      -0.148  -0.421   1.877  0.00  0.00     0.019 C 
ENDBRANCH   1   7
TORSDOF 1
ENDMDL
