MODEL 1
REMARK minimizedAffinity -3.21071768
REMARK minimizedRMSD -1
REMARK  1 active torsions:
REMARK  status: ('A' for Active; 'I' for Inactive)
REMARK    1  A    between atoms: C1_2  and  C2_3 
ROOT
ATOM      1  C2  UNL d   1       1.994   0.087  -0.299  0.00  0.00    -0.077 A 
ATOM      2  C3  UNL d   1       2.700   1.101  -0.961  0.00  0.00     0.002 A 
ATOM      3  C4  UNL d   1       3.851   0.800  -1.691  0.00  0.00     0.002 A 
ATOM      4  C5  UNL d   1       4.304  -0.516  -1.770  0.00  0.00    -0.004 A 
ATOM      5  C6  UNL d   1       3.610  -1.531  -1.113  0.00  0.00     0.002 A 
ATOM      6  C7  UNL d   1       2.460  -1.231  -0.382  0.00  0.00     0.002 A 
ENDROOT
BRANCH   1   7
ATOM      7  C1  UNL d   1       0.725   0.403   0.449  0.00  0.00     0.055 C 
ATOM      8  C   UNL d   1       0.145  -0.841   1.106  0.00  0.00     0.019 C 
ENDBRANCH   1   7
TORSDOF 1
ENDMDL
