MODEL 1
REMARK minimizedAffinity -4.57390833
REMARK minimizedRMSD -1
REMARK  1 active torsions:
REMARK  status: ('A' for Active; 'I' for Inactive)
REMARK    1  A    between atoms: C1_2  and  C2_3 
ROOT
ATOM      1  C2  UNL d   1       1.814   0.010  -0.433  0.00  0.00    -0.077 A 
ATOM      2  C3  UNL d   1       1.970   1.291  -0.980  0.00  0.00     0.002 A 
ATOM      3  C4  UNL d   1       3.012   1.555  -1.871  0.00  0.00     0.002 A 
ATOM      4  C5  UNL d   1       3.902   0.544  -2.225  0.00  0.00    -0.004 A 
ATOM      5  C6  UNL d   1       3.756  -0.733  -1.684  0.00  0.00     0.002 A 
ATOM      6  C7  UNL d   1       2.716  -0.999  -0.793  0.00  0.00     0.002 A 
ENDROOT
BRANCH   1   7
ATOM      7  C1  UNL d   1       0.661  -0.290   0.490  0.00  0.00     0.055 C 
ATOM      8  C   UNL d   1       1.109  -1.124   1.682  0.00  0.00     0.019 C 
ENDBRANCH   1   7
TORSDOF 1
ENDMDL
