MODEL 1
REMARK minimizedAffinity 1.56649685
REMARK minimizedRMSD -1
REMARK  1 active torsions:
REMARK  status: ('A' for Active; 'I' for Inactive)
REMARK    1  A    between atoms: C1_2  and  C2_3 
ROOT
ATOM      1  C2  UNL d   1       2.185   0.315  -0.375  0.00  0.00    -0.077 A 
ATOM      2  C3  UNL d   1       3.215  -0.311  -1.091  0.00  0.00     0.002 A 
ATOM      3  C4  UNL d   1       3.179  -1.687  -1.322  0.00  0.00     0.002 A 
ATOM      4  C5  UNL d   1       2.114  -2.448  -0.845  0.00  0.00    -0.004 A 
ATOM      5  C6  UNL d   1       1.086  -1.836  -0.131  0.00  0.00     0.002 A 
ATOM      6  C7  UNL d   1       1.120  -0.460   0.103  0.00  0.00     0.002 A 
ENDROOT
BRANCH   1   7
ATOM      7  C1  UNL d   1       2.197   1.807  -0.166  0.00  0.00     0.055 C 
ATOM      8  C   UNL d   1       1.941   2.164   1.291  0.00  0.00     0.019 C 
ENDBRANCH   1   7
TORSDOF 1
ENDMDL
