MODEL 1
REMARK minimizedAffinity -3.24638343
REMARK minimizedRMSD -1
REMARK  1 active torsions:
REMARK  status: ('A' for Active; 'I' for Inactive)
REMARK    1  A    between atoms: C1_2  and  C2_3 
ROOT
ATOM      1  C2  UNL d   1       1.604   0.987  -0.266  0.00  0.00    -0.077 A 
ATOM      2  C3  UNL d   1       0.672   0.533   0.678  0.00  0.00     0.002 A 
ATOM      3  C4  UNL d   1       0.726  -0.781   1.148  0.00  0.00     0.002 A 
ATOM      4  C5  UNL d   1       1.711  -1.649   0.683  0.00  0.00    -0.004 A 
ATOM      5  C6  UNL d   1       2.641  -1.208  -0.257  0.00  0.00     0.002 A 
ATOM      6  C7  UNL d   1       2.588   0.104  -0.729  0.00  0.00     0.002 A 
ENDROOT
BRANCH   1   7
ATOM      7  C1  UNL d   1       1.578   2.417  -0.737  0.00  0.00     0.055 C 
ATOM      8  C   UNL d   1       1.866   3.382   0.404  0.00  0.00     0.019 C 
ENDBRANCH   1   7
TORSDOF 1
ENDMDL
