MODEL 1
REMARK minimizedAffinity -2.80583668
REMARK minimizedRMSD -1
REMARK  1 active torsions:
REMARK  status: ('A' for Active; 'I' for Inactive)
REMARK    1  A    between atoms: C1_2  and  C2_3 
ROOT
ATOM      1  C2  UNL d   1       0.069  -1.158   1.156  0.00  0.00    -0.077 A 
ATOM      2  C3  UNL d   1       0.598  -2.440   1.359  0.00  0.00     0.002 A 
ATOM      3  C4  UNL d   1       1.790  -2.819   0.738  0.00  0.00     0.002 A 
ATOM      4  C5  UNL d   1       2.465  -1.920  -0.085  0.00  0.00    -0.004 A 
ATOM      5  C6  UNL d   1       1.946  -0.643  -0.294  0.00  0.00     0.002 A 
ATOM      6  C7  UNL d   1       0.754  -0.263   0.324  0.00  0.00     0.002 A 
ENDROOT
BRANCH   1   7
ATOM      7  C1  UNL d   1      -1.191  -0.731   1.863  0.00  0.00     0.055 C 
ATOM      8  C   UNL d   1      -2.381  -1.575   1.432  0.00  0.00     0.019 C 
ENDBRANCH   1   7
TORSDOF 1
ENDMDL
