MODEL 1
REMARK minimizedAffinity -4.49098349
REMARK minimizedRMSD -1
REMARK  1 active torsions:
REMARK  status: ('A' for Active; 'I' for Inactive)
REMARK    1  A    between atoms: C1_2  and  C2_3 
ROOT
ATOM      1  C2  UNL d   1       3.015  -0.686  -0.984  0.00  0.00    -0.077 A 
ATOM      2  C3  UNL d   1       2.554   0.638  -0.974  0.00  0.00     0.002 A 
ATOM      3  C4  UNL d   1       1.452   0.996  -0.196  0.00  0.00     0.002 A 
ATOM      4  C5  UNL d   1       0.804   0.037   0.581  0.00  0.00    -0.004 A 
ATOM      5  C6  UNL d   1       1.253  -1.282   0.576  0.00  0.00     0.002 A 
ATOM      6  C7  UNL d   1       2.354  -1.643  -0.202  0.00  0.00     0.002 A 
ENDROOT
BRANCH   1   7
ATOM      7  C1  UNL d   1       4.234  -1.065  -1.784  0.00  0.00     0.055 C 
ATOM      8  C   UNL d   1       4.820   0.142  -2.504  0.00  0.00     0.019 C 
ENDBRANCH   1   7
TORSDOF 1
ENDMDL
