MODEL 1
REMARK minimizedAffinity -4.73744631
REMARK minimizedRMSD -1
REMARK  1 active torsions:
REMARK  status: ('A' for Active; 'I' for Inactive)
REMARK    1  A    between atoms: C1_2  and  C2_3 
ROOT
ATOM      1  C2  UNL d   1       3.112  -0.348  -1.306  0.00  0.00    -0.077 A 
ATOM      2  C3  UNL d   1       2.021   0.373  -0.802  0.00  0.00     0.002 A 
ATOM      3  C4  UNL d   1       1.141  -0.219   0.106  0.00  0.00     0.002 A 
ATOM      4  C5  UNL d   1       1.346  -1.533   0.522  0.00  0.00    -0.004 A 
ATOM      5  C6  UNL d   1       2.428  -2.259   0.025  0.00  0.00     0.002 A 
ATOM      6  C7  UNL d   1       3.307  -1.670  -0.884  0.00  0.00     0.002 A 
ENDROOT
BRANCH   1   7
ATOM      7  C1  UNL d   1       4.090   0.305  -2.248  0.00  0.00     0.055 C 
ATOM      8  C   UNL d   1       5.325  -0.560  -2.450  0.00  0.00     0.019 C 
ENDBRANCH   1   7
TORSDOF 1
ENDMDL
