MODEL 1
REMARK minimizedAffinity -3.34860349
REMARK minimizedRMSD -1
REMARK  1 active torsions:
REMARK  status: ('A' for Active; 'I' for Inactive)
REMARK    1  A    between atoms: C1_2  and  C2_3 
ROOT
ATOM      1  C2  UNL d   1       2.068  -1.858  -0.142  0.00  0.00    -0.077 A 
ATOM      2  C3  UNL d   1       1.131  -1.081   0.553  0.00  0.00     0.002 A 
ATOM      3  C4  UNL d   1       1.283   0.305   0.632  0.00  0.00     0.002 A 
ATOM      4  C5  UNL d   1       2.367   0.925   0.016  0.00  0.00    -0.004 A 
ATOM      5  C6  UNL d   1       3.306   0.160  -0.676  0.00  0.00     0.002 A 
ATOM      6  C7  UNL d   1       3.157  -1.225  -0.755  0.00  0.00     0.002 A 
ENDROOT
BRANCH   1   7
ATOM      7  C1  UNL d   1       1.880  -3.347  -0.270  0.00  0.00     0.055 C 
ATOM      8  C   UNL d   1       1.189  -3.925   0.957  0.00  0.00     0.019 C 
ENDBRANCH   1   7
TORSDOF 1
ENDMDL
