MODEL 1
REMARK minimizedAffinity -5.08410645
REMARK minimizedRMSD -1
REMARK  1 active torsions:
REMARK  status: ('A' for Active; 'I' for Inactive)
REMARK    1  A    between atoms: C1_2  and  C2_3 
ROOT
ATOM      1  C2  UNL d   1       3.029  -0.703  -1.145  0.00  0.00    -0.077 A 
ATOM      2  C3  UNL d   1       2.607   0.633  -1.173  0.00  0.00     0.002 A 
ATOM      3  C4  UNL d   1       1.531   1.051  -0.386  0.00  0.00     0.002 A 
ATOM      4  C5  UNL d   1       0.873   0.139   0.437  0.00  0.00    -0.004 A 
ATOM      5  C6  UNL d   1       1.283  -1.193   0.469  0.00  0.00     0.002 A 
ATOM      6  C7  UNL d   1       2.357  -1.612  -0.317  0.00  0.00     0.002 A 
ENDROOT
BRANCH   1   7
ATOM      7  C1  UNL d   1       4.219  -1.145  -1.956  0.00  0.00     0.055 C 
ATOM      8  C   UNL d   1       4.785   0.003  -2.779  0.00  0.00     0.019 C 
ENDBRANCH   1   7
TORSDOF 1
ENDMDL
