MODEL 1
REMARK minimizedAffinity -3.32882714
REMARK minimizedRMSD -1
REMARK  1 active torsions:
REMARK  status: ('A' for Active; 'I' for Inactive)
REMARK    1  A    between atoms: C1_2  and  C2_3 
ROOT
ATOM      1  C2  UNL d   1       2.640  -0.717  -0.615  0.00  0.00    -0.077 A 
ATOM      2  C3  UNL d   1       3.659  -1.401  -1.292  0.00  0.00     0.002 A 
ATOM      3  C4  UNL d   1       4.550  -0.708  -2.115  0.00  0.00     0.002 A 
ATOM      4  C5  UNL d   1       4.432   0.672  -2.265  0.00  0.00    -0.004 A 
ATOM      5  C6  UNL d   1       3.420   1.361  -1.597  0.00  0.00     0.002 A 
ATOM      6  C7  UNL d   1       2.529   0.670  -0.776  0.00  0.00     0.002 A 
ENDROOT
BRANCH   1   7
ATOM      7  C1  UNL d   1       1.709  -1.455   0.311  0.00  0.00     0.055 C 
ATOM      8  C   UNL d   1       1.089  -0.517   1.336  0.00  0.00     0.019 C 
ENDBRANCH   1   7
TORSDOF 1
ENDMDL
