MODEL 1
REMARK minimizedAffinity -3.83278489
REMARK minimizedRMSD -1
REMARK  1 active torsions:
REMARK  status: ('A' for Active; 'I' for Inactive)
REMARK    1  A    between atoms: C1_2  and  C2_3 
ROOT
ATOM      1  C2  UNL d   1       1.572  -0.562   0.024  0.00  0.00    -0.077 A 
ATOM      2  C3  UNL d   1       2.604  -1.460  -0.285  0.00  0.00     0.002 A 
ATOM      3  C4  UNL d   1       3.550  -1.140  -1.261  0.00  0.00     0.002 A 
ATOM      4  C5  UNL d   1       3.475   0.078  -1.933  0.00  0.00    -0.004 A 
ATOM      5  C6  UNL d   1       2.452   0.977  -1.635  0.00  0.00     0.002 A 
ATOM      6  C7  UNL d   1       1.505   0.658  -0.660  0.00  0.00     0.002 A 
ENDROOT
BRANCH   1   7
ATOM      7  C1  UNL d   1       0.581  -0.884   1.111  0.00  0.00     0.055 C 
ATOM      8  C   UNL d   1       0.701  -2.333   1.559  0.00  0.00     0.019 C 
ENDBRANCH   1   7
TORSDOF 1
ENDMDL
