MODEL 1
REMARK minimizedAffinity 15.2564011
REMARK minimizedRMSD -1
REMARK  1 active torsions:
REMARK  status: ('A' for Active; 'I' for Inactive)
REMARK    1  A    between atoms: C1_2  and  C2_3 
ROOT
ATOM      1  C2  UNL d   1      -1.929   1.889   2.659  0.00  0.00    -0.081 A 
ATOM      2  C3  UNL d   1      -1.299   2.867   1.880  0.00  0.00     0.006 A 
ATOM      3  C4  UNL d   1       0.009   2.679   1.429  0.00  0.00     0.002 A 
ATOM      4  C5  UNL d   1       0.707   1.507   1.742  0.00  0.00    -0.080 A 
ATOM      5  C6  UNL d   1       2.101   1.279   1.239  0.00  0.00     0.076 C 
ATOM      6  C7  UNL d   1       0.084   0.538   2.536  0.00  0.00     0.002 A 
ATOM      7  C8  UNL d   1      -1.224   0.726   2.988  0.00  0.00     0.006 A 
ENDROOT
BRANCH   1   8
ATOM      8  C1  UNL d   1      -3.362   2.061   3.093  0.00  0.00     0.054 C 
ATOM      9  C   UNL d   1      -4.083   0.722   3.162  0.00  0.00     0.018 C 
ENDBRANCH   1   8
TORSDOF 1
ENDMDL
