MODEL 1
REMARK minimizedAffinity 10.735652
REMARK minimizedRMSD -1
REMARK  1 active torsions:
REMARK  status: ('A' for Active; 'I' for Inactive)
REMARK    1  A    between atoms: C1_2  and  C2_3 
ROOT
ATOM      1  C2  UNL d   1       1.650   2.980   0.511  0.00  0.00    -0.081 A 
ATOM      2  C3  UNL d   1       1.862   2.746  -0.854  0.00  0.00     0.006 A 
ATOM      3  C4  UNL d   1       1.980   1.441  -1.339  0.00  0.00     0.002 A 
ATOM      4  C5  UNL d   1       1.879   0.349  -0.470  0.00  0.00    -0.080 A 
ATOM      5  C6  UNL d   1       1.973  -1.057  -0.982  0.00  0.00     0.076 C 
ATOM      6  C7  UNL d   1       1.684   0.583   0.896  0.00  0.00     0.002 A 
ATOM      7  C8  UNL d   1       1.567   1.888   1.381  0.00  0.00     0.006 A 
ENDROOT
BRANCH   1   8
ATOM      8  C1  UNL d   1       1.458   4.383   1.027  0.00  0.00     0.054 C 
ATOM      9  C   UNL d   1       2.783   5.125   1.118  0.00  0.00     0.018 C 
ENDBRANCH   1   8
TORSDOF 1
ENDMDL
