MODEL 1
REMARK minimizedAffinity 6.35247469
REMARK minimizedRMSD -1
REMARK  1 active torsions:
REMARK  status: ('A' for Active; 'I' for Inactive)
REMARK    1  A    between atoms: C1_2  and  C2_3 
ROOT
ATOM      1  C2  UNL d   1       1.740   2.284   1.364  0.00  0.00    -0.081 A 
ATOM      2  C3  UNL d   1       1.369   1.232   2.209  0.00  0.00     0.006 A 
ATOM      3  C4  UNL d   1       0.092   1.195   2.775  0.00  0.00     0.002 A 
ATOM      4  C5  UNL d   1      -0.836   2.205   2.499  0.00  0.00    -0.080 A 
ATOM      5  C6  UNL d   1      -2.220   2.161   3.076  0.00  0.00     0.076 C 
ATOM      6  C7  UNL d   1      -0.459   3.265   1.668  0.00  0.00     0.002 A 
ATOM      7  C8  UNL d   1       0.817   3.303   1.103  0.00  0.00     0.006 A 
ENDROOT
BRANCH   1   8
ATOM      8  C1  UNL d   1       3.094   2.293   0.700  0.00  0.00     0.054 C 
ATOM      9  C   UNL d   1       3.238   1.136  -0.278  0.00  0.00     0.018 C 
ENDBRANCH   1   8
TORSDOF 1
ENDMDL
