MODEL 1
REMARK minimizedAffinity 1.89811432
REMARK minimizedRMSD -1
REMARK  1 active torsions:
REMARK  status: ('A' for Active; 'I' for Inactive)
REMARK    1  A    between atoms: C1_2  and  C2_3 
ROOT
ATOM      1  C2  UNL d   1       0.840   1.445   1.968  0.00  0.00    -0.081 A 
ATOM      2  C3  UNL d   1       0.905   0.087   1.632  0.00  0.00     0.006 A 
ATOM      3  C4  UNL d   1       1.885  -0.378   0.751  0.00  0.00     0.002 A 
ATOM      4  C5  UNL d   1       2.819   0.505   0.199  0.00  0.00    -0.080 A 
ATOM      5  C6  UNL d   1       3.895   0.014  -0.725  0.00  0.00     0.076 C 
ATOM      6  C7  UNL d   1       2.743   1.864   0.521  0.00  0.00     0.002 A 
ATOM      7  C8  UNL d   1       1.763   2.330   1.401  0.00  0.00     0.006 A 
ENDROOT
BRANCH   1   8
ATOM      8  C1  UNL d   1      -0.175   1.938   2.968  0.00  0.00     0.054 C 
ATOM      9  C   UNL d   1      -1.587   1.536   2.568  0.00  0.00     0.018 C 
ENDBRANCH   1   8
TORSDOF 1
ENDMDL
