MODEL 1
REMARK minimizedAffinity 9.85581684
REMARK minimizedRMSD -1
REMARK  1 active torsions:
REMARK  status: ('A' for Active; 'I' for Inactive)
REMARK    1  A    between atoms: C1_2  and  C2_3 
ROOT
ATOM      1  C2  UNL d   1       1.742   1.439  -0.545  0.00  0.00    -0.081 A 
ATOM      2  C3  UNL d   1       2.112   0.092  -0.441  0.00  0.00     0.006 A 
ATOM      3  C4  UNL d   1       1.936  -0.776  -1.522  0.00  0.00     0.002 A 
ATOM      4  C5  UNL d   1       1.395  -0.310  -2.725  0.00  0.00    -0.080 A 
ATOM      5  C6  UNL d   1       1.229  -1.224  -3.903  0.00  0.00     0.076 C 
ATOM      6  C7  UNL d   1       1.009   1.031  -2.823  0.00  0.00     0.002 A 
ATOM      7  C8  UNL d   1       1.184   1.899  -1.743  0.00  0.00     0.006 A 
ENDROOT
BRANCH   1   8
ATOM      8  C1  UNL d   1       1.990   2.392   0.596  0.00  0.00     0.054 C 
ATOM      9  C   UNL d   1       1.480   1.823   1.913  0.00  0.00     0.018 C 
ENDBRANCH   1   8
TORSDOF 1
ENDMDL
