MODEL 1
REMARK minimizedAffinity 9.30661201
REMARK minimizedRMSD -1
REMARK  1 active torsions:
REMARK  status: ('A' for Active; 'I' for Inactive)
REMARK    1  A    between atoms: C1_2  and  C2_3 
ROOT
ATOM      1  C2  UNL d   1      -0.399   1.825   2.246  0.00  0.00    -0.081 A 
ATOM      2  C3  UNL d   1       0.885   1.279   2.360  0.00  0.00     0.006 A 
ATOM      3  C4  UNL d   1       1.990   1.953   1.835  0.00  0.00     0.002 A 
ATOM      4  C5  UNL d   1       1.831   3.186   1.194  0.00  0.00    -0.080 A 
ATOM      5  C6  UNL d   1       3.013   3.935   0.653  0.00  0.00     0.076 C 
ATOM      6  C7  UNL d   1       0.546   3.724   1.065  0.00  0.00     0.002 A 
ATOM      7  C8  UNL d   1      -0.560   3.050   1.589  0.00  0.00     0.006 A 
ENDROOT
BRANCH   1   8
ATOM      8  C1  UNL d   1      -1.585   1.132   2.868  0.00  0.00     0.054 C 
ATOM      9  C   UNL d   1      -2.857   1.948   2.692  0.00  0.00     0.018 C 
ENDBRANCH   1   8
TORSDOF 1
ENDMDL
