MODEL 1
REMARK minimizedAffinity 6.76289797
REMARK minimizedRMSD -1
REMARK  1 active torsions:
REMARK  status: ('A' for Active; 'I' for Inactive)
REMARK    1  A    between atoms: C1_2  and  C2_3 
ROOT
ATOM      1  C2  UNL d   1       1.346   1.012  -0.443  0.00  0.00    -0.081 A 
ATOM      2  C3  UNL d   1       0.807   1.365  -1.686  0.00  0.00     0.006 A 
ATOM      3  C4  UNL d   1       0.207   0.399  -2.497  0.00  0.00     0.002 A 
ATOM      4  C5  UNL d   1       0.129  -0.933  -2.076  0.00  0.00    -0.080 A 
ATOM      5  C6  UNL d   1      -0.539  -1.974  -2.924  0.00  0.00     0.076 C 
ATOM      6  C7  UNL d   1       0.684  -1.289  -0.842  0.00  0.00     0.002 A 
ATOM      7  C8  UNL d   1       1.285  -0.324  -0.031  0.00  0.00     0.006 A 
ENDROOT
BRANCH   1   8
ATOM      8  C1  UNL d   1       1.936   2.063   0.463  0.00  0.00     0.054 C 
ATOM      9  C   UNL d   1       1.263   2.058   1.828  0.00  0.00     0.018 C 
ENDBRANCH   1   8
TORSDOF 1
ENDMDL
