MODEL 1
REMARK minimizedAffinity 3.7395227
REMARK minimizedRMSD -1
REMARK  1 active torsions:
REMARK  status: ('A' for Active; 'I' for Inactive)
REMARK    1  A    between atoms: C1_2  and  C2_3 
ROOT
ATOM      1  C2  UNL d   1       0.868   1.894   1.748  0.00  0.00    -0.081 A 
ATOM      2  C3  UNL d   1       0.236   0.645   1.797  0.00  0.00     0.006 A 
ATOM      3  C4  UNL d   1      -1.116   0.549   2.134  0.00  0.00     0.002 A 
ATOM      4  C5  UNL d   1      -1.860   1.698   2.421  0.00  0.00    -0.080 A 
ATOM      5  C6  UNL d   1      -3.320   1.612   2.755  0.00  0.00     0.076 C 
ATOM      6  C7  UNL d   1      -1.224   2.944   2.390  0.00  0.00     0.002 A 
ATOM      7  C8  UNL d   1       0.128   3.041   2.053  0.00  0.00     0.006 A 
ENDROOT
BRANCH   1   8
ATOM      8  C1  UNL d   1       2.309   2.007   1.322  0.00  0.00     0.054 C 
ATOM      9  C   UNL d   1       2.508   1.491  -0.097  0.00  0.00     0.018 C 
ENDBRANCH   1   8
TORSDOF 1
ENDMDL
