MODEL 1
REMARK minimizedAffinity 9.97266483
REMARK minimizedRMSD -1
REMARK  1 active torsions:
REMARK  status: ('A' for Active; 'I' for Inactive)
REMARK    1  A    between atoms: C1_2  and  C2_3 
ROOT
ATOM      1  C2  UNL d   1       0.578   1.137   2.090  0.00  0.00    -0.081 A 
ATOM      2  C3  UNL d   1       1.463   1.834   1.258  0.00  0.00     0.006 A 
ATOM      3  C4  UNL d   1       2.091   1.186   0.191  0.00  0.00     0.002 A 
ATOM      4  C5  UNL d   1       1.838  -0.165  -0.067  0.00  0.00    -0.080 A 
ATOM      5  C6  UNL d   1       2.481  -0.864  -1.227  0.00  0.00     0.076 C 
ATOM      6  C7  UNL d   1       0.967  -0.866   0.774  0.00  0.00     0.002 A 
ATOM      7  C8  UNL d   1       0.339  -0.219   1.842  0.00  0.00     0.006 A 
ENDROOT
BRANCH   1   8
ATOM      8  C1  UNL d   1      -0.150   1.848   3.202  0.00  0.00     0.054 C 
ATOM      9  C   UNL d   1      -1.648   1.898   2.939  0.00  0.00     0.018 C 
ENDBRANCH   1   8
TORSDOF 1
ENDMDL
