MODEL 1
REMARK minimizedAffinity 6.53988791
REMARK minimizedRMSD -1
REMARK  1 active torsions:
REMARK  status: ('A' for Active; 'I' for Inactive)
REMARK    1  A    between atoms: C1_2  and  C2_3 
ROOT
ATOM      1  C2  UNL d   1       1.533   1.172  -0.711  0.00  0.00    -0.081 A 
ATOM      2  C3  UNL d   1       1.931  -0.169  -0.644  0.00  0.00     0.006 A 
ATOM      3  C4  UNL d   1       1.670  -1.038  -1.705  0.00  0.00     0.002 A 
ATOM      4  C5  UNL d   1       1.015  -0.580  -2.854  0.00  0.00    -0.080 A 
ATOM      5  C6  UNL d   1       0.756  -1.496  -4.013  0.00  0.00     0.076 C 
ATOM      6  C7  UNL d   1       0.603   0.755  -2.914  0.00  0.00     0.002 A 
ATOM      7  C8  UNL d   1       0.863   1.625  -1.852  0.00  0.00     0.006 A 
ENDROOT
BRANCH   1   8
ATOM      8  C1  UNL d   1       1.870   2.128   0.405  0.00  0.00     0.054 C 
ATOM      9  C   UNL d   1       1.489   1.552   1.761  0.00  0.00     0.018 C 
ENDBRANCH   1   8
TORSDOF 1
ENDMDL
