MODEL 1
REMARK minimizedAffinity 9.45871925
REMARK minimizedRMSD -1
REMARK  1 active torsions:
REMARK  status: ('A' for Active; 'I' for Inactive)
REMARK    1  A    between atoms: C1_2  and  C2_3 
ROOT
ATOM      1  C2  UNL d   1       2.151   2.284   1.163  0.00  0.00    -0.081 A 
ATOM      2  C3  UNL d   1       1.823   1.275   2.076  0.00  0.00     0.006 A 
ATOM      3  C4  UNL d   1       0.611   1.313   2.769  0.00  0.00     0.002 A 
ATOM      4  C5  UNL d   1      -0.295   2.357   2.556  0.00  0.00    -0.080 A 
ATOM      5  C6  UNL d   1      -1.613   2.394   3.272  0.00  0.00     0.076 C 
ATOM      6  C7  UNL d   1       0.040   3.375   1.657  0.00  0.00     0.002 A 
ATOM      7  C8  UNL d   1       1.252   3.337   0.964  0.00  0.00     0.006 A 
ENDROOT
BRANCH   1   8
ATOM      8  C1  UNL d   1       3.429   2.212   0.366  0.00  0.00     0.054 C 
ATOM      9  C   UNL d   1       3.770   0.775  -0.002  0.00  0.00     0.018 C 
ENDBRANCH   1   8
TORSDOF 1
ENDMDL
