MODEL 1
REMARK minimizedAffinity 9.61073303
REMARK minimizedRMSD -1
REMARK  1 active torsions:
REMARK  status: ('A' for Active; 'I' for Inactive)
REMARK    1  A    between atoms: C1_2  and  C2_3 
ROOT
ATOM      1  C2  UNL d   1       1.769   2.087   1.600  0.00  0.00    -0.081 A 
ATOM      2  C3  UNL d   1       1.242   0.839   1.954  0.00  0.00     0.006 A 
ATOM      3  C4  UNL d   1      -0.110   0.708   2.280  0.00  0.00     0.002 A 
ATOM      4  C5  UNL d   1      -0.959   1.820   2.249  0.00  0.00    -0.080 A 
ATOM      5  C6  UNL d   1      -2.418   1.688   2.567  0.00  0.00     0.076 C 
ATOM      6  C7  UNL d   1      -0.428   3.070   1.912  0.00  0.00     0.002 A 
ATOM      7  C8  UNL d   1       0.924   3.202   1.587  0.00  0.00     0.006 A 
ENDROOT
BRANCH   1   8
ATOM      8  C1  UNL d   1       3.212   2.220   1.186  0.00  0.00     0.054 C 
ATOM      9  C   UNL d   1       3.554   1.260   0.054  0.00  0.00     0.018 C 
ENDBRANCH   1   8
TORSDOF 1
ENDMDL
