MODEL 1
REMARK minimizedAffinity 4.92448187
REMARK minimizedRMSD -1
REMARK  0 active torsions:
REMARK  status: ('A' for Active; 'I' for Inactive)
ROOT
ATOM      1  C   UNL d   1      -3.401  -2.967  -0.769  0.00  0.00     0.172 C 
ATOM      2  N   UNL d   1      -2.256  -2.731   0.079  0.00  0.00    -0.070 N 
ATOM      3  C1  UNL d   1      -1.476  -3.698   0.655  0.00  0.00    -0.004 A 
ATOM      4  C2  UNL d   1      -0.491  -3.067   1.383  0.00  0.00    -0.047 A 
ATOM      5  C3  UNL d   1      -0.686  -1.673   1.242  0.00  0.00    -0.047 A 
ATOM      6  C4  UNL d   1      -1.786  -1.493   0.429  0.00  0.00    -0.004 A 
ENDROOT
TORSDOF 0
ENDMDL
