MODEL 1
REMARK minimizedAffinity -2.36068535
REMARK minimizedRMSD -1
REMARK  0 active torsions:
REMARK  status: ('A' for Active; 'I' for Inactive)
ROOT
ATOM      1  C   UNL d   1       2.561  -0.678   1.108  0.00  0.00     0.172 C 
ATOM      2  N   UNL d   1       2.337  -1.731   2.071  0.00  0.00    -0.070 N 
ATOM      3  C1  UNL d   1       3.300  -2.323   2.844  0.00  0.00    -0.004 A 
ATOM      4  C2  UNL d   1       2.685  -3.275   3.628  0.00  0.00    -0.047 A 
ATOM      5  C3  UNL d   1       1.305  -3.255   3.315  0.00  0.00    -0.047 A 
ATOM      6  C4  UNL d   1       1.118  -2.289   2.348  0.00  0.00    -0.004 A 
ENDROOT
TORSDOF 0
ENDMDL
