MODEL 1
REMARK minimizedAffinity -3.4206183
REMARK minimizedRMSD -1
REMARK  0 active torsions:
REMARK  status: ('A' for Active; 'I' for Inactive)
ROOT
ATOM      1  C   UNL d   1       2.695  -3.202   3.955  0.00  0.00     0.172 C 
ATOM      2  N   UNL d   1       2.389  -2.449   2.762  0.00  0.00    -0.070 N 
ATOM      3  C1  UNL d   1       1.210  -2.500   2.066  0.00  0.00    -0.004 A 
ATOM      4  C2  UNL d   1       1.314  -1.638   0.996  0.00  0.00    -0.047 A 
ATOM      5  C3  UNL d   1       2.600  -1.050   1.049  0.00  0.00    -0.047 A 
ATOM      6  C4  UNL d   1       3.244  -1.569   2.152  0.00  0.00    -0.004 A 
ENDROOT
TORSDOF 0
ENDMDL
