MODEL 1
REMARK minimizedAffinity -0.849908292
REMARK minimizedRMSD -1
REMARK  0 active torsions:
REMARK  status: ('A' for Active; 'I' for Inactive)
ROOT
ATOM      1  C   UNL d   1       2.898   0.062   0.841  0.00  0.00     0.172 C 
ATOM      2  N   UNL d   1       2.347  -1.114   1.473  0.00  0.00    -0.070 N 
ATOM      3  C1  UNL d   1       2.946  -1.839   2.469  0.00  0.00    -0.004 A 
ATOM      4  C2  UNL d   1       2.103  -2.879   2.798  0.00  0.00    -0.047 A 
ATOM      5  C3  UNL d   1       0.959  -2.775   1.971  0.00  0.00    -0.047 A 
ATOM      6  C4  UNL d   1       1.137  -1.674   1.161  0.00  0.00    -0.004 A 
ENDROOT
TORSDOF 0
ENDMDL
