MODEL 1
REMARK minimizedAffinity -0.557068348
REMARK minimizedRMSD -1
REMARK  0 active torsions:
REMARK  status: ('A' for Active; 'I' for Inactive)
ROOT
ATOM      1  C   UNL d   1       2.977   0.836   0.776  0.00  0.00     0.172 C 
ATOM      2  N   UNL d   1       2.406  -0.391   1.279  0.00  0.00    -0.070 N 
ATOM      3  C1  UNL d   1       2.988  -1.227   2.194  0.00  0.00    -0.004 A 
ATOM      4  C2  UNL d   1       2.128  -2.282   2.408  0.00  0.00    -0.047 A 
ATOM      5  C3  UNL d   1       0.990  -2.074   1.593  0.00  0.00    -0.047 A 
ATOM      6  C4  UNL d   1       1.188  -0.896   0.905  0.00  0.00    -0.004 A 
ENDROOT
TORSDOF 0
ENDMDL
