MODEL 1
REMARK minimizedAffinity 0.484457672
REMARK minimizedRMSD -1
REMARK  0 active torsions:
REMARK  status: ('A' for Active; 'I' for Inactive)
ROOT
ATOM      1  C   UNL d   1       3.322  -1.877  -3.661  0.00  0.00     0.172 C 
ATOM      2  N   UNL d   1       4.111  -1.128  -4.611  0.00  0.00    -0.070 N 
ATOM      3  C1  UNL d   1       5.321  -1.512  -5.124  0.00  0.00    -0.004 A 
ATOM      4  C2  UNL d   1       5.744  -0.529  -5.991  0.00  0.00    -0.047 A 
ATOM      5  C3  UNL d   1       4.754   0.483  -6.000  0.00  0.00    -0.047 A 
ATOM      6  C4  UNL d   1       3.754   0.086  -5.136  0.00  0.00    -0.004 A 
ENDROOT
TORSDOF 0
ENDMDL
