MODEL 1
REMARK minimizedAffinity 1.00228155
REMARK minimizedRMSD -1
REMARK  0 active torsions:
REMARK  status: ('A' for Active; 'I' for Inactive)
ROOT
ATOM      1  C   UNL d   1      -1.368  -0.890   1.341  0.00  0.00     0.172 C 
ATOM      2  N   UNL d   1      -0.118  -1.496   1.737  0.00  0.00    -0.070 N 
ATOM      3  C1  UNL d   1       0.028  -2.751   2.264  0.00  0.00    -0.004 A 
ATOM      4  C2  UNL d   1       1.369  -2.954   2.506  0.00  0.00    -0.047 A 
ATOM      5  C3  UNL d   1       2.053  -1.779   2.112  0.00  0.00    -0.047 A 
ATOM      6  C4  UNL d   1       1.108  -0.893   1.639  0.00  0.00    -0.004 A 
ENDROOT
TORSDOF 0
ENDMDL
