MODEL 1
REMARK minimizedAffinity 1.26482701
REMARK minimizedRMSD -1
REMARK  0 active torsions:
REMARK  status: ('A' for Active; 'I' for Inactive)
ROOT
ATOM      1  C   UNL d   1      -0.777  -3.252   2.273  0.00  0.00     0.172 C 
ATOM      2  N   UNL d   1       0.439  -2.486   2.136  0.00  0.00    -0.070 N 
ATOM      3  C1  UNL d   1       1.015  -2.109   0.952  0.00  0.00    -0.004 A 
ATOM      4  C2  UNL d   1       2.157  -1.395   1.247  0.00  0.00    -0.047 A 
ATOM      5  C3  UNL d   1       2.271  -1.342   2.657  0.00  0.00    -0.047 A 
ATOM      6  C4  UNL d   1       1.195  -2.026   3.182  0.00  0.00    -0.004 A 
ENDROOT
TORSDOF 0
ENDMDL
