MODEL 1
REMARK minimizedAffinity -2.48201132
REMARK minimizedRMSD -1
REMARK  0 active torsions:
REMARK  status: ('A' for Active; 'I' for Inactive)
ROOT
ATOM      1  C   UNL d   1       3.090   1.948   0.752  0.00  0.00     0.172 C 
ATOM      2  N   UNL d   1       3.231   0.563   1.135  0.00  0.00    -0.070 N 
ATOM      3  C1  UNL d   1       4.039  -0.356   0.521  0.00  0.00    -0.004 A 
ATOM      4  C2  UNL d   1       3.891  -1.556   1.183  0.00  0.00    -0.047 A 
ATOM      5  C3  UNL d   1       2.962  -1.351   2.230  0.00  0.00    -0.047 A 
ATOM      6  C4  UNL d   1       2.569  -0.030   2.178  0.00  0.00    -0.004 A 
ENDROOT
TORSDOF 0
ENDMDL
