MODEL 1
REMARK minimizedAffinity 0.677163959
REMARK minimizedRMSD -1
REMARK  0 active torsions:
REMARK  status: ('A' for Active; 'I' for Inactive)
ROOT
ATOM      1  C   UNL d   1       1.181  -2.755   1.902  0.00  0.00     0.172 C 
ATOM      2  N   UNL d   1       1.452  -1.413   1.443  0.00  0.00    -0.070 N 
ATOM      3  C1  UNL d   1       0.518  -0.429   1.259  0.00  0.00    -0.004 A 
ATOM      4  C2  UNL d   1       1.174   0.699   0.817  0.00  0.00    -0.047 A 
ATOM      5  C3  UNL d   1       2.551   0.381   0.731  0.00  0.00    -0.047 A 
ATOM      6  C4  UNL d   1       2.694  -0.932   1.124  0.00  0.00    -0.004 A 
ENDROOT
TORSDOF 0
ENDMDL
