MODEL 1
REMARK minimizedAffinity 2.33586955
REMARK minimizedRMSD -1
REMARK  0 active torsions:
REMARK  status: ('A' for Active; 'I' for Inactive)
ROOT
ATOM      1  C   UNL d   1      -0.238  -2.220   1.710  0.00  0.00     0.172 C 
ATOM      2  N   UNL d   1       1.113  -1.714   1.647  0.00  0.00    -0.070 N 
ATOM      3  C1  UNL d   1       1.503  -0.438   1.953  0.00  0.00    -0.004 A 
ATOM      4  C2  UNL d   1       2.866  -0.356   1.767  0.00  0.00    -0.047 A 
ATOM      5  C3  UNL d   1       3.311  -1.628   1.333  0.00  0.00    -0.047 A 
ATOM      6  C4  UNL d   1       2.205  -2.449   1.267  0.00  0.00    -0.004 A 
ENDROOT
TORSDOF 0
ENDMDL
