MODEL 1
REMARK minimizedAffinity 4.3336854
REMARK minimizedRMSD -1
REMARK  1 active torsions:
REMARK  status: ('A' for Active; 'I' for Inactive)
REMARK    1  A    between atoms: C1_2  and  C2_3 
ROOT
ATOM      1  C2  UNL d   1       5.962   3.329   2.346  0.00  0.00    -0.077 A 
ATOM      2  C3  UNL d   1       5.920   3.633   3.714  0.00  0.00     0.002 A 
ATOM      3  C4  UNL d   1       5.918   4.961   4.142  0.00  0.00     0.002 A 
ATOM      4  C5  UNL d   1       5.953   5.996   3.210  0.00  0.00    -0.004 A 
ATOM      5  C6  UNL d   1       5.997   5.704   1.847  0.00  0.00     0.002 A 
ATOM      6  C7  UNL d   1       6.000   4.377   1.417  0.00  0.00     0.002 A 
ENDROOT
BRANCH   1   7
ATOM      7  C1  UNL d   1       5.914   1.897   1.880  0.00  0.00     0.055 C 
ATOM      8  C   UNL d   1       5.972   0.931   3.054  0.00  0.00     0.019 C 
ENDBRANCH   1   7
TORSDOF 1
ENDMDL
