MODEL 1
REMARK minimizedAffinity 2.15307665
REMARK minimizedRMSD -1
REMARK  1 active torsions:
REMARK  status: ('A' for Active; 'I' for Inactive)
REMARK    1  A    between atoms: C1_2  and  C2_3 
ROOT
ATOM      1  C2  UNL d   1       1.308   0.893   0.325  0.00  0.00    -0.077 A 
ATOM      2  C3  UNL d   1       2.321   0.295  -0.438  0.00  0.00     0.002 A 
ATOM      3  C4  UNL d   1       2.019  -0.745  -1.319  0.00  0.00     0.002 A 
ATOM      4  C5  UNL d   1       0.706  -1.193  -1.449  0.00  0.00    -0.004 A 
ATOM      5  C6  UNL d   1      -0.307  -0.605  -0.692  0.00  0.00     0.002 A 
ATOM      6  C7  UNL d   1      -0.008   0.434   0.190  0.00  0.00     0.002 A 
ENDROOT
BRANCH   1   7
ATOM      7  C1  UNL d   1       1.624   2.048   1.240  0.00  0.00     0.055 C 
ATOM      8  C   UNL d   1       0.415   2.954   1.424  0.00  0.00     0.019 C 
ENDBRANCH   1   7
TORSDOF 1
ENDMDL
