MODEL 1
REMARK minimizedAffinity 5.8614378
REMARK minimizedRMSD -1
REMARK  1 active torsions:
REMARK  status: ('A' for Active; 'I' for Inactive)
REMARK    1  A    between atoms: C1_2  and  C2_3 
ROOT
ATOM      1  C2  UNL d   1      -4.994   5.965   3.497  0.00  0.00    -0.077 A 
ATOM      2  C3  UNL d   1      -5.635   5.974   4.744  0.00  0.00     0.002 A 
ATOM      3  C4  UNL d   1      -4.886   5.988   5.922  0.00  0.00     0.002 A 
ATOM      4  C5  UNL d   1      -3.494   5.999   5.866  0.00  0.00    -0.004 A 
ATOM      5  C6  UNL d   1      -2.847   5.988   4.630  0.00  0.00     0.002 A 
ATOM      6  C7  UNL d   1      -3.594   5.972   3.451  0.00  0.00     0.002 A 
ENDROOT
BRANCH   1   7
ATOM      7  C1  UNL d   1      -5.799   5.999   2.224  0.00  0.00     0.055 C 
ATOM      8  C   UNL d   1      -5.240   5.034   1.189  0.00  0.00     0.019 C 
ENDBRANCH   1   7
TORSDOF 1
ENDMDL
