MODEL 1
REMARK minimizedAffinity 4.51777172
REMARK minimizedRMSD -1
REMARK  1 active torsions:
REMARK  status: ('A' for Active; 'I' for Inactive)
REMARK    1  A    between atoms: C1_2  and  C2_3 
ROOT
ATOM      1  C2  UNL d   1       0.761  -0.074  -1.366  0.00  0.00    -0.077 A 
ATOM      2  C3  UNL d   1       1.299   0.934  -0.554  0.00  0.00     0.002 A 
ATOM      3  C4  UNL d   1       0.892   1.061   0.775  0.00  0.00     0.002 A 
ATOM      4  C5  UNL d   1      -0.050   0.182   1.305  0.00  0.00    -0.004 A 
ATOM      5  C6  UNL d   1      -0.592  -0.822   0.505  0.00  0.00     0.002 A 
ATOM      6  C7  UNL d   1      -0.188  -0.951  -0.825  0.00  0.00     0.002 A 
ENDROOT
BRANCH   1   7
ATOM      7  C1  UNL d   1       1.235  -0.245  -2.786  0.00  0.00     0.055 C 
ATOM      8  C   UNL d   1       2.357   0.729  -3.116  0.00  0.00     0.019 C 
ENDBRANCH   1   7
TORSDOF 1
ENDMDL
