MODEL 1
REMARK minimizedAffinity 4.42760468
REMARK minimizedRMSD -1
REMARK  1 active torsions:
REMARK  status: ('A' for Active; 'I' for Inactive)
REMARK    1  A    between atoms: C1_2  and  C2_3 
ROOT
ATOM      1  C2  UNL d   1       5.998   4.522   3.924  0.00  0.00    -0.077 A 
ATOM      2  C3  UNL d   1       5.994   3.450   3.021  0.00  0.00     0.002 A 
ATOM      3  C4  UNL d   1       5.991   2.134   3.487  0.00  0.00     0.002 A 
ATOM      4  C5  UNL d   1       5.987   1.878   4.857  0.00  0.00    -0.004 A 
ATOM      5  C6  UNL d   1       5.992   2.938   5.763  0.00  0.00     0.002 A 
ATOM      6  C7  UNL d   1       5.997   4.254   5.299  0.00  0.00     0.002 A 
ENDROOT
BRANCH   1   7
ATOM      7  C1  UNL d   1       5.952   5.942   3.424  0.00  0.00     0.055 C 
ATOM      8  C   UNL d   1       5.918   5.993   1.903  0.00  0.00     0.019 C 
ENDBRANCH   1   7
TORSDOF 1
ENDMDL
