MODEL 1
REMARK minimizedAffinity -2.99673676
REMARK minimizedRMSD -1
REMARK  1 active torsions:
REMARK  status: ('A' for Active; 'I' for Inactive)
REMARK    1  A    between atoms: C1_2  and  C2_3 
ROOT
ATOM      1  C2  UNL d   1      -0.402  -2.177  -0.429  0.00  0.00    -0.077 A 
ATOM      2  C3  UNL d   1      -1.617  -1.478  -0.453  0.00  0.00     0.002 A 
ATOM      3  C4  UNL d   1      -2.828  -2.161  -0.324  0.00  0.00     0.002 A 
ATOM      4  C5  UNL d   1      -2.835  -3.545  -0.164  0.00  0.00    -0.004 A 
ATOM      5  C6  UNL d   1      -1.632  -4.249  -0.140  0.00  0.00     0.002 A 
ATOM      6  C7  UNL d   1      -0.421  -3.568  -0.271  0.00  0.00     0.002 A 
ENDROOT
BRANCH   1   7
ATOM      7  C1  UNL d   1       0.907  -1.436  -0.519  0.00  0.00     0.055 C 
ATOM      8  C   UNL d   1       0.766  -0.002  -0.030  0.00  0.00     0.019 C 
ENDBRANCH   1   7
TORSDOF 1
ENDMDL
