MODEL 1
REMARK minimizedAffinity 5.28774786
REMARK minimizedRMSD -1
REMARK  1 active torsions:
REMARK  status: ('A' for Active; 'I' for Inactive)
REMARK    1  A    between atoms: C1_2  and  C2_3 
ROOT
ATOM      1  C2  UNL d   1       5.749   4.343   4.165  0.00  0.00    -0.077 A 
ATOM      2  C3  UNL d   1       5.886   3.328   3.208  0.00  0.00     0.002 A 
ATOM      3  C4  UNL d   1       6.000   3.645   1.853  0.00  0.00     0.002 A 
ATOM      4  C5  UNL d   1       5.982   4.976   1.444  0.00  0.00    -0.004 A 
ATOM      5  C6  UNL d   1       5.844   5.993   2.387  0.00  0.00     0.002 A 
ATOM      6  C7  UNL d   1       5.729   5.678   3.742  0.00  0.00     0.002 A 
ENDROOT
BRANCH   1   7
ATOM      7  C1  UNL d   1       5.676   4.005   5.631  0.00  0.00     0.055 C 
ATOM      8  C   UNL d   1       5.998   2.539   5.878  0.00  0.00     0.019 C 
ENDBRANCH   1   7
TORSDOF 1
ENDMDL
