MODEL 1
REMARK minimizedAffinity 5.70220327
REMARK minimizedRMSD -1
REMARK  1 active torsions:
REMARK  status: ('A' for Active; 'I' for Inactive)
REMARK    1  A    between atoms: C1_2  and  C2_3 
ROOT
ATOM      1  C2  UNL d   1       2.261  -5.529   2.611  0.00  0.00    -0.077 A 
ATOM      2  C3  UNL d   1       3.464  -5.997   2.066  0.00  0.00     0.002 A 
ATOM      3  C4  UNL d   1       4.688  -5.597   2.607  0.00  0.00     0.002 A 
ATOM      4  C5  UNL d   1       4.719  -4.731   3.698  0.00  0.00    -0.004 A 
ATOM      5  C6  UNL d   1       3.527  -4.259   4.246  0.00  0.00     0.002 A 
ATOM      6  C7  UNL d   1       2.303  -4.657   3.706  0.00  0.00     0.002 A 
ENDROOT
BRANCH   1   7
ATOM      7  C1  UNL d   1       0.939  -5.999   2.061  0.00  0.00     0.055 C 
ATOM      8  C   UNL d   1       0.151  -4.846   1.456  0.00  0.00     0.019 C 
ENDBRANCH   1   7
TORSDOF 1
ENDMDL
