MODEL 1
REMARK minimizedAffinity 2.16443229
REMARK minimizedRMSD -1
REMARK  1 active torsions:
REMARK  status: ('A' for Active; 'I' for Inactive)
REMARK    1  A    between atoms: C1_2  and  C2_3 
ROOT
ATOM      1  C2  UNL d   1       1.768  -3.578   1.767  0.00  0.00    -0.077 A 
ATOM      2  C3  UNL d   1       2.300  -3.614   3.063  0.00  0.00     0.002 A 
ATOM      3  C4  UNL d   1       2.730  -4.821   3.618  0.00  0.00     0.002 A 
ATOM      4  C5  UNL d   1       2.637  -6.000   2.881  0.00  0.00    -0.004 A 
ATOM      5  C6  UNL d   1       2.108  -5.975   1.591  0.00  0.00     0.002 A 
ATOM      6  C7  UNL d   1       1.676  -4.770   1.036  0.00  0.00     0.002 A 
ENDROOT
BRANCH   1   7
ATOM      7  C1  UNL d   1       1.349  -2.270   1.149  0.00  0.00     0.055 C 
ATOM      8  C   UNL d   1      -0.104  -2.311   0.697  0.00  0.00     0.019 C 
ENDBRANCH   1   7
TORSDOF 1
ENDMDL
