MODEL 1
REMARK minimizedAffinity 1.72802114
REMARK minimizedRMSD -1
REMARK  1 active torsions:
REMARK  status: ('A' for Active; 'I' for Inactive)
REMARK    1  A    between atoms: C1_2  and  C2_3 
ROOT
ATOM      1  C2  UNL d   1       6.000   4.662   3.203  0.00  0.00    -0.077 A 
ATOM      2  C3  UNL d   1       5.954   3.501   3.988  0.00  0.00     0.002 A 
ATOM      3  C4  UNL d   1       5.908   3.591   5.380  0.00  0.00     0.002 A 
ATOM      4  C5  UNL d   1       5.905   4.839   6.000  0.00  0.00    -0.004 A 
ATOM      5  C6  UNL d   1       5.952   5.999   5.229  0.00  0.00     0.002 A 
ATOM      6  C7  UNL d   1       5.999   5.912   3.837  0.00  0.00     0.002 A 
ENDROOT
BRANCH   1   7
ATOM      7  C1  UNL d   1       5.999   4.569   1.700  0.00  0.00     0.055 C 
ATOM      8  C   UNL d   1       6.000   5.949   1.059  0.00  0.00     0.019 C 
ENDBRANCH   1   7
TORSDOF 1
ENDMDL
