MODEL 1
REMARK minimizedAffinity 12.237112
REMARK minimizedRMSD -1
REMARK  1 active torsions:
REMARK  status: ('A' for Active; 'I' for Inactive)
REMARK    1  A    between atoms: C1_2  and  C2_3 
ROOT
ATOM      1  C2  UNL d   1       3.500  -5.968   2.430  0.00  0.00    -0.077 A 
ATOM      2  C3  UNL d   1       4.023  -6.000   1.130  0.00  0.00     0.002 A 
ATOM      3  C4  UNL d   1       3.170  -6.000   0.025  0.00  0.00     0.002 A 
ATOM      4  C5  UNL d   1       1.789  -5.965   0.209  0.00  0.00    -0.004 A 
ATOM      5  C6  UNL d   1       1.259  -5.935   1.498  0.00  0.00     0.002 A 
ATOM      6  C7  UNL d   1       2.110  -5.936   2.603  0.00  0.00     0.002 A 
ENDROOT
BRANCH   1   7
ATOM      7  C1  UNL d   1       4.419  -5.918   3.623  0.00  0.00     0.055 C 
ATOM      8  C   UNL d   1       5.880  -5.947   3.197  0.00  0.00     0.019 C 
ENDBRANCH   1   7
TORSDOF 1
ENDMDL
