MODEL 1
REMARK minimizedAffinity 9.14733696
REMARK minimizedRMSD -1
REMARK  1 active torsions:
REMARK  status: ('A' for Active; 'I' for Inactive)
REMARK    1  A    between atoms: C1_2  and  C2_3 
ROOT
ATOM      1  C2  UNL d   1      -4.812  -0.682   4.480  0.00  0.00    -0.077 A 
ATOM      2  C3  UNL d   1      -3.671  -1.470   4.694  0.00  0.00     0.002 A 
ATOM      3  C4  UNL d   1      -2.603  -0.976   5.444  0.00  0.00     0.002 A 
ATOM      4  C5  UNL d   1      -2.665   0.305   5.990  0.00  0.00    -0.004 A 
ATOM      5  C6  UNL d   1      -3.794   1.096   5.781  0.00  0.00     0.002 A 
ATOM      6  C7  UNL d   1      -4.863   0.605   5.030  0.00  0.00     0.002 A 
ENDROOT
BRANCH   1   7
ATOM      7  C1  UNL d   1      -5.986  -1.232   3.712  0.00  0.00     0.055 C 
ATOM      8  C   UNL d   1      -5.923  -0.833   2.245  0.00  0.00     0.019 C 
ENDBRANCH   1   7
TORSDOF 1
ENDMDL
