MODEL 1
REMARK minimizedAffinity -2.76730514
REMARK minimizedRMSD -1
REMARK  2 active torsions:
REMARK  status: ('A' for Active; 'I' for Inactive)
REMARK    1  A    between atoms: C1_2  and  C2_3 
REMARK    2  A    between atoms: C2_3  and  C3_4 
ROOT
ATOM      1  C3  UNL d   1      -0.990   1.350  -0.903  0.00  0.00    -0.075 A 
ATOM      2  C4  UNL d   1      -0.384   2.050  -1.955  0.00  0.00     0.002 A 
ATOM      3  C5  UNL d   1      -1.152   2.562  -3.001  0.00  0.00     0.002 A 
ATOM      4  C6  UNL d   1      -2.532   2.372  -3.013  0.00  0.00    -0.004 A 
ATOM      5  C7  UNL d   1      -3.143   1.664  -1.981  0.00  0.00     0.002 A 
ATOM      6  C8  UNL d   1      -2.377   1.154  -0.931  0.00  0.00     0.002 A 
ENDROOT
BRANCH   1   7
ATOM      7  C2  UNL d   1      -0.168   0.818   0.247  0.00  0.00     0.056 C 
BRANCH   7   8
ATOM      8  C1  UNL d   1       1.120   0.108  -0.184  0.00  0.00     0.007 C 
ATOM      9  C   UNL d   1       1.440  -1.119   0.660  0.00  0.00     0.009 C 
ENDBRANCH   7   8
ENDBRANCH   1   7
TORSDOF 2
ENDMDL
