MODEL 1
REMARK minimizedAffinity -4.28177118
REMARK minimizedRMSD -1
REMARK  2 active torsions:
REMARK  status: ('A' for Active; 'I' for Inactive)
REMARK    1  A    between atoms: C1_2  and  C2_3 
REMARK    2  A    between atoms: C2_3  and  C3_4 
ROOT
ATOM      1  C3  UNL d   1       0.360  -0.410   0.610  0.00  0.00    -0.075 A 
ATOM      2  C4  UNL d   1      -0.622  -0.500   1.607  0.00  0.00     0.002 A 
ATOM      3  C5  UNL d   1      -0.401  -1.265   2.752  0.00  0.00     0.002 A 
ATOM      4  C6  UNL d   1       0.799  -1.956   2.911  0.00  0.00    -0.004 A 
ATOM      5  C7  UNL d   1       1.775  -1.886   1.920  0.00  0.00     0.002 A 
ATOM      6  C8  UNL d   1       1.558  -1.118   0.774  0.00  0.00     0.002 A 
ENDROOT
BRANCH   1   7
ATOM      7  C2  UNL d   1       0.138   0.440  -0.619  0.00  0.00     0.056 C 
BRANCH   7   8
ATOM      8  C1  UNL d   1      -1.129   1.300  -0.562  0.00  0.00     0.007 C 
ATOM      9  C   UNL d   1      -1.933   1.271  -1.855  0.00  0.00     0.009 C 
ENDBRANCH   7   8
ENDBRANCH   1   7
TORSDOF 2
ENDMDL
