MODEL 1
REMARK minimizedAffinity -3.767766
REMARK minimizedRMSD -1
REMARK  2 active torsions:
REMARK  status: ('A' for Active; 'I' for Inactive)
REMARK    1  A    between atoms: C1_2  and  C2_3 
REMARK    2  A    between atoms: C2_3  and  C3_4 
ROOT
ATOM      1  C3  UNL d   1      -1.269   1.576  -1.188  0.00  0.00    -0.075 A 
ATOM      2  C4  UNL d   1      -1.057   2.794  -1.849  0.00  0.00     0.002 A 
ATOM      3  C5  UNL d   1      -1.592   3.013  -3.119  0.00  0.00     0.002 A 
ATOM      4  C6  UNL d   1      -2.334   2.016  -3.747  0.00  0.00    -0.004 A 
ATOM      5  C7  UNL d   1      -2.537   0.795  -3.106  0.00  0.00     0.002 A 
ATOM      6  C8  UNL d   1      -2.007   0.575  -1.834  0.00  0.00     0.002 A 
ENDROOT
BRANCH   1   7
ATOM      7  C2  UNL d   1      -0.718   1.343   0.199  0.00  0.00     0.056 C 
BRANCH   7   8
ATOM      8  C1  UNL d   1      -0.159  -0.066   0.420  0.00  0.00     0.007 C 
ATOM      9  C   UNL d   1       1.252  -0.245  -0.125  0.00  0.00     0.009 C 
ENDBRANCH   7   8
ENDBRANCH   1   7
TORSDOF 2
ENDMDL
