MODEL 1
REMARK minimizedAffinity -1.48881567
REMARK minimizedRMSD -1
REMARK  2 active torsions:
REMARK  status: ('A' for Active; 'I' for Inactive)
REMARK    1  A    between atoms: C1_2  and  C2_3 
REMARK    2  A    between atoms: C2_3  and  C3_4 
ROOT
ATOM      1  C3  UNL d   1       0.632  -0.701   0.468  0.00  0.00    -0.075 A 
ATOM      2  C4  UNL d   1      -0.378  -0.629   1.438  0.00  0.00     0.002 A 
ATOM      3  C5  UNL d   1      -0.372  -1.493   2.533  0.00  0.00     0.002 A 
ATOM      4  C6  UNL d   1       0.637  -2.445   2.667  0.00  0.00    -0.004 A 
ATOM      5  C7  UNL d   1       1.636  -2.537   1.701  0.00  0.00     0.002 A 
ATOM      6  C8  UNL d   1       1.634  -1.670   0.606  0.00  0.00     0.002 A 
ENDROOT
BRANCH   1   7
ATOM      7  C2  UNL d   1       0.647   0.251  -0.705  0.00  0.00     0.056 C 
BRANCH   7   8
ATOM      8  C1  UNL d   1      -0.562   1.191  -0.760  0.00  0.00     0.007 C 
ATOM      9  C   UNL d   1      -0.577   2.077  -1.998  0.00  0.00     0.009 C 
ENDBRANCH   7   8
ENDBRANCH   1   7
TORSDOF 2
ENDMDL
