MODEL 1
REMARK minimizedAffinity -6.28717279
REMARK minimizedRMSD -1
REMARK  2 active torsions:
REMARK  status: ('A' for Active; 'I' for Inactive)
REMARK    1  A    between atoms: C1_2  and  C2_3 
REMARK    2  A    between atoms: C2_3  and  C3_4 
ROOT
ATOM      1  C3  UNL d   1      -0.191   0.296   0.037  0.00  0.00    -0.075 A 
ATOM      2  C4  UNL d   1      -0.654  -0.812   0.762  0.00  0.00     0.002 A 
ATOM      3  C5  UNL d   1       0.220  -1.838   1.122  0.00  0.00     0.002 A 
ATOM      4  C6  UNL d   1       1.562  -1.775   0.754  0.00  0.00    -0.004 A 
ATOM      5  C7  UNL d   1       2.029  -0.687   0.020  0.00  0.00     0.002 A 
ATOM      6  C8  UNL d   1       1.158   0.343  -0.338  0.00  0.00     0.002 A 
ENDROOT
BRANCH   1   7
ATOM      7  C2  UNL d   1      -1.126   1.424  -0.330  0.00  0.00     0.056 C 
BRANCH   7   8
ATOM      8  C1  UNL d   1      -1.501   1.464  -1.815  0.00  0.00     0.007 C 
ATOM      9  C   UNL d   1      -2.942   1.891  -2.059  0.00  0.00     0.009 C 
ENDBRANCH   7   8
ENDBRANCH   1   7
TORSDOF 2
ENDMDL
