MODEL 1
REMARK minimizedAffinity -4.53582144
REMARK minimizedRMSD -1
REMARK  2 active torsions:
REMARK  status: ('A' for Active; 'I' for Inactive)
REMARK    1  A    between atoms: C1_2  and  C2_3 
REMARK    2  A    between atoms: C2_3  and  C3_4 
ROOT
ATOM      1  C3  UNL d   1      -0.100   0.166   0.144  0.00  0.00    -0.075 A 
ATOM      2  C4  UNL d   1       1.193  -0.152  -0.295  0.00  0.00     0.002 A 
ATOM      3  C5  UNL d   1       2.026  -0.960   0.480  0.00  0.00     0.002 A 
ATOM      4  C6  UNL d   1       1.582  -1.450   1.706  0.00  0.00    -0.004 A 
ATOM      5  C7  UNL d   1       0.305  -1.127   2.160  0.00  0.00     0.002 A 
ATOM      6  C8  UNL d   1      -0.532  -0.323   1.385  0.00  0.00     0.002 A 
ENDROOT
BRANCH   1   7
ATOM      7  C2  UNL d   1      -1.017   1.015  -0.703  0.00  0.00     0.056 C 
BRANCH   7   8
ATOM      8  C1  UNL d   1      -1.716   0.245  -1.829  0.00  0.00     0.007 C 
ATOM      9  C   UNL d   1      -2.585   1.131  -2.712  0.00  0.00     0.009 C 
ENDBRANCH   7   8
ENDBRANCH   1   7
TORSDOF 2
ENDMDL
