MODEL 1
REMARK minimizedAffinity -3.63151693
REMARK minimizedRMSD -1
REMARK  2 active torsions:
REMARK  status: ('A' for Active; 'I' for Inactive)
REMARK    1  A    between atoms: C1_2  and  C2_3 
REMARK    2  A    between atoms: C2_3  and  C3_4 
ROOT
ATOM      1  C3  UNL d   1      -0.248   1.228  -0.326  0.00  0.00    -0.075 A 
ATOM      2  C4  UNL d   1      -0.689   0.950  -1.628  0.00  0.00     0.002 A 
ATOM      3  C5  UNL d   1      -1.946   1.380  -2.056  0.00  0.00     0.002 A 
ATOM      4  C6  UNL d   1      -2.779   2.081  -1.187  0.00  0.00    -0.004 A 
ATOM      5  C7  UNL d   1      -2.358   2.347   0.114  0.00  0.00     0.002 A 
ATOM      6  C8  UNL d   1      -1.099   1.923   0.543  0.00  0.00     0.002 A 
ENDROOT
BRANCH   1   7
ATOM      7  C2  UNL d   1       1.123   0.792   0.134  0.00  0.00     0.056 C 
BRANCH   7   8
ATOM      8  C1  UNL d   1       1.251  -0.717   0.368  0.00  0.00     0.007 C 
ATOM      9  C   UNL d   1       2.441  -1.337  -0.352  0.00  0.00     0.009 C 
ENDBRANCH   7   8
ENDBRANCH   1   7
TORSDOF 2
ENDMDL
