MODEL 1
REMARK minimizedAffinity -4.45177937
REMARK minimizedRMSD -1
REMARK  2 active torsions:
REMARK  status: ('A' for Active; 'I' for Inactive)
REMARK    1  A    between atoms: C1_2  and  C2_3 
REMARK    2  A    between atoms: C2_3  and  C3_4 
ROOT
ATOM      1  C3  UNL d   1       0.147   0.634  -0.223  0.00  0.00    -0.075 A 
ATOM      2  C4  UNL d   1      -0.511  -0.102   0.773  0.00  0.00     0.002 A 
ATOM      3  C5  UNL d   1       0.137  -1.154   1.421  0.00  0.00     0.002 A 
ATOM      4  C6  UNL d   1       1.445  -1.489   1.076  0.00  0.00    -0.004 A 
ATOM      5  C7  UNL d   1       2.102  -0.775   0.076  0.00  0.00     0.002 A 
ATOM      6  C8  UNL d   1       1.457   0.280  -0.571  0.00  0.00     0.002 A 
ENDROOT
BRANCH   1   7
ATOM      7  C2  UNL d   1      -0.539   1.792  -0.908  0.00  0.00     0.056 C 
BRANCH   7   8
ATOM      8  C1  UNL d   1      -1.750   1.387  -1.755  0.00  0.00     0.007 C 
ATOM      9  C   UNL d   1      -1.631   1.809  -3.214  0.00  0.00     0.009 C 
ENDBRANCH   7   8
ENDBRANCH   1   7
TORSDOF 2
ENDMDL
