MODEL 1
REMARK minimizedAffinity -3.10548139
REMARK minimizedRMSD -1
REMARK  2 active torsions:
REMARK  status: ('A' for Active; 'I' for Inactive)
REMARK    1  A    between atoms: C1_2  and  C2_3 
REMARK    2  A    between atoms: C2_3  and  C3_4 
ROOT
ATOM      1  C3  UNL d   1       0.058   0.237  -0.016  0.00  0.00    -0.075 A 
ATOM      2  C4  UNL d   1      -0.784  -0.237   1.000  0.00  0.00     0.002 A 
ATOM      3  C5  UNL d   1      -0.375  -1.282   1.829  0.00  0.00     0.002 A 
ATOM      4  C6  UNL d   1       0.874  -1.872   1.647  0.00  0.00    -0.004 A 
ATOM      5  C7  UNL d   1       1.712  -1.420   0.630  0.00  0.00     0.002 A 
ATOM      6  C8  UNL d   1       1.307  -0.371  -0.198  0.00  0.00     0.002 A 
ENDROOT
BRANCH   1   7
ATOM      7  C2  UNL d   1      -0.367   1.387  -0.897  0.00  0.00     0.056 C 
BRANCH   7   8
ATOM      8  C1  UNL d   1      -1.639   1.116  -1.707  0.00  0.00     0.007 C 
ATOM      9  C   UNL d   1      -1.764   1.998  -2.942  0.00  0.00     0.009 C 
ENDBRANCH   7   8
ENDBRANCH   1   7
TORSDOF 2
ENDMDL
