MODEL 1
REMARK minimizedAffinity -3.34158945
REMARK minimizedRMSD -1
REMARK  2 active torsions:
REMARK  status: ('A' for Active; 'I' for Inactive)
REMARK    1  A    between atoms: C1_2  and  C2_3 
REMARK    2  A    between atoms: C2_3  and  C3_4 
ROOT
ATOM      1  C3  UNL d   1      -0.724   0.720  -0.804  0.00  0.00    -0.075 A 
ATOM      2  C4  UNL d   1      -0.850   2.102  -0.604  0.00  0.00     0.002 A 
ATOM      3  C5  UNL d   1      -1.644   2.871  -1.455  0.00  0.00     0.002 A 
ATOM      4  C6  UNL d   1      -2.312   2.272  -2.520  0.00  0.00    -0.004 A 
ATOM      5  C7  UNL d   1      -2.181   0.902  -2.738  0.00  0.00     0.002 A 
ATOM      6  C8  UNL d   1      -1.391   0.129  -1.886  0.00  0.00     0.002 A 
ENDROOT
BRANCH   1   7
ATOM      7  C2  UNL d   1       0.111  -0.123   0.131  0.00  0.00     0.056 C 
BRANCH   7   8
ATOM      8  C1  UNL d   1       1.522  -0.419  -0.388  0.00  0.00     0.007 C 
ATOM      9  C   UNL d   1       2.333  -1.302   0.550  0.00  0.00     0.009 C 
ENDBRANCH   7   8
ENDBRANCH   1   7
TORSDOF 2
ENDMDL
