MODEL 1
REMARK minimizedAffinity -1.66950309
REMARK minimizedRMSD -1
REMARK  2 active torsions:
REMARK  status: ('A' for Active; 'I' for Inactive)
REMARK    1  A    between atoms: C1_2  and  C2_3 
REMARK    2  A    between atoms: C2_3  and  C3_4 
ROOT
ATOM      1  C3  UNL d   1      -1.474   1.854  -1.183  0.00  0.00    -0.075 A 
ATOM      2  C4  UNL d   1      -2.638   1.189  -1.596  0.00  0.00     0.002 A 
ATOM      3  C5  UNL d   1      -3.174   1.419  -2.863  0.00  0.00     0.002 A 
ATOM      4  C6  UNL d   1      -2.562   2.323  -3.728  0.00  0.00    -0.004 A 
ATOM      5  C7  UNL d   1      -1.415   3.003  -3.322  0.00  0.00     0.002 A 
ATOM      6  C8  UNL d   1      -0.873   2.770  -2.057  0.00  0.00     0.002 A 
ENDROOT
BRANCH   1   7
ATOM      7  C2  UNL d   1      -0.872   1.587   0.176  0.00  0.00     0.056 C 
BRANCH   7   8
ATOM      8  C1  UNL d   1      -0.060   0.290   0.254  0.00  0.00     0.007 C 
ATOM      9  C   UNL d   1       1.381   0.455  -0.212  0.00  0.00     0.009 C 
ENDBRANCH   7   8
ENDBRANCH   1   7
TORSDOF 2
ENDMDL
