MODEL 1
REMARK minimizedAffinity -4.80569458
REMARK minimizedRMSD -1
REMARK  2 active torsions:
REMARK  status: ('A' for Active; 'I' for Inactive)
REMARK    1  A    between atoms: C1_2  and  C2_3 
REMARK    2  A    between atoms: C2_3  and  C3_4 
ROOT
ATOM      1  C3  UNL d   1      -1.182   2.981  -3.381  0.00  0.00    -0.075 A 
ATOM      2  C4  UNL d   1      -2.099   2.083  -3.945  0.00  0.00     0.002 A 
ATOM      3  C5  UNL d   1      -2.814   1.199  -3.137  0.00  0.00     0.002 A 
ATOM      4  C6  UNL d   1      -2.614   1.194  -1.758  0.00  0.00    -0.004 A 
ATOM      5  C7  UNL d   1      -1.693   2.070  -1.188  0.00  0.00     0.002 A 
ATOM      6  C8  UNL d   1      -0.980   2.959  -1.994  0.00  0.00     0.002 A 
ENDROOT
BRANCH   1   7
ATOM      7  C2  UNL d   1      -0.427   3.961  -4.247  0.00  0.00     0.056 C 
BRANCH   7   8
ATOM      8  C1  UNL d   1       0.515   4.885  -3.468  0.00  0.00     0.007 C 
ATOM      9  C   UNL d   1       1.106   5.998  -4.323  0.00  0.00     0.009 C 
ENDBRANCH   7   8
ENDBRANCH   1   7
TORSDOF 2
ENDMDL
