MODEL 1
REMARK minimizedAffinity 11.0374203
REMARK minimizedRMSD -1
REMARK  0 active torsions:
REMARK  status: ('A' for Active; 'I' for Inactive)
ROOT
ATOM      1  C1  DEN d   1       0.687  -1.968   0.410  0.00  0.00     0.130 A 
ATOM      2  C2  DEN d   1      -0.119  -3.025  -0.196  0.00  0.00    -0.031 A 
ATOM      3  C3  DEN d   1       0.492  -3.379  -1.493  0.00  0.00     0.027 A 
ATOM      4  C4  DEN d   1       2.600  -2.402  -2.614  0.00  0.00     0.027 A 
ATOM      5  C5  DEN d   1       3.612  -1.476  -2.487  0.00  0.00    -0.003 A 
ATOM      6  C6  DEN d   1       3.700  -0.633  -1.411  0.00  0.00     0.001 A 
ATOM      7  C7  DEN d   1       2.784  -0.730  -0.396  0.00  0.00     0.017 A 
ATOM      8  C8  DEN d   1       1.757  -1.656  -0.520  0.00  0.00    -0.094 A 
ATOM      9  C9  DEN d   1       1.692  -2.507  -1.610  0.00  0.00    -0.072 A 
ENDROOT
TORSDOF 0
ENDMDL
