MODEL 1
REMARK minimizedAffinity 1.09231973
REMARK minimizedRMSD -1
REMARK  0 active torsions:
REMARK  status: ('A' for Active; 'I' for Inactive)
ROOT
ATOM      1  C1  DEN d   1      -1.001  -0.774  -0.640  0.00  0.00     0.130 A 
ATOM      2  C2  DEN d   1       0.405  -0.454  -0.869  0.00  0.00    -0.031 A 
ATOM      3  C3  DEN d   1       0.792   0.609   0.080  0.00  0.00     0.027 A 
ATOM      4  C4  DEN d   1      -0.641   1.782   1.876  0.00  0.00     0.027 A 
ATOM      5  C5  DEN d   1      -1.897   1.856   2.437  0.00  0.00    -0.003 A 
ATOM      6  C6  DEN d   1      -2.942   1.090   1.993  0.00  0.00     0.001 A 
ATOM      7  C7  DEN d   1      -2.739   0.183   0.987  0.00  0.00     0.017 A 
ATOM      8  C8  DEN d   1      -1.478   0.107   0.411  0.00  0.00    -0.094 A 
ATOM      9  C9  DEN d   1      -0.431   0.881   0.882  0.00  0.00    -0.072 A 
ENDROOT
TORSDOF 0
ENDMDL
