MODEL 1
REMARK minimizedAffinity 1.792328
REMARK minimizedRMSD -1
REMARK  0 active torsions:
REMARK  status: ('A' for Active; 'I' for Inactive)
ROOT
ATOM      1  C1  DEN d   1       3.577  -0.945  -1.004  0.00  0.00     0.130 A 
ATOM      2  C2  DEN d   1       3.897   0.477  -0.922  0.00  0.00    -0.031 A 
ATOM      3  C3  DEN d   1       2.645   1.211  -0.649  0.00  0.00     0.027 A 
ATOM      4  C4  DEN d   1       0.256   0.288  -0.343  0.00  0.00     0.027 A 
ATOM      5  C5  DEN d   1      -0.513  -0.855  -0.338  0.00  0.00    -0.003 A 
ATOM      6  C6  DEN d   1       0.016  -2.093  -0.585  0.00  0.00     0.001 A 
ATOM      7  C7  DEN d   1       1.362  -2.224  -0.804  0.00  0.00     0.017 A 
ATOM      8  C8  DEN d   1       2.143  -1.076  -0.819  0.00  0.00    -0.094 A 
ATOM      9  C9  DEN d   1       1.591   0.165  -0.555  0.00  0.00    -0.072 A 
ENDROOT
TORSDOF 0
ENDMDL
