MODEL 1
REMARK minimizedAffinity 0.838526845
REMARK minimizedRMSD -1
REMARK  0 active torsions:
REMARK  status: ('A' for Active; 'I' for Inactive)
ROOT
ATOM      1  C1  DEN d   1       0.340   0.123  -0.745  0.00  0.00     0.130 A 
ATOM      2  C2  DEN d   1      -0.457  -1.100  -0.787  0.00  0.00    -0.031 A 
ATOM      3  C3  DEN d   1       0.468  -2.242  -0.934  0.00  0.00     0.027 A 
ATOM      4  C4  DEN d   1       3.043  -2.235  -1.092  0.00  0.00     0.027 A 
ATOM      5  C5  DEN d   1       4.164  -1.435  -1.113  0.00  0.00    -0.003 A 
ATOM      6  C6  DEN d   1       4.088  -0.069  -1.048  0.00  0.00     0.001 A 
ATOM      7  C7  DEN d   1       2.867   0.537  -0.912  0.00  0.00     0.017 A 
ATOM      8  C8  DEN d   1       1.731  -0.263  -0.898  0.00  0.00    -0.094 A 
ATOM      9  C9  DEN d   1       1.830  -1.643  -0.953  0.00  0.00    -0.072 A 
ENDROOT
TORSDOF 0
ENDMDL
