MODEL 1
REMARK minimizedAffinity -4.75211716
REMARK minimizedRMSD -1
REMARK  0 active torsions:
REMARK  status: ('A' for Active; 'I' for Inactive)
ROOT
ATOM      1  C1  DEN d   1       3.864  -1.454  -1.546  0.00  0.00     0.130 A 
ATOM      2  C2  DEN d   1       4.064  -0.036  -1.261  0.00  0.00    -0.031 A 
ATOM      3  C3  DEN d   1       2.742   0.568  -1.000  0.00  0.00     0.027 A 
ATOM      4  C4  DEN d   1       0.418  -0.549  -1.004  0.00  0.00     0.027 A 
ATOM      5  C5  DEN d   1      -0.258  -1.733  -1.202  0.00  0.00    -0.003 A 
ATOM      6  C6  DEN d   1       0.383  -2.889  -1.559  0.00  0.00     0.001 A 
ATOM      7  C7  DEN d   1       1.747  -2.898  -1.685  0.00  0.00     0.017 A 
ATOM      8  C8  DEN d   1       2.435  -1.707  -1.494  0.00  0.00    -0.094 A 
ATOM      9  C9  DEN d   1       1.770  -0.551  -1.122  0.00  0.00    -0.072 A 
ENDROOT
TORSDOF 0
ENDMDL
