MODEL 1
REMARK minimizedAffinity 1.77180731
REMARK minimizedRMSD -1
REMARK  0 active torsions:
REMARK  status: ('A' for Active; 'I' for Inactive)
ROOT
ATOM      1  C1  DEN d   1       0.233   0.758  -0.583  0.00  0.00     0.130 A 
ATOM      2  C2  DEN d   1      -0.736  -0.310  -0.815  0.00  0.00    -0.031 A 
ATOM      3  C3  DEN d   1       0.013  -1.557  -1.073  0.00  0.00     0.027 A 
ATOM      4  C4  DEN d   1       2.563  -1.936  -1.130  0.00  0.00     0.027 A 
ATOM      5  C5  DEN d   1       3.792  -1.326  -1.004  0.00  0.00    -0.003 A 
ATOM      6  C6  DEN d   1       3.920   0.016  -0.764  0.00  0.00     0.001 A 
ATOM      7  C7  DEN d   1       2.799   0.786  -0.599  0.00  0.00     0.017 A 
ATOM      8  C8  DEN d   1       1.556   0.180  -0.732  0.00  0.00    -0.094 A 
ATOM      9  C9  DEN d   1       1.448  -1.181  -0.961  0.00  0.00    -0.072 A 
ENDROOT
TORSDOF 0
ENDMDL
