MODEL 1
REMARK minimizedAffinity -2.84847617
REMARK minimizedRMSD -1
REMARK  3 active torsions:
REMARK  status: ('A' for Active; 'I' for Inactive)
REMARK    1  A    between atoms: C3'_2  and  C2'_3 
REMARK    2  A    between atoms: C2'_3  and  C1'_4 
REMARK    3  A    between atoms: C1'_4  and  C1_5 
ROOT
ATOM      1  C1  N4B d   1       2.011   1.476   0.239  0.00  0.00    -0.075 A 
ATOM      2  C2  N4B d   1       1.878   2.555  -0.662  0.00  0.00     0.002 A 
ATOM      3  C3  N4B d   1       1.963   3.847  -0.205  0.00  0.00     0.002 A 
ATOM      4  C4  N4B d   1       2.162   4.084   1.147  0.00  0.00    -0.004 A 
ATOM      5  C5  N4B d   1       2.314   3.036   2.008  0.00  0.00     0.002 A 
ATOM      6  C6  N4B d   1       2.235   1.733   1.561  0.00  0.00     0.002 A 
ENDROOT
BRANCH   1   7
ATOM      7  C1' N4B d   1       1.840   0.048  -0.200  0.00  0.00     0.057 C 
BRANCH   7   8
ATOM      8  C2' N4B d   1       0.390  -0.176  -0.621  0.00  0.00     0.009 C 
BRANCH   8   9
ATOM      9  C3' N4B d   1      -0.456  -0.713   0.521  0.00  0.00     0.004 C 
ATOM     10  C4' N4B d   1      -1.910  -0.376   0.374  0.00  0.00     0.003 C 
ENDBRANCH   8   9
ENDBRANCH   7   8
ENDBRANCH   1   7
TORSDOF 3
ENDMDL
