MODEL 1
REMARK minimizedAffinity -4.60957193
REMARK minimizedRMSD -1
REMARK  3 active torsions:
REMARK  status: ('A' for Active; 'I' for Inactive)
REMARK    1  A    between atoms: C3'_2  and  C2'_3 
REMARK    2  A    between atoms: C2'_3  and  C1'_4 
REMARK    3  A    between atoms: C1'_4  and  C1_5 
ROOT
ATOM      1  C1  N4B d   1       2.236   1.110   0.759  0.00  0.00    -0.075 A 
ATOM      2  C2  N4B d   1       3.080   1.383  -0.340  0.00  0.00     0.002 A 
ATOM      3  C3  N4B d   1       3.713   2.598  -0.435  0.00  0.00     0.002 A 
ATOM      4  C4  N4B d   1       3.504   3.558   0.543  0.00  0.00    -0.004 A 
ATOM      5  C5  N4B d   1       2.708   3.278   1.614  0.00  0.00     0.002 A 
ATOM      6  C6  N4B d   1       2.068   2.060   1.725  0.00  0.00     0.002 A 
ENDROOT
BRANCH   1   7
ATOM      7  C1' N4B d   1       1.455  -0.171   0.863  0.00  0.00     0.057 C 
BRANCH   7   8
ATOM      8  C2' N4B d   1       0.047   0.056   0.321  0.00  0.00     0.009 C 
BRANCH   8   9
ATOM      9  C3' N4B d   1      -1.004  -0.656   1.155  0.00  0.00     0.004 C 
ATOM     10  C4' N4B d   1      -2.404  -0.315   0.741  0.00  0.00     0.003 C 
ENDBRANCH   8   9
ENDBRANCH   7   8
ENDBRANCH   1   7
TORSDOF 3
ENDMDL
