MODEL 1
REMARK minimizedAffinity -3.91615605
REMARK minimizedRMSD -1
REMARK  3 active torsions:
REMARK  status: ('A' for Active; 'I' for Inactive)
REMARK    1  A    between atoms: C3'_2  and  C2'_3 
REMARK    2  A    between atoms: C2'_3  and  C1'_4 
REMARK    3  A    between atoms: C1'_4  and  C1_5 
ROOT
ATOM      1  C1  N4B d   1       2.488   0.983  -0.288  0.00  0.00    -0.075 A 
ATOM      2  C2  N4B d   1       3.305   1.893  -0.994  0.00  0.00     0.002 A 
ATOM      3  C3  N4B d   1       3.738   3.044  -0.382  0.00  0.00     0.002 A 
ATOM      4  C4  N4B d   1       3.353   3.314   0.922  0.00  0.00    -0.004 A 
ATOM      5  C5  N4B d   1       2.583   2.418   1.605  0.00  0.00     0.002 A 
ATOM      6  C6  N4B d   1       2.144   1.255   1.005  0.00  0.00     0.002 A 
ENDROOT
BRANCH   1   7
ATOM      7  C1' N4B d   1       1.919  -0.246  -0.942  0.00  0.00     0.057 C 
BRANCH   7   8
ATOM      8  C2' N4B d   1       2.827  -0.665  -2.095  0.00  0.00     0.009 C 
BRANCH   8   9
ATOM      9  C3' N4B d   1       2.032  -1.098  -3.315  0.00  0.00     0.004 C 
ATOM     10  C4' N4B d   1       2.278  -0.224  -4.509  0.00  0.00     0.003 C 
ENDBRANCH   8   9
ENDBRANCH   7   8
ENDBRANCH   1   7
TORSDOF 3
ENDMDL
