MODEL 1
REMARK minimizedAffinity -3.14067054
REMARK minimizedRMSD -1
REMARK  3 active torsions:
REMARK  status: ('A' for Active; 'I' for Inactive)
REMARK    1  A    between atoms: C3'_2  and  C2'_3 
REMARK    2  A    between atoms: C2'_3  and  C1'_4 
REMARK    3  A    between atoms: C1'_4  and  C1_5 
ROOT
ATOM      1  C1  N4B d   1       0.551   0.220  -0.034  0.00  0.00    -0.075 A 
ATOM      2  C2  N4B d   1      -0.733   0.302  -0.616  0.00  0.00     0.002 A 
ATOM      3  C3  N4B d   1      -1.788  -0.369  -0.049  0.00  0.00     0.002 A 
ATOM      4  C4  N4B d   1      -1.580  -1.141   1.084  0.00  0.00    -0.004 A 
ATOM      5  C5  N4B d   1      -0.342  -1.195   1.655  0.00  0.00     0.002 A 
ATOM      6  C6  N4B d   1       0.726  -0.521   1.098  0.00  0.00     0.002 A 
ENDROOT
BRANCH   1   7
ATOM      7  C1' N4B d   1       1.753   0.868  -0.666  0.00  0.00     0.057 C 
BRANCH   7   8
ATOM      8  C2' N4B d   1       2.272   1.968   0.255  0.00  0.00     0.009 C 
BRANCH   8   9
ATOM      9  C3' N4B d   1       2.337   3.313  -0.448  0.00  0.00     0.004 C 
ATOM     10  C4' N4B d   1       3.355   3.346  -1.548  0.00  0.00     0.003 C 
ENDBRANCH   8   9
ENDBRANCH   7   8
ENDBRANCH   1   7
TORSDOF 3
ENDMDL
