MODEL 1
REMARK minimizedAffinity -5.33710718
REMARK minimizedRMSD -1
REMARK  3 active torsions:
REMARK  status: ('A' for Active; 'I' for Inactive)
REMARK    1  A    between atoms: C3'_2  and  C2'_3 
REMARK    2  A    between atoms: C2'_3  and  C1'_4 
REMARK    3  A    between atoms: C1'_4  and  C1_5 
ROOT
ATOM      1  C1  N4B d   1      -0.806  -0.130  -1.297  0.00  0.00    -0.075 A 
ATOM      2  C2  N4B d   1      -2.098  -0.645  -1.544  0.00  0.00     0.002 A 
ATOM      3  C3  N4B d   1      -2.969  -0.844  -0.501  0.00  0.00     0.002 A 
ATOM      4  C4  N4B d   1      -2.565  -0.555   0.794  0.00  0.00    -0.004 A 
ATOM      5  C5  N4B d   1      -1.325  -0.034   1.021  0.00  0.00     0.002 A 
ATOM      6  C6  N4B d   1      -0.441   0.175  -0.018  0.00  0.00     0.002 A 
ENDROOT
BRANCH   1   7
ATOM      7  C1' N4B d   1       0.210   0.024  -2.395  0.00  0.00     0.057 C 
BRANCH   7   8
ATOM      8  C2' N4B d   1       1.608  -0.157  -1.812  0.00  0.00     0.009 C 
BRANCH   8   9
ATOM      9  C3' N4B d   1       2.606  -0.621  -2.860  0.00  0.00     0.004 C 
ATOM     10  C4' N4B d   1       2.014  -0.687  -4.236  0.00  0.00     0.003 C 
ENDBRANCH   8   9
ENDBRANCH   7   8
ENDBRANCH   1   7
TORSDOF 3
ENDMDL
