MODEL 1
REMARK minimizedAffinity 0.682343781
REMARK minimizedRMSD -1
REMARK  3 active torsions:
REMARK  status: ('A' for Active; 'I' for Inactive)
REMARK    1  A    between atoms: C3'_2  and  C2'_3 
REMARK    2  A    between atoms: C2'_3  and  C1'_4 
REMARK    3  A    between atoms: C1'_4  and  C1_5 
ROOT
ATOM      1  C1  N4B d   1       1.180  -0.174  -1.219  0.00  0.00    -0.075 A 
ATOM      2  C2  N4B d   1       2.576  -0.354  -1.334  0.00  0.00     0.002 A 
ATOM      3  C3  N4B d   1       3.127  -0.696  -2.544  0.00  0.00     0.002 A 
ATOM      4  C4  N4B d   1       2.303  -0.882  -3.645  0.00  0.00    -0.004 A 
ATOM      5  C5  N4B d   1       0.959  -0.682  -3.532  0.00  0.00     0.002 A 
ATOM      6  C6  N4B d   1       0.391  -0.334  -2.322  0.00  0.00     0.002 A 
ENDROOT
BRANCH   1   7
ATOM      7  C1' N4B d   1       0.522   0.116   0.102  0.00  0.00     0.057 C 
BRANCH   7   8
ATOM      8  C2' N4B d   1       0.668  -1.100   1.012  0.00  0.00     0.009 C 
BRANCH   8   9
ATOM      9  C3' N4B d   1      -0.637  -1.867   1.148  0.00  0.00     0.004 C 
ATOM     10  C4' N4B d   1      -1.701  -1.082   1.855  0.00  0.00     0.003 C 
ENDBRANCH   8   9
ENDBRANCH   7   8
ENDBRANCH   1   7
TORSDOF 3
ENDMDL
