MODEL 1
REMARK minimizedAffinity -2.00450921
REMARK minimizedRMSD -1
REMARK  3 active torsions:
REMARK  status: ('A' for Active; 'I' for Inactive)
REMARK    1  A    between atoms: C3'_2  and  C2'_3 
REMARK    2  A    between atoms: C2'_3  and  C1'_4 
REMARK    3  A    between atoms: C1'_4  and  C1_5 
ROOT
ATOM      1  C1  N4B d   1       0.991   0.073   1.050  0.00  0.00    -0.075 A 
ATOM      2  C2  N4B d   1       1.124  -1.123   1.789  0.00  0.00     0.002 A 
ATOM      3  C3  N4B d   1       0.009  -1.858   2.112  0.00  0.00     0.002 A 
ATOM      4  C4  N4B d   1      -1.244  -1.409   1.724  0.00  0.00    -0.004 A 
ATOM      5  C5  N4B d   1      -1.362  -0.266   0.989  0.00  0.00     0.002 A 
ATOM      6  C6  N4B d   1      -0.250   0.481   0.654  0.00  0.00     0.002 A 
ENDROOT
BRANCH   1   7
ATOM      7  C1' N4B d   1       2.172   0.955   0.748  0.00  0.00     0.057 C 
BRANCH   7   8
ATOM      8  C2' N4B d   1       2.470   1.827   1.964  0.00  0.00     0.009 C 
BRANCH   8   9
ATOM      9  C3' N4B d   1       2.624   3.291   1.590  0.00  0.00     0.004 C 
ATOM     10  C4' N4B d   1       3.055   3.484   0.166  0.00  0.00     0.003 C 
ENDBRANCH   8   9
ENDBRANCH   7   8
ENDBRANCH   1   7
TORSDOF 3
ENDMDL
