MODEL 1
REMARK minimizedAffinity -2.4976697
REMARK minimizedRMSD -1
REMARK  3 active torsions:
REMARK  status: ('A' for Active; 'I' for Inactive)
REMARK    1  A    between atoms: C3'_2  and  C2'_3 
REMARK    2  A    between atoms: C2'_3  and  C1'_4 
REMARK    3  A    between atoms: C1'_4  and  C1_5 
ROOT
ATOM      1  C1  N4B d   1      -0.017  -0.114  -0.297  0.00  0.00    -0.075 A 
ATOM      2  C2  N4B d   1       0.092   0.059  -1.694  0.00  0.00     0.002 A 
ATOM      3  C3  N4B d   1      -0.976  -0.231  -2.508  0.00  0.00     0.002 A 
ATOM      4  C4  N4B d   1      -2.152  -0.711  -1.950  0.00  0.00    -0.004 A 
ATOM      5  C5  N4B d   1      -2.258  -0.851  -0.598  0.00  0.00     0.002 A 
ATOM      6  C6  N4B d   1      -1.194  -0.560   0.232  0.00  0.00     0.002 A 
ENDROOT
BRANCH   1   7
ATOM      7  C1' N4B d   1       1.151   0.108   0.624  0.00  0.00     0.057 C 
BRANCH   7   8
ATOM      8  C2' N4B d   1       2.047   1.198   0.043  0.00  0.00     0.009 C 
BRANCH   8   9
ATOM      9  C3' N4B d   1       2.695   2.040   1.129  0.00  0.00     0.004 C 
ATOM     10  C4' N4B d   1       2.907   3.464   0.710  0.00  0.00     0.003 C 
ENDBRANCH   8   9
ENDBRANCH   7   8
ENDBRANCH   1   7
TORSDOF 3
ENDMDL
