MODEL 1
REMARK minimizedAffinity -5.94149685
REMARK minimizedRMSD -1
REMARK  3 active torsions:
REMARK  status: ('A' for Active; 'I' for Inactive)
REMARK    1  A    between atoms: C3'_2  and  C2'_3 
REMARK    2  A    between atoms: C2'_3  and  C1'_4 
REMARK    3  A    between atoms: C1'_4  and  C1_5 
ROOT
ATOM      1  C1  N4B d   1      -0.435   0.167   0.285  0.00  0.00    -0.075 A 
ATOM      2  C2  N4B d   1      -1.604   0.379   1.048  0.00  0.00     0.002 A 
ATOM      3  C3  N4B d   1      -1.508   0.854   2.333  0.00  0.00     0.002 A 
ATOM      4  C4  N4B d   1      -0.258   1.105   2.880  0.00  0.00    -0.004 A 
ATOM      5  C5  N4B d   1       0.865   0.922   2.127  0.00  0.00     0.002 A 
ATOM      6  C6  N4B d   1       0.783   0.449   0.833  0.00  0.00     0.002 A 
ENDROOT
BRANCH   1   7
ATOM      7  C1' N4B d   1      -0.485  -0.432  -1.094  0.00  0.00     0.057 C 
BRANCH   7   8
ATOM      8  C2' N4B d   1       0.916  -0.418  -1.698  0.00  0.00     0.009 C 
BRANCH   8   9
ATOM      9  C3' N4B d   1       0.884  -0.253  -3.207  0.00  0.00     0.004 C 
ATOM     10  C4' N4B d   1       1.953   0.667  -3.714  0.00  0.00     0.003 C 
ENDBRANCH   8   9
ENDBRANCH   7   8
ENDBRANCH   1   7
TORSDOF 3
ENDMDL
