MODEL 1
REMARK minimizedAffinity -4.54816294
REMARK minimizedRMSD -1
REMARK  3 active torsions:
REMARK  status: ('A' for Active; 'I' for Inactive)
REMARK    1  A    between atoms: C3'_2  and  C2'_3 
REMARK    2  A    between atoms: C2'_3  and  C1'_4 
REMARK    3  A    between atoms: C1'_4  and  C1_5 
ROOT
ATOM      1  C1  N4B d   1      -0.044  -0.173   0.364  0.00  0.00    -0.075 A 
ATOM      2  C2  N4B d   1      -1.452  -0.109   0.455  0.00  0.00     0.002 A 
ATOM      3  C3  N4B d   1      -2.043   0.702   1.393  0.00  0.00     0.002 A 
ATOM      4  C4  N4B d   1      -1.249   1.441   2.258  0.00  0.00    -0.004 A 
ATOM      5  C5  N4B d   1       0.109   1.392   2.146  0.00  0.00     0.002 A 
ATOM      6  C6  N4B d   1       0.717   0.584   1.206  0.00  0.00     0.002 A 
ENDROOT
BRANCH   1   7
ATOM      7  C1' N4B d   1       0.648  -1.111  -0.588  0.00  0.00     0.057 C 
BRANCH   7   8
ATOM      8  C2' N4B d   1       1.140  -0.323  -1.798  0.00  0.00     0.009 C 
BRANCH   8   9
ATOM      9  C3' N4B d   1       0.198  -0.453  -2.983  0.00  0.00     0.004 C 
ATOM     10  C4' N4B d   1       0.595   0.416  -4.138  0.00  0.00     0.003 C 
ENDBRANCH   8   9
ENDBRANCH   7   8
ENDBRANCH   1   7
TORSDOF 3
ENDMDL
