MODEL 1
REMARK minimizedAffinity -4.21436405
REMARK minimizedRMSD -1
REMARK  3 active torsions:
REMARK  status: ('A' for Active; 'I' for Inactive)
REMARK    1  A    between atoms: C3'_2  and  C2'_3 
REMARK    2  A    between atoms: C2'_3  and  C1'_4 
REMARK    3  A    between atoms: C1'_4  and  C1_5 
ROOT
ATOM      1  C1  N4B d   1       0.026  -0.256  -0.084  0.00  0.00    -0.075 A 
ATOM      2  C2  N4B d   1       0.534   0.212   1.147  0.00  0.00     0.002 A 
ATOM      3  C3  N4B d   1      -0.320   0.728   2.091  0.00  0.00     0.002 A 
ATOM      4  C4  N4B d   1      -1.678   0.803   1.819  0.00  0.00    -0.004 A 
ATOM      5  C5  N4B d   1      -2.164   0.325   0.637  0.00  0.00     0.002 A 
ATOM      6  C6  N4B d   1      -1.317  -0.200  -0.319  0.00  0.00     0.002 A 
ENDROOT
BRANCH   1   7
ATOM      7  C1' N4B d   1       0.930  -0.749  -1.180  0.00  0.00     0.057 C 
BRANCH   7   8
ATOM      8  C2' N4B d   1       0.165  -0.747  -2.500  0.00  0.00     0.009 C 
BRANCH   8   9
ATOM      9  C3' N4B d   1       0.923  -0.016  -3.595  0.00  0.00     0.004 C 
ATOM     10  C4' N4B d   1       2.160   0.665  -3.090  0.00  0.00     0.003 C 
ENDBRANCH   8   9
ENDBRANCH   7   8
ENDBRANCH   1   7
TORSDOF 3
ENDMDL
