MODEL 1
REMARK minimizedAffinity -5.73813105
REMARK minimizedRMSD -1
REMARK  3 active torsions:
REMARK  status: ('A' for Active; 'I' for Inactive)
REMARK    1  A    between atoms: C3'_2  and  C2'_3 
REMARK    2  A    between atoms: C2'_3  and  C1'_4 
REMARK    3  A    between atoms: C1'_4  and  C1_5 
ROOT
ATOM      1  C1  N4B d   1      -0.140   0.009   0.622  0.00  0.00    -0.075 A 
ATOM      2  C2  N4B d   1      -1.490   0.132   1.017  0.00  0.00     0.002 A 
ATOM      3  C3  N4B d   1      -1.803   0.734   2.211  0.00  0.00     0.002 A 
ATOM      4  C4  N4B d   1      -0.787   1.201   3.031  0.00  0.00    -0.004 A 
ATOM      5  C5  N4B d   1       0.513   1.100   2.630  0.00  0.00     0.002 A 
ATOM      6  C6  N4B d   1       0.843   0.501   1.431  0.00  0.00     0.002 A 
ENDROOT
BRANCH   1   7
ATOM      7  C1' N4B d   1       0.257  -0.718  -0.634  0.00  0.00     0.057 C 
BRANCH   7   8
ATOM      8  C2' N4B d   1       0.731   0.296  -1.671  0.00  0.00     0.009 C 
BRANCH   8   9
ATOM      9  C3' N4B d   1       0.622  -0.246  -3.086  0.00  0.00     0.004 C 
ATOM     10  C4' N4B d   1       1.469   0.513  -4.065  0.00  0.00     0.003 C 
ENDBRANCH   8   9
ENDBRANCH   7   8
ENDBRANCH   1   7
TORSDOF 3
ENDMDL
