MODEL 1
REMARK minimizedAffinity -3.95062852
REMARK minimizedRMSD -1
REMARK  0 active torsions:
REMARK  status: ('A' for Active; 'I' for Inactive)
ROOT
ATOM      1  N1  IND d   1      -0.766   0.509   0.175  0.00  0.00    -0.196 N 
ATOM      2  C2  IND d   1       0.175   1.076  -0.638  0.00  0.00     0.054 A 
ATOM      3  C3  IND d   1       1.328   0.371  -0.586  0.00  0.00    -0.031 A 
ATOM      4  C4  IND d   1       1.860  -1.802   0.687  0.00  0.00     0.051 A 
ATOM      5  C5  IND d   1       1.329  -2.678   1.591  0.00  0.00    -0.031 A 
ATOM      6  C6  IND d   1       0.045  -2.536   2.077  0.00  0.00     0.015 A 
ATOM      7  C7  IND d   1      -0.762  -1.513   1.667  0.00  0.00    -0.016 A 
ATOM      8  C8  IND d   1      -0.224  -0.618   0.754  0.00  0.00    -0.047 A 
ATOM      9  C9  IND d   1       1.093  -0.733   0.289  0.00  0.00    -0.096 A 
ATOM     10  HN1 IND d   1      -1.563   0.805   0.303  0.00  0.00     0.298 HD
ENDROOT
TORSDOF 0
ENDMDL
