MODEL 1
REMARK minimizedAffinity -3.87235355
REMARK minimizedRMSD -1
REMARK  0 active torsions:
REMARK  status: ('A' for Active; 'I' for Inactive)
ROOT
ATOM      1  N1  IND d   1      -0.953   0.169   0.538  0.00  0.00    -0.196 N 
ATOM      2  C2  IND d   1      -0.568   0.136  -0.773  0.00  0.00     0.054 A 
ATOM      3  C3  IND d   1       0.297  -0.882  -0.983  0.00  0.00    -0.031 A 
ATOM      4  C4  IND d   1       1.140  -2.678   0.657  0.00  0.00     0.051 A 
ATOM      5  C5  IND d   1       1.095  -3.040   1.974  0.00  0.00    -0.031 A 
ATOM      6  C6  IND d   1       0.349  -2.338   2.898  0.00  0.00     0.015 A 
ATOM      7  C7  IND d   1      -0.394  -1.250   2.536  0.00  0.00    -0.016 A 
ATOM      8  C8  IND d   1      -0.345  -0.875   1.200  0.00  0.00    -0.047 A 
ATOM      9  C9  IND d   1       0.444  -1.558   0.266  0.00  0.00    -0.096 A 
ATOM     10  HN1 IND d   1      -1.485   0.746   0.890  0.00  0.00     0.298 HD
ENDROOT
TORSDOF 0
ENDMDL
