MODEL 1
REMARK minimizedAffinity -3.26414013
REMARK minimizedRMSD -1
REMARK  0 active torsions:
REMARK  status: ('A' for Active; 'I' for Inactive)
ROOT
ATOM      1  N1  IND d   1       2.288  -2.009   0.714  0.00  0.00    -0.196 N 
ATOM      2  C2  IND d   1       1.750  -3.065   1.396  0.00  0.00     0.054 A 
ATOM      3  C3  IND d   1       0.444  -2.836   1.663  0.00  0.00    -0.031 A 
ATOM      4  C4  IND d   1      -1.038  -0.843   0.986  0.00  0.00     0.051 A 
ATOM      5  C5  IND d   1      -0.986   0.384   0.387  0.00  0.00    -0.031 A 
ATOM      6  C6  IND d   1       0.183   0.885  -0.148  0.00  0.00     0.015 A 
ATOM      7  C7  IND d   1       1.347   0.169  -0.113  0.00  0.00    -0.016 A 
ATOM      8  C8  IND d   1       1.299  -1.074   0.502  0.00  0.00    -0.047 A 
ATOM      9  C9  IND d   1       0.125  -1.570   1.084  0.00  0.00    -0.096 A 
ATOM     10  HN1 IND d   1       3.107  -1.941   0.460  0.00  0.00     0.298 HD
ENDROOT
TORSDOF 0
ENDMDL
