MODEL 1
REMARK minimizedAffinity -5.38669729
REMARK minimizedRMSD -1
REMARK  0 active torsions:
REMARK  status: ('A' for Active; 'I' for Inactive)
ROOT
ATOM      1  N1  IND d   1      -1.365   0.532   1.020  0.00  0.00    -0.196 N 
ATOM      2  C2  IND d   1      -1.137   1.256  -0.117  0.00  0.00     0.054 A 
ATOM      3  C3  IND d   1      -0.107   0.726  -0.814  0.00  0.00    -0.031 A 
ATOM      4  C4  IND d   1       1.282  -1.387  -0.326  0.00  0.00     0.051 A 
ATOM      5  C5  IND d   1       1.468  -2.360   0.615  0.00  0.00    -0.031 A 
ATOM      6  C6  IND d   1       0.703  -2.421   1.762  0.00  0.00     0.015 A 
ATOM      7  C7  IND d   1      -0.290  -1.515   2.005  0.00  0.00    -0.016 A 
ATOM      8  C8  IND d   1      -0.478  -0.521   1.055  0.00  0.00    -0.047 A 
ATOM      9  C9  IND d   1       0.324  -0.429  -0.090  0.00  0.00    -0.096 A 
ATOM     10  HN1 IND d   1      -1.962   0.705   1.614  0.00  0.00     0.298 HD
ENDROOT
TORSDOF 0
ENDMDL
