MODEL 1
REMARK minimizedAffinity -4.67586946
REMARK minimizedRMSD -1
REMARK  0 active torsions:
REMARK  status: ('A' for Active; 'I' for Inactive)
ROOT
ATOM      1  N1  IND d   1      -0.744  -1.404   2.073  0.00  0.00    -0.196 N 
ATOM      2  C2  IND d   1      -0.214  -2.444   2.786  0.00  0.00     0.054 A 
ATOM      3  C3  IND d   1       0.991  -2.793   2.282  0.00  0.00    -0.031 A 
ATOM      4  C4  IND d   1       2.329  -1.731   0.356  0.00  0.00     0.051 A 
ATOM      5  C5  IND d   1       2.240  -0.778  -0.620  0.00  0.00    -0.031 A 
ATOM      6  C6  IND d   1       1.131   0.032  -0.749  0.00  0.00     0.015 A 
ATOM      7  C7  IND d   1       0.069  -0.073   0.104  0.00  0.00    -0.016 A 
ATOM      8  C8  IND d   1       0.153  -1.043   1.092  0.00  0.00    -0.047 A 
ATOM      9  C9  IND d   1       1.258  -1.897   1.202  0.00  0.00    -0.096 A 
ATOM     10  HN1 IND d   1      -1.509  -1.038   2.214  0.00  0.00     0.298 HD
ENDROOT
TORSDOF 0
ENDMDL
