MODEL 1
REMARK minimizedAffinity -5.12961292
REMARK minimizedRMSD -1
REMARK  0 active torsions:
REMARK  status: ('A' for Active; 'I' for Inactive)
ROOT
ATOM      1  N1  IND d   1      -1.721   0.053   1.825  0.00  0.00    -0.196 N 
ATOM      2  C2  IND d   1      -1.689   0.988   0.829  0.00  0.00     0.054 A 
ATOM      3  C3  IND d   1      -0.555   0.864   0.103  0.00  0.00    -0.031 A 
ATOM      4  C4  IND d   1       1.338  -0.869   0.311  0.00  0.00     0.051 A 
ATOM      5  C5  IND d   1       1.772  -1.902   1.093  0.00  0.00    -0.031 A 
ATOM      6  C6  IND d   1       1.048  -2.347   2.181  0.00  0.00     0.015 A 
ATOM      7  C7  IND d   1      -0.148  -1.780   2.520  0.00  0.00    -0.016 A 
ATOM      8  C8  IND d   1      -0.588  -0.726   1.732  0.00  0.00    -0.047 A 
ATOM      9  C9  IND d   1       0.163  -0.243   0.653  0.00  0.00    -0.096 A 
ATOM     10  HN1 IND d   1      -2.343  -0.034   2.412  0.00  0.00     0.298 HD
ENDROOT
TORSDOF 0
ENDMDL
