MODEL 1
REMARK minimizedAffinity -4.89080286
REMARK minimizedRMSD -1
REMARK  0 active torsions:
REMARK  status: ('A' for Active; 'I' for Inactive)
ROOT
ATOM      1  N1  IND d   1      -1.025   0.450   1.296  0.00  0.00    -0.196 N 
ATOM      2  C2  IND d   1      -0.611   1.487   0.507  0.00  0.00     0.054 A 
ATOM      3  C3  IND d   1       0.595   1.212  -0.037  0.00  0.00    -0.031 A 
ATOM      4  C4  IND d   1       2.025  -0.921   0.148  0.00  0.00     0.051 A 
ATOM      5  C5  IND d   1       2.081  -2.128   0.787  0.00  0.00    -0.031 A 
ATOM      6  C6  IND d   1       1.084  -2.547   1.643  0.00  0.00     0.015 A 
ATOM      7  C7  IND d   1      -0.018  -1.776   1.884  0.00  0.00    -0.016 A 
ATOM      8  C8  IND d   1      -0.075  -0.547   1.243  0.00  0.00    -0.047 A 
ATOM      9  C9  IND d   1       0.955  -0.097   0.407  0.00  0.00    -0.096 A 
ATOM     10  HN1 IND d   1      -1.755   0.424   1.749  0.00  0.00     0.298 HD
ENDROOT
TORSDOF 0
ENDMDL
