MODEL 1
REMARK minimizedAffinity -4.97508717
REMARK minimizedRMSD -1
REMARK  0 active torsions:
REMARK  status: ('A' for Active; 'I' for Inactive)
ROOT
ATOM      1  N1  IND d   1      -0.790   0.168   0.783  0.00  0.00    -0.196 N 
ATOM      2  C2  IND d   1      -0.233   0.490  -0.423  0.00  0.00     0.054 A 
ATOM      3  C3  IND d   1       0.700  -0.424  -0.769  0.00  0.00    -0.031 A 
ATOM      4  C4  IND d   1       1.404  -2.583   0.443  0.00  0.00     0.051 A 
ATOM      5  C5  IND d   1       1.203  -3.284   1.599  0.00  0.00    -0.031 A 
ATOM      6  C6  IND d   1       0.307  -2.863   2.560  0.00  0.00     0.015 A 
ATOM      7  C7  IND d   1      -0.433  -1.726   2.395  0.00  0.00    -0.016 A 
ATOM      8  C8  IND d   1      -0.226  -1.008   1.226  0.00  0.00    -0.047 A 
ATOM      9  C9  IND d   1       0.713  -1.408   0.266  0.00  0.00    -0.096 A 
ATOM     10  HN1 IND d   1      -1.392   0.623   1.196  0.00  0.00     0.298 HD
ENDROOT
TORSDOF 0
ENDMDL
