MODEL 1
REMARK minimizedAffinity -4.83762789
REMARK minimizedRMSD -1
REMARK  0 active torsions:
REMARK  status: ('A' for Active; 'I' for Inactive)
ROOT
ATOM      1  N1  IND d   1       0.964   0.460  -0.085  0.00  0.00    -0.196 N 
ATOM      2  C2  IND d   1      -0.249   1.089  -0.118  0.00  0.00     0.054 A 
ATOM      3  C3  IND d   1      -1.184   0.341   0.510  0.00  0.00    -0.031 A 
ATOM      4  C4  IND d   1      -0.923  -1.899   1.751  0.00  0.00     0.051 A 
ATOM      5  C5  IND d   1      -0.012  -2.881   2.020  0.00  0.00    -0.031 A 
ATOM      6  C6  IND d   1       1.298  -2.797   1.595  0.00  0.00     0.015 A 
ATOM      7  C7  IND d   1       1.751  -1.717   0.892  0.00  0.00    -0.016 A 
ATOM      8  C8  IND d   1       0.827  -0.721   0.610  0.00  0.00    -0.047 A 
ATOM      9  C9  IND d   1      -0.515  -0.820   1.002  0.00  0.00    -0.096 A 
ATOM     10  HN1 IND d   1       1.690   0.753  -0.440  0.00  0.00     0.298 HD
ENDROOT
TORSDOF 0
ENDMDL
