MODEL 1
REMARK minimizedAffinity -5.91104984
REMARK minimizedRMSD -1
REMARK  0 active torsions:
REMARK  status: ('A' for Active; 'I' for Inactive)
ROOT
ATOM      1  N1  IND d   1      -0.816   0.186   0.380  0.00  0.00    -0.196 N 
ATOM      2  C2  IND d   1       0.047   0.600  -0.596  0.00  0.00     0.054 A 
ATOM      3  C3  IND d   1       1.173  -0.148  -0.576  0.00  0.00    -0.031 A 
ATOM      4  C4  IND d   1       1.769  -2.168   0.904  0.00  0.00     0.051 A 
ATOM      5  C5  IND d   1       1.313  -2.897   1.966  0.00  0.00    -0.031 A 
ATOM      6  C6  IND d   1       0.098  -2.632   2.564  0.00  0.00     0.015 A 
ATOM      7  C7  IND d   1      -0.715  -1.631   2.113  0.00  0.00    -0.016 A 
ATOM      8  C8  IND d   1      -0.252  -0.884   1.039  0.00  0.00    -0.047 A 
ATOM      9  C9  IND d   1       1.000  -1.121   0.455  0.00  0.00    -0.096 A 
ATOM     10  HN1 IND d   1      -1.582   0.535   0.553  0.00  0.00     0.298 HD
ENDROOT
TORSDOF 0
ENDMDL
