MODEL 1
REMARK minimizedAffinity -5.82535887
REMARK minimizedRMSD -1
REMARK  0 active torsions:
REMARK  status: ('A' for Active; 'I' for Inactive)
ROOT
ATOM      1  N1  IND d   1      -0.952   0.163   0.156  0.00  0.00    -0.196 N 
ATOM      2  C2  IND d   1      -0.100   0.765  -0.728  0.00  0.00     0.054 A 
ATOM      3  C3  IND d   1       1.125   0.197  -0.660  0.00  0.00    -0.031 A 
ATOM      4  C4  IND d   1       1.928  -1.798   0.754  0.00  0.00     0.051 A 
ATOM      5  C5  IND d   1       1.520  -2.654   1.738  0.00  0.00    -0.031 A 
ATOM      6  C6  IND d   1       0.241  -2.616   2.254  0.00  0.00     0.015 A 
ATOM      7  C7  IND d   1      -0.686  -1.723   1.795  0.00  0.00    -0.016 A 
ATOM      8  C8  IND d   1      -0.273  -0.848   0.800  0.00  0.00    -0.047 A 
ATOM      9  C9  IND d   1       1.036  -0.854   0.303  0.00  0.00    -0.096 A 
ATOM     10  HN1 IND d   1      -1.773   0.380   0.288  0.00  0.00     0.298 HD
ENDROOT
TORSDOF 0
ENDMDL
