MODEL 1
REMARK minimizedAffinity -2.38276267
REMARK minimizedRMSD -1
REMARK  0 active torsions:
REMARK  status: ('A' for Active; 'I' for Inactive)
ROOT
ATOM      1  N1  IND d   1      -1.505   1.067   0.847  0.00  0.00    -0.196 N 
ATOM      2  C2  IND d   1      -1.432   1.835  -0.282  0.00  0.00     0.054 A 
ATOM      3  C3  IND d   1      -0.313   1.538  -0.981  0.00  0.00    -0.031 A 
ATOM      4  C4  IND d   1       1.485  -0.244  -0.510  0.00  0.00     0.051 A 
ATOM      5  C5  IND d   1       1.869  -1.166   0.423  0.00  0.00    -0.031 A 
ATOM      6  C6  IND d   1       1.132  -1.398   1.566  0.00  0.00     0.015 A 
ATOM      7  C7  IND d   1      -0.028  -0.721   1.815  0.00  0.00    -0.016 A 
ATOM      8  C8  IND d   1      -0.418   0.222   0.874  0.00  0.00    -0.047 A 
ATOM      9  C9  IND d   1       0.348   0.491  -0.268  0.00  0.00    -0.096 A 
ATOM     10  HN1 IND d   1      -2.126   1.106   1.440  0.00  0.00     0.298 HD
ENDROOT
TORSDOF 0
ENDMDL
