MODEL 1
REMARK minimizedAffinity -6.16167116
REMARK minimizedRMSD -1
REMARK  0 active torsions:
REMARK  status: ('A' for Active; 'I' for Inactive)
ROOT
ATOM      1  N1  IND d   1      -1.292   0.364   1.944  0.00  0.00    -0.196 N 
ATOM      2  C2  IND d   1      -1.032   1.330   1.013  0.00  0.00     0.054 A 
ATOM      3  C3  IND d   1      -0.002   0.956   0.222  0.00  0.00    -0.031 A 
ATOM      4  C4  IND d   1       1.337  -1.243   0.212  0.00  0.00     0.051 A 
ATOM      5  C5  IND d   1       1.490  -2.414   0.899  0.00  0.00    -0.031 A 
ATOM      6  C6  IND d   1       0.705  -2.727   1.990  0.00  0.00     0.015 A 
ATOM      7  C7  IND d   1      -0.273  -1.881   2.429  0.00  0.00    -0.016 A 
ATOM      8  C8  IND d   1      -0.426  -0.688   1.739  0.00  0.00    -0.047 A 
ATOM      9  C9  IND d   1       0.395  -0.346   0.657  0.00  0.00    -0.096 A 
ATOM     10  HN1 IND d   1      -1.895   0.406   2.556  0.00  0.00     0.298 HD
ENDROOT
TORSDOF 0
ENDMDL
