MODEL 1
REMARK minimizedAffinity -5.75855732
REMARK minimizedRMSD -1
REMARK  0 active torsions:
REMARK  status: ('A' for Active; 'I' for Inactive)
ROOT
ATOM      1  N1  IND d   1       0.330  -1.903   2.387  0.00  0.00    -0.196 N 
ATOM      2  C2  IND d   1       1.529  -2.515   2.150  0.00  0.00     0.054 A 
ATOM      3  C3  IND d   1       2.154  -1.934   1.101  0.00  0.00    -0.031 A 
ATOM      4  C4  IND d   1       1.438   0.098  -0.308  0.00  0.00     0.051 A 
ATOM      5  C5  IND d   1       0.402   0.971  -0.491  0.00  0.00    -0.031 A 
ATOM      6  C6  IND d   1      -0.732   0.930   0.293  0.00  0.00     0.015 A 
ATOM      7  C7  IND d   1      -0.869   0.020   1.302  0.00  0.00    -0.016 A 
ATOM      8  C8  IND d   1       0.178  -0.872   1.486  0.00  0.00    -0.047 A 
ATOM      9  C9  IND d   1       1.313  -0.864   0.666  0.00  0.00    -0.096 A 
ATOM     10  HN1 IND d   1      -0.234  -2.125   2.997  0.00  0.00     0.298 HD
ENDROOT
TORSDOF 0
ENDMDL
