MODEL 1
REMARK minimizedAffinity -5.38273716
REMARK minimizedRMSD -1
REMARK  0 active torsions:
REMARK  status: ('A' for Active; 'I' for Inactive)
ROOT
ATOM      1  N1  IND d   1      -1.151   0.604   0.572  0.00  0.00    -0.196 N 
ATOM      2  C2  IND d   1      -0.208   1.080  -0.296  0.00  0.00     0.054 A 
ATOM      3  C3  IND d   1       0.846   0.235  -0.355  0.00  0.00    -0.031 A 
ATOM      4  C4  IND d   1       1.190  -2.034   0.810  0.00  0.00     0.051 A 
ATOM      5  C5  IND d   1       0.621  -2.871   1.728  0.00  0.00    -0.031 A 
ATOM      6  C6  IND d   1      -0.594  -2.588   2.318  0.00  0.00     0.015 A 
ATOM      7  C7  IND d   1      -1.293  -1.458   2.001  0.00  0.00    -0.016 A 
ATOM      8  C8  IND d   1      -0.715  -0.602   1.075  0.00  0.00    -0.047 A 
ATOM      9  C9  IND d   1       0.538  -0.863   0.505  0.00  0.00    -0.096 A 
ATOM     10  HN1 IND d   1      -1.891   0.993   0.771  0.00  0.00     0.298 HD
ENDROOT
TORSDOF 0
ENDMDL
