MODEL 1
REMARK minimizedAffinity 9.79034805
REMARK minimizedRMSD -1
REMARK  0 active torsions:
REMARK  status: ('A' for Active; 'I' for Inactive)
ROOT
ATOM      1  C   UNL d   1      -5.441  -0.013   1.170  0.00  0.00     0.020 A 
ATOM      2  C1  UNL d   1      -4.131   0.463   1.126  0.00  0.00     0.020 A 
ATOM      3  C2  UNL d   1      -3.377   0.325  -0.041  0.00  0.00     0.034 A 
ATOM      4  C3  UNL d   1      -3.932  -0.291  -1.169  0.00  0.00     0.017 A 
ATOM      5  C4  UNL d   1      -5.247  -0.768  -1.124  0.00  0.00     0.017 A 
ATOM      6  C5  UNL d   1      -5.998  -0.627   0.048  0.00  0.00     0.034 A 
ATOM      7 Cl   UNL d   1      -6.000  -1.539  -2.475  0.00  0.00    -0.070 Cl
ATOM      8 Cl1  UNL d   1      -2.942  -0.427  -2.579  0.00  0.00    -0.070 Cl
ENDROOT
TORSDOF 0
ENDMDL
