MODEL 1
REMARK minimizedAffinity 12.5818262
REMARK minimizedRMSD -1
REMARK  0 active torsions:
REMARK  status: ('A' for Active; 'I' for Inactive)
ROOT
ATOM      1  C   UNL d   1      -2.708   0.797   1.204  0.00  0.00     0.020 A 
ATOM      2  C1  UNL d   1      -3.848   1.296   0.575  0.00  0.00     0.020 A 
ATOM      3  C2  UNL d   1      -4.851   0.421   0.152  0.00  0.00     0.034 A 
ATOM      4  C3  UNL d   1      -4.716  -0.957   0.356  0.00  0.00     0.017 A 
ATOM      5  C4  UNL d   1      -3.572  -1.457   0.987  0.00  0.00     0.017 A 
ATOM      6  C5  UNL d   1      -2.570  -0.577   1.409  0.00  0.00     0.034 A 
ATOM      7 Cl   UNL d   1      -3.334  -3.144   1.274  0.00  0.00    -0.070 Cl
ATOM      8 Cl1  UNL d   1      -5.996  -1.979  -0.193  0.00  0.00    -0.070 Cl
ENDROOT
TORSDOF 0
ENDMDL
