MODEL 1
REMARK minimizedAffinity 6.47240734
REMARK minimizedRMSD -1
REMARK  0 active torsions:
REMARK  status: ('A' for Active; 'I' for Inactive)
ROOT
ATOM      1  C   UNL d   1      -4.562  -0.638  -0.948  0.00  0.00     0.020 A 
ATOM      2  C1  UNL d   1      -3.824  -1.194   0.096  0.00  0.00     0.020 A 
ATOM      3  C2  UNL d   1      -2.433  -1.075   0.107  0.00  0.00     0.034 A 
ATOM      4  C3  UNL d   1      -1.775  -0.399  -0.926  0.00  0.00     0.017 A 
ATOM      5  C4  UNL d   1      -2.517   0.159  -1.974  0.00  0.00     0.017 A 
ATOM      6  C5  UNL d   1      -3.910   0.037  -1.981  0.00  0.00     0.034 A 
ATOM      7 Cl   UNL d   1      -1.776   1.009  -3.284  0.00  0.00    -0.070 Cl
ATOM      8 Cl1  UNL d   1      -0.052  -0.290  -0.847  0.00  0.00    -0.070 Cl
ENDROOT
TORSDOF 0
ENDMDL
