MODEL 1
REMARK minimizedAffinity 8.24010944
REMARK minimizedRMSD -1
REMARK  0 active torsions:
REMARK  status: ('A' for Active; 'I' for Inactive)
ROOT
ATOM      1  C   UNL d   1      -0.431  -2.744  -1.968  0.00  0.00     0.020 A 
ATOM      2  C1  UNL d   1      -0.558  -3.576  -0.856  0.00  0.00     0.020 A 
ATOM      3  C2  UNL d   1       0.238  -3.362   0.271  0.00  0.00     0.034 A 
ATOM      4  C3  UNL d   1       1.165  -2.313   0.289  0.00  0.00     0.017 A 
ATOM      5  C4  UNL d   1       1.291  -1.478  -0.827  0.00  0.00     0.017 A 
ATOM      6  C5  UNL d   1       0.491  -1.697  -1.953  0.00  0.00     0.034 A 
ATOM      7 Cl   UNL d   1       2.412  -0.163  -0.879  0.00  0.00    -0.070 Cl
ATOM      8 Cl1  UNL d   1       2.116  -2.106   1.716  0.00  0.00    -0.070 Cl
ENDROOT
TORSDOF 0
ENDMDL
