MODEL 1
REMARK minimizedAffinity 0.0581323877
REMARK minimizedRMSD -1
REMARK  0 active torsions:
REMARK  status: ('A' for Active; 'I' for Inactive)
ROOT
ATOM      1  C   UNL d   1      -1.107  -1.940   5.933  0.00  0.00     0.020 A 
ATOM      2  C1  UNL d   1       0.171  -1.381   5.951  0.00  0.00     0.020 A 
ATOM      3  C2  UNL d   1       1.295  -2.210   5.964  0.00  0.00     0.034 A 
ATOM      4  C3  UNL d   1       1.144  -3.601   5.960  0.00  0.00     0.017 A 
ATOM      5  C4  UNL d   1      -0.138  -4.161   5.942  0.00  0.00     0.017 A 
ATOM      6  C5  UNL d   1      -1.261  -3.327   5.929  0.00  0.00     0.034 A 
ATOM      7 Cl   UNL d   1      -0.404  -5.869   5.935  0.00  0.00    -0.070 Cl
ATOM      8 Cl1  UNL d   1       2.578  -4.565   5.976  0.00  0.00    -0.070 Cl
ENDROOT
TORSDOF 0
ENDMDL
