MODEL 1
REMARK minimizedAffinity 3.19685292
REMARK minimizedRMSD -1
REMARK  0 active torsions:
REMARK  status: ('A' for Active; 'I' for Inactive)
ROOT
ATOM      1  C   UNL d   1      -1.531  -3.716   6.000  0.00  0.00     0.020 A 
ATOM      2  C1  UNL d   1      -1.467  -5.109   5.998  0.00  0.00     0.020 A 
ATOM      3  C2  UNL d   1      -0.226  -5.751   5.996  0.00  0.00     0.034 A 
ATOM      4  C3  UNL d   1       0.955  -5.000   5.996  0.00  0.00     0.017 A 
ATOM      5  C4  UNL d   1       0.889  -3.602   5.997  0.00  0.00     0.017 A 
ATOM      6  C5  UNL d   1      -0.356  -2.964   5.999  0.00  0.00     0.034 A 
ATOM      7 Cl   UNL d   1       2.303  -2.608   5.996  0.00  0.00    -0.070 Cl
ATOM      8 Cl1  UNL d   1       2.453  -5.860   5.993  0.00  0.00    -0.070 Cl
ENDROOT
TORSDOF 0
ENDMDL
