MODEL 1
REMARK minimizedAffinity 2.55449605
REMARK minimizedRMSD -1
REMARK  0 active torsions:
REMARK  status: ('A' for Active; 'I' for Inactive)
ROOT
ATOM      1  C   UNL d   1      -1.493  -3.458   5.997  0.00  0.00     0.020 A 
ATOM      2  C1  UNL d   1      -0.782  -4.657   5.998  0.00  0.00     0.020 A 
ATOM      3  C2  UNL d   1       0.614  -4.641   5.999  0.00  0.00     0.034 A 
ATOM      4  C3  UNL d   1       1.304  -3.424   5.999  0.00  0.00     0.017 A 
ATOM      5  C4  UNL d   1       0.590  -2.220   5.998  0.00  0.00     0.017 A 
ATOM      6  C5  UNL d   1      -0.808  -2.242   5.997  0.00  0.00     0.034 A 
ATOM      7 Cl   UNL d   1       1.371  -0.678   5.997  0.00  0.00    -0.070 Cl
ATOM      8 Cl1  UNL d   1       3.031  -3.479   6.000  0.00  0.00    -0.070 Cl
ENDROOT
TORSDOF 0
ENDMDL
