MODEL 1
REMARK minimizedAffinity 1.63962615
REMARK minimizedRMSD -1
REMARK  0 active torsions:
REMARK  status: ('A' for Active; 'I' for Inactive)
ROOT
ATOM      1  C   UNL d   1       0.971  -0.694  -1.337  0.00  0.00     0.020 A 
ATOM      2  C1  UNL d   1       0.231   0.403  -0.897  0.00  0.00     0.020 A 
ATOM      3  C2  UNL d   1       0.532   1.002   0.327  0.00  0.00     0.034 A 
ATOM      4  C3  UNL d   1       1.576   0.505   1.117  0.00  0.00     0.017 A 
ATOM      5  C4  UNL d   1       2.318  -0.596   0.675  0.00  0.00     0.017 A 
ATOM      6  C5  UNL d   1       2.012  -1.192  -0.553  0.00  0.00     0.034 A 
ATOM      7 Cl   UNL d   1       3.620  -1.266   1.593  0.00  0.00    -0.070 Cl
ATOM      8 Cl1  UNL d   1       1.893   1.296   2.620  0.00  0.00    -0.070 Cl
ENDROOT
TORSDOF 0
ENDMDL
