MODEL 1
REMARK minimizedAffinity 2.58571839
REMARK minimizedRMSD -1
REMARK  0 active torsions:
REMARK  status: ('A' for Active; 'I' for Inactive)
ROOT
ATOM      1  C   UNL d   1      -5.435  -0.310   0.359  0.00  0.00     0.020 A 
ATOM      2  C1  UNL d   1      -4.102  -0.151  -0.019  0.00  0.00     0.020 A 
ATOM      3  C2  UNL d   1      -3.334   0.869   0.547  0.00  0.00     0.034 A 
ATOM      4  C3  UNL d   1      -3.897   1.732   1.493  0.00  0.00     0.017 A 
ATOM      5  C4  UNL d   1      -5.235   1.571   1.872  0.00  0.00     0.017 A 
ATOM      6  C5  UNL d   1      -6.000   0.549   1.302  0.00  0.00     0.034 A 
ATOM      7 Cl   UNL d   1      -6.000   2.598   3.033  0.00  0.00    -0.070 Cl
ATOM      8 Cl1  UNL d   1      -2.888   2.971   2.152  0.00  0.00    -0.070 Cl
ENDROOT
TORSDOF 0
ENDMDL
