MODEL 1
REMARK minimizedAffinity 1.42788243
REMARK minimizedRMSD -1
REMARK  0 active torsions:
REMARK  status: ('A' for Active; 'I' for Inactive)
ROOT
ATOM      1  C   UNL d   1       2.711  -3.893   5.986  0.00  0.00     0.020 A 
ATOM      2  C1  UNL d   1       1.863  -5.000   5.979  0.00  0.00     0.020 A 
ATOM      3  C2  UNL d   1       0.478  -4.817   5.978  0.00  0.00     0.034 A 
ATOM      4  C3  UNL d   1      -0.062  -3.526   5.985  0.00  0.00     0.017 A 
ATOM      5  C4  UNL d   1       0.791  -2.416   5.992  0.00  0.00     0.017 A 
ATOM      6  C5  UNL d   1       2.177  -2.605   5.992  0.00  0.00     0.034 A 
ATOM      7 Cl   UNL d   1       0.199  -0.793   6.000  0.00  0.00    -0.070 Cl
ATOM      8 Cl1  UNL d   1      -1.783  -3.375   5.984  0.00  0.00    -0.070 Cl
ENDROOT
TORSDOF 0
ENDMDL
