MODEL 1
REMARK minimizedAffinity 2.12397957
REMARK minimizedRMSD -1
REMARK  0 active torsions:
REMARK  status: ('A' for Active; 'I' for Inactive)
ROOT
ATOM      1  C   UNL d   1       1.606  -2.058   5.991  0.00  0.00     0.020 A 
ATOM      2  C1  UNL d   1       0.212  -2.093   5.991  0.00  0.00     0.020 A 
ATOM      3  C2  UNL d   1      -0.456  -3.320   5.991  0.00  0.00     0.034 A 
ATOM      4  C3  UNL d   1       0.270  -4.517   5.991  0.00  0.00     0.017 A 
ATOM      5  C4  UNL d   1       1.669  -4.480   5.991  0.00  0.00     0.017 A 
ATOM      6  C5  UNL d   1       2.333  -3.250   5.991  0.00  0.00     0.034 A 
ATOM      7 Cl   UNL d   1       2.634  -5.915   5.991  0.00  0.00    -0.070 Cl
ATOM      8 Cl1  UNL d   1      -0.621  -5.997   5.991  0.00  0.00    -0.070 Cl
ENDROOT
TORSDOF 0
ENDMDL
