MODEL 1
REMARK minimizedAffinity 3.09885669
REMARK minimizedRMSD -1
REMARK  0 active torsions:
REMARK  status: ('A' for Active; 'I' for Inactive)
ROOT
ATOM      1  C   UNL d   1       1.583   0.410   0.711  0.00  0.00     0.020 A 
ATOM      2  C1  UNL d   1       2.177  -0.381  -0.271  0.00  0.00     0.020 A 
ATOM      3  C2  UNL d   1       1.396  -1.253  -1.033  0.00  0.00     0.034 A 
ATOM      4  C3  UNL d   1       0.016  -1.336  -0.813  0.00  0.00     0.017 A 
ATOM      5  C4  UNL d   1      -0.579  -0.541   0.173  0.00  0.00     0.017 A 
ATOM      6  C5  UNL d   1       0.208   0.330   0.933  0.00  0.00     0.034 A 
ATOM      7 Cl   UNL d   1      -2.276  -0.588   0.502  0.00  0.00    -0.070 Cl
ATOM      8 Cl1  UNL d   1      -0.888  -2.435  -1.792  0.00  0.00    -0.070 Cl
ENDROOT
TORSDOF 0
ENDMDL
