MODEL 1
REMARK minimizedAffinity 2.01748848
REMARK minimizedRMSD -1
REMARK  0 active torsions:
REMARK  status: ('A' for Active; 'I' for Inactive)
ROOT
ATOM      1  C   UNL d   1      -0.913  -2.012   5.979  0.00  0.00     0.020 A 
ATOM      2  C1  UNL d   1       0.471  -1.846   5.980  0.00  0.00     0.020 A 
ATOM      3  C2  UNL d   1       1.308  -2.964   5.986  0.00  0.00     0.034 A 
ATOM      4  C3  UNL d   1       0.761  -4.252   5.991  0.00  0.00     0.017 A 
ATOM      5  C4  UNL d   1      -0.628  -4.418   5.990  0.00  0.00     0.017 A 
ATOM      6  C5  UNL d   1      -1.462  -3.295   5.984  0.00  0.00     0.034 A 
ATOM      7 Cl   UNL d   1      -1.377  -5.976   5.996  0.00  0.00    -0.070 Cl
ATOM      8 Cl1  UNL d   1       1.856  -5.589   5.997  0.00  0.00    -0.070 Cl
ENDROOT
TORSDOF 0
ENDMDL
