MODEL 1
REMARK minimizedAffinity 4.09151268
REMARK minimizedRMSD -1
REMARK  0 active torsions:
REMARK  status: ('A' for Active; 'I' for Inactive)
ROOT
ATOM      1  C   UNL d   1      -0.797  -1.652   5.988  0.00  0.00     0.020 A 
ATOM      2  C1  UNL d   1       0.555  -1.313   5.990  0.00  0.00     0.020 A 
ATOM      3  C2  UNL d   1       1.526  -2.316   5.993  0.00  0.00     0.034 A 
ATOM      4  C3  UNL d   1       1.146  -3.663   5.994  0.00  0.00     0.017 A 
ATOM      5  C4  UNL d   1      -0.212  -4.002   5.992  0.00  0.00     0.017 A 
ATOM      6  C5  UNL d   1      -1.180  -2.994   5.989  0.00  0.00     0.034 A 
ATOM      7 Cl   UNL d   1      -0.757  -5.642   5.993  0.00  0.00    -0.070 Cl
ATOM      8 Cl1  UNL d   1       2.401  -4.852   5.997  0.00  0.00    -0.070 Cl
ENDROOT
TORSDOF 0
ENDMDL
