MODEL 1
REMARK minimizedAffinity -1.61205626
REMARK minimizedRMSD -1
REMARK  0 active torsions:
REMARK  status: ('A' for Active; 'I' for Inactive)
ROOT
ATOM      1  C   UNL d   1      -1.077   0.596   2.764  0.00  0.00     0.023 A 
ATOM      2  C1  UNL d   1      -1.976   0.926   1.750  0.00  0.00     0.003 A 
ATOM      3  C2  UNL d   1      -1.621   0.741   0.412  0.00  0.00     0.048 A 
ATOM      4  C3  UNL d   1      -0.365   0.224   0.096  0.00  0.00     0.023 A 
ATOM      5  C4  UNL d   1       0.538  -0.109   1.107  0.00  0.00     0.048 A 
ATOM      6  C5  UNL d   1       0.178   0.079   2.443  0.00  0.00     0.003 A 
ATOM      7  I   UNL d   1       0.166  -0.053  -1.894  0.00  0.00    -0.146 I 
ENDROOT
TORSDOF 0
ENDMDL
