MODEL 1
REMARK minimizedAffinity -4.02676582
REMARK minimizedRMSD -1
REMARK  0 active torsions:
REMARK  status: ('A' for Active; 'I' for Inactive)
ROOT
ATOM      1  C   UNL d   1      -1.266   0.784   1.736  0.00  0.00     0.023 A 
ATOM      2  C1  UNL d   1      -1.942   1.152   0.573  0.00  0.00     0.003 A 
ATOM      3  C2  UNL d   1      -1.381   0.883  -0.677  0.00  0.00     0.048 A 
ATOM      4  C3  UNL d   1      -0.143   0.246  -0.757  0.00  0.00     0.023 A 
ATOM      5  C4  UNL d   1       0.537  -0.124   0.405  0.00  0.00     0.048 A 
ATOM      6  C5  UNL d   1      -0.028   0.147   1.652  0.00  0.00     0.003 A 
ATOM      7  I   UNL d   1       0.694  -0.155  -2.616  0.00  0.00    -0.146 I 
ENDROOT
TORSDOF 0
ENDMDL
