MODEL 1
REMARK minimizedAffinity -2.82542658
REMARK minimizedRMSD -1
REMARK  0 active torsions:
REMARK  status: ('A' for Active; 'I' for Inactive)
ROOT
ATOM      1  C   UNL d   1      -0.952   0.485   2.350  0.00  0.00     0.023 A 
ATOM      2  C1  UNL d   1      -1.889   0.748   1.351  0.00  0.00     0.003 A 
ATOM      3  C2  UNL d   1      -1.543   0.584   0.008  0.00  0.00     0.048 A 
ATOM      4  C3  UNL d   1      -0.260   0.155  -0.329  0.00  0.00     0.023 A 
ATOM      5  C4  UNL d   1       0.680  -0.111   0.668  0.00  0.00     0.048 A 
ATOM      6  C5  UNL d   1       0.331   0.056   2.010  0.00  0.00     0.003 A 
ATOM      7  I   UNL d   1       0.256  -0.091  -2.327  0.00  0.00    -0.146 I 
ENDROOT
TORSDOF 0
ENDMDL
