MODEL 1
REMARK minimizedAffinity -3.43058038
REMARK minimizedRMSD -1
REMARK  0 active torsions:
REMARK  status: ('A' for Active; 'I' for Inactive)
ROOT
ATOM      1  C   UNL d   1      -0.730   0.385   2.730  0.00  0.00     0.023 A 
ATOM      2  C1  UNL d   1      -1.474   0.988   1.717  0.00  0.00     0.003 A 
ATOM      3  C2  UNL d   1      -1.155   0.750   0.378  0.00  0.00     0.048 A 
ATOM      4  C3  UNL d   1      -0.091  -0.093   0.060  0.00  0.00     0.023 A 
ATOM      5  C4  UNL d   1       0.657  -0.699   1.071  0.00  0.00     0.048 A 
ATOM      6  C5  UNL d   1       0.334  -0.458   2.408  0.00  0.00     0.003 A 
ATOM      7  I   UNL d   1       0.386  -0.448  -1.931  0.00  0.00    -0.146 I 
ENDROOT
TORSDOF 0
ENDMDL
