MODEL 1
REMARK minimizedAffinity -1.8812542
REMARK minimizedRMSD -1
REMARK  0 active torsions:
REMARK  status: ('A' for Active; 'I' for Inactive)
ROOT
ATOM      1  C   UNL d   1      -1.002  -0.170   0.620  0.00  0.00     0.023 A 
ATOM      2  C1  UNL d   1      -1.156   1.125   0.124  0.00  0.00     0.003 A 
ATOM      3  C2  UNL d   1      -0.490   1.512  -1.040  0.00  0.00     0.048 A 
ATOM      4  C3  UNL d   1       0.328   0.598  -1.705  0.00  0.00     0.023 A 
ATOM      5  C4  UNL d   1       0.484  -0.699  -1.212  0.00  0.00     0.048 A 
ATOM      6  C5  UNL d   1      -0.183  -1.080  -0.047  0.00  0.00     0.003 A 
ATOM      7  I   UNL d   1       1.320   1.171  -3.438  0.00  0.00    -0.146 I 
ENDROOT
TORSDOF 0
ENDMDL
