MODEL 1
REMARK minimizedAffinity 0.698712587
REMARK minimizedRMSD -1
REMARK  0 active torsions:
REMARK  status: ('A' for Active; 'I' for Inactive)
ROOT
ATOM      1  C   UNL d   1      -0.973   0.416   2.664  0.00  0.00     0.023 A 
ATOM      2  C1  UNL d   1      -1.841   0.739   1.620  0.00  0.00     0.003 A 
ATOM      3  C2  UNL d   1      -1.444   0.547   0.295  0.00  0.00     0.048 A 
ATOM      4  C3  UNL d   1      -0.178   0.031   0.021  0.00  0.00     0.023 A 
ATOM      5  C4  UNL d   1       0.693  -0.294   1.061  0.00  0.00     0.048 A 
ATOM      6  C5  UNL d   1       0.292  -0.100   2.385  0.00  0.00     0.003 A 
ATOM      7  I   UNL d   1       0.415  -0.255  -1.950  0.00  0.00    -0.146 I 
ENDROOT
TORSDOF 0
ENDMDL
