MODEL 1
REMARK minimizedAffinity 4.13767052
REMARK minimizedRMSD -1
REMARK  0 active torsions:
REMARK  status: ('A' for Active; 'I' for Inactive)
ROOT
ATOM      1  C   UNL d   1      -3.329  -0.111  -0.414  0.00  0.00     0.023 A 
ATOM      2  C1  UNL d   1      -2.502  -0.894  -1.220  0.00  0.00     0.003 A 
ATOM      3  C2  UNL d   1      -1.129  -0.946  -0.970  0.00  0.00     0.048 A 
ATOM      4  C3  UNL d   1      -0.590  -0.213   0.087  0.00  0.00     0.023 A 
ATOM      5  C4  UNL d   1      -1.414   0.571   0.895  0.00  0.00     0.048 A 
ATOM      6  C5  UNL d   1      -2.785   0.621   0.642  0.00  0.00     0.003 A 
ATOM      7  I   UNL d   1       1.454  -0.290   0.460  0.00  0.00    -0.146 I 
ENDROOT
TORSDOF 0
ENDMDL
