MODEL 1
REMARK minimizedAffinity -0.480135024
REMARK minimizedRMSD -1
REMARK  0 active torsions:
REMARK  status: ('A' for Active; 'I' for Inactive)
ROOT
ATOM      1  C   UNL d   1       1.734   0.495  -4.272  0.00  0.00     0.023 A 
ATOM      2  C1  UNL d   1       2.266   0.897  -3.047  0.00  0.00     0.003 A 
ATOM      3  C2  UNL d   1       1.582   0.619  -1.862  0.00  0.00     0.048 A 
ATOM      4  C3  UNL d   1       0.366  -0.063  -1.910  0.00  0.00     0.023 A 
ATOM      5  C4  UNL d   1      -0.169  -0.468  -3.133  0.00  0.00     0.048 A 
ATOM      6  C5  UNL d   1       0.518  -0.187  -4.315  0.00  0.00     0.003 A 
ATOM      7  I   UNL d   1      -0.654  -0.478  -0.147  0.00  0.00    -0.146 I 
ENDROOT
TORSDOF 0
ENDMDL
