MODEL 1
REMARK minimizedAffinity -2.14522004
REMARK minimizedRMSD -1
REMARK  0 active torsions:
REMARK  status: ('A' for Active; 'I' for Inactive)
ROOT
ATOM      1  C   UNL d   1      -2.292   0.654   0.413  0.00  0.00     0.023 A 
ATOM      2  C1  UNL d   1      -1.836   0.525   1.725  0.00  0.00     0.003 A 
ATOM      3  C2  UNL d   1      -0.596  -0.065   1.980  0.00  0.00     0.048 A 
ATOM      4  C3  UNL d   1       0.183  -0.523   0.918  0.00  0.00     0.023 A 
ATOM      5  C4  UNL d   1      -0.268  -0.395  -0.396  0.00  0.00     0.048 A 
ATOM      6  C5  UNL d   1      -1.509   0.194  -0.646  0.00  0.00     0.003 A 
ATOM      7  I   UNL d   1       2.029  -1.401   1.295  0.00  0.00    -0.146 I 
ENDROOT
TORSDOF 0
ENDMDL
