MODEL 1
REMARK minimizedAffinity -4.26977682
REMARK minimizedRMSD -1
REMARK  0 active torsions:
REMARK  status: ('A' for Active; 'I' for Inactive)
ROOT
ATOM      1  C   UNL d   1      -0.844   0.753   2.580  0.00  0.00     0.023 A 
ATOM      2  C1  UNL d   1       0.362   0.085   2.372  0.00  0.00     0.003 A 
ATOM      3  C2  UNL d   1       0.718  -0.333   1.088  0.00  0.00     0.048 A 
ATOM      4  C3  UNL d   1      -0.137  -0.079   0.016  0.00  0.00     0.023 A 
ATOM      5  C4  UNL d   1      -1.345   0.590   0.219  0.00  0.00     0.048 A 
ATOM      6  C5  UNL d   1      -1.697   1.005   1.505  0.00  0.00     0.003 A 
ATOM      7  I   UNL d   1       0.391  -0.699  -1.896  0.00  0.00    -0.146 I 
ENDROOT
TORSDOF 0
ENDMDL
