MODEL 1
REMARK minimizedAffinity -1.47656965
REMARK minimizedRMSD -1
REMARK  0 active torsions:
REMARK  status: ('A' for Active; 'I' for Inactive)
ROOT
ATOM      1  C   UNL d   1       0.627  -0.370  -2.819  0.00  0.00     0.023 A 
ATOM      2  C1  UNL d   1       0.653  -0.064  -4.180  0.00  0.00     0.003 A 
ATOM      3  C2  UNL d   1      -0.013  -0.882  -5.094  0.00  0.00     0.048 A 
ATOM      4  C3  UNL d   1      -0.704  -2.005  -4.641  0.00  0.00     0.023 A 
ATOM      5  C4  UNL d   1      -0.734  -2.315  -3.280  0.00  0.00     0.048 A 
ATOM      6  C5  UNL d   1      -0.065  -1.494  -2.370  0.00  0.00     0.003 A 
ATOM      7  I   UNL d   1      -1.697  -3.225  -5.999  0.00  0.00    -0.146 I 
ENDROOT
TORSDOF 0
ENDMDL
