MODEL 1
REMARK minimizedAffinity 1.81445265
REMARK minimizedRMSD -1
REMARK  0 active torsions:
REMARK  status: ('A' for Active; 'I' for Inactive)
ROOT
ATOM      1  C   UNL d   1      -0.935   0.631   2.532  0.00  0.00     0.023 A 
ATOM      2  C1  UNL d   1      -1.799   1.666   2.174  0.00  0.00     0.003 A 
ATOM      3  C2  UNL d   1      -2.644   1.522   1.071  0.00  0.00     0.048 A 
ATOM      4  C3  UNL d   1      -2.621   0.340   0.333  0.00  0.00     0.023 A 
ATOM      5  C4  UNL d   1      -1.759  -0.699   0.688  0.00  0.00     0.048 A 
ATOM      6  C5  UNL d   1      -0.915  -0.550   1.790  0.00  0.00     0.003 A 
ATOM      7  I   UNL d   1      -3.878   0.122  -1.308  0.00  0.00    -0.146 I 
ENDROOT
TORSDOF 0
ENDMDL
