MODEL 1
REMARK minimizedAffinity 7.42988014
REMARK minimizedRMSD -1
REMARK  0 active torsions:
REMARK  status: ('A' for Active; 'I' for Inactive)
ROOT
ATOM      1  C   UNL d   1      -0.186   1.136  -0.946  0.00  0.00     0.124 A 
ATOM      2  C1  UNL d   1      -0.195   0.166   0.047  0.00  0.00     0.062 A 
ATOM      3  C2  UNL d   1      -1.319  -0.632   0.236  0.00  0.00     0.162 A 
ATOM      4  C3  UNL d   1      -2.445  -0.464  -0.570  0.00  0.00    -0.034 A 
ATOM      5  C4  UNL d   1      -2.429   0.515  -1.566  0.00  0.00     0.162 A 
ATOM      6  C5  UNL d   1      -1.303   1.310  -1.751  0.00  0.00     0.062 A 
ATOM      7  F   UNL d   1      -1.296   2.247  -2.710  0.00  0.00    -0.097 F 
ATOM      8  F1  UNL d   1      -3.495   0.703  -2.359  0.00  0.00    -0.096 F 
ATOM      9  I   UNL d   1      -4.129  -1.655  -0.291  0.00  0.00    -0.060 I 
ATOM     10  F2  UNL d   1      -1.300  -1.562   1.202  0.00  0.00    -0.096 F 
ATOM     11  F3  UNL d   1       0.883  -0.004   0.826  0.00  0.00    -0.097 F 
ATOM     12  F4  UNL d   1       0.897   1.903  -1.125  0.00  0.00    -0.092 F 
ENDROOT
TORSDOF 0
ENDMDL
