MODEL 1
REMARK minimizedAffinity -2.00936365
REMARK minimizedRMSD -1
REMARK  0 active torsions:
REMARK  status: ('A' for Active; 'I' for Inactive)
ROOT
ATOM      1  C   UNL d   1       0.813  -0.665   1.477  0.00  0.00     0.124 A 
ATOM      2  C1  UNL d   1      -0.101  -1.498   2.107  0.00  0.00     0.062 A 
ATOM      3  C2  UNL d   1      -1.358  -1.708   1.548  0.00  0.00     0.162 A 
ATOM      4  C3  UNL d   1      -1.709  -1.084   0.351  0.00  0.00    -0.034 A 
ATOM      5  C4  UNL d   1      -0.785  -0.247  -0.277  0.00  0.00     0.162 A 
ATOM      6  C5  UNL d   1       0.470  -0.040   0.286  0.00  0.00     0.062 A 
ATOM      7  F   UNL d   1       1.352   0.765  -0.324  0.00  0.00    -0.097 F 
ATOM      8  F1  UNL d   1      -1.090   0.368  -1.429  0.00  0.00    -0.096 F 
ATOM      9  I   UNL d   1      -3.588  -1.396  -0.488  0.00  0.00    -0.060 I 
ATOM     10  F2  UNL d   1      -2.221  -2.519   2.179  0.00  0.00    -0.096 F 
ATOM     11  F3  UNL d   1       0.228  -2.102   3.258  0.00  0.00    -0.097 F 
ATOM     12  F4  UNL d   1       2.022  -0.464   2.017  0.00  0.00    -0.092 F 
ENDROOT
TORSDOF 0
ENDMDL
