MODEL 1
REMARK minimizedAffinity 1.61534965
REMARK minimizedRMSD -1
REMARK  0 active torsions:
REMARK  status: ('A' for Active; 'I' for Inactive)
ROOT
ATOM      1  C   UNL d   1      -2.289  -1.019   0.203  0.00  0.00     0.124 A 
ATOM      2  C1  UNL d   1      -2.912  -0.554  -0.947  0.00  0.00     0.062 A 
ATOM      3  C2  UNL d   1      -2.320   0.452  -1.705  0.00  0.00     0.162 A 
ATOM      4  C3  UNL d   1      -1.098   1.000  -1.316  0.00  0.00    -0.034 A 
ATOM      5  C4  UNL d   1      -0.478   0.528  -0.158  0.00  0.00     0.162 A 
ATOM      6  C5  UNL d   1      -1.074  -0.478   0.597  0.00  0.00     0.062 A 
ATOM      7  F   UNL d   1      -0.471  -0.926   1.708  0.00  0.00    -0.097 F 
ATOM      8  F1  UNL d   1       0.698   1.032   0.245  0.00  0.00    -0.096 F 
ATOM      9  I   UNL d   1      -0.210   2.504  -2.447  0.00  0.00    -0.060 I 
ATOM     10  F2  UNL d   1      -2.944   0.882  -2.812  0.00  0.00    -0.096 F 
ATOM     11  F3  UNL d   1      -4.087  -1.074  -1.328  0.00  0.00    -0.097 F 
ATOM     12  F4  UNL d   1      -2.861  -1.986   0.932  0.00  0.00    -0.092 F 
ENDROOT
TORSDOF 0
ENDMDL
