MODEL 1
REMARK minimizedAffinity 0.696579039
REMARK minimizedRMSD -1
REMARK  0 active torsions:
REMARK  status: ('A' for Active; 'I' for Inactive)
ROOT
ATOM      1  C   UNL d   1       1.203  -0.954   2.676  0.00  0.00     0.124 A 
ATOM      2  C1  UNL d   1      -0.169  -1.150   2.747  0.00  0.00     0.062 A 
ATOM      3  C2  UNL d   1      -0.986  -0.769   1.687  0.00  0.00     0.162 A 
ATOM      4  C3  UNL d   1      -0.434  -0.189   0.545  0.00  0.00    -0.034 A 
ATOM      5  C4  UNL d   1       0.947   0.007   0.481  0.00  0.00     0.162 A 
ATOM      6  C5  UNL d   1       1.760  -0.376   1.544  0.00  0.00     0.062 A 
ATOM      7  F   UNL d   1       3.085  -0.185   1.473  0.00  0.00    -0.097 F 
ATOM      8  F1  UNL d   1       1.511   0.563  -0.601  0.00  0.00    -0.096 F 
ATOM      9  I   UNL d   1      -1.653   0.382  -1.042  0.00  0.00    -0.060 I 
ATOM     10  F2  UNL d   1      -2.309  -0.971   1.783  0.00  0.00    -0.096 F 
ATOM     11  F3  UNL d   1      -0.709  -1.708   3.840  0.00  0.00    -0.097 F 
ATOM     12  F4  UNL d   1       1.987  -1.320   3.698  0.00  0.00    -0.092 F 
ENDROOT
TORSDOF 0
ENDMDL
