MODEL 1
REMARK minimizedAffinity -1.52083755
REMARK minimizedRMSD -1
REMARK  0 active torsions:
REMARK  status: ('A' for Active; 'I' for Inactive)
ROOT
ATOM      1  C   UNL d   1       0.857  -1.177   2.583  0.00  0.00     0.124 A 
ATOM      2  C1  UNL d   1      -0.474  -0.787   2.542  0.00  0.00     0.062 A 
ATOM      3  C2  UNL d   1      -0.957  -0.059   1.458  0.00  0.00     0.162 A 
ATOM      4  C3  UNL d   1      -0.108   0.284   0.406  0.00  0.00    -0.034 A 
ATOM      5  C4  UNL d   1       1.230  -0.111   0.455  0.00  0.00     0.162 A 
ATOM      6  C5  UNL d   1       1.708  -0.839   1.540  0.00  0.00     0.062 A 
ATOM      7  F   UNL d   1       2.995  -1.215   1.578  0.00  0.00    -0.097 F 
ATOM      8  F1  UNL d   1       2.074   0.201  -0.540  0.00  0.00    -0.096 F 
ATOM      9  I   UNL d   1      -0.826   1.372  -1.216  0.00  0.00    -0.060 I 
ATOM     10  F2  UNL d   1      -2.248   0.304   1.445  0.00  0.00    -0.096 F 
ATOM     11  F3  UNL d   1      -1.298  -1.112   3.549  0.00  0.00    -0.097 F 
ATOM     12  F4  UNL d   1       1.319  -1.877   3.627  0.00  0.00    -0.092 F 
ENDROOT
TORSDOF 0
ENDMDL
