MODEL 1
REMARK minimizedAffinity 2.92468786
REMARK minimizedRMSD -1
REMARK  0 active torsions:
REMARK  status: ('A' for Active; 'I' for Inactive)
ROOT
ATOM      1  C   UNL d   1      -0.843  -1.012  -1.764  0.00  0.00     0.124 A 
ATOM      2  C1  UNL d   1      -1.529  -0.731  -0.590  0.00  0.00     0.062 A 
ATOM      3  C2  UNL d   1      -0.830  -0.517   0.595  0.00  0.00     0.162 A 
ATOM      4  C3  UNL d   1       0.563  -0.583   0.612  0.00  0.00    -0.034 A 
ATOM      5  C4  UNL d   1       1.246  -0.867  -0.572  0.00  0.00     0.162 A 
ATOM      6  C5  UNL d   1       0.543  -1.080  -1.753  0.00  0.00     0.062 A 
ATOM      7  F   UNL d   1       1.208  -1.352  -2.886  0.00  0.00    -0.097 F 
ATOM      8  F1  UNL d   1       2.585  -0.938  -0.590  0.00  0.00    -0.096 F 
ATOM      9  I   UNL d   1       1.611  -0.264   2.382  0.00  0.00    -0.060 I 
ATOM     10  F2  UNL d   1      -1.519  -0.247   1.713  0.00  0.00    -0.096 F 
ATOM     11  F3  UNL d   1      -2.868  -0.665  -0.598  0.00  0.00    -0.097 F 
ATOM     12  F4  UNL d   1      -1.517  -1.218  -2.902  0.00  0.00    -0.092 F 
ENDROOT
TORSDOF 0
ENDMDL
