MODEL 1
REMARK minimizedAffinity 0.361678839
REMARK minimizedRMSD -1
REMARK  0 active torsions:
REMARK  status: ('A' for Active; 'I' for Inactive)
ROOT
ATOM      1  C   UNL d   1       2.450  -2.886  -0.352  0.00  0.00    -0.002 A 
ATOM      2  C1  UNL d   1       2.989  -1.701   0.129  0.00  0.00     0.010 A 
ATOM      3  C2  UNL d   1       2.181  -0.766   0.779  0.00  0.00     0.041 A 
ATOM      4  C3  UNL d   1       0.810  -1.046   0.942  0.00  0.00    -0.075 A 
ATOM      5  S   UNL d   1      -0.371  -0.049   1.707  0.00  0.00     0.015 SA
ATOM      6  C4  UNL d   1      -1.618  -1.174   1.414  0.00  0.00     0.022 A 
ATOM      7  C5  UNL d   1      -1.162  -2.288   0.750  0.00  0.00     0.026 A 
ATOM      8  C6  UNL d   1       0.244  -2.233   0.467  0.00  0.00    -0.082 A 
ATOM      9  C7  UNL d   1       1.089  -3.160  -0.189  0.00  0.00     0.045 A 
ENDROOT
TORSDOF 0
ENDMDL
