MODEL 1
REMARK minimizedAffinity 2.73399091
REMARK minimizedRMSD -1
REMARK  0 active torsions:
REMARK  status: ('A' for Active; 'I' for Inactive)
ROOT
ATOM      1  C   UNL d   1       0.254  -0.646   1.909  0.00  0.00    -0.002 A 
ATOM      2  C1  UNL d   1       1.637  -0.532   1.885  0.00  0.00     0.010 A 
ATOM      3  C2  UNL d   1       2.407  -1.394   1.102  0.00  0.00     0.041 A 
ATOM      4  C3  UNL d   1       1.758  -2.381   0.335  0.00  0.00    -0.075 A 
ATOM      5  S   UNL d   1       2.496  -3.547  -0.699  0.00  0.00     0.015 SA
ATOM      6  C4  UNL d   1       0.994  -4.223  -1.134  0.00  0.00     0.022 A 
ATOM      7  C5  UNL d   1      -0.056  -3.588  -0.514  0.00  0.00     0.026 A 
ATOM      8  C6  UNL d   1       0.367  -2.516   0.342  0.00  0.00    -0.082 A 
ATOM      9  C7  UNL d   1      -0.386  -1.627   1.147  0.00  0.00     0.045 A 
ENDROOT
TORSDOF 0
ENDMDL
