MODEL 1
REMARK minimizedAffinity 5.76448727
REMARK minimizedRMSD -1
REMARK  0 active torsions:
REMARK  status: ('A' for Active; 'I' for Inactive)
ROOT
ATOM      1  C   UNL d   1      -1.144  -1.105   0.944  0.00  0.00    -0.002 A 
ATOM      2  C1  UNL d   1      -0.494  -1.960   0.065  0.00  0.00     0.010 A 
ATOM      3  C2  UNL d   1       0.887  -1.873  -0.119  0.00  0.00     0.041 A 
ATOM      4  C3  UNL d   1       1.612  -0.905   0.603  0.00  0.00    -0.075 A 
ATOM      5  S   UNL d   1       3.311  -0.616   0.539  0.00  0.00     0.015 SA
ATOM      6  C4  UNL d   1       3.214   0.648   1.678  0.00  0.00     0.022 A 
ATOM      7  C5  UNL d   1       1.925   0.859   2.107  0.00  0.00     0.026 A 
ATOM      8  C6  UNL d   1       0.980  -0.033   1.495  0.00  0.00    -0.082 A 
ATOM      9  C7  UNL d   1      -0.421  -0.145   1.659  0.00  0.00     0.045 A 
ENDROOT
TORSDOF 0
ENDMDL
