MODEL 1
REMARK minimizedAffinity 4.96341276
REMARK minimizedRMSD -1
REMARK  0 active torsions:
REMARK  status: ('A' for Active; 'I' for Inactive)
ROOT
ATOM      1  C   UNL d   1      -0.466  -1.173  -0.082  0.00  0.00    -0.002 A 
ATOM      2  C1  UNL d   1      -0.900  -0.570   1.090  0.00  0.00     0.010 A 
ATOM      3  C2  UNL d   1       0.020  -0.068   2.013  0.00  0.00     0.041 A 
ATOM      4  C3  UNL d   1       1.396  -0.182   1.735  0.00  0.00    -0.075 A 
ATOM      5  S   UNL d   1       2.704   0.361   2.718  0.00  0.00     0.015 SA
ATOM      6  C4  UNL d   1       3.869  -0.194   1.605  0.00  0.00     0.022 A 
ATOM      7  C5  UNL d   1       3.292  -0.782   0.505  0.00  0.00     0.026 A 
ATOM      8  C6  UNL d   1       1.857  -0.785   0.561  0.00  0.00    -0.082 A 
ATOM      9  C7  UNL d   1       0.900  -1.285  -0.354  0.00  0.00     0.045 A 
ENDROOT
TORSDOF 0
ENDMDL
