MODEL 1
REMARK minimizedAffinity -0.484028876
REMARK minimizedRMSD -1
REMARK  0 active torsions:
REMARK  status: ('A' for Active; 'I' for Inactive)
ROOT
ATOM      1  C   UNL d   1      -0.827  -1.458   0.512  0.00  0.00    -0.002 A 
ATOM      2  C1  UNL d   1      -0.026  -0.337   0.675  0.00  0.00     0.010 A 
ATOM      3  C2  UNL d   1       1.360  -0.427   0.528  0.00  0.00     0.041 A 
ATOM      4  C3  UNL d   1       1.932  -1.674   0.209  0.00  0.00    -0.075 A 
ATOM      5  S   UNL d   1       3.605  -2.022  -0.020  0.00  0.00     0.015 SA
ATOM      6  C4  UNL d   1       3.295  -3.667  -0.341  0.00  0.00     0.022 A 
ATOM      7  C5  UNL d   1       1.954  -3.961  -0.278  0.00  0.00     0.026 A 
ATOM      8  C6  UNL d   1       1.146  -2.817   0.039  0.00  0.00    -0.082 A 
ATOM      9  C7  UNL d   1      -0.256  -2.694   0.196  0.00  0.00     0.045 A 
ENDROOT
TORSDOF 0
ENDMDL
