MODEL 1
REMARK minimizedAffinity -0.0102778822
REMARK minimizedRMSD -1
REMARK  0 active torsions:
REMARK  status: ('A' for Active; 'I' for Inactive)
ROOT
ATOM      1  C   UNL d   1      -0.832  -1.068   0.987  0.00  0.00    -0.002 A 
ATOM      2  C1  UNL d   1       0.117  -0.072   1.170  0.00  0.00     0.010 A 
ATOM      3  C2  UNL d   1       1.454  -0.295   0.837  0.00  0.00     0.041 A 
ATOM      4  C3  UNL d   1       1.825  -1.548   0.310  0.00  0.00    -0.075 A 
ATOM      5  S   UNL d   1       3.403  -2.047  -0.171  0.00  0.00     0.015 SA
ATOM      6  C4  UNL d   1       2.855  -3.594  -0.631  0.00  0.00     0.022 A 
ATOM      7  C5  UNL d   1       1.503  -3.743  -0.429  0.00  0.00     0.026 A 
ATOM      8  C6  UNL d   1       0.887  -2.566   0.116  0.00  0.00    -0.082 A 
ATOM      9  C7  UNL d   1      -0.461  -2.309   0.464  0.00  0.00     0.045 A 
ENDROOT
TORSDOF 0
ENDMDL
