MODEL 1
REMARK minimizedAffinity 5.93533516
REMARK minimizedRMSD -1
REMARK  0 active torsions:
REMARK  status: ('A' for Active; 'I' for Inactive)
ROOT
ATOM      1  C   UNL d   1       2.867  -2.394  -0.576  0.00  0.00    -0.002 A 
ATOM      2  C1  UNL d   1       1.888  -3.366  -0.731  0.00  0.00     0.010 A 
ATOM      3  C2  UNL d   1       0.593  -3.152  -0.256  0.00  0.00     0.041 A 
ATOM      4  C3  UNL d   1       0.294  -1.931   0.381  0.00  0.00    -0.075 A 
ATOM      5  S   UNL d   1      -1.224  -1.448   1.040  0.00  0.00     0.015 SA
ATOM      6  C4  UNL d   1      -0.610   0.061   1.542  0.00  0.00     0.022 A 
ATOM      7  C5  UNL d   1       0.719   0.209   1.222  0.00  0.00     0.026 A 
ATOM      8  C6  UNL d   1       1.262  -0.937   0.547  0.00  0.00    -0.082 A 
ATOM      9  C7  UNL d   1       2.566  -1.185   0.056  0.00  0.00     0.045 A 
ENDROOT
TORSDOF 0
ENDMDL
