MODEL 1
REMARK minimizedAffinity -3.73617625
REMARK minimizedRMSD -1
REMARK  0 active torsions:
REMARK  status: ('A' for Active; 'I' for Inactive)
ROOT
ATOM      1  C   UNL d   1      -3.123  -2.002   0.026  0.00  0.00     0.023 A 
ATOM      2  C1  UNL d   1      -2.848  -0.951  -0.850  0.00  0.00     0.003 A 
ATOM      3  C2  UNL d   1      -1.627  -0.278  -0.773  0.00  0.00     0.048 A 
ATOM      4  C3  UNL d   1      -0.685  -0.662   0.180  0.00  0.00     0.023 A 
ATOM      5  C4  UNL d   1      -0.955  -1.713   1.058  0.00  0.00     0.048 A 
ATOM      6  C5  UNL d   1      -2.177  -2.383   0.978  0.00  0.00     0.003 A 
ATOM      7  I   UNL d   1       1.134   0.338   0.296  0.00  0.00    -0.146 I 
ENDROOT
TORSDOF 0
ENDMDL
