MODEL 1
REMARK minimizedAffinity -4.04023266
REMARK minimizedRMSD -1
REMARK  0 active torsions:
REMARK  status: ('A' for Active; 'I' for Inactive)
ROOT
ATOM      1  C   UNL d   1       2.753   2.797   1.489  0.00  0.00     0.023 A 
ATOM      2  C1  UNL d   1       1.419   3.203   1.523  0.00  0.00     0.003 A 
ATOM      3  C2  UNL d   1       0.428   2.396   0.960  0.00  0.00     0.048 A 
ATOM      4  C3  UNL d   1       0.778   1.184   0.366  0.00  0.00     0.023 A 
ATOM      5  C4  UNL d   1       2.112   0.774   0.331  0.00  0.00     0.048 A 
ATOM      6  C5  UNL d   1       3.099   1.584   0.894  0.00  0.00     0.003 A 
ATOM      7  I   UNL d   1      -0.695  -0.018  -0.473  0.00  0.00    -0.146 I 
ENDROOT
TORSDOF 0
ENDMDL
