MODEL 1
REMARK minimizedAffinity -2.87978053
REMARK minimizedRMSD -1
REMARK  0 active torsions:
REMARK  status: ('A' for Active; 'I' for Inactive)
ROOT
ATOM      1  C   UNL d   1      -2.822  -0.566  -0.771  0.00  0.00     0.023 A 
ATOM      2  C1  UNL d   1      -1.948  -0.169  -1.783  0.00  0.00     0.003 A 
ATOM      3  C2  UNL d   1      -0.641   0.212  -1.469  0.00  0.00     0.048 A 
ATOM      4  C3  UNL d   1      -0.215   0.191  -0.142  0.00  0.00     0.023 A 
ATOM      5  C4  UNL d   1      -1.086  -0.207   0.874  0.00  0.00     0.048 A 
ATOM      6  C5  UNL d   1      -2.392  -0.585   0.555  0.00  0.00     0.003 A 
ATOM      7  I   UNL d   1       1.729   0.757   0.328  0.00  0.00    -0.146 I 
ENDROOT
TORSDOF 0
ENDMDL
