MODEL 1
REMARK minimizedAffinity -3.27626967
REMARK minimizedRMSD -1
REMARK  0 active torsions:
REMARK  status: ('A' for Active; 'I' for Inactive)
ROOT
ATOM      1  C   UNL d   1      -1.817  -0.782  -0.714  0.00  0.00     0.023 A 
ATOM      2  C1  UNL d   1      -0.877  -0.330  -1.641  0.00  0.00     0.003 A 
ATOM      3  C2  UNL d   1       0.266   0.343  -1.206  0.00  0.00     0.048 A 
ATOM      4  C3  UNL d   1       0.465   0.559   0.157  0.00  0.00     0.023 A 
ATOM      5  C4  UNL d   1      -0.472   0.108   1.088  0.00  0.00     0.048 A 
ATOM      6  C5  UNL d   1      -1.614  -0.564   0.648  0.00  0.00     0.003 A 
ATOM      7  I   UNL d   1       2.166   1.560   0.807  0.00  0.00    -0.146 I 
ENDROOT
TORSDOF 0
ENDMDL
