MODEL 1
REMARK minimizedAffinity -2.65783191
REMARK minimizedRMSD -1
REMARK  0 active torsions:
REMARK  status: ('A' for Active; 'I' for Inactive)
ROOT
ATOM      1  C   UNL d   1      -2.479  -0.873  -1.312  0.00  0.00     0.023 A 
ATOM      2  C1  UNL d   1      -1.438  -0.396  -2.109  0.00  0.00     0.003 A 
ATOM      3  C2  UNL d   1      -0.267   0.082  -1.519  0.00  0.00     0.048 A 
ATOM      4  C3  UNL d   1      -0.141   0.078  -0.130  0.00  0.00     0.023 A 
ATOM      5  C4  UNL d   1      -1.179  -0.399   0.672  0.00  0.00     0.048 A 
ATOM      6  C5  UNL d   1      -2.349  -0.875   0.077  0.00  0.00     0.003 A 
ATOM      7  I   UNL d   1       1.602   0.788   0.752  0.00  0.00    -0.146 I 
ENDROOT
TORSDOF 0
ENDMDL
