MODEL 1
REMARK minimizedAffinity 0.0924146697
REMARK minimizedRMSD -1
REMARK  0 active torsions:
REMARK  status: ('A' for Active; 'I' for Inactive)
ROOT
ATOM      1  C   UNL d   1      -3.169   0.989   4.299  0.00  0.00     0.023 A 
ATOM      2  C1  UNL d   1      -2.507  -0.005   3.578  0.00  0.00     0.003 A 
ATOM      3  C2  UNL d   1      -2.470  -1.314   4.065  0.00  0.00     0.048 A 
ATOM      4  C3  UNL d   1      -3.097  -1.621   5.272  0.00  0.00     0.023 A 
ATOM      5  C4  UNL d   1      -3.761  -0.629   5.995  0.00  0.00     0.048 A 
ATOM      6  C5  UNL d   1      -3.795   0.678   5.506  0.00  0.00     0.003 A 
ATOM      7  I   UNL d   1      -3.043  -3.567   5.998  0.00  0.00    -0.146 I 
ENDROOT
TORSDOF 0
ENDMDL
