MODEL 1
REMARK minimizedAffinity 3.17203903
REMARK minimizedRMSD -1
REMARK  0 active torsions:
REMARK  status: ('A' for Active; 'I' for Inactive)
ROOT
ATOM      1  C   UNL d   1       0.212   0.460  -3.150  0.00  0.00     0.023 A 
ATOM      2  C1  UNL d   1       1.202  -0.015  -2.290  0.00  0.00     0.003 A 
ATOM      3  C2  UNL d   1       0.873  -0.402  -0.989  0.00  0.00     0.048 A 
ATOM      4  C3  UNL d   1      -0.449  -0.313  -0.555  0.00  0.00     0.023 A 
ATOM      5  C4  UNL d   1      -1.444   0.161  -1.412  0.00  0.00     0.048 A 
ATOM      6  C5  UNL d   1      -1.110   0.548  -2.711  0.00  0.00     0.003 A 
ATOM      7  I   UNL d   1      -0.942  -0.888   1.380  0.00  0.00    -0.146 I 
ENDROOT
TORSDOF 0
ENDMDL
