MODEL 1
REMARK minimizedAffinity -2.22254968
REMARK minimizedRMSD -1
REMARK  0 active torsions:
REMARK  status: ('A' for Active; 'I' for Inactive)
ROOT
ATOM      1  C   UNL d   1       3.184   3.430   1.520  0.00  0.00     0.023 A 
ATOM      2  C1  UNL d   1       2.250   3.771   0.542  0.00  0.00     0.003 A 
ATOM      3  C2  UNL d   1       1.568   2.771  -0.154  0.00  0.00     0.048 A 
ATOM      4  C3  UNL d   1       1.825   1.431   0.134  0.00  0.00     0.023 A 
ATOM      5  C4  UNL d   1       2.758   1.084   1.113  0.00  0.00     0.048 A 
ATOM      6  C5  UNL d   1       3.438   2.088   1.805  0.00  0.00     0.003 A 
ATOM      7  I   UNL d   1       0.811  -0.060  -0.901  0.00  0.00    -0.146 I 
ENDROOT
TORSDOF 0
ENDMDL
