MODEL 1
REMARK minimizedAffinity -3.58625078
REMARK minimizedRMSD -1
REMARK  0 active torsions:
REMARK  status: ('A' for Active; 'I' for Inactive)
ROOT
ATOM      1  C   UNL d   1      -2.758  -0.528  -0.747  0.00  0.00     0.023 A 
ATOM      2  C1  UNL d   1      -2.154  -1.036   0.403  0.00  0.00     0.003 A 
ATOM      3  C2  UNL d   1      -0.838  -0.688   0.714  0.00  0.00     0.048 A 
ATOM      4  C3  UNL d   1      -0.132   0.169  -0.129  0.00  0.00     0.023 A 
ATOM      5  C4  UNL d   1      -0.733   0.681  -1.281  0.00  0.00     0.048 A 
ATOM      6  C5  UNL d   1      -2.048   0.330  -1.588  0.00  0.00     0.003 A 
ATOM      7  I   UNL d   1       1.827   0.688   0.331  0.00  0.00    -0.146 I 
ENDROOT
TORSDOF 0
ENDMDL
