MODEL 1
REMARK minimizedAffinity 0.864294648
REMARK minimizedRMSD -1
REMARK  0 active torsions:
REMARK  status: ('A' for Active; 'I' for Inactive)
ROOT
ATOM      1  C   UNL d   1       2.144   2.159   1.854  0.00  0.00     0.023 A 
ATOM      2  C1  UNL d   1       2.625   3.459   2.013  0.00  0.00     0.003 A 
ATOM      3  C2  UNL d   1       3.303   4.088   0.967  0.00  0.00     0.048 A 
ATOM      4  C3  UNL d   1       3.495   3.411  -0.238  0.00  0.00     0.023 A 
ATOM      5  C4  UNL d   1       3.015   2.111  -0.402  0.00  0.00     0.048 A 
ATOM      6  C5  UNL d   1       2.338   1.486   0.647  0.00  0.00     0.003 A 
ATOM      7  I   UNL d   1       4.503   4.345  -1.797  0.00  0.00    -0.146 I 
ENDROOT
TORSDOF 0
ENDMDL
