MODEL 1
REMARK minimizedAffinity -3.27689815
REMARK minimizedRMSD -1
REMARK  0 active torsions:
REMARK  status: ('A' for Active; 'I' for Inactive)
ROOT
ATOM      1  C   UNL d   1      -2.973  -2.012   0.566  0.00  0.00     0.023 A 
ATOM      2  C1  UNL d   1      -1.862  -2.318   1.353  0.00  0.00     0.003 A 
ATOM      3  C2  UNL d   1      -0.655  -1.646   1.152  0.00  0.00     0.048 A 
ATOM      4  C3  UNL d   1      -0.566  -0.668   0.162  0.00  0.00     0.023 A 
ATOM      5  C4  UNL d   1      -1.674  -0.358  -0.628  0.00  0.00     0.048 A 
ATOM      6  C5  UNL d   1      -2.879  -1.033  -0.423  0.00  0.00     0.003 A 
ATOM      7  I   UNL d   1       1.230   0.335  -0.140  0.00  0.00    -0.146 I 
ENDROOT
TORSDOF 0
ENDMDL
