MODEL 1
REMARK minimizedAffinity -4.64478016
REMARK minimizedRMSD -1
REMARK  0 active torsions:
REMARK  status: ('A' for Active; 'I' for Inactive)
ROOT
ATOM      1  C   UNL d   1      -3.103  -0.945  -0.039  0.00  0.00     0.023 A 
ATOM      2  C1  UNL d   1      -2.397  -1.142   1.148  0.00  0.00     0.003 A 
ATOM      3  C2  UNL d   1      -1.077  -0.701   1.259  0.00  0.00     0.048 A 
ATOM      4  C3  UNL d   1      -0.469  -0.061   0.179  0.00  0.00     0.023 A 
ATOM      5  C4  UNL d   1      -1.172   0.139  -1.011  0.00  0.00     0.048 A 
ATOM      6  C5  UNL d   1      -2.491  -0.305  -1.117  0.00  0.00     0.003 A 
ATOM      7  I   UNL d   1       1.496   0.597   0.341  0.00  0.00    -0.146 I 
ENDROOT
TORSDOF 0
ENDMDL
