MODEL 1
REMARK minimizedAffinity -4.17445374
REMARK minimizedRMSD -1
REMARK  0 active torsions:
REMARK  status: ('A' for Active; 'I' for Inactive)
ROOT
ATOM      1  C   UNL d   1      -2.303  -0.581  -0.961  0.00  0.00     0.023 A 
ATOM      2  C1  UNL d   1      -1.417   0.065  -1.824  0.00  0.00     0.003 A 
ATOM      3  C2  UNL d   1      -0.186   0.521  -1.349  0.00  0.00     0.048 A 
ATOM      4  C3  UNL d   1       0.155   0.326  -0.011  0.00  0.00     0.023 A 
ATOM      5  C4  UNL d   1      -0.727  -0.321   0.855  0.00  0.00     0.048 A 
ATOM      6  C5  UNL d   1      -1.958  -0.774   0.377  0.00  0.00     0.003 A 
ATOM      7  I   UNL d   1       1.988   1.003   0.697  0.00  0.00    -0.146 I 
ENDROOT
TORSDOF 0
ENDMDL
