MODEL 1
REMARK minimizedAffinity 3.51886892
REMARK minimizedRMSD -1
REMARK  1 active torsions:
REMARK  status: ('A' for Active; 'I' for Inactive)
REMARK    1  A    between atoms: N_2  and  C1_3 
ROOT
ATOM      1  C1  UNL d   1       1.048  -0.411  -3.322  0.00  0.00     0.143 A 
ATOM      2  C2  UNL d   1       1.401  -1.557  -2.603  0.00  0.00    -0.057 A 
ATOM      3  C3  UNL d   1       1.267  -1.610  -1.210  0.00  0.00     0.033 A 
ATOM      4  C4  UNL d   1       0.804  -0.503  -0.507  0.00  0.00    -0.042 A 
ATOM      5  C5  UNL d   1       0.471   0.656  -1.199  0.00  0.00     0.033 A 
ATOM      6  C6  UNL d   1       0.601   0.701  -2.591  0.00  0.00    -0.057 A 
ENDROOT
BRANCH   1   7
ATOM      7  N   UNL d   1       1.251  -0.262  -4.697  0.00  0.00    -0.732 N 
ATOM      8  C   UNL d   1       2.277   0.627  -5.198  0.00  0.00     0.284 C 
ATOM      9  H3  UNL d   1       1.186  -1.145  -5.197  0.00  0.00     0.395 HD
ENDBRANCH   1   7
TORSDOF 1
ENDMDL
