MODEL 1
REMARK minimizedAffinity 0.345697135
REMARK minimizedRMSD -1
REMARK  1 active torsions:
REMARK  status: ('A' for Active; 'I' for Inactive)
REMARK    1  A    between atoms: N_2  and  C1_3 
ROOT
ATOM      1  C1  UNL d   1       3.294   0.495  -4.218  0.00  0.00     0.143 A 
ATOM      2  C2  UNL d   1       4.337   0.439  -3.287  0.00  0.00    -0.057 A 
ATOM      3  C3  UNL d   1       5.676   0.487  -3.694  0.00  0.00     0.033 A 
ATOM      4  C4  UNL d   1       5.997   0.563  -5.045  0.00  0.00    -0.042 A 
ATOM      5  C5  UNL d   1       4.977   0.594  -5.989  0.00  0.00     0.033 A 
ATOM      6  C6  UNL d   1       3.641   0.553  -5.577  0.00  0.00    -0.057 A 
ENDROOT
BRANCH   1   7
ATOM      7  N   UNL d   1       1.945   0.353  -3.884  0.00  0.00    -0.732 N 
ATOM      8  C   UNL d   1       1.550  -0.414  -2.722  0.00  0.00     0.284 C 
ATOM      9  H3  UNL d   1       1.420   1.216  -4.010  0.00  0.00     0.395 HD
ENDBRANCH   1   7
TORSDOF 1
ENDMDL
