MODEL 1
REMARK minimizedAffinity -1.18834615
REMARK minimizedRMSD -1
REMARK  1 active torsions:
REMARK  status: ('A' for Active; 'I' for Inactive)
REMARK    1  A    between atoms: N_2  and  C1_3 
ROOT
ATOM      1  C1  UNL d   1      -3.464   3.329   5.007  0.00  0.00     0.143 A 
ATOM      2  C2  UNL d   1      -4.394   3.744   5.966  0.00  0.00    -0.057 A 
ATOM      3  C3  UNL d   1      -4.863   5.063   6.000  0.00  0.00     0.033 A 
ATOM      4  C4  UNL d   1      -4.387   6.000   5.089  0.00  0.00    -0.042 A 
ATOM      5  C5  UNL d   1      -3.444   5.616   4.142  0.00  0.00     0.033 A 
ATOM      6  C6  UNL d   1      -2.984   4.296   4.110  0.00  0.00    -0.057 A 
ENDROOT
BRANCH   1   7
ATOM      7  N   UNL d   1      -2.885   2.058   4.984  0.00  0.00    -0.732 N 
ATOM      8  C   UNL d   1      -3.712   0.873   4.899  0.00  0.00     0.284 C 
ATOM      9  H3  UNL d   1      -2.048   2.022   4.407  0.00  0.00     0.395 HD
ENDBRANCH   1   7
TORSDOF 1
ENDMDL
