MODEL 1
REMARK minimizedAffinity 0.632472217
REMARK minimizedRMSD -1
REMARK  1 active torsions:
REMARK  status: ('A' for Active; 'I' for Inactive)
REMARK    1  A    between atoms: N_2  and  C1_3 
ROOT
ATOM      1  C1  UNL d   1       1.126  -0.934  -1.979  0.00  0.00     0.143 A 
ATOM      2  C2  UNL d   1       1.360  -0.379  -3.241  0.00  0.00    -0.057 A 
ATOM      3  C3  UNL d   1       1.284   1.003  -3.453  0.00  0.00     0.033 A 
ATOM      4  C4  UNL d   1       0.941   1.854  -2.408  0.00  0.00    -0.042 A 
ATOM      5  C5  UNL d   1       0.680   1.323  -1.150  0.00  0.00     0.033 A 
ATOM      6  C6  UNL d   1       0.764  -0.058  -0.944  0.00  0.00    -0.057 A 
ENDROOT
BRANCH   1   7
ATOM      7  N   UNL d   1       1.090  -2.308  -1.727  0.00  0.00    -0.732 N 
ATOM      8  C   UNL d   1       0.498  -3.217  -2.685  0.00  0.00     0.284 C 
ATOM      9  H3  UNL d   1       1.953  -2.648  -1.308  0.00  0.00     0.395 HD
ENDBRANCH   1   7
TORSDOF 1
ENDMDL
