MODEL 1
REMARK minimizedAffinity -3.53614569
REMARK minimizedRMSD -1
REMARK  1 active torsions:
REMARK  status: ('A' for Active; 'I' for Inactive)
REMARK    1  A    between atoms: N_2  and  C1_3 
ROOT
ATOM      1  C1  UNL d   1      -4.602   2.733   5.554  0.00  0.00     0.143 A 
ATOM      2  C2  UNL d   1      -3.617   2.993   4.595  0.00  0.00    -0.057 A 
ATOM      3  C3  UNL d   1      -3.379   4.294   4.133  0.00  0.00     0.033 A 
ATOM      4  C4  UNL d   1      -4.145   5.356   4.603  0.00  0.00    -0.042 A 
ATOM      5  C5  UNL d   1      -5.146   5.117   5.538  0.00  0.00     0.033 A 
ATOM      6  C6  UNL d   1      -5.374   3.818   6.000  0.00  0.00    -0.057 A 
ENDROOT
BRANCH   1   7
ATOM      7  N   UNL d   1      -4.953   1.450   5.980  0.00  0.00    -0.732 N 
ATOM      8  C   UNL d   1      -4.492   0.282   5.260  0.00  0.00     0.284 C 
ATOM      9  H3  UNL d   1      -4.920   1.354   6.993  0.00  0.00     0.395 HD
ENDBRANCH   1   7
TORSDOF 1
ENDMDL
