MODEL 1
REMARK minimizedAffinity 3.45328665
REMARK minimizedRMSD -1
REMARK  1 active torsions:
REMARK  status: ('A' for Active; 'I' for Inactive)
REMARK    1  A    between atoms: N_2  and  C1_3 
ROOT
ATOM      1  C1  UNL d   1       0.854  -0.175  -2.610  0.00  0.00     0.143 A 
ATOM      2  C2  UNL d   1       1.048  -0.862  -1.407  0.00  0.00    -0.057 A 
ATOM      3  C3  UNL d   1       1.364  -2.226  -1.393  0.00  0.00     0.033 A 
ATOM      4  C4  UNL d   1       1.464  -2.935  -2.586  0.00  0.00    -0.042 A 
ATOM      5  C5  UNL d   1       1.251  -2.278  -3.792  0.00  0.00     0.033 A 
ATOM      6  C6  UNL d   1       0.942  -0.914  -3.800  0.00  0.00    -0.057 A 
ENDROOT
BRANCH   1   7
ATOM      7  N   UNL d   1       0.440   1.158  -2.686  0.00  0.00    -0.732 N 
ATOM      8  C   UNL d   1       0.178   1.918  -1.483  0.00  0.00     0.284 C 
ATOM      9  H3  UNL d   1       0.936   1.677  -3.407  0.00  0.00     0.395 HD
ENDBRANCH   1   7
TORSDOF 1
ENDMDL
