MODEL 1
REMARK minimizedAffinity 0.105443195
REMARK minimizedRMSD -1
REMARK  1 active torsions:
REMARK  status: ('A' for Active; 'I' for Inactive)
REMARK    1  A    between atoms: N_2  and  C1_3 
ROOT
ATOM      1  C1  UNL d   1       4.635   3.106  -4.859  0.00  0.00     0.143 A 
ATOM      2  C2  UNL d   1       5.328   2.646  -3.734  0.00  0.00    -0.057 A 
ATOM      3  C3  UNL d   1       5.997   1.416  -3.747  0.00  0.00     0.033 A 
ATOM      4  C4  UNL d   1       5.960   0.609  -4.879  0.00  0.00    -0.042 A 
ATOM      5  C5  UNL d   1       5.256   1.035  -6.000  0.00  0.00     0.033 A 
ATOM      6  C6  UNL d   1       4.595   2.267  -5.983  0.00  0.00    -0.057 A 
ENDROOT
BRANCH   1   7
ATOM      7  N   UNL d   1       3.868   4.274  -4.876  0.00  0.00    -0.732 N 
ATOM      8  C   UNL d   1       3.425   4.883  -3.640  0.00  0.00     0.284 C 
ATOM      9  H3  UNL d   1       4.189   4.939  -5.576  0.00  0.00     0.395 HD
ENDBRANCH   1   7
TORSDOF 1
ENDMDL
