MODEL 1
REMARK minimizedAffinity 2.37133861
REMARK minimizedRMSD -1
REMARK  1 active torsions:
REMARK  status: ('A' for Active; 'I' for Inactive)
REMARK    1  A    between atoms: N_2  and  C1_3 
ROOT
ATOM      1  C1  UNL d   1       1.731  -0.695  -3.587  0.00  0.00     0.143 A 
ATOM      2  C2  UNL d   1       1.510  -0.203  -2.296  0.00  0.00    -0.057 A 
ATOM      3  C3  UNL d   1       1.130  -1.052  -1.250  0.00  0.00     0.033 A 
ATOM      4  C4  UNL d   1       0.936  -2.410  -1.484  0.00  0.00    -0.042 A 
ATOM      5  C5  UNL d   1       1.125  -2.917  -2.765  0.00  0.00     0.033 A 
ATOM      6  C6  UNL d   1       1.511  -2.064  -3.804  0.00  0.00    -0.057 A 
ENDROOT
BRANCH   1   7
ATOM      7  N   UNL d   1       2.014   0.114  -4.690  0.00  0.00    -0.732 N 
ATOM      8  C   UNL d   1       3.382   0.436  -5.036  0.00  0.00     0.284 C 
ATOM      9  H3  UNL d   1       1.422  -0.098  -5.489  0.00  0.00     0.395 HD
ENDBRANCH   1   7
TORSDOF 1
ENDMDL
