MODEL 1
REMARK minimizedAffinity 2.91590309
REMARK minimizedRMSD -1
REMARK  1 active torsions:
REMARK  status: ('A' for Active; 'I' for Inactive)
REMARK    1  A    between atoms: N_2  and  C1_3 
ROOT
ATOM      1  C1  UNL d   1       1.274  -1.206  -2.405  0.00  0.00     0.143 A 
ATOM      2  C2  UNL d   1       1.256  -0.165  -3.339  0.00  0.00    -0.057 A 
ATOM      3  C3  UNL d   1       0.862   1.129  -2.977  0.00  0.00     0.033 A 
ATOM      4  C4  UNL d   1       0.451   1.398  -1.675  0.00  0.00    -0.042 A 
ATOM      5  C5  UNL d   1       0.438   0.373  -0.736  0.00  0.00     0.033 A 
ATOM      6  C6  UNL d   1       0.838  -0.915  -1.103  0.00  0.00    -0.057 A 
ENDROOT
BRANCH   1   7
ATOM      7  N   UNL d   1       1.561  -2.535  -2.727  0.00  0.00    -0.732 N 
ATOM      8  C   UNL d   1       1.198  -3.075  -4.020  0.00  0.00     0.284 C 
ATOM      9  H3  UNL d   1       2.479  -2.825  -2.399  0.00  0.00     0.395 HD
ENDBRANCH   1   7
TORSDOF 1
ENDMDL
