MODEL 1
REMARK minimizedAffinity -1.77634084
REMARK minimizedRMSD -1
REMARK  1 active torsions:
REMARK  status: ('A' for Active; 'I' for Inactive)
REMARK    1  A    between atoms: N_2  and  C1_3 
ROOT
ATOM      1  C1  UNL d   1       0.852  -0.987  -1.008  0.00  0.00     0.143 A 
ATOM      2  C2  UNL d   1       1.234  -1.031  -2.353  0.00  0.00    -0.057 A 
ATOM      3  C3  UNL d   1       1.296   0.133  -3.129  0.00  0.00     0.033 A 
ATOM      4  C4  UNL d   1       0.947   1.362  -2.579  0.00  0.00    -0.042 A 
ATOM      5  C5  UNL d   1       0.540   1.426  -1.251  0.00  0.00     0.033 A 
ATOM      6  C6  UNL d   1       0.487   0.261  -0.480  0.00  0.00    -0.057 A 
ENDROOT
BRANCH   1   7
ATOM      7  N   UNL d   1       0.677  -2.121  -0.212  0.00  0.00    -0.732 N 
ATOM      8  C   UNL d   1      -0.520  -2.284   0.585  0.00  0.00     0.284 C 
ATOM      9  H3  UNL d   1       0.987  -2.972  -0.675  0.00  0.00     0.395 HD
ENDBRANCH   1   7
TORSDOF 1
ENDMDL
