MODEL 1
REMARK minimizedAffinity 2.4985621
REMARK minimizedRMSD -1
REMARK  1 active torsions:
REMARK  status: ('A' for Active; 'I' for Inactive)
REMARK    1  A    between atoms: N_2  and  C1_3 
ROOT
ATOM      1  C1  UNL d   1       5.536   0.826   5.041  0.00  0.00     0.143 A 
ATOM      2  C2  UNL d   1       4.528   0.551   4.110  0.00  0.00    -0.057 A 
ATOM      3  C3  UNL d   1       4.034   1.547   3.259  0.00  0.00     0.033 A 
ATOM      4  C4  UNL d   1       4.521   2.847   3.344  0.00  0.00    -0.042 A 
ATOM      5  C5  UNL d   1       5.506   3.149   4.278  0.00  0.00     0.033 A 
ATOM      6  C6  UNL d   1       6.000   2.148   5.121  0.00  0.00    -0.057 A 
ENDROOT
BRANCH   1   7
ATOM      7  N   UNL d   1       6.000  -0.097   5.981  0.00  0.00    -0.732 N 
ATOM      8  C   UNL d   1       5.994  -1.514   5.688  0.00  0.00     0.284 C 
ATOM      9  H3  UNL d   1       6.837   0.225   6.462  0.00  0.00     0.395 HD
ENDBRANCH   1   7
TORSDOF 1
ENDMDL
