MODEL 1
REMARK minimizedAffinity -2.6033895
REMARK minimizedRMSD -1
REMARK  1 active torsions:
REMARK  status: ('A' for Active; 'I' for Inactive)
REMARK    1  A    between atoms: N_2  and  C1_3 
ROOT
ATOM      1  C1  UNL d   1       1.542   0.018  -3.215  0.00  0.00     0.143 A 
ATOM      2  C2  UNL d   1       1.019   1.189  -2.658  0.00  0.00    -0.057 A 
ATOM      3  C3  UNL d   1       0.620   1.241  -1.317  0.00  0.00     0.033 A 
ATOM      4  C4  UNL d   1       0.712   0.109  -0.513  0.00  0.00    -0.042 A 
ATOM      5  C5  UNL d   1       1.206  -1.074  -1.052  0.00  0.00     0.033 A 
ATOM      6  C6  UNL d   1       1.608  -1.117  -2.391  0.00  0.00    -0.057 A 
ENDROOT
BRANCH   1   7
ATOM      7  N   UNL d   1       1.864  -0.125  -4.567  0.00  0.00    -0.732 N 
ATOM      8  C   UNL d   1       3.155   0.297  -5.066  0.00  0.00     0.284 C 
ATOM      9  H3  UNL d   1       1.537  -1.008  -4.952  0.00  0.00     0.395 HD
ENDBRANCH   1   7
TORSDOF 1
ENDMDL
