MODEL 1
REMARK minimizedAffinity 3.08907294
REMARK minimizedRMSD -1
REMARK  1 active torsions:
REMARK  status: ('A' for Active; 'I' for Inactive)
REMARK    1  A    between atoms: N_2  and  C1_3 
ROOT
ATOM      1  C1  UNL d   1       2.109   0.694   0.046  0.00  0.00     0.143 A 
ATOM      2  C2  UNL d   1       1.440   1.711  -0.643  0.00  0.00    -0.057 A 
ATOM      3  C3  UNL d   1       0.525   1.417  -1.661  0.00  0.00     0.033 A 
ATOM      4  C4  UNL d   1       0.284   0.098  -2.030  0.00  0.00    -0.042 A 
ATOM      5  C5  UNL d   1       0.957  -0.928  -1.376  0.00  0.00     0.033 A 
ATOM      6  C6  UNL d   1       1.864  -0.629  -0.355  0.00  0.00    -0.057 A 
ENDROOT
BRANCH   1   7
ATOM      7  N   UNL d   1       3.102   0.924   1.001  0.00  0.00    -0.732 N 
ATOM      8  C   UNL d   1       3.383   2.267   1.463  0.00  0.00     0.284 C 
ATOM      9  H3  UNL d   1       3.104   0.222   1.737  0.00  0.00     0.395 HD
ENDBRANCH   1   7
TORSDOF 1
ENDMDL
