MODEL 1
REMARK minimizedAffinity 2.44046664
REMARK minimizedRMSD -1
REMARK  1 active torsions:
REMARK  status: ('A' for Active; 'I' for Inactive)
REMARK    1  A    between atoms: N_2  and  C1_3 
ROOT
ATOM      1  C1  UNL d   1       0.929  -0.988  -2.596  0.00  0.00     0.143 A 
ATOM      2  C2  UNL d   1       1.385  -0.262  -3.701  0.00  0.00    -0.057 A 
ATOM      3  C3  UNL d   1       1.397   1.138  -3.695  0.00  0.00     0.033 A 
ATOM      4  C4  UNL d   1       0.924   1.839  -2.591  0.00  0.00    -0.042 A 
ATOM      5  C5  UNL d   1       0.443   1.138  -1.491  0.00  0.00     0.033 A 
ATOM      6  C6  UNL d   1       0.439  -0.260  -1.500  0.00  0.00    -0.057 A 
ENDROOT
BRANCH   1   7
ATOM      7  N   UNL d   1       0.800  -2.379  -2.579  0.00  0.00    -0.732 N 
ATOM      8  C   UNL d   1       1.893  -3.226  -3.008  0.00  0.00     0.284 C 
ATOM      9  H3  UNL d   1       0.315  -2.714  -1.750  0.00  0.00     0.395 HD
ENDBRANCH   1   7
TORSDOF 1
ENDMDL
