MODEL 1
REMARK minimizedAffinity -0.540862441
REMARK minimizedRMSD -1
REMARK  1 active torsions:
REMARK  status: ('A' for Active; 'I' for Inactive)
REMARK    1  A    between atoms: N_2  and  C1_3 
ROOT
ATOM      1  C1  UNL d   1       3.206  -0.259  -4.753  0.00  0.00     0.143 A 
ATOM      2  C2  UNL d   1       1.985  -0.765  -5.214  0.00  0.00    -0.057 A 
ATOM      3  C3  UNL d   1       0.996  -1.198  -4.323  0.00  0.00     0.033 A 
ATOM      4  C4  UNL d   1       1.222  -1.160  -2.951  0.00  0.00    -0.042 A 
ATOM      5  C5  UNL d   1       2.437  -0.685  -2.471  0.00  0.00     0.033 A 
ATOM      6  C6  UNL d   1       3.419  -0.248  -3.365  0.00  0.00    -0.057 A 
ENDROOT
BRANCH   1   7
ATOM      7  N   UNL d   1       4.267   0.095  -5.590  0.00  0.00    -0.732 N 
ATOM      8  C   UNL d   1       5.634   0.016  -5.121  0.00  0.00     0.284 C 
ATOM      9  H3  UNL d   1       4.135  -0.234  -6.544  0.00  0.00     0.395 HD
ENDBRANCH   1   7
TORSDOF 1
ENDMDL
