MODEL 1
REMARK minimizedAffinity 4.21375227
REMARK minimizedRMSD -1
REMARK  1 active torsions:
REMARK  status: ('A' for Active; 'I' for Inactive)
REMARK    1  A    between atoms: C1_2  and  C2_3 
ROOT
ATOM      1  C2  UNL d   1       1.077  -1.252   1.295  0.00  0.00    -0.076 A 
ATOM      2  C3  UNL d   1       1.890  -2.324   0.885  0.00  0.00     0.004 A 
ATOM      3  C4  UNL d   1       3.274  -2.183   0.800  0.00  0.00    -0.003 A 
ATOM      4  C5  UNL d   1       3.868  -0.968   1.123  0.00  0.00     0.000 A 
ATOM      5  C6  UNL d   1       3.079   0.101   1.548  0.00  0.00     0.000 A 
ATOM      6  C7  UNL d   1       1.683  -0.030   1.656  0.00  0.00    -0.073 A 
ATOM      7  C8  UNL d   1       0.880   1.157   2.113  0.00  0.00     0.078 C 
ENDROOT
BRANCH   1   8
ATOM      8  C1  UNL d   1      -0.420  -1.456   1.342  0.00  0.00     0.053 C 
ATOM      9  C   UNL d   1      -0.995  -1.873  -0.003  0.00  0.00     0.018 C 
ENDBRANCH   1   8
TORSDOF 1
ENDMDL
