MODEL 1
REMARK minimizedAffinity 3.47695088
REMARK minimizedRMSD -1
REMARK  1 active torsions:
REMARK  status: ('A' for Active; 'I' for Inactive)
REMARK    1  A    between atoms: C1_2  and  C2_3 
ROOT
ATOM      1  C2  UNL d   1       0.695  -2.231  -0.015  0.00  0.00    -0.076 A 
ATOM      2  C3  UNL d   1       1.374  -2.372  -1.237  0.00  0.00     0.004 A 
ATOM      3  C4  UNL d   1       0.740  -2.094  -2.447  0.00  0.00    -0.003 A 
ATOM      4  C5  UNL d   1      -0.585  -1.670  -2.453  0.00  0.00     0.000 A 
ATOM      5  C6  UNL d   1      -1.268  -1.508  -1.248  0.00  0.00     0.000 A 
ATOM      6  C7  UNL d   1      -0.638  -1.769  -0.020  0.00  0.00    -0.073 A 
ATOM      7  C8  UNL d   1      -1.425  -1.583   1.249  0.00  0.00     0.078 C 
ENDROOT
BRANCH   1   8
ATOM      8  C1  UNL d   1       1.427  -2.573   1.264  0.00  0.00     0.053 C 
ATOM      9  C   UNL d   1       2.551  -1.596   1.571  0.00  0.00     0.018 C 
ENDBRANCH   1   8
TORSDOF 1
ENDMDL
