MODEL 1
REMARK minimizedAffinity -0.695609272
REMARK minimizedRMSD -1
REMARK  1 active torsions:
REMARK  status: ('A' for Active; 'I' for Inactive)
REMARK    1  A    between atoms: C1_2  and  C2_3 
ROOT
ATOM      1  C2  UNL d   1       0.926  -2.616   0.173  0.00  0.00    -0.076 A 
ATOM      2  C3  UNL d   1       1.475  -2.737  -1.115  0.00  0.00     0.004 A 
ATOM      3  C4  UNL d   1       0.679  -2.594  -2.251  0.00  0.00    -0.003 A 
ATOM      4  C5  UNL d   1      -0.679  -2.327  -2.116  0.00  0.00     0.000 A 
ATOM      5  C6  UNL d   1      -1.237  -2.187  -0.846  0.00  0.00     0.000 A 
ATOM      6  C7  UNL d   1      -0.446  -2.312   0.309  0.00  0.00    -0.073 A 
ATOM      7  C8  UNL d   1      -1.101  -2.156   1.654  0.00  0.00     0.078 C 
ENDROOT
BRANCH   1   8
ATOM      8  C1  UNL d   1       1.832  -2.808   1.368  0.00  0.00     0.053 C 
ATOM      9  C   UNL d   1       2.781  -1.637   1.573  0.00  0.00     0.018 C 
ENDBRANCH   1   8
TORSDOF 1
ENDMDL
