MODEL 1
REMARK minimizedAffinity 1.57314062
REMARK minimizedRMSD -1
REMARK  1 active torsions:
REMARK  status: ('A' for Active; 'I' for Inactive)
REMARK    1  A    between atoms: C1_2  and  C2_3 
ROOT
ATOM      1  C2  UNL d   1       2.517  -1.100   1.199  0.00  0.00    -0.076 A 
ATOM      2  C3  UNL d   1       3.627  -1.392   2.011  0.00  0.00     0.004 A 
ATOM      3  C4  UNL d   1       3.564  -2.391   2.981  0.00  0.00    -0.003 A 
ATOM      4  C5  UNL d   1       2.389  -3.114   3.155  0.00  0.00     0.000 A 
ATOM      5  C6  UNL d   1       1.284  -2.849   2.347  0.00  0.00     0.000 A 
ATOM      6  C7  UNL d   1       1.336  -1.857   1.354  0.00  0.00    -0.073 A 
ATOM      7  C8  UNL d   1       0.112  -1.610   0.515  0.00  0.00     0.078 C 
ENDROOT
BRANCH   1   8
ATOM      8  C1  UNL d   1       2.636   0.013   0.182  0.00  0.00     0.053 C 
ATOM      9  C   UNL d   1       2.455   1.390   0.801  0.00  0.00     0.018 C 
ENDBRANCH   1   8
TORSDOF 1
ENDMDL
