MODEL 1
REMARK minimizedAffinity 2.49022651
REMARK minimizedRMSD -1
REMARK  1 active torsions:
REMARK  status: ('A' for Active; 'I' for Inactive)
REMARK    1  A    between atoms: C1_2  and  C2_3 
ROOT
ATOM      1  C2  UNL d   1       0.084  -2.502  -1.341  0.00  0.00    -0.076 A 
ATOM      2  C3  UNL d   1      -1.080  -2.854  -2.046  0.00  0.00     0.004 A 
ATOM      3  C4  UNL d   1      -2.307  -2.966  -1.394  0.00  0.00    -0.003 A 
ATOM      4  C5  UNL d   1      -2.390  -2.726  -0.027  0.00  0.00     0.000 A 
ATOM      5  C6  UNL d   1      -1.248  -2.358   0.685  0.00  0.00     0.000 A 
ATOM      6  C7  UNL d   1      -0.007  -2.225   0.040  0.00  0.00    -0.073 A 
ATOM      7  C8  UNL d   1       1.193  -1.832   0.857  0.00  0.00     0.078 C 
ENDROOT
BRANCH   1   8
ATOM      8  C1  UNL d   1       1.392  -2.423  -2.097  0.00  0.00     0.053 C 
ATOM      9  C   UNL d   1       2.261  -3.653  -1.887  0.00  0.00     0.018 C 
ENDBRANCH   1   8
TORSDOF 1
ENDMDL
