MODEL 1
REMARK minimizedAffinity 11.1121092
REMARK minimizedRMSD -1
REMARK  1 active torsions:
REMARK  status: ('A' for Active; 'I' for Inactive)
REMARK    1  A    between atoms: C1_2  and  C2_3 
ROOT
ATOM      1  C2  UNL d   1      -4.170   2.558  -0.603  0.00  0.00    -0.076 A 
ATOM      2  C3  UNL d   1      -3.762   1.571   0.310  0.00  0.00     0.004 A 
ATOM      3  C4  UNL d   1      -4.407   1.417   1.536  0.00  0.00    -0.003 A 
ATOM      4  C5  UNL d   1      -5.471   2.247   1.868  0.00  0.00     0.000 A 
ATOM      5  C6  UNL d   1      -5.901   3.221   0.967  0.00  0.00     0.000 A 
ATOM      6  C7  UNL d   1      -5.272   3.379  -0.280  0.00  0.00    -0.073 A 
ATOM      7  C8  UNL d   1      -5.773   4.449  -1.211  0.00  0.00     0.078 C 
ENDROOT
BRANCH   1   8
ATOM      8  C1  UNL d   1      -3.415   2.697  -1.906  0.00  0.00     0.053 C 
ATOM      9  C   UNL d   1      -3.932   1.754  -2.982  0.00  0.00     0.018 C 
ENDBRANCH   1   8
TORSDOF 1
ENDMDL
