MODEL 1
REMARK minimizedAffinity 3.78537941
REMARK minimizedRMSD -1
REMARK  1 active torsions:
REMARK  status: ('A' for Active; 'I' for Inactive)
REMARK    1  A    between atoms: C1_2  and  C2_3 
ROOT
ATOM      1  C2  UNL d   1       0.443  -0.754   1.195  0.00  0.00    -0.076 A 
ATOM      2  C3  UNL d   1       1.754  -1.252   1.098  0.00  0.00     0.004 A 
ATOM      3  C4  UNL d   1       2.854  -0.417   1.288  0.00  0.00    -0.003 A 
ATOM      4  C5  UNL d   1       2.661   0.929   1.579  0.00  0.00     0.000 A 
ATOM      5  C6  UNL d   1       1.368   1.436   1.697  0.00  0.00     0.000 A 
ATOM      6  C7  UNL d   1       0.247   0.605   1.524  0.00  0.00    -0.073 A 
ATOM      7  C8  UNL d   1      -1.125   1.206   1.657  0.00  0.00     0.078 C 
ENDROOT
BRANCH   1   8
ATOM      8  C1  UNL d   1      -0.711  -1.700   0.952  0.00  0.00     0.053 C 
ATOM      9  C   UNL d   1      -1.075  -2.505   2.190  0.00  0.00     0.018 C 
ENDBRANCH   1   8
TORSDOF 1
ENDMDL
