MODEL 1
REMARK minimizedAffinity 2.0485239
REMARK minimizedRMSD -1
REMARK  1 active torsions:
REMARK  status: ('A' for Active; 'I' for Inactive)
REMARK    1  A    between atoms: C1_2  and  C2_3 
ROOT
ATOM      1  C2  UNL d   1       2.188  -1.247   1.082  0.00  0.00    -0.076 A 
ATOM      2  C3  UNL d   1       1.439  -2.412   0.841  0.00  0.00     0.004 A 
ATOM      3  C4  UNL d   1       0.050  -2.409   0.960  0.00  0.00    -0.003 A 
ATOM      4  C5  UNL d   1      -0.612  -1.241   1.322  0.00  0.00     0.000 A 
ATOM      5  C6  UNL d   1       0.114  -0.072   1.547  0.00  0.00     0.000 A 
ATOM      6  C7  UNL d   1       1.513  -0.054   1.416  0.00  0.00    -0.073 A 
ATOM      7  C8  UNL d   1       2.246   1.233   1.677  0.00  0.00     0.078 C 
ENDROOT
BRANCH   1   8
ATOM      8  C1  UNL d   1       3.694  -1.318   0.964  0.00  0.00     0.053 C 
ATOM      9  C   UNL d   1       4.196  -0.829  -0.386  0.00  0.00     0.018 C 
ENDBRANCH   1   8
TORSDOF 1
ENDMDL
