MODEL 1
REMARK minimizedAffinity -0.596546471
REMARK minimizedRMSD -1
REMARK  1 active torsions:
REMARK  status: ('A' for Active; 'I' for Inactive)
REMARK    1  A    between atoms: C1_2  and  C2_3 
ROOT
ATOM      1  C2  UNL d   1       0.971   1.769   0.828  0.00  0.00    -0.076 A 
ATOM      2  C3  UNL d   1       2.342   1.498   0.973  0.00  0.00     0.004 A 
ATOM      3  C4  UNL d   1       2.786   0.250   1.408  0.00  0.00    -0.003 A 
ATOM      4  C5  UNL d   1       1.864  -0.748   1.704  0.00  0.00     0.000 A 
ATOM      5  C6  UNL d   1       0.500  -0.503   1.550  0.00  0.00     0.000 A 
ATOM      6  C7  UNL d   1       0.037   0.745   1.097  0.00  0.00    -0.073 A 
ATOM      7  C8  UNL d   1      -1.445   0.956   0.954  0.00  0.00     0.078 C 
ENDROOT
BRANCH   1   8
ATOM      8  C1  UNL d   1       0.548   3.149   0.379  0.00  0.00     0.053 C 
ATOM      9  C   UNL d   1       1.538   3.775  -0.592  0.00  0.00     0.018 C 
ENDBRANCH   1   8
TORSDOF 1
ENDMDL
