MODEL 1
REMARK minimizedAffinity -4.99668217
REMARK minimizedRMSD -1
REMARK  1 active torsions:
REMARK  status: ('A' for Active; 'I' for Inactive)
REMARK    1  A    between atoms: C1_2  and  C2_3 
ROOT
ATOM      1  C2  UNL d   1       0.497  -0.791   0.631  0.00  0.00    -0.076 A 
ATOM      2  C3  UNL d   1       1.013  -2.029   1.049  0.00  0.00     0.004 A 
ATOM      3  C4  UNL d   1       2.349  -2.160   1.426  0.00  0.00    -0.003 A 
ATOM      4  C5  UNL d   1       3.190  -1.053   1.390  0.00  0.00     0.000 A 
ATOM      5  C6  UNL d   1       2.691   0.187   0.995  0.00  0.00     0.000 A 
ATOM      6  C7  UNL d   1       1.342   0.339   0.628  0.00  0.00    -0.073 A 
ATOM      7  C8  UNL d   1       0.858   1.699   0.204  0.00  0.00     0.078 C 
ENDROOT
BRANCH   1   8
ATOM      8  C1  UNL d   1      -0.953  -0.716   0.209  0.00  0.00     0.053 C 
ATOM      9  C   UNL d   1      -1.113  -0.449  -1.280  0.00  0.00     0.018 C 
ENDBRANCH   1   8
TORSDOF 1
ENDMDL
