MODEL 1
REMARK minimizedAffinity -2.74765635
REMARK minimizedRMSD -1
REMARK  0 active torsions:
REMARK  status: ('A' for Active; 'I' for Inactive)
ROOT
ATOM      1  C   UNL d   1      -0.613  -0.375  -1.130  0.00  0.00     0.020 A 
ATOM      2  C1  UNL d   1       0.648  -0.965  -1.209  0.00  0.00     0.020 A 
ATOM      3  C2  UNL d   1       1.593  -0.728  -0.209  0.00  0.00     0.034 A 
ATOM      4  C3  UNL d   1       1.280   0.101   0.874  0.00  0.00     0.017 A 
ATOM      5  C4  UNL d   1       0.014   0.693   0.953  0.00  0.00     0.017 A 
ATOM      6  C5  UNL d   1      -0.929   0.452  -0.051  0.00  0.00     0.034 A 
ATOM      7 Cl   UNL d   1      -0.447   1.727   2.258  0.00  0.00    -0.070 Cl
ATOM      8 Cl1  UNL d   1       2.497   0.350   2.074  0.00  0.00    -0.070 Cl
ENDROOT
TORSDOF 0
ENDMDL
