MODEL 1
REMARK minimizedAffinity -2.6130023
REMARK minimizedRMSD -1
REMARK  0 active torsions:
REMARK  status: ('A' for Active; 'I' for Inactive)
ROOT
ATOM      1  C   UNL d   1      -0.949  -0.464  -0.607  0.00  0.00     0.020 A 
ATOM      2  C1  UNL d   1       0.228  -1.139  -0.930  0.00  0.00     0.020 A 
ATOM      3  C2  UNL d   1       1.363  -0.983  -0.132  0.00  0.00     0.034 A 
ATOM      4  C3  UNL d   1       1.325  -0.150   0.992  0.00  0.00     0.017 A 
ATOM      5  C4  UNL d   1       0.143   0.527   1.315  0.00  0.00     0.017 A 
ATOM      6  C5  UNL d   1      -0.991   0.367   0.513  0.00  0.00     0.034 A 
ATOM      7 Cl   UNL d   1       0.019   1.572   2.686  0.00  0.00    -0.070 Cl
ATOM      8 Cl1  UNL d   1       2.766  -0.004   1.933  0.00  0.00    -0.070 Cl
ENDROOT
TORSDOF 0
ENDMDL
