MODEL 1
REMARK minimizedAffinity -2.27711487
REMARK minimizedRMSD -1
REMARK  0 active torsions:
REMARK  status: ('A' for Active; 'I' for Inactive)
ROOT
ATOM      1  C   UNL d   1      -0.593   0.632   3.331  0.00  0.00     0.020 A 
ATOM      2  C1  UNL d   1       0.564   1.185   2.783  0.00  0.00     0.020 A 
ATOM      3  C2  UNL d   1       0.675   1.345   1.400  0.00  0.00     0.034 A 
ATOM      4  C3  UNL d   1      -0.373   0.952   0.560  0.00  0.00     0.017 A 
ATOM      5  C4  UNL d   1      -1.534   0.397   1.110  0.00  0.00     0.017 A 
ATOM      6  C5  UNL d   1      -1.640   0.239   2.496  0.00  0.00     0.034 A 
ATOM      7 Cl   UNL d   1      -2.869  -0.111   0.138  0.00  0.00    -0.070 Cl
ATOM      8 Cl1  UNL d   1      -0.168   1.179  -1.140  0.00  0.00    -0.070 Cl
ENDROOT
TORSDOF 0
ENDMDL
