MODEL 1
REMARK minimizedAffinity 4.12034893
REMARK minimizedRMSD -1
REMARK  0 active torsions:
REMARK  status: ('A' for Active; 'I' for Inactive)
ROOT
ATOM      1  C   UNL d   1      -1.803   0.300   2.508  0.00  0.00     0.020 A 
ATOM      2  C1  UNL d   1      -2.632   0.350   1.388  0.00  0.00     0.020 A 
ATOM      3  C2  UNL d   1      -2.104   0.114   0.117  0.00  0.00     0.034 A 
ATOM      4  C3  UNL d   1      -0.742  -0.171  -0.037  0.00  0.00     0.017 A 
ATOM      5  C4  UNL d   1       0.089  -0.221   1.087  0.00  0.00     0.017 A 
ATOM      6  C5  UNL d   1      -0.445   0.015   2.358  0.00  0.00     0.034 A 
ATOM      7 Cl   UNL d   1       1.779  -0.567   0.976  0.00  0.00    -0.070 Cl
ATOM      8 Cl1  UNL d   1      -0.157  -0.452  -1.639  0.00  0.00    -0.070 Cl
ENDROOT
TORSDOF 0
ENDMDL
