MODEL 1
REMARK minimizedAffinity -3.45426607
REMARK minimizedRMSD -1
REMARK  0 active torsions:
REMARK  status: ('A' for Active; 'I' for Inactive)
ROOT
ATOM      1  C   UNL d   1       0.834   1.107  -4.515  0.00  0.00     0.020 A 
ATOM      2  C1  UNL d   1       1.325   1.358  -3.234  0.00  0.00     0.020 A 
ATOM      3  C2  UNL d   1       0.992   0.504  -2.180  0.00  0.00     0.034 A 
ATOM      4  C3  UNL d   1       0.167  -0.603  -2.404  0.00  0.00     0.017 A 
ATOM      5  C4  UNL d   1      -0.325  -0.854  -3.690  0.00  0.00     0.017 A 
ATOM      6  C5  UNL d   1       0.011   0.004  -4.742  0.00  0.00     0.034 A 
ATOM      7 Cl   UNL d   1      -1.349  -2.201  -4.045  0.00  0.00    -0.070 Cl
ATOM      8 Cl1  UNL d   1      -0.203  -1.617  -1.055  0.00  0.00    -0.070 Cl
ENDROOT
TORSDOF 0
ENDMDL
