MODEL 1
REMARK minimizedAffinity -5.0032692
REMARK minimizedRMSD -1
REMARK  3 active torsions:
REMARK  status: ('A' for Active; 'I' for Inactive)
REMARK    1  A    between atoms: C3'_2  and  C2'_3 
REMARK    2  A    between atoms: C2'_3  and  C1'_4 
REMARK    3  A    between atoms: C1'_4  and  C1_5 
ROOT
ATOM      1  C1  N4B d   1      -0.338   0.227  -0.363  0.00  0.00    -0.075 A 
ATOM      2  C2  N4B d   1      -1.720   0.283  -0.080  0.00  0.00     0.002 A 
ATOM      3  C3  N4B d   1      -2.151   0.638   1.175  0.00  0.00     0.002 A 
ATOM      4  C4  N4B d   1      -1.221   0.922   2.164  0.00  0.00    -0.004 A 
ATOM      5  C5  N4B d   1       0.112   0.890   1.876  0.00  0.00     0.002 A 
ATOM      6  C6  N4B d   1       0.559   0.539   0.618  0.00  0.00     0.002 A 
ENDROOT
BRANCH   1   7
ATOM      7  C1' N4B d   1       0.182  -0.239  -1.695  0.00  0.00     0.057 C 
BRANCH   7   8
ATOM      8  C2' N4B d   1       1.439   0.552  -2.047  0.00  0.00     0.009 C 
BRANCH   8   9
ATOM      9  C3' N4B d   1       1.426   1.027  -3.489  0.00  0.00     0.004 C 
ATOM     10  C4' N4B d   1       0.040   1.143  -4.051  0.00  0.00     0.003 C 
ENDBRANCH   8   9
ENDBRANCH   7   8
ENDBRANCH   1   7
TORSDOF 3
ENDMDL
