MODEL 1
REMARK minimizedAffinity -2.37389517
REMARK minimizedRMSD -1
REMARK  3 active torsions:
REMARK  status: ('A' for Active; 'I' for Inactive)
REMARK    1  A    between atoms: C3'_2  and  C2'_3 
REMARK    2  A    between atoms: C2'_3  and  C1'_4 
REMARK    3  A    between atoms: C1'_4  and  C1_5 
ROOT
ATOM      1  C1  N4B d   1       0.017   0.045  -0.033  0.00  0.00    -0.075 A 
ATOM      2  C2  N4B d   1       0.630  -0.245   1.206  0.00  0.00     0.002 A 
ATOM      3  C3  N4B d   1      -0.040   0.004   2.378  0.00  0.00     0.002 A 
ATOM      4  C4  N4B d   1      -1.311   0.557   2.338  0.00  0.00    -0.004 A 
ATOM      5  C5  N4B d   1      -1.906   0.811   1.136  0.00  0.00     0.002 A 
ATOM      6  C6  N4B d   1      -1.246   0.562  -0.050  0.00  0.00     0.002 A 
ENDROOT
BRANCH   1   7
ATOM      7  C1' N4B d   1       0.744  -0.130  -1.339  0.00  0.00     0.057 C 
BRANCH   7   8
ATOM      8  C2' N4B d   1       0.145   0.816  -2.376  0.00  0.00     0.009 C 
BRANCH   8   9
ATOM      9  C3' N4B d   1       0.747   0.603  -3.754  0.00  0.00     0.004 C 
ATOM     10  C4' N4B d   1       1.844   1.577  -4.065  0.00  0.00     0.003 C 
ENDBRANCH   8   9
ENDBRANCH   7   8
ENDBRANCH   1   7
TORSDOF 3
ENDMDL
