MODEL 1
REMARK minimizedAffinity -6.03912783
REMARK minimizedRMSD -1
REMARK  3 active torsions:
REMARK  status: ('A' for Active; 'I' for Inactive)
REMARK    1  A    between atoms: C3'_2  and  C2'_3 
REMARK    2  A    between atoms: C2'_3  and  C1'_4 
REMARK    3  A    between atoms: C1'_4  and  C1_5 
ROOT
ATOM      1  C1  N4B d   1      -0.339   0.268   0.346  0.00  0.00    -0.075 A 
ATOM      2  C2  N4B d   1      -1.461  -0.182   1.075  0.00  0.00     0.002 A 
ATOM      3  C3  N4B d   1      -1.961   0.577   2.104  0.00  0.00     0.002 A 
ATOM      4  C4  N4B d   1      -1.347   1.776   2.434  0.00  0.00    -0.004 A 
ATOM      5  C5  N4B d   1      -0.279   2.216   1.708  0.00  0.00     0.002 A 
ATOM      6  C6  N4B d   1       0.232   1.466   0.668  0.00  0.00     0.002 A 
ENDROOT
BRANCH   1   7
ATOM      7  C1' N4B d   1       0.296  -0.567  -0.732  0.00  0.00     0.057 C 
BRANCH   7   8
ATOM      8  C2' N4B d   1       0.752   0.343  -1.868  0.00  0.00     0.009 C 
BRANCH   8   9
ATOM      9  C3' N4B d   1       0.366  -0.211  -3.229  0.00  0.00     0.004 C 
ATOM     10  C4' N4B d   1       0.175   0.862  -4.260  0.00  0.00     0.003 C 
ENDBRANCH   8   9
ENDBRANCH   7   8
ENDBRANCH   1   7
TORSDOF 3
ENDMDL
