MODEL 1
REMARK minimizedAffinity -2.79829216
REMARK minimizedRMSD -1
REMARK  0 active torsions:
REMARK  status: ('A' for Active; 'I' for Inactive)
ROOT
ATOM      1  C   UNL d   1      -0.539   4.295  -2.754  0.00  0.00     0.023 A 
ATOM      2  C1  UNL d   1       0.599   4.337  -1.948  0.00  0.00     0.003 A 
ATOM      3  C2  UNL d   1       0.867   3.293  -1.060  0.00  0.00     0.048 A 
ATOM      4  C3  UNL d   1      -0.007   2.208  -0.985  0.00  0.00     0.023 A 
ATOM      5  C4  UNL d   1      -1.146   2.161  -1.790  0.00  0.00     0.048 A 
ATOM      6  C5  UNL d   1      -1.410   3.208  -2.675  0.00  0.00     0.003 A 
ATOM      7  I   UNL d   1       0.390   0.653   0.335  0.00  0.00    -0.146 I 
ENDROOT
TORSDOF 0
ENDMDL
