MODEL 1
REMARK minimizedAffinity 1.61260796
REMARK minimizedRMSD -1
REMARK  0 active torsions:
REMARK  status: ('A' for Active; 'I' for Inactive)
ROOT
ATOM      1  C   UNL d   1      -1.147   3.672  -3.547  0.00  0.00     0.023 A 
ATOM      2  C1  UNL d   1      -2.221   3.167  -2.815  0.00  0.00     0.003 A 
ATOM      3  C2  UNL d   1      -1.998   2.236  -1.798  0.00  0.00     0.048 A 
ATOM      4  C3  UNL d   1      -0.698   1.816  -1.518  0.00  0.00     0.023 A 
ATOM      5  C4  UNL d   1       0.380   2.320  -2.247  0.00  0.00     0.048 A 
ATOM      6  C5  UNL d   1       0.152   3.250  -3.264  0.00  0.00     0.003 A 
ATOM      7  I   UNL d   1      -0.363   0.432  -0.004  0.00  0.00    -0.146 I 
ENDROOT
TORSDOF 0
ENDMDL
