MODEL 1
REMARK minimizedAffinity 0.315131217
REMARK minimizedRMSD -1
REMARK  0 active torsions:
REMARK  status: ('A' for Active; 'I' for Inactive)
ROOT
ATOM      1  C   UNL d   1       2.116  -0.484   0.670  0.00  0.00     0.023 A 
ATOM      2  C1  UNL d   1       0.984   0.099   1.241  0.00  0.00     0.003 A 
ATOM      3  C2  UNL d   1      -0.120   0.411   0.445  0.00  0.00     0.048 A 
ATOM      4  C3  UNL d   1      -0.086   0.136  -0.921  0.00  0.00     0.023 A 
ATOM      5  C4  UNL d   1       1.043  -0.448  -1.497  0.00  0.00     0.048 A 
ATOM      6  C5  UNL d   1       2.145  -0.757  -0.698  0.00  0.00     0.003 A 
ATOM      7  I   UNL d   1      -1.729   0.598  -2.108  0.00  0.00    -0.146 I 
ENDROOT
TORSDOF 0
ENDMDL
