MODEL 1
REMARK minimizedAffinity -3.88115168
REMARK minimizedRMSD -1
REMARK  0 active torsions:
REMARK  status: ('A' for Active; 'I' for Inactive)
ROOT
ATOM      1  C   UNL d   1       1.362  -0.792   2.925  0.00  0.00     0.023 A 
ATOM      2  C1  UNL d   1       2.239  -0.596   1.859  0.00  0.00     0.003 A 
ATOM      3  C2  UNL d   1       1.740  -0.340   0.580  0.00  0.00     0.048 A 
ATOM      4  C3  UNL d   1       0.362  -0.282   0.375  0.00  0.00     0.023 A 
ATOM      5  C4  UNL d   1      -0.520  -0.477   1.439  0.00  0.00     0.048 A 
ATOM      6  C5  UNL d   1      -0.016  -0.733   2.716  0.00  0.00     0.003 A 
ATOM      7  I   UNL d   1      -0.384   0.098  -1.527  0.00  0.00    -0.146 I 
ENDROOT
TORSDOF 0
ENDMDL
