MODEL 1
REMARK minimizedAffinity -4.3429122
REMARK minimizedRMSD -1
REMARK  0 active torsions:
REMARK  status: ('A' for Active; 'I' for Inactive)
ROOT
ATOM      1  C   UNL d   1      -3.320  -1.303  -1.488  0.00  0.00     0.023 A 
ATOM      2  C1  UNL d   1      -2.159  -0.864  -2.124  0.00  0.00     0.003 A 
ATOM      3  C2  UNL d   1      -1.094  -0.367  -1.371  0.00  0.00     0.048 A 
ATOM      4  C3  UNL d   1      -1.196  -0.312   0.019  0.00  0.00     0.023 A 
ATOM      5  C4  UNL d   1      -2.355  -0.751   0.660  0.00  0.00     0.048 A 
ATOM      6  C5  UNL d   1      -3.418  -1.246  -0.097  0.00  0.00     0.003 A 
ATOM      7  I   UNL d   1       0.389   0.428   1.142  0.00  0.00    -0.146 I 
ENDROOT
TORSDOF 0
ENDMDL
