MODEL 1
REMARK minimizedAffinity 2.76862288
REMARK minimizedRMSD -1
REMARK  0 active torsions:
REMARK  status: ('A' for Active; 'I' for Inactive)
ROOT
ATOM      1  C   UNL d   1       0.812  -0.145  -1.732  0.00  0.00     0.023 A 
ATOM      2  C1  UNL d   1      -0.176   0.228  -0.821  0.00  0.00     0.003 A 
ATOM      3  C2  UNL d   1      -0.082  -0.168   0.515  0.00  0.00     0.048 A 
ATOM      4  C3  UNL d   1       1.003  -0.937   0.933  0.00  0.00     0.023 A 
ATOM      5  C4  UNL d   1       1.994  -1.313   0.025  0.00  0.00     0.048 A 
ATOM      6  C5  UNL d   1       1.896  -0.915  -1.309  0.00  0.00     0.003 A 
ATOM      7  I   UNL d   1       1.145  -1.527   2.921  0.00  0.00    -0.146 I 
ENDROOT
TORSDOF 0
ENDMDL
