MODEL 1
REMARK minimizedAffinity -1.7080394
REMARK minimizedRMSD -1
REMARK  0 active torsions:
REMARK  status: ('A' for Active; 'I' for Inactive)
ROOT
ATOM      1  C   UNL d   1       2.881  -1.111   0.007  0.00  0.00     0.023 A 
ATOM      2  C1  UNL d   1       2.154  -1.172  -1.182  0.00  0.00     0.003 A 
ATOM      3  C2  UNL d   1       0.815  -0.780  -1.205  0.00  0.00     0.048 A 
ATOM      4  C3  UNL d   1       0.208  -0.325  -0.035  0.00  0.00     0.023 A 
ATOM      5  C4  UNL d   1       0.931  -0.260   1.158  0.00  0.00     0.048 A 
ATOM      6  C5  UNL d   1       2.270  -0.655   1.176  0.00  0.00     0.003 A 
ATOM      7  I   UNL d   1      -1.786   0.261  -0.066  0.00  0.00    -0.146 I 
ENDROOT
TORSDOF 0
ENDMDL
