MODEL 1
REMARK minimizedAffinity 7.75205898
REMARK minimizedRMSD -1
REMARK  0 active torsions:
REMARK  status: ('A' for Active; 'I' for Inactive)
ROOT
ATOM      1  C   UNL d   1      -3.652   2.714   6.000  0.00  0.00     0.077 C 
ATOM      2  C1  UNL d   1      -3.947   1.247   5.899  0.00  0.00    -0.074 A 
ATOM      3  C2  UNL d   1      -5.258   0.769   6.000  0.00  0.00    -0.005 A 
ATOM      4  C3  UNL d   1      -5.518  -0.597   5.895  0.00  0.00     0.006 A 
ATOM      5  C4  UNL d   1      -4.472  -1.498   5.689  0.00  0.00    -0.005 A 
ATOM      6  C5  UNL d   1      -3.156  -1.038   5.586  0.00  0.00    -0.074 A 
ATOM      7  C6  UNL d   1      -2.021  -1.992   5.355  0.00  0.00     0.077 C 
ATOM      8  C7  UNL d   1      -2.903   0.337   5.685  0.00  0.00    -0.001 A 
ENDROOT
TORSDOF 0
ENDMDL
