MODEL 1
REMARK minimizedAffinity 15.3117762
REMARK minimizedRMSD -1
REMARK  0 active torsions:
REMARK  status: ('A' for Active; 'I' for Inactive)
ROOT
ATOM      1  C   UNL d   1       4.001   1.088   1.162  0.00  0.00     0.077 C 
ATOM      2  C1  UNL d   1       4.656   2.209   0.410  0.00  0.00    -0.074 A 
ATOM      3  C2  UNL d   1       5.405   1.959  -0.744  0.00  0.00    -0.005 A 
ATOM      4  C3  UNL d   1       6.000   3.012  -1.438  0.00  0.00     0.006 A 
ATOM      5  C4  UNL d   1       5.852   4.324  -0.986  0.00  0.00    -0.005 A 
ATOM      6  C5  UNL d   1       5.105   4.594   0.166  0.00  0.00    -0.074 A 
ATOM      7  C6  UNL d   1       4.928   5.999   0.660  0.00  0.00     0.077 C 
ATOM      8  C7  UNL d   1       4.505   3.530   0.854  0.00  0.00    -0.001 A 
ENDROOT
TORSDOF 0
ENDMDL
