MODEL 1
REMARK minimizedAffinity -0.412830532
REMARK minimizedRMSD -1
REMARK  0 active torsions:
REMARK  status: ('A' for Active; 'I' for Inactive)
ROOT
ATOM      1  C   UNL d   1      -3.551   5.996  -2.807  0.00  0.00     0.077 C 
ATOM      2  C1  UNL d   1      -4.182   5.507  -1.538  0.00  0.00    -0.074 A 
ATOM      3  C2  UNL d   1      -5.421   6.000  -1.115  0.00  0.00    -0.005 A 
ATOM      4  C3  UNL d   1      -6.000   5.529   0.064  0.00  0.00     0.006 A 
ATOM      5  C4  UNL d   1      -5.347   4.562   0.830  0.00  0.00    -0.005 A 
ATOM      6  C5  UNL d   1      -4.108   4.057   0.422  0.00  0.00    -0.074 A 
ATOM      7  C6  UNL d   1      -3.398   3.011   1.228  0.00  0.00     0.077 C 
ATOM      8  C7  UNL d   1      -3.536   4.530  -0.767  0.00  0.00    -0.001 A 
ENDROOT
TORSDOF 0
ENDMDL
