MODEL 1
REMARK minimizedAffinity 9.16836262
REMARK minimizedRMSD -1
REMARK  0 active torsions:
REMARK  status: ('A' for Active; 'I' for Inactive)
ROOT
ATOM      1  C   UNL d   1      -0.063  -1.553  -3.393  0.00  0.00     0.077 C 
ATOM      2  C1  UNL d   1       1.132  -0.830  -2.848  0.00  0.00    -0.074 A 
ATOM      3  C2  UNL d   1       0.998   0.099  -1.811  0.00  0.00    -0.005 A 
ATOM      4  C3  UNL d   1       2.120   0.758  -1.308  0.00  0.00     0.006 A 
ATOM      5  C4  UNL d   1       3.385   0.494  -1.835  0.00  0.00    -0.005 A 
ATOM      6  C5  UNL d   1       3.538  -0.433  -2.871  0.00  0.00    -0.074 A 
ATOM      7  C6  UNL d   1       4.892  -0.735  -3.442  0.00  0.00     0.077 C 
ATOM      8  C7  UNL d   1       2.407  -1.095  -3.367  0.00  0.00    -0.001 A 
ENDROOT
TORSDOF 0
ENDMDL
