MODEL 1
REMARK minimizedAffinity 8.18203068
REMARK minimizedRMSD -1
REMARK  0 active torsions:
REMARK  status: ('A' for Active; 'I' for Inactive)
ROOT
ATOM      1  C   UNL d   1      -4.140   4.684   5.971  0.00  0.00     0.077 C 
ATOM      2  C1  UNL d   1      -4.430   3.213   5.942  0.00  0.00    -0.074 A 
ATOM      3  C2  UNL d   1      -5.744   2.738   6.000  0.00  0.00    -0.005 A 
ATOM      4  C3  UNL d   1      -5.999   1.367   5.962  0.00  0.00     0.006 A 
ATOM      5  C4  UNL d   1      -4.944   0.459   5.865  0.00  0.00    -0.005 A 
ATOM      6  C5  UNL d   1      -3.624   0.915   5.805  0.00  0.00    -0.074 A 
ATOM      7  C6  UNL d   1      -2.479  -0.047   5.691  0.00  0.00     0.077 C 
ATOM      8  C7  UNL d   1      -3.376   2.294   5.837  0.00  0.00    -0.001 A 
ENDROOT
TORSDOF 0
ENDMDL
