MODEL 1
REMARK minimizedAffinity 11.8915548
REMARK minimizedRMSD -1
REMARK  0 active torsions:
REMARK  status: ('A' for Active; 'I' for Inactive)
ROOT
ATOM      1  C   UNL d   1       4.494   5.998   1.806  0.00  0.00     0.077 C 
ATOM      2  C1  UNL d   1       4.646   4.948   0.745  0.00  0.00    -0.074 A 
ATOM      3  C2  UNL d   1       5.730   4.970  -0.138  0.00  0.00    -0.005 A 
ATOM      4  C3  UNL d   1       5.862   3.982  -1.114  0.00  0.00     0.006 A 
ATOM      5  C4  UNL d   1       4.914   2.964  -1.216  0.00  0.00    -0.005 A 
ATOM      6  C5  UNL d   1       3.823   2.925  -0.341  0.00  0.00    -0.074 A 
ATOM      7  C6  UNL d   1       2.800   1.832  -0.431  0.00  0.00     0.077 C 
ATOM      8  C7  UNL d   1       3.701   3.918   0.641  0.00  0.00    -0.001 A 
ENDROOT
TORSDOF 0
ENDMDL
