MODEL 1
REMARK minimizedAffinity 12.7530346
REMARK minimizedRMSD -1
REMARK  0 active torsions:
REMARK  status: ('A' for Active; 'I' for Inactive)
ROOT
ATOM      1  C   UNL d   1       5.999   0.015  -4.027  0.00  0.00     0.077 C 
ATOM      2  C1  UNL d   1       4.706   0.232  -3.298  0.00  0.00    -0.074 A 
ATOM      3  C2  UNL d   1       3.615  -0.617  -3.503  0.00  0.00    -0.005 A 
ATOM      4  C3  UNL d   1       2.422  -0.409  -2.811  0.00  0.00     0.006 A 
ATOM      5  C4  UNL d   1       2.308   0.650  -1.909  0.00  0.00    -0.005 A 
ATOM      6  C5  UNL d   1       3.390   1.510  -1.691  0.00  0.00    -0.074 A 
ATOM      7  C6  UNL d   1       3.288   2.647  -0.719  0.00  0.00     0.077 C 
ATOM      8  C7  UNL d   1       4.587   1.289  -2.385  0.00  0.00    -0.001 A 
ENDROOT
TORSDOF 0
ENDMDL
