MODEL 1
REMARK minimizedAffinity 4.399611
REMARK minimizedRMSD -1
REMARK  0 active torsions:
REMARK  status: ('A' for Active; 'I' for Inactive)
ROOT
ATOM      1  C   UNL d   1       2.264   0.706  -1.883  0.00  0.00     0.077 C 
ATOM      2  C1  UNL d   1       2.922   1.744  -1.023  0.00  0.00    -0.074 A 
ATOM      3  C2  UNL d   1       2.717   1.766   0.361  0.00  0.00    -0.005 A 
ATOM      4  C3  UNL d   1       3.344   2.731   1.149  0.00  0.00     0.006 A 
ATOM      5  C4  UNL d   1       4.180   3.682   0.563  0.00  0.00    -0.005 A 
ATOM      6  C5  UNL d   1       4.397   3.675  -0.818  0.00  0.00    -0.074 A 
ATOM      7  C6  UNL d   1       5.300   4.685  -1.463  0.00  0.00     0.077 C 
ATOM      8  C7  UNL d   1       3.769   2.698  -1.603  0.00  0.00    -0.001 A 
ENDROOT
TORSDOF 0
ENDMDL
