MODEL 1
REMARK minimizedAffinity 14.7651987
REMARK minimizedRMSD -1
REMARK  0 active torsions:
REMARK  status: ('A' for Active; 'I' for Inactive)
ROOT
ATOM      1  C   UNL d   1      -5.425  -2.716   1.337  0.00  0.00     0.077 C 
ATOM      2  C1  UNL d   1      -3.935  -2.602   1.210  0.00  0.00    -0.074 A 
ATOM      3  C2  UNL d   1      -3.092  -2.985   2.259  0.00  0.00    -0.005 A 
ATOM      4  C3  UNL d   1      -1.708  -2.882   2.123  0.00  0.00     0.006 A 
ATOM      5  C4  UNL d   1      -1.153  -2.395   0.939  0.00  0.00    -0.005 A 
ATOM      6  C5  UNL d   1      -1.979  -2.008  -0.121  0.00  0.00    -0.074 A 
ATOM      7  C6  UNL d   1      -1.399  -1.493  -1.404  0.00  0.00     0.077 C 
ATOM      8  C7  UNL d   1      -3.369  -2.122   0.021  0.00  0.00    -0.001 A 
ENDROOT
TORSDOF 0
ENDMDL
