MODEL 1
REMARK minimizedAffinity 11.3076782
REMARK minimizedRMSD -1
REMARK  0 active torsions:
REMARK  status: ('A' for Active; 'I' for Inactive)
ROOT
ATOM      1  C   UNL d   1      -2.533  -1.732   4.431  0.00  0.00     0.077 C 
ATOM      2  C1  UNL d   1      -3.540  -0.760   4.969  0.00  0.00    -0.074 A 
ATOM      3  C2  UNL d   1      -4.852  -1.161   5.242  0.00  0.00    -0.005 A 
ATOM      4  C3  UNL d   1      -5.775  -0.249   5.752  0.00  0.00     0.006 A 
ATOM      5  C4  UNL d   1      -5.397   1.073   5.994  0.00  0.00    -0.005 A 
ATOM      6  C5  UNL d   1      -4.089   1.492   5.728  0.00  0.00    -0.074 A 
ATOM      7  C6  UNL d   1      -3.664   2.906   5.992  0.00  0.00     0.077 C 
ATOM      8  C7  UNL d   1      -3.166   0.567   5.223  0.00  0.00    -0.001 A 
ENDROOT
TORSDOF 0
ENDMDL
