MODEL 1
REMARK minimizedAffinity 5.67316723
REMARK minimizedRMSD -1
REMARK  0 active torsions:
REMARK  status: ('A' for Active; 'I' for Inactive)
ROOT
ATOM      1  C   UNL d   1      -2.648  -2.346   3.755  0.00  0.00     0.077 C 
ATOM      2  C1  UNL d   1      -1.927  -2.599   2.464  0.00  0.00    -0.074 A 
ATOM      3  C2  UNL d   1      -1.805  -1.593   1.500  0.00  0.00    -0.005 A 
ATOM      4  C3  UNL d   1      -1.124  -1.840   0.308  0.00  0.00     0.006 A 
ATOM      5  C4  UNL d   1      -0.559  -3.093   0.068  0.00  0.00    -0.005 A 
ATOM      6  C5  UNL d   1      -0.670  -4.111   1.021  0.00  0.00    -0.074 A 
ATOM      7  C6  UNL d   1      -0.061  -5.461   0.783  0.00  0.00     0.077 C 
ATOM      8  C7  UNL d   1      -1.350  -3.853   2.219  0.00  0.00    -0.001 A 
ENDROOT
TORSDOF 0
ENDMDL
