MODEL 1
REMARK minimizedAffinity 12.9180136
REMARK minimizedRMSD -1
REMARK  0 active torsions:
REMARK  status: ('A' for Active; 'I' for Inactive)
ROOT
ATOM      1  C   UNL d   1       2.425   2.520  -1.030  0.00  0.00     0.077 C 
ATOM      2  C1  UNL d   1       2.142   1.223  -1.728  0.00  0.00    -0.074 A 
ATOM      3  C2  UNL d   1       3.182   0.437  -2.235  0.00  0.00    -0.005 A 
ATOM      4  C3  UNL d   1       2.904  -0.771  -2.873  0.00  0.00     0.006 A 
ATOM      5  C4  UNL d   1       1.585  -1.206  -3.010  0.00  0.00    -0.005 A 
ATOM      6  C5  UNL d   1       0.532  -0.435  -2.508  0.00  0.00    -0.074 A 
ATOM      7  C6  UNL d   1      -0.890  -0.892  -2.639  0.00  0.00     0.077 C 
ATOM      8  C7  UNL d   1       0.820   0.775  -1.862  0.00  0.00    -0.001 A 
ENDROOT
TORSDOF 0
ENDMDL
