MODEL 1
REMARK minimizedAffinity 11.6998434
REMARK minimizedRMSD -1
REMARK  0 active torsions:
REMARK  status: ('A' for Active; 'I' for Inactive)
ROOT
ATOM      1  C   UNL d   1      -3.479   0.909   5.596  0.00  0.00     0.077 C 
ATOM      2  C1  UNL d   1      -2.719  -0.306   5.153  0.00  0.00    -0.074 A 
ATOM      3  C2  UNL d   1      -1.793  -0.923   6.000  0.00  0.00    -0.005 A 
ATOM      4  C3  UNL d   1      -1.100  -2.057   5.577  0.00  0.00     0.006 A 
ATOM      5  C4  UNL d   1      -1.327  -2.586   4.306  0.00  0.00    -0.005 A 
ATOM      6  C5  UNL d   1      -2.250  -1.983   3.445  0.00  0.00    -0.074 A 
ATOM      7  C6  UNL d   1      -2.512  -2.544   2.079  0.00  0.00     0.077 C 
ATOM      8  C7  UNL d   1      -2.947  -0.848   3.880  0.00  0.00    -0.001 A 
ENDROOT
TORSDOF 0
ENDMDL
