MODEL 1
REMARK minimizedAffinity 10.6476593
REMARK minimizedRMSD -1
REMARK  0 active torsions:
REMARK  status: ('A' for Active; 'I' for Inactive)
ROOT
ATOM      1  C   UNL d   1      -4.050   2.821   5.988  0.00  0.00     0.077 C 
ATOM      2  C1  UNL d   1      -4.018   1.327   5.869  0.00  0.00    -0.074 A 
ATOM      3  C2  UNL d   1      -5.187   0.570   6.000  0.00  0.00    -0.005 A 
ATOM      4  C3  UNL d   1      -5.144  -0.819   5.878  0.00  0.00     0.006 A 
ATOM      5  C4  UNL d   1      -3.933  -1.464   5.624  0.00  0.00    -0.005 A 
ATOM      6  C5  UNL d   1      -2.754  -0.724   5.489  0.00  0.00    -0.074 A 
ATOM      7  C6  UNL d   1      -1.445  -1.401   5.207  0.00  0.00     0.077 C 
ATOM      8  C7  UNL d   1      -2.807   0.672   5.606  0.00  0.00    -0.001 A 
ENDROOT
TORSDOF 0
ENDMDL
