MODEL 1
REMARK minimizedAffinity 8.38579655
REMARK minimizedRMSD -1
REMARK  0 active torsions:
REMARK  status: ('A' for Active; 'I' for Inactive)
ROOT
ATOM      1  C   UNL d   1      -1.880  -1.044  -1.072  0.00  0.00     0.077 C 
ATOM      2  C1  UNL d   1      -1.739  -2.126  -0.043  0.00  0.00    -0.074 A 
ATOM      3  C2  UNL d   1      -0.922  -3.238  -0.277  0.00  0.00    -0.005 A 
ATOM      4  C3  UNL d   1      -0.794  -4.232   0.693  0.00  0.00     0.006 A 
ATOM      5  C4  UNL d   1      -1.478  -4.125   1.904  0.00  0.00    -0.005 A 
ATOM      6  C5  UNL d   1      -2.298  -3.020   2.156  0.00  0.00    -0.074 A 
ATOM      7  C6  UNL d   1      -3.033  -2.884   3.456  0.00  0.00     0.077 C 
ATOM      8  C7  UNL d   1      -2.417  -2.022   1.179  0.00  0.00    -0.001 A 
ENDROOT
TORSDOF 0
ENDMDL
