MODEL 1
REMARK minimizedAffinity 13.4176188
REMARK minimizedRMSD -1
REMARK  0 active torsions:
REMARK  status: ('A' for Active; 'I' for Inactive)
ROOT
ATOM      1  C   UNL d   1      -0.165  -3.219   1.333  0.00  0.00     0.077 C 
ATOM      2  C1  UNL d   1      -0.101  -3.937   0.018  0.00  0.00    -0.074 A 
ATOM      3  C2  UNL d   1      -0.048  -5.334  -0.036  0.00  0.00    -0.005 A 
ATOM      4  C3  UNL d   1       0.002  -5.988  -1.267  0.00  0.00     0.006 A 
ATOM      5  C4  UNL d   1      -0.001  -5.254  -2.454  0.00  0.00    -0.005 A 
ATOM      6  C5  UNL d   1      -0.054  -3.857  -2.419  0.00  0.00    -0.074 A 
ATOM      7  C6  UNL d   1      -0.067  -3.053  -3.685  0.00  0.00     0.077 C 
ATOM      8  C7  UNL d   1      -0.111  -3.207  -1.178  0.00  0.00    -0.001 A 
ENDROOT
TORSDOF 0
ENDMDL
