MODEL 1
REMARK minimizedAffinity -5.34489918
REMARK minimizedRMSD -1
REMARK  2 active torsions:
REMARK  status: ('A' for Active; 'I' for Inactive)
REMARK    1  A    between atoms: C2'_3  and  C1'_4 
REMARK    2  A    between atoms: C1'_4  and  C1_5 
ROOT
ATOM      1  C1  I4B d   1       1.856   4.850   5.062  0.00  0.00    -0.075 A 
ATOM      2  C2  I4B d   1       1.771   5.259   3.755  0.00  0.00     0.003 A 
ATOM      3  C3  I4B d   1       0.506   5.478   3.157  0.00  0.00     0.002 A 
ATOM      4  C4  I4B d   1      -0.641   5.229   3.883  0.00  0.00    -0.004 A 
ATOM      5  C5  I4B d   1      -0.553   4.836   5.215  0.00  0.00     0.002 A 
ATOM      6  C6  I4B d   1       0.703   4.657   5.813  0.00  0.00     0.003 A 
ENDROOT
BRANCH   1   7
ATOM      7  C1' I4B d   1       3.207   4.596   5.652  0.00  0.00     0.060 C 
BRANCH   7   8
ATOM      8  C2' I4B d   1       3.791   3.374   4.972  0.00  0.00    -0.013 C 
ATOM      9  C4' I4B d   1       5.121   3.686   4.339  0.00  0.00     0.013 C 
ATOM     10  C3' I4B d   1       3.921   2.290   6.000  0.00  0.00     0.013 C 
ENDBRANCH   7   8
ENDBRANCH   1   7
TORSDOF 2
ENDMDL
