MODEL 1
REMARK minimizedAffinity 3.6463747
REMARK minimizedRMSD -1
REMARK  2 active torsions:
REMARK  status: ('A' for Active; 'I' for Inactive)
REMARK    1  A    between atoms: C2'_3  and  C1'_4 
REMARK    2  A    between atoms: C1'_4  and  C1_5 
ROOT
ATOM      1  C1  I4B d   1       2.856  -0.523  -0.174  0.00  0.00    -0.075 A 
ATOM      2  C2  I4B d   1       4.181  -0.491  -0.530  0.00  0.00     0.003 A 
ATOM      3  C3  I4B d   1       4.825   0.747  -0.772  0.00  0.00     0.002 A 
ATOM      4  C4  I4B d   1       4.098   1.917  -0.696  0.00  0.00    -0.004 A 
ATOM      5  C5  I4B d   1       2.760   1.885  -0.313  0.00  0.00     0.002 A 
ATOM      6  C6  I4B d   1       2.138   0.659  -0.038  0.00  0.00     0.003 A 
ENDROOT
BRANCH   1   7
ATOM      7  C1' I4B d   1       2.199  -1.849   0.042  0.00  0.00     0.060 C 
BRANCH   7   8
ATOM      8  C2' I4B d   1       1.457  -2.215  -1.227  0.00  0.00    -0.013 C 
ATOM      9  C4' I4B d   1       2.397  -2.759  -2.270  0.00  0.00     0.013 C 
ATOM     10  C3' I4B d   1       0.401  -3.219  -0.873  0.00  0.00     0.013 C 
ENDBRANCH   7   8
ENDBRANCH   1   7
TORSDOF 2
ENDMDL
