MODEL 1
REMARK minimizedAffinity 7.04386854
REMARK minimizedRMSD -1
REMARK  1 active torsions:
REMARK  status: ('A' for Active; 'I' for Inactive)
REMARK    1  A    between atoms: C3_4  and  O_7 
ROOT
ATOM      1  C   UNL d   1      -5.588   3.883   2.453  0.00  0.00    -0.033 A 
ATOM      2  C1  UNL d   1      -5.407   5.267   2.446  0.00  0.00     0.039 A 
ATOM      3  C2  UNL d   1      -5.524   5.995   3.631  0.00  0.00    -0.080 A 
ATOM      4  C3  UNL d   1      -5.822   5.327   4.816  0.00  0.00     0.150 A 
ATOM      5  C4  UNL d   1      -6.000   3.948   4.832  0.00  0.00    -0.007 A 
ATOM      6  C5  UNL d   1      -5.883   3.223   3.646  0.00  0.00     0.039 A 
ENDROOT
BRANCH   4   7
ATOM      7  O   UNL d   1      -5.951   5.995   5.997  0.00  0.00    -0.526 OA
ATOM      8  H5  UNL d   1      -5.830   6.945   5.829  0.00  0.00     0.418 HD
ENDBRANCH   4   7
TORSDOF 1
ENDMDL
