MODEL 1
REMARK minimizedAffinity 6.56872225
REMARK minimizedRMSD -1
REMARK  1 active torsions:
REMARK  status: ('A' for Active; 'I' for Inactive)
REMARK    1  A    between atoms: C3_4  and  O_7 
ROOT
ATOM      1  C   UNL d   1       3.009   1.358  -0.490  0.00  0.00    -0.033 A 
ATOM      2  C1  UNL d   1       2.113   0.346  -0.841  0.00  0.00     0.039 A 
ATOM      3  C2  UNL d   1       1.945  -0.760  -0.006  0.00  0.00    -0.080 A 
ATOM      4  C3  UNL d   1       2.676  -0.842   1.176  0.00  0.00     0.150 A 
ATOM      5  C4  UNL d   1       3.567   0.164   1.534  0.00  0.00    -0.007 A 
ATOM      6  C5  UNL d   1       3.735   1.268   0.698  0.00  0.00     0.039 A 
ENDROOT
BRANCH   4   7
ATOM      7  O   UNL d   1       2.549  -1.904   2.021  0.00  0.00    -0.526 OA
ATOM      8  H5  UNL d   1       1.920  -2.534   1.631  0.00  0.00     0.418 HD
ENDBRANCH   4   7
TORSDOF 1
ENDMDL
