MODEL 1
REMARK minimizedAffinity -1.02208722
REMARK minimizedRMSD -1
REMARK  1 active torsions:
REMARK  status: ('A' for Active; 'I' for Inactive)
REMARK    1  A    between atoms: C3_4  and  O_7 
ROOT
ATOM      1  C   UNL d   1      -4.888   6.000   5.976  0.00  0.00    -0.033 A 
ATOM      2  C1  UNL d   1      -5.918   5.057   5.965  0.00  0.00     0.039 A 
ATOM      3  C2  UNL d   1      -5.990   4.112   4.940  0.00  0.00    -0.080 A 
ATOM      4  C3  UNL d   1      -5.027   4.119   3.934  0.00  0.00     0.150 A 
ATOM      5  C4  UNL d   1      -3.996   5.053   3.942  0.00  0.00    -0.007 A 
ATOM      6  C5  UNL d   1      -3.927   5.997   4.965  0.00  0.00     0.039 A 
ENDROOT
BRANCH   4   7
ATOM      7  O   UNL d   1      -5.059   3.219   2.911  0.00  0.00    -0.526 OA
ATOM      8  H5  UNL d   1      -5.842   2.655   3.021  0.00  0.00     0.418 HD
ENDBRANCH   4   7
TORSDOF 1
ENDMDL
