MODEL 1
REMARK minimizedAffinity 5.91498995
REMARK minimizedRMSD -1
REMARK  1 active torsions:
REMARK  status: ('A' for Active; 'I' for Inactive)
REMARK    1  A    between atoms: C3_4  and  O_7 
ROOT
ATOM      1  C   UNL d   1      -5.534   0.861  -5.298  0.00  0.00    -0.033 A 
ATOM      2  C1  UNL d   1      -4.493   1.471  -6.000  0.00  0.00     0.039 A 
ATOM      3  C2  UNL d   1      -3.167   1.246  -5.622  0.00  0.00    -0.080 A 
ATOM      4  C3  UNL d   1      -2.897   0.410  -4.542  0.00  0.00     0.150 A 
ATOM      5  C4  UNL d   1      -3.930  -0.204  -3.841  0.00  0.00    -0.007 A 
ATOM      6  C5  UNL d   1      -5.252   0.022  -4.219  0.00  0.00     0.039 A 
ENDROOT
BRANCH   4   7
ATOM      7  O   UNL d   1      -1.620   0.164  -4.133  0.00  0.00    -0.526 OA
ATOM      8  H5  UNL d   1      -1.014   0.678  -4.692  0.00  0.00     0.418 HD
ENDBRANCH   4   7
TORSDOF 1
ENDMDL
