MODEL 1
REMARK minimizedAffinity 0.557857394
REMARK minimizedRMSD -1
REMARK  1 active torsions:
REMARK  status: ('A' for Active; 'I' for Inactive)
REMARK    1  A    between atoms: C3_4  and  O_7 
ROOT
ATOM      1  C   UNL d   1       2.625   0.399  -1.350  0.00  0.00    -0.033 A 
ATOM      2  C1  UNL d   1       2.250  -0.940  -1.470  0.00  0.00     0.039 A 
ATOM      3  C2  UNL d   1       2.464  -1.825  -0.411  0.00  0.00    -0.080 A 
ATOM      4  C3  UNL d   1       3.054  -1.358   0.761  0.00  0.00     0.150 A 
ATOM      5  C4  UNL d   1       3.427  -0.024   0.888  0.00  0.00    -0.007 A 
ATOM      6  C5  UNL d   1       3.212   0.858  -0.170  0.00  0.00     0.039 A 
ENDROOT
BRANCH   4   7
ATOM      7  O   UNL d   1       3.288  -2.185   1.819  0.00  0.00    -0.526 OA
ATOM      8  H5  UNL d   1       3.005  -3.083   1.576  0.00  0.00     0.418 HD
ENDBRANCH   4   7
TORSDOF 1
ENDMDL
