MODEL 1
REMARK minimizedAffinity 3.13535786
REMARK minimizedRMSD -1
REMARK  1 active torsions:
REMARK  status: ('A' for Active; 'I' for Inactive)
REMARK    1  A    between atoms: C3_4  and  O_7 
ROOT
ATOM      1  C   UNL d   1      -4.856   6.000   5.493  0.00  0.00    -0.033 A 
ATOM      2  C1  UNL d   1      -3.734   5.961   4.663  0.00  0.00     0.039 A 
ATOM      3  C2  UNL d   1      -3.735   5.158   3.521  0.00  0.00    -0.080 A 
ATOM      4  C3  UNL d   1      -4.863   4.400   3.220  0.00  0.00     0.150 A 
ATOM      5  C4  UNL d   1      -5.986   4.437   4.040  0.00  0.00    -0.007 A 
ATOM      6  C5  UNL d   1      -5.983   5.239   5.180  0.00  0.00     0.039 A 
ENDROOT
BRANCH   4   7
ATOM      7  O   UNL d   1      -4.909   3.598   2.119  0.00  0.00    -0.526 OA
ATOM      8  H5  UNL d   1      -4.053   3.651   1.663  0.00  0.00     0.418 HD
ENDBRANCH   4   7
TORSDOF 1
ENDMDL
