MODEL 1
REMARK minimizedAffinity -5.31881952
REMARK minimizedRMSD -1
REMARK  0 active torsions:
REMARK  status: ('A' for Active; 'I' for Inactive)
ROOT
ATOM      1  C1  DEN d   1       0.766  -0.428   1.686  0.00  0.00     0.130 A 
ATOM      2  C2  DEN d   1      -0.020  -0.738   2.877  0.00  0.00    -0.031 A 
ATOM      3  C3  DEN d   1      -1.448  -0.585   2.533  0.00  0.00     0.027 A 
ATOM      4  C4  DEN d   1      -2.512   0.093   0.283  0.00  0.00     0.027 A 
ATOM      5  C5  DEN d   1      -2.248   0.466  -1.016  0.00  0.00    -0.003 A 
ATOM      6  C6  DEN d   1      -0.971   0.598  -1.493  0.00  0.00     0.001 A 
ATOM      7  C7  DEN d   1       0.091   0.313  -0.676  0.00  0.00     0.017 A 
ATOM      8  C8  DEN d   1      -0.167  -0.056   0.638  0.00  0.00    -0.094 A 
ATOM      9  C9  DEN d   1      -1.465  -0.197   1.097  0.00  0.00    -0.072 A 
ENDROOT
TORSDOF 0
ENDMDL
