MODEL 1
REMARK minimizedAffinity -1.93701613
REMARK minimizedRMSD -1
REMARK  0 active torsions:
REMARK  status: ('A' for Active; 'I' for Inactive)
ROOT
ATOM      1  C1  DEN d   1       1.426   0.065  -3.198  0.00  0.00     0.130 A 
ATOM      2  C2  DEN d   1       0.648  -1.072  -3.682  0.00  0.00    -0.031 A 
ATOM      3  C3  DEN d   1      -0.178  -1.570  -2.564  0.00  0.00     0.027 A 
ATOM      4  C4  DEN d   1      -0.331  -0.691  -0.144  0.00  0.00     0.027 A 
ATOM      5  C5  DEN d   1       0.149   0.249   0.742  0.00  0.00    -0.003 A 
ATOM      6  C6  DEN d   1       1.105   1.164   0.389  0.00  0.00     0.001 A 
ATOM      7  C7  DEN d   1       1.580   1.188  -0.896  0.00  0.00     0.017 A 
ATOM      8  C8  DEN d   1       1.106   0.239  -1.793  0.00  0.00    -0.094 A 
ATOM      9  C9  DEN d   1       0.130  -0.670  -1.420  0.00  0.00    -0.072 A 
ENDROOT
TORSDOF 0
ENDMDL
