MODEL 1
REMARK minimizedAffinity -4.09611273
REMARK minimizedRMSD -1
REMARK  0 active torsions:
REMARK  status: ('A' for Active; 'I' for Inactive)
ROOT
ATOM      1  C1  DEN d   1      -2.673   1.003   0.581  0.00  0.00     0.130 A 
ATOM      2  C2  DEN d   1      -3.304   1.184   1.886  0.00  0.00    -0.031 A 
ATOM      3  C3  DEN d   1      -2.265   1.014   2.922  0.00  0.00     0.027 A 
ATOM      4  C4  DEN d   1       0.245   0.497   2.635  0.00  0.00     0.027 A 
ATOM      5  C5  DEN d   1       1.242   0.246   1.718  0.00  0.00    -0.003 A 
ATOM      6  C6  DEN d   1       0.999   0.197   0.371  0.00  0.00     0.001 A 
ATOM      7  C7  DEN d   1      -0.263   0.446  -0.101  0.00  0.00     0.017 A 
ATOM      8  C8  DEN d   1      -1.274   0.693   0.818  0.00  0.00    -0.094 A 
ATOM      9  C9  DEN d   1      -1.006   0.750   2.175  0.00  0.00    -0.072 A 
ENDROOT
TORSDOF 0
ENDMDL
