MODEL 1
REMARK minimizedAffinity -1.09866941
REMARK minimizedRMSD -1
REMARK  0 active torsions:
REMARK  status: ('A' for Active; 'I' for Inactive)
ROOT
ATOM      1  C1  DEN d   1       1.680   0.817  -0.646  0.00  0.00     0.130 A 
ATOM      2  C2  DEN d   1       0.363   0.930  -0.026  0.00  0.00    -0.031 A 
ATOM      3  C3  DEN d   1      -0.606   0.213  -0.879  0.00  0.00     0.027 A 
ATOM      4  C4  DEN d   1      -0.196  -1.059  -3.085  0.00  0.00     0.027 A 
ATOM      5  C5  DEN d   1       0.757  -1.420  -4.012  0.00  0.00    -0.003 A 
ATOM      6  C6  DEN d   1       2.067  -1.036  -3.900  0.00  0.00     0.001 A 
ATOM      7  C7  DEN d   1       2.469  -0.304  -2.815  0.00  0.00     0.017 A 
ATOM      8  C8  DEN d   1       1.513   0.070  -1.880  0.00  0.00    -0.094 A 
ATOM      9  C9  DEN d   1       0.196  -0.339  -2.004  0.00  0.00    -0.072 A 
ENDROOT
TORSDOF 0
ENDMDL
