MODEL 1
REMARK minimizedAffinity -3.48132491
REMARK minimizedRMSD -1
REMARK  0 active torsions:
REMARK  status: ('A' for Active; 'I' for Inactive)
ROOT
ATOM      1  C1  DEN d   1      -0.875   1.129  -1.324  0.00  0.00     0.130 A 
ATOM      2  C2  DEN d   1      -2.284   0.983  -0.971  0.00  0.00    -0.031 A 
ATOM      3  C3  DEN d   1      -2.362   0.625   0.459  0.00  0.00     0.027 A 
ATOM      4  C4  DEN d   1      -0.448   0.288   2.154  0.00  0.00     0.027 A 
ATOM      5  C5  DEN d   1       0.920   0.292   2.318  0.00  0.00    -0.003 A 
ATOM      6  C6  DEN d   1       1.779   0.540   1.281  0.00  0.00     0.001 A 
ATOM      7  C7  DEN d   1       1.278   0.838   0.041  0.00  0.00     0.017 A 
ATOM      8  C8  DEN d   1      -0.099   0.829  -0.134  0.00  0.00    -0.094 A 
ATOM      9  C9  DEN d   1      -0.952   0.588   0.931  0.00  0.00    -0.072 A 
ENDROOT
TORSDOF 0
ENDMDL
