MODEL 1
REMARK minimizedAffinity -0.229665935
REMARK minimizedRMSD -1
REMARK  0 active torsions:
REMARK  status: ('A' for Active; 'I' for Inactive)
ROOT
ATOM      1  C1  DEN d   1      -1.630   0.044   2.171  0.00  0.00     0.130 A 
ATOM      2  C2  DEN d   1      -0.966   0.508   3.386  0.00  0.00    -0.031 A 
ATOM      3  C3  DEN d   1       0.433   0.835   3.046  0.00  0.00     0.027 A 
ATOM      4  C4  DEN d   1       1.628   0.675   0.766  0.00  0.00     0.027 A 
ATOM      5  C5  DEN d   1       1.479   0.324  -0.557  0.00  0.00    -0.003 A 
ATOM      6  C6  DEN d   1       0.303  -0.173  -1.053  0.00  0.00     0.001 A 
ATOM      7  C7  DEN d   1      -0.785  -0.291  -0.228  0.00  0.00     0.017 A 
ATOM      8  C8  DEN d   1      -0.640   0.054   1.109  0.00  0.00    -0.094 A 
ATOM      9  C9  DEN d   1       0.554   0.566   1.588  0.00  0.00    -0.072 A 
ENDROOT
TORSDOF 0
ENDMDL
