MODEL 1
REMARK minimizedAffinity 1.58735323
REMARK minimizedRMSD -1
REMARK  0 active torsions:
REMARK  status: ('A' for Active; 'I' for Inactive)
ROOT
ATOM      1  C1  DEN d   1      -2.621   0.186   0.881  0.00  0.00     0.130 A 
ATOM      2  C2  DEN d   1      -2.469  -0.838   1.911  0.00  0.00    -0.031 A 
ATOM      3  C3  DEN d   1      -1.184  -1.528   1.683  0.00  0.00     0.027 A 
ATOM      4  C4  DEN d   1       0.579  -1.110  -0.154  0.00  0.00     0.027 A 
ATOM      5  C5  DEN d   1       0.887  -0.353  -1.262  0.00  0.00    -0.003 A 
ATOM      6  C6  DEN d   1       0.039   0.606  -1.751  0.00  0.00     0.001 A 
ATOM      7  C7  DEN d   1      -1.140   0.864  -1.101  0.00  0.00     0.017 A 
ATOM      8  C8  DEN d   1      -1.461   0.099   0.013  0.00  0.00    -0.094 A 
ATOM      9  C9  DEN d   1      -0.585  -0.857   0.498  0.00  0.00    -0.072 A 
ENDROOT
TORSDOF 0
ENDMDL
