MODEL 1
REMARK minimizedAffinity -1.11157715
REMARK minimizedRMSD -1
REMARK  0 active torsions:
REMARK  status: ('A' for Active; 'I' for Inactive)
ROOT
ATOM      1  C1  DEN d   1       0.594  -1.364  -0.670  0.00  0.00     0.130 A 
ATOM      2  C2  DEN d   1      -0.021  -2.673  -0.874  0.00  0.00    -0.031 A 
ATOM      3  C3  DEN d   1      -0.819  -2.995   0.325  0.00  0.00     0.027 A 
ATOM      4  C4  DEN d   1      -1.165  -1.600   2.467  0.00  0.00     0.027 A 
ATOM      5  C5  DEN d   1      -0.835  -0.425   3.107  0.00  0.00    -0.003 A 
ATOM      6  C6  DEN d   1       0.014   0.495   2.552  0.00  0.00     0.001 A 
ATOM      7  C7  DEN d   1       0.527   0.278   1.301  0.00  0.00     0.017 A 
ATOM      8  C8  DEN d   1       0.205  -0.907   0.653  0.00  0.00    -0.094 A 
ATOM      9  C9  DEN d   1      -0.664  -1.820   1.225  0.00  0.00    -0.072 A 
ENDROOT
TORSDOF 0
ENDMDL
