MODEL 1
REMARK minimizedAffinity -2.15376234
REMARK minimizedRMSD -1
REMARK  0 active torsions:
REMARK  status: ('A' for Active; 'I' for Inactive)
ROOT
ATOM      1  C1  DEN d   1      -1.506   0.661   1.863  0.00  0.00     0.130 A 
ATOM      2  C2  DEN d   1      -2.509   0.754   0.806  0.00  0.00    -0.031 A 
ATOM      3  C3  DEN d   1      -1.843   0.474  -0.482  0.00  0.00     0.027 A 
ATOM      4  C4  DEN d   1       0.630  -0.096  -0.939  0.00  0.00     0.027 A 
ATOM      5  C5  DEN d   1       1.866  -0.278  -0.359  0.00  0.00    -0.003 A 
ATOM      6  C6  DEN d   1       2.070  -0.128   0.988  0.00  0.00     0.001 A 
ATOM      7  C7  DEN d   1       1.012   0.170   1.805  0.00  0.00     0.017 A 
ATOM      8  C8  DEN d   1      -0.236   0.363   1.226  0.00  0.00    -0.094 A 
ATOM      9  C9  DEN d   1      -0.424   0.194  -0.135  0.00  0.00    -0.072 A 
ENDROOT
TORSDOF 0
ENDMDL
