MODEL 1
REMARK minimizedAffinity -2.77005386
REMARK minimizedRMSD -1
REMARK  0 active torsions:
REMARK  status: ('A' for Active; 'I' for Inactive)
ROOT
ATOM      1  C1  DEN d   1       1.494  -0.025  -1.431  0.00  0.00     0.130 A 
ATOM      2  C2  DEN d   1       0.610   0.012  -2.593  0.00  0.00    -0.031 A 
ATOM      3  C3  DEN d   1      -0.781   0.097  -2.105  0.00  0.00     0.027 A 
ATOM      4  C4  DEN d   1      -1.647   0.181   0.323  0.00  0.00     0.027 A 
ATOM      5  C5  DEN d   1      -1.274   0.164   1.649  0.00  0.00    -0.003 A 
ATOM      6  C6  DEN d   1       0.034   0.050   2.038  0.00  0.00     0.001 A 
ATOM      7  C7  DEN d   1       1.021  -0.006   1.091  0.00  0.00     0.017 A 
ATOM      8  C8  DEN d   1       0.653   0.002  -0.248  0.00  0.00    -0.094 A 
ATOM      9  C9  DEN d   1      -0.674   0.130  -0.621  0.00  0.00    -0.072 A 
ENDROOT
TORSDOF 0
ENDMDL
