MODEL 1
REMARK minimizedAffinity -2.54225445
REMARK minimizedRMSD -1
REMARK  0 active torsions:
REMARK  status: ('A' for Active; 'I' for Inactive)
ROOT
ATOM      1  C1  DEN d   1      -0.687  -0.588  -1.076  0.00  0.00     0.130 A 
ATOM      2  C2  DEN d   1       0.249  -0.286  -2.156  0.00  0.00    -0.031 A 
ATOM      3  C3  DEN d   1       1.464   0.302  -1.556  0.00  0.00     0.027 A 
ATOM      4  C4  DEN d   1       1.986   0.767   0.926  0.00  0.00     0.027 A 
ATOM      5  C5  DEN d   1       1.494   0.690   2.211  0.00  0.00    -0.003 A 
ATOM      6  C6  DEN d   1       0.238   0.218   2.484  0.00  0.00     0.001 A 
ATOM      7  C7  DEN d   1      -0.553  -0.239   1.463  0.00  0.00     0.017 A 
ATOM      8  C8  DEN d   1      -0.066  -0.158   0.165  0.00  0.00    -0.094 A 
ATOM      9  C9  DEN d   1       1.211   0.312  -0.090  0.00  0.00    -0.072 A 
ENDROOT
TORSDOF 0
ENDMDL
