MODEL 1
REMARK minimizedAffinity -2.32256389
REMARK minimizedRMSD -1
REMARK  0 active torsions:
REMARK  status: ('A' for Active; 'I' for Inactive)
ROOT
ATOM      1  C1  BNZ d   1       2.095  -0.753  -0.000  0.00  0.00     0.000 A 
ATOM      2  C2  BNZ d   1       1.347   0.371   0.232  0.00  0.00     0.000 A 
ATOM      3  C3  BNZ d   1      -0.000   0.375   0.000  0.00  0.00     0.000 A 
ATOM      4  C4  BNZ d   1      -0.590  -0.729  -0.501  0.00  0.00     0.000 A 
ATOM      5  C5  BNZ d   1       0.152  -1.867  -0.750  0.00  0.00     0.000 A 
ATOM      6  C6  BNZ d   1       1.501  -1.880  -0.478  0.00  0.00     0.000 A 
ENDROOT
TORSDOF 0
ENDMDL
