MODEL 1
REMARK minimizedAffinity -4.60209656
REMARK minimizedRMSD -1
REMARK  0 active torsions:
REMARK  status: ('A' for Active; 'I' for Inactive)
ROOT
ATOM      1  C1  BNZ d   1       2.874   0.488   0.721  0.00  0.00     0.000 A 
ATOM      2  C2  BNZ d   1       1.660   1.093   0.534  0.00  0.00     0.000 A 
ATOM      3  C3  BNZ d   1       0.599   0.392   0.033  0.00  0.00     0.000 A 
ATOM      4  C4  BNZ d   1       0.763  -0.900  -0.317  0.00  0.00     0.000 A 
ATOM      5  C5  BNZ d   1       1.984  -1.522  -0.143  0.00  0.00     0.000 A 
ATOM      6  C6  BNZ d   1       3.039  -0.824   0.398  0.00  0.00     0.000 A 
ENDROOT
TORSDOF 0
ENDMDL
