MODEL 1
REMARK minimizedAffinity -1.01544595
REMARK minimizedRMSD -1
REMARK  0 active torsions:
REMARK  status: ('A' for Active; 'I' for Inactive)
ROOT
ATOM      1  C1  BNZ d   1      -0.695  -1.993   0.414  0.00  0.00     0.000 A 
ATOM      2  C2  BNZ d   1      -1.290  -0.830   0.825  0.00  0.00     0.000 A 
ATOM      3  C3  BNZ d   1      -0.884   0.377   0.329  0.00  0.00     0.000 A 
ATOM      4  C4  BNZ d   1       0.141   0.424  -0.546  0.00  0.00     0.000 A 
ATOM      5  C5  BNZ d   1       0.757  -0.739  -0.963  0.00  0.00     0.000 A 
ATOM      6  C6  BNZ d   1       0.320  -1.956  -0.492  0.00  0.00     0.000 A 
ENDROOT
TORSDOF 0
ENDMDL
