MODEL 1
REMARK minimizedAffinity -3.22703338
REMARK minimizedRMSD -1
REMARK  0 active torsions:
REMARK  status: ('A' for Active; 'I' for Inactive)
ROOT
ATOM      1  C1  BNZ d   1       0.717  -0.332   0.892  0.00  0.00     0.000 A 
ATOM      2  C2  BNZ d   1       2.035  -0.657   1.073  0.00  0.00     0.000 A 
ATOM      3  C3  BNZ d   1       2.700  -1.420   0.155  0.00  0.00     0.000 A 
ATOM      4  C4  BNZ d   1       2.037  -1.890  -0.922  0.00  0.00     0.000 A 
ATOM      5  C5  BNZ d   1       0.705  -1.579  -1.113  0.00  0.00     0.000 A 
ATOM      6  C6  BNZ d   1       0.049  -0.778  -0.207  0.00  0.00     0.000 A 
ENDROOT
TORSDOF 0
ENDMDL
