MODEL 1
REMARK minimizedAffinity -4.70203972
REMARK minimizedRMSD -1
REMARK  0 active torsions:
REMARK  status: ('A' for Active; 'I' for Inactive)
ROOT
ATOM      1  C1  BNZ d   1       4.387   0.947   0.673  0.00  0.00     0.000 A 
ATOM      2  C2  BNZ d   1       4.283  -0.391   0.945  0.00  0.00     0.000 A 
ATOM      3  C3  BNZ d   1       3.065  -1.011   0.953  0.00  0.00     0.000 A 
ATOM      4  C4  BNZ d   1       1.950  -0.285   0.730  0.00  0.00     0.000 A 
ATOM      5  C5  BNZ d   1       2.038   1.067   0.464  0.00  0.00     0.000 A 
ATOM      6  C6  BNZ d   1       3.269   1.680   0.417  0.00  0.00     0.000 A 
ENDROOT
TORSDOF 0
ENDMDL
