MODEL 1
REMARK minimizedAffinity -5.23264837
REMARK minimizedRMSD -1
REMARK  0 active torsions:
REMARK  status: ('A' for Active; 'I' for Inactive)
ROOT
ATOM      1  C1  BNZ d   1       0.989   1.369   0.145  0.00  0.00     0.000 A 
ATOM      2  C2  BNZ d   1       2.350   1.258   0.246  0.00  0.00     0.000 A 
ATOM      3  C3  BNZ d   1       2.966   0.047   0.095  0.00  0.00     0.000 A 
ATOM      4  C4  BNZ d   1       2.219  -1.056  -0.116  0.00  0.00     0.000 A 
ATOM      5  C5  BNZ d   1       0.845  -0.961  -0.211  0.00  0.00     0.000 A 
ATOM      6  C6  BNZ d   1       0.231   0.265  -0.098  0.00  0.00     0.000 A 
ENDROOT
TORSDOF 0
ENDMDL
