MODEL 1
REMARK minimizedAffinity -4.82429218
REMARK minimizedRMSD -1
REMARK  0 active torsions:
REMARK  status: ('A' for Active; 'I' for Inactive)
ROOT
ATOM      1  C1  BNZ d   1       2.796  -0.418   0.202  0.00  0.00     0.000 A 
ATOM      2  C2  BNZ d   1       2.318   0.857   0.058  0.00  0.00     0.000 A 
ATOM      3  C3  BNZ d   1       0.982   1.088  -0.119  0.00  0.00     0.000 A 
ATOM      4  C4  BNZ d   1       0.133   0.043  -0.193  0.00  0.00     0.000 A 
ATOM      5  C5  BNZ d   1       0.601  -1.249  -0.059  0.00  0.00     0.000 A 
ATOM      6  C6  BNZ d   1       1.941  -1.475   0.158  0.00  0.00     0.000 A 
ENDROOT
TORSDOF 0
ENDMDL
