MODEL 1
REMARK minimizedAffinity 0.124451652
REMARK minimizedRMSD -1
REMARK  0 active torsions:
REMARK  status: ('A' for Active; 'I' for Inactive)
ROOT
ATOM      1  C1  BNZ d   1       0.082  -2.235  -0.583  0.00  0.00     0.000 A 
ATOM      2  C2  BNZ d   1      -0.724  -1.132  -0.491  0.00  0.00     0.000 A 
ATOM      3  C3  BNZ d   1      -0.190   0.126  -0.484  0.00  0.00     0.000 A 
ATOM      4  C4  BNZ d   1       1.150   0.278  -0.527  0.00  0.00     0.000 A 
ATOM      5  C5  BNZ d   1       1.976  -0.825  -0.610  0.00  0.00     0.000 A 
ATOM      6  C6  BNZ d   1       1.433  -2.088  -0.657  0.00  0.00     0.000 A 
ENDROOT
TORSDOF 0
ENDMDL
