MODEL 1
REMARK minimizedAffinity 5.91914225
REMARK minimizedRMSD -1
REMARK  0 active torsions:
REMARK  status: ('A' for Active; 'I' for Inactive)
ROOT
ATOM      1  C   UNL d   1      -5.682  -2.434  -4.125  0.00  0.00     0.172 C 
ATOM      2  N   UNL d   1      -5.771  -3.788  -4.618  0.00  0.00    -0.070 N 
ATOM      3  C1  UNL d   1      -5.672  -4.169  -5.930  0.00  0.00    -0.004 A 
ATOM      4  C2  UNL d   1      -5.809  -5.539  -5.983  0.00  0.00    -0.047 A 
ATOM      5  C3  UNL d   1      -5.997  -5.998  -4.658  0.00  0.00    -0.047 A 
ATOM      6  C4  UNL d   1      -5.969  -4.893  -3.833  0.00  0.00    -0.004 A 
ENDROOT
TORSDOF 0
ENDMDL
