MODEL 1
REMARK minimizedAffinity 5.25566339
REMARK minimizedRMSD -1
REMARK  0 active torsions:
REMARK  status: ('A' for Active; 'I' for Inactive)
ROOT
ATOM      1  C   UNL d   1       2.647  -3.950   3.360  0.00  0.00     0.172 C 
ATOM      2  N   UNL d   1       2.240  -2.624   2.957  0.00  0.00    -0.070 N 
ATOM      3  C1  UNL d   1       2.419  -2.077   1.714  0.00  0.00    -0.004 A 
ATOM      4  C2  UNL d   1       1.895  -0.803   1.735  0.00  0.00    -0.047 A 
ATOM      5  C3  UNL d   1       1.385  -0.575   3.035  0.00  0.00    -0.047 A 
ATOM      6  C4  UNL d   1       1.611  -1.719   3.771  0.00  0.00    -0.004 A 
ENDROOT
TORSDOF 0
ENDMDL
