MODEL 1
REMARK minimizedAffinity 8.41927052
REMARK minimizedRMSD -1
REMARK  0 active torsions:
REMARK  status: ('A' for Active; 'I' for Inactive)
ROOT
ATOM      1  C   UNL d   1      -3.192   1.188  -2.588  0.00  0.00     0.172 C 
ATOM      2  N   UNL d   1      -3.445   2.432  -3.275  0.00  0.00    -0.070 N 
ATOM      3  C1  UNL d   1      -3.988   3.558  -2.714  0.00  0.00    -0.004 A 
ATOM      4  C2  UNL d   1      -4.064   4.523  -3.695  0.00  0.00    -0.047 A 
ATOM      5  C3  UNL d   1      -3.551   3.958  -4.887  0.00  0.00    -0.047 A 
ATOM      6  C4  UNL d   1      -3.175   2.663  -4.598  0.00  0.00    -0.004 A 
ENDROOT
TORSDOF 0
ENDMDL
