MODEL 1
REMARK minimizedAffinity -0.740072906
REMARK minimizedRMSD -1
REMARK  0 active torsions:
REMARK  status: ('A' for Active; 'I' for Inactive)
ROOT
ATOM      1  C   UNL d   1      -3.284   1.498  -3.139  0.00  0.00     0.172 C 
ATOM      2  N   UNL d   1      -3.673   2.860  -3.418  0.00  0.00    -0.070 N 
ATOM      3  C1  UNL d   1      -3.497   3.513  -4.609  0.00  0.00    -0.004 A 
ATOM      4  C2  UNL d   1      -3.998   4.789  -4.469  0.00  0.00    -0.047 A 
ATOM      5  C3  UNL d   1      -4.492   4.907  -3.148  0.00  0.00    -0.047 A 
ATOM      6  C4  UNL d   1      -4.278   3.699  -2.520  0.00  0.00    -0.004 A 
ENDROOT
TORSDOF 0
ENDMDL
