MODEL 1
REMARK minimizedAffinity 6.30056572
REMARK minimizedRMSD -1
REMARK  0 active torsions:
REMARK  status: ('A' for Active; 'I' for Inactive)
ROOT
ATOM      1  C   UNL d   1      -2.760   1.052  -2.177  0.00  0.00     0.172 C 
ATOM      2  N   UNL d   1      -3.267   2.209  -2.876  0.00  0.00    -0.070 N 
ATOM      3  C1  UNL d   1      -3.184   2.427  -4.225  0.00  0.00    -0.004 A 
ATOM      4  C2  UNL d   1      -3.783   3.638  -4.495  0.00  0.00    -0.047 A 
ATOM      5  C3  UNL d   1      -4.240   4.168  -3.265  0.00  0.00    -0.047 A 
ATOM      6  C4  UNL d   1      -3.908   3.263  -2.279  0.00  0.00    -0.004 A 
ENDROOT
TORSDOF 0
ENDMDL
