MODEL 1
REMARK minimizedAffinity -0.224905699
REMARK minimizedRMSD -1
REMARK  0 active torsions:
REMARK  status: ('A' for Active; 'I' for Inactive)
ROOT
ATOM      1  C   UNL d   1      -3.694   1.968  -3.382  0.00  0.00     0.172 C 
ATOM      2  N   UNL d   1      -3.791   3.149  -4.207  0.00  0.00    -0.070 N 
ATOM      3  C1  UNL d   1      -4.036   4.419  -3.758  0.00  0.00    -0.004 A 
ATOM      4  C2  UNL d   1      -4.052   5.258  -4.851  0.00  0.00    -0.047 A 
ATOM      5  C3  UNL d   1      -3.809   4.464  -5.998  0.00  0.00    -0.047 A 
ATOM      6  C4  UNL d   1      -3.652   3.162  -5.570  0.00  0.00    -0.004 A 
ENDROOT
TORSDOF 0
ENDMDL
