MODEL 1
REMARK minimizedAffinity 2.1815269
REMARK minimizedRMSD -1
REMARK  0 active torsions:
REMARK  status: ('A' for Active; 'I' for Inactive)
ROOT
ATOM      1  C   UNL d   1       0.910  -0.980   1.892  0.00  0.00     0.172 C 
ATOM      2  N   UNL d   1       1.595  -1.232   3.138  0.00  0.00    -0.070 N 
ATOM      3  C1  UNL d   1       2.249  -2.388   3.470  0.00  0.00    -0.004 A 
ATOM      4  C2  UNL d   1       2.768  -2.231   4.737  0.00  0.00    -0.047 A 
ATOM      5  C3  UNL d   1       2.413  -0.935   5.182  0.00  0.00    -0.047 A 
ATOM      6  C4  UNL d   1       1.687  -0.338   4.172  0.00  0.00    -0.004 A 
ENDROOT
TORSDOF 0
ENDMDL
