MODEL 1
REMARK minimizedAffinity 8.45144176
REMARK minimizedRMSD -1
REMARK  0 active torsions:
REMARK  status: ('A' for Active; 'I' for Inactive)
ROOT
ATOM      1  C   UNL d   1      -2.596  -5.225  -0.002  0.00  0.00     0.172 C 
ATOM      2  N   UNL d   1      -1.173  -5.173  -0.240  0.00  0.00    -0.070 N 
ATOM      3  C1  UNL d   1      -0.219  -4.862   0.692  0.00  0.00    -0.004 A 
ATOM      4  C2  UNL d   1       1.011  -4.922   0.072  0.00  0.00    -0.047 A 
ATOM      5  C3  UNL d   1       0.788  -5.281  -1.278  0.00  0.00    -0.047 A 
ATOM      6  C4  UNL d   1      -0.573  -5.430  -1.444  0.00  0.00    -0.004 A 
ENDROOT
TORSDOF 0
ENDMDL
