MODEL 1
REMARK minimizedAffinity 8.48264694
REMARK minimizedRMSD -1
REMARK  0 active torsions:
REMARK  status: ('A' for Active; 'I' for Inactive)
ROOT
ATOM      1  C   UNL d   1       1.032  -1.842   5.484  0.00  0.00     0.172 C 
ATOM      2  N   UNL d   1       1.325  -1.863   4.070  0.00  0.00    -0.070 N 
ATOM      3  C1  UNL d   1       1.936  -2.887   3.397  0.00  0.00    -0.004 A 
ATOM      4  C2  UNL d   1       2.032  -2.523   2.071  0.00  0.00    -0.047 A 
ATOM      5  C3  UNL d   1       1.459  -1.235   1.944  0.00  0.00    -0.047 A 
ATOM      6  C4  UNL d   1       1.029  -0.850   3.196  0.00  0.00    -0.004 A 
ENDROOT
TORSDOF 0
ENDMDL
