MODEL 1
REMARK minimizedAffinity 4.48337269
REMARK minimizedRMSD -1
REMARK  0 active torsions:
REMARK  status: ('A' for Active; 'I' for Inactive)
ROOT
ATOM      1  C   UNL d   1       4.408   0.313  -2.459  0.00  0.00     0.172 C 
ATOM      2  N   UNL d   1       4.292  -1.123  -2.359  0.00  0.00    -0.070 N 
ATOM      3  C1  UNL d   1       3.790  -1.953  -3.325  0.00  0.00    -0.004 A 
ATOM      4  C2  UNL d   1       3.852  -3.244  -2.847  0.00  0.00    -0.047 A 
ATOM      5  C3  UNL d   1       4.410  -3.188  -1.548  0.00  0.00    -0.047 A 
ATOM      6  C4  UNL d   1       4.673  -1.864  -1.271  0.00  0.00    -0.004 A 
ENDROOT
TORSDOF 0
ENDMDL
