MODEL 1
REMARK minimizedAffinity -1.71649301
REMARK minimizedRMSD -1
REMARK  0 active torsions:
REMARK  status: ('A' for Active; 'I' for Inactive)
ROOT
ATOM      1  N1  IND d   1       0.368   0.002  -1.278  0.00  0.00    -0.196 N 
ATOM      2  C2  IND d   1       1.019  -1.073  -0.741  0.00  0.00     0.054 A 
ATOM      3  C3  IND d   1       0.777  -1.154   0.587  0.00  0.00    -0.031 A 
ATOM      4  C4  IND d   1      -0.741   0.309   2.065  0.00  0.00     0.051 A 
ATOM      5  C5  IND d   1      -1.516   1.434   2.031  0.00  0.00    -0.031 A 
ATOM      6  C6  IND d   1      -1.709   2.152   0.869  0.00  0.00     0.015 A 
ATOM      7  C7  IND d   1      -1.140   1.764  -0.311  0.00  0.00    -0.016 A 
ATOM      8  C8  IND d   1      -0.347   0.626  -0.280  0.00  0.00    -0.047 A 
ATOM      9  C9  IND d   1      -0.113  -0.083   0.906  0.00  0.00    -0.096 A 
ATOM     10  HN1 IND d   1       0.399   0.247  -2.102  0.00  0.00     0.298 HD
ENDROOT
TORSDOF 0
ENDMDL
