MODEL 1
REMARK minimizedAffinity -3.55261827
REMARK minimizedRMSD -1
REMARK  0 active torsions:
REMARK  status: ('A' for Active; 'I' for Inactive)
ROOT
ATOM      1  N1  IND d   1       0.699  -0.362   1.254  0.00  0.00    -0.196 N 
ATOM      2  C2  IND d   1       1.061  -0.729  -0.012  0.00  0.00     0.054 A 
ATOM      3  C3  IND d   1       0.245  -0.150  -0.921  0.00  0.00    -0.031 A 
ATOM      4  C4  IND d   1      -1.686   1.514  -0.561  0.00  0.00     0.051 A 
ATOM      5  C5  IND d   1      -2.416   2.121   0.423  0.00  0.00    -0.031 A 
ATOM      6  C6  IND d   1      -2.137   1.929   1.761  0.00  0.00     0.015 A 
ATOM      7  C7  IND d   1      -1.106   1.129   2.166  0.00  0.00    -0.016 A 
ATOM      8  C8  IND d   1      -0.368   0.506   1.170  0.00  0.00    -0.047 A 
ATOM      9  C9  IND d   1      -0.673   0.662  -0.188  0.00  0.00    -0.096 A 
ATOM     10  HN1 IND d   1       1.074  -0.629   1.980  0.00  0.00     0.298 HD
ENDROOT
TORSDOF 0
ENDMDL
