MODEL 1
REMARK minimizedAffinity -0.89991951
REMARK minimizedRMSD -1
REMARK  0 active torsions:
REMARK  status: ('A' for Active; 'I' for Inactive)
ROOT
ATOM      1  N1  IND d   1      -1.158   0.988   2.313  0.00  0.00    -0.196 N 
ATOM      2  C2  IND d   1      -2.109   1.945   2.095  0.00  0.00     0.054 A 
ATOM      3  C3  IND d   1      -2.142   2.287   0.788  0.00  0.00    -0.031 A 
ATOM      4  C4  IND d   1      -0.795   1.330  -1.187  0.00  0.00     0.051 A 
ATOM      5  C5  IND d   1       0.220   0.463  -1.479  0.00  0.00    -0.031 A 
ATOM      6  C6  IND d   1       0.839  -0.291  -0.502  0.00  0.00     0.015 A 
ATOM      7  C7  IND d   1       0.455  -0.214   0.807  0.00  0.00    -0.016 A 
ATOM      8  C8  IND d   1      -0.571   0.671   1.108  0.00  0.00    -0.047 A 
ATOM      9  C9  IND d   1      -1.173   1.470   0.128  0.00  0.00    -0.096 A 
ATOM     10  HN1 IND d   1      -0.960   0.641   3.075  0.00  0.00     0.298 HD
ENDROOT
TORSDOF 0
ENDMDL
