MODEL 1
REMARK minimizedAffinity -3.60033393
REMARK minimizedRMSD -1
REMARK  0 active torsions:
REMARK  status: ('A' for Active; 'I' for Inactive)
ROOT
ATOM      1  N1  IND d   1       0.130  -0.276  -0.930  0.00  0.00    -0.196 N 
ATOM      2  C2  IND d   1       0.914  -0.964  -0.046  0.00  0.00     0.054 A 
ATOM      3  C3  IND d   1       0.689  -0.534   1.216  0.00  0.00    -0.031 A 
ATOM      4  C4  IND d   1      -0.994   1.216   2.072  0.00  0.00     0.051 A 
ATOM      5  C5  IND d   1      -1.905   2.138   1.636  0.00  0.00    -0.031 A 
ATOM      6  C6  IND d   1      -2.191   2.304   0.297  0.00  0.00     0.015 A 
ATOM      7  C7  IND d   1      -1.583   1.543  -0.661  0.00  0.00    -0.016 A 
ATOM      8  C8  IND d   1      -0.653   0.610  -0.223  0.00  0.00    -0.047 A 
ATOM      9  C9  IND d   1      -0.327   0.467   1.131  0.00  0.00    -0.096 A 
ATOM     10  HN1 IND d   1       0.127  -0.379  -1.783  0.00  0.00     0.298 HD
ENDROOT
TORSDOF 0
ENDMDL
