MODEL 1
REMARK minimizedAffinity -4.22379398
REMARK minimizedRMSD -1
REMARK  0 active torsions:
REMARK  status: ('A' for Active; 'I' for Inactive)
ROOT
ATOM      1  N1  IND d   1      -1.155   3.083  -0.287  0.00  0.00    -0.196 N 
ATOM      2  C2  IND d   1      -2.037   3.119   0.757  0.00  0.00     0.054 A 
ATOM      3  C3  IND d   1      -1.940   1.990   1.494  0.00  0.00    -0.031 A 
ATOM      4  C4  IND d   1      -0.331  -0.002   1.231  0.00  0.00     0.051 A 
ATOM      5  C5  IND d   1       0.634  -0.506   0.404  0.00  0.00    -0.031 A 
ATOM      6  C6  IND d   1       1.062   0.176  -0.717  0.00  0.00     0.015 A 
ATOM      7  C7  IND d   1       0.547   1.398  -1.048  0.00  0.00    -0.016 A 
ATOM      8  C8  IND d   1      -0.438   1.909  -0.214  0.00  0.00    -0.047 A 
ATOM      9  C9  IND d   1      -0.906   1.202   0.901  0.00  0.00    -0.096 A 
ATOM     10  HN1 IND d   1      -1.064   3.691  -0.888  0.00  0.00     0.298 HD
ENDROOT
TORSDOF 0
ENDMDL
