MODEL 1
REMARK minimizedAffinity -3.26278949
REMARK minimizedRMSD -1
REMARK  0 active torsions:
REMARK  status: ('A' for Active; 'I' for Inactive)
ROOT
ATOM      1  N1  IND d   1      -0.616   1.973   1.217  0.00  0.00    -0.196 N 
ATOM      2  C2  IND d   1      -1.121   1.043   2.083  0.00  0.00     0.054 A 
ATOM      3  C3  IND d   1      -0.788  -0.204   1.681  0.00  0.00    -0.031 A 
ATOM      4  C4  IND d   1       0.663  -0.947  -0.311  0.00  0.00     0.051 A 
ATOM      5  C5  IND d   1       1.316  -0.461  -1.409  0.00  0.00    -0.031 A 
ATOM      6  C6  IND d   1       1.362   0.889  -1.691  0.00  0.00     0.015 A 
ATOM      7  C7  IND d   1       0.763   1.808  -0.877  0.00  0.00    -0.016 A 
ATOM      8  C8  IND d   1       0.093   1.317   0.235  0.00  0.00    -0.047 A 
ATOM      9  C9  IND d   1       0.007  -0.055   0.504  0.00  0.00    -0.096 A 
ATOM     10  HN1 IND d   1      -0.724   2.824   1.276  0.00  0.00     0.298 HD
ENDROOT
TORSDOF 0
ENDMDL
