MODEL 1
REMARK minimizedAffinity -2.30764771
REMARK minimizedRMSD -1
REMARK  0 active torsions:
REMARK  status: ('A' for Active; 'I' for Inactive)
ROOT
ATOM      1  N1  IND d   1       0.934  -0.807   0.783  0.00  0.00    -0.196 N 
ATOM      2  C2  IND d   1       1.226  -0.961  -0.544  0.00  0.00     0.054 A 
ATOM      3  C3  IND d   1       0.323  -0.301  -1.303  0.00  0.00    -0.031 A 
ATOM      4  C4  IND d   1      -1.655   1.179  -0.578  0.00  0.00     0.051 A 
ATOM      5  C5  IND d   1      -2.343   1.591   0.529  0.00  0.00    -0.031 A 
ATOM      6  C6  IND d   1      -1.965   1.219   1.803  0.00  0.00     0.015 A 
ATOM      7  C7  IND d   1      -0.873   0.427   2.019  0.00  0.00    -0.016 A 
ATOM      8  C8  IND d   1      -0.176   0.001   0.897  0.00  0.00    -0.047 A 
ATOM      9  C9  IND d   1      -0.580   0.341  -0.401  0.00  0.00    -0.096 A 
ATOM     10  HN1 IND d   1       1.370  -1.157   1.436  0.00  0.00     0.298 HD
ENDROOT
TORSDOF 0
ENDMDL
