MODEL 1
REMARK minimizedAffinity 6.16992521
REMARK minimizedRMSD -1
REMARK  0 active torsions:
REMARK  status: ('A' for Active; 'I' for Inactive)
ROOT
ATOM      1  N1  IND d   1       1.544   0.765   0.091  0.00  0.00    -0.196 N 
ATOM      2  C2  IND d   1       1.238  -0.520   0.441  0.00  0.00     0.054 A 
ATOM      3  C3  IND d   1      -0.043  -0.805   0.113  0.00  0.00    -0.031 A 
ATOM      4  C4  IND d   1      -1.783   0.654  -1.100  0.00  0.00     0.051 A 
ATOM      5  C5  IND d   1      -1.979   1.916  -1.587  0.00  0.00    -0.031 A 
ATOM      6  C6  IND d   1      -0.990   2.878  -1.541  0.00  0.00     0.015 A 
ATOM      7  C7  IND d   1       0.242   2.608  -1.014  0.00  0.00    -0.016 A 
ATOM      8  C8  IND d   1       0.442   1.330  -0.512  0.00  0.00    -0.047 A 
ATOM      9  C9  IND d   1      -0.572   0.363  -0.518  0.00  0.00    -0.096 A 
ATOM     10  HN1 IND d   1       2.299   1.155   0.225  0.00  0.00     0.298 HD
ENDROOT
TORSDOF 0
ENDMDL
