MODEL 1
REMARK minimizedAffinity -2.91488075
REMARK minimizedRMSD -1
REMARK  0 active torsions:
REMARK  status: ('A' for Active; 'I' for Inactive)
ROOT
ATOM      1  N1  IND d   1      -0.063  -0.768  -0.156  0.00  0.00    -0.196 N 
ATOM      2  C2  IND d   1       0.258  -1.542   0.924  0.00  0.00     0.054 A 
ATOM      3  C3  IND d   1      -0.015  -0.884   2.073  0.00  0.00    -0.031 A 
ATOM      4  C4  IND d   1      -1.087   1.432   2.415  0.00  0.00     0.051 A 
ATOM      5  C5  IND d   1      -1.520   2.531   1.728  0.00  0.00    -0.031 A 
ATOM      6  C6  IND d   1      -1.490   2.587   0.350  0.00  0.00     0.015 A 
ATOM      7  C7  IND d   1      -1.036   1.536  -0.397  0.00  0.00    -0.016 A 
ATOM      8  C8  IND d   1      -0.590   0.421   0.298  0.00  0.00    -0.047 A 
ATOM      9  C9  IND d   1      -0.577   0.375   1.698  0.00  0.00    -0.096 A 
ATOM     10  HN1 IND d   1       0.046  -0.987  -0.980  0.00  0.00     0.298 HD
ENDROOT
TORSDOF 0
ENDMDL
