MODEL 1
REMARK minimizedAffinity -3.29034019
REMARK minimizedRMSD -1
REMARK  0 active torsions:
REMARK  status: ('A' for Active; 'I' for Inactive)
ROOT
ATOM      1  N1  IND d   1      -1.988   1.426   1.843  0.00  0.00    -0.196 N 
ATOM      2  C2  IND d   1      -2.346   2.359   0.911  0.00  0.00     0.054 A 
ATOM      3  C3  IND d   1      -1.561   2.254  -0.185  0.00  0.00    -0.031 A 
ATOM      4  C4  IND d   1       0.304   0.557  -0.705  0.00  0.00     0.051 A 
ATOM      5  C5  IND d   1       1.016  -0.466  -0.145  0.00  0.00    -0.031 A 
ATOM      6  C6  IND d   1       0.756  -0.922   1.131  0.00  0.00     0.015 A 
ATOM      7  C7  IND d   1      -0.237  -0.376   1.894  0.00  0.00    -0.016 A 
ATOM      8  C8  IND d   1      -0.958   0.667   1.331  0.00  0.00    -0.047 A 
ATOM      9  C9  IND d   1      -0.671   1.163   0.053  0.00  0.00    -0.096 A 
ATOM     10  HN1 IND d   1      -2.346   1.329   2.619  0.00  0.00     0.298 HD
ENDROOT
TORSDOF 0
ENDMDL
