MODEL 1
REMARK minimizedAffinity -2.87308025
REMARK minimizedRMSD -1
REMARK  0 active torsions:
REMARK  status: ('A' for Active; 'I' for Inactive)
ROOT
ATOM      1  N1  IND d   1       1.025  -1.449   0.451  0.00  0.00    -0.196 N 
ATOM      2  C2  IND d   1       1.468  -1.392  -0.841  0.00  0.00     0.054 A 
ATOM      3  C3  IND d   1       0.914  -0.338  -1.482  0.00  0.00    -0.031 A 
ATOM      4  C4  IND d   1      -0.665   1.482  -0.576  0.00  0.00     0.051 A 
ATOM      5  C5  IND d   1      -1.377   1.834   0.536  0.00  0.00    -0.031 A 
ATOM      6  C6  IND d   1      -1.322   1.096   1.701  0.00  0.00     0.015 A 
ATOM      7  C7  IND d   1      -0.540  -0.020   1.801  0.00  0.00    -0.016 A 
ATOM      8  C8  IND d   1       0.179  -0.384   0.672  0.00  0.00    -0.047 A 
ATOM      9  C9  IND d   1       0.094   0.336  -0.526  0.00  0.00    -0.096 A 
ATOM     10  HN1 IND d   1       1.238  -2.049   1.029  0.00  0.00     0.298 HD
ENDROOT
TORSDOF 0
ENDMDL
