MODEL 1
REMARK minimizedAffinity -1.96649301
REMARK minimizedRMSD -1
REMARK  0 active torsions:
REMARK  status: ('A' for Active; 'I' for Inactive)
ROOT
ATOM      1  N1  IND d   1      -0.191  -0.036  -1.308  0.00  0.00    -0.196 N 
ATOM      2  C2  IND d   1       0.382  -1.235  -0.988  0.00  0.00     0.054 A 
ATOM      3  C3  IND d   1       0.389  -1.410   0.352  0.00  0.00    -0.031 A 
ATOM      4  C4  IND d   1      -0.578   0.095   2.203  0.00  0.00     0.051 A 
ATOM      5  C5  IND d   1      -1.166   1.312   2.405  0.00  0.00    -0.031 A 
ATOM      6  C6  IND d   1      -1.467   2.159   1.357  0.00  0.00     0.015 A 
ATOM      7  C7  IND d   1      -1.201   1.812   0.063  0.00  0.00    -0.016 A 
ATOM      8  C8  IND d   1      -0.598   0.580  -0.145  0.00  0.00    -0.047 A 
ATOM      9  C9  IND d   1      -0.251  -0.265   0.917  0.00  0.00    -0.096 A 
ATOM     10  HN1 IND d   1      -0.282   0.281  -2.102  0.00  0.00     0.298 HD
ENDROOT
TORSDOF 0
ENDMDL
