MODEL 1
REMARK minimizedAffinity -4.78207254
REMARK minimizedRMSD -1
REMARK  0 active torsions:
REMARK  status: ('A' for Active; 'I' for Inactive)
ROOT
ATOM      1  N1  IND d   1       0.627  -0.024  -0.767  0.00  0.00    -0.196 N 
ATOM      2  C2  IND d   1       0.709  -1.056   0.125  0.00  0.00     0.054 A 
ATOM      3  C3  IND d   1      -0.079  -0.815   1.197  0.00  0.00    -0.031 A 
ATOM      4  C4  IND d   1      -1.666   1.160   1.649  0.00  0.00     0.051 A 
ATOM      5  C5  IND d   1      -2.055   2.368   1.141  0.00  0.00    -0.031 A 
ATOM      6  C6  IND d   1      -1.561   2.849  -0.055  0.00  0.00     0.015 A 
ATOM      7  C7  IND d   1      -0.666   2.131  -0.796  0.00  0.00    -0.016 A 
ATOM      8  C8  IND d   1      -0.264   0.908  -0.280  0.00  0.00    -0.047 A 
ATOM      9  C9  IND d   1      -0.728   0.434   0.954  0.00  0.00    -0.096 A 
ATOM     10  HN1 IND d   1       1.059   0.034  -1.509  0.00  0.00     0.298 HD
ENDROOT
TORSDOF 0
ENDMDL
