MODEL 1
REMARK minimizedAffinity -5.52973938
REMARK minimizedRMSD -1
REMARK  0 active torsions:
REMARK  status: ('A' for Active; 'I' for Inactive)
ROOT
ATOM      1  N1  IND d   1       0.443   0.252  -0.695  0.00  0.00    -0.196 N 
ATOM      2  C2  IND d   1       0.563  -0.774   0.201  0.00  0.00     0.054 A 
ATOM      3  C3  IND d   1      -0.131  -0.498   1.328  0.00  0.00    -0.031 A 
ATOM      4  C4  IND d   1      -1.619   1.530   1.877  0.00  0.00     0.051 A 
ATOM      5  C5  IND d   1      -2.010   2.744   1.386  0.00  0.00    -0.031 A 
ATOM      6  C6  IND d   1      -1.597   3.197   0.150  0.00  0.00     0.015 A 
ATOM      7  C7  IND d   1      -0.783   2.445  -0.649  0.00  0.00    -0.016 A 
ATOM      8  C8  IND d   1      -0.378   1.215  -0.151  0.00  0.00    -0.047 A 
ATOM      9  C9  IND d   1      -0.760   0.768   1.121  0.00  0.00    -0.096 A 
ATOM     10  HN1 IND d   1       0.818   0.289  -1.468  0.00  0.00     0.298 HD
ENDROOT
TORSDOF 0
ENDMDL
