MODEL 1
REMARK minimizedAffinity -1.28603256
REMARK minimizedRMSD -1
REMARK  0 active torsions:
REMARK  status: ('A' for Active; 'I' for Inactive)
ROOT
ATOM      1  N1  IND d   1      -0.770  -3.014  -1.322  0.00  0.00    -0.196 N 
ATOM      2  C2  IND d   1       0.291  -3.584  -1.969  0.00  0.00     0.054 A 
ATOM      3  C3  IND d   1       1.344  -2.736  -1.983  0.00  0.00    -0.031 A 
ATOM      4  C4  IND d   1       1.582  -0.405  -0.918  0.00  0.00     0.051 A 
ATOM      5  C5  IND d   1       0.869   0.553  -0.253  0.00  0.00    -0.031 A 
ATOM      6  C6  IND d   1      -0.452   0.367   0.098  0.00  0.00     0.015 A 
ATOM      7  C7  IND d   1      -1.110  -0.795  -0.193  0.00  0.00    -0.016 A 
ATOM      8  C8  IND d   1      -0.391  -1.768  -0.874  0.00  0.00    -0.047 A 
ATOM      9  C9  IND d   1       0.937  -1.567  -1.271  0.00  0.00    -0.096 A 
ATOM     10  HN1 IND d   1      -1.543  -3.373  -1.214  0.00  0.00     0.298 HD
ENDROOT
TORSDOF 0
ENDMDL
