MODEL 1
REMARK minimizedAffinity -3.23944521
REMARK minimizedRMSD -1
REMARK  0 active torsions:
REMARK  status: ('A' for Active; 'I' for Inactive)
ROOT
ATOM      1  N1  IND d   1      -1.298   1.112   2.149  0.00  0.00    -0.196 N 
ATOM      2  C2  IND d   1      -1.965   2.198   1.655  0.00  0.00     0.054 A 
ATOM      3  C3  IND d   1      -1.520   2.498   0.413  0.00  0.00    -0.031 A 
ATOM      4  C4  IND d   1       0.220   1.278  -1.039  0.00  0.00     0.051 A 
ATOM      5  C5  IND d   1       1.125   0.255  -1.005  0.00  0.00    -0.031 A 
ATOM      6  C6  IND d   1       1.269  -0.554   0.104  0.00  0.00     0.015 A 
ATOM      7  C7  IND d   1       0.502  -0.375   1.221  0.00  0.00    -0.016 A 
ATOM      8  C8  IND d   1      -0.412   0.668   1.192  0.00  0.00    -0.047 A 
ATOM      9  C9  IND d   1      -0.533   1.518   0.085  0.00  0.00    -0.096 A 
ATOM     10  HN1 IND d   1      -1.413   0.764   2.927  0.00  0.00     0.298 HD
ENDROOT
TORSDOF 0
ENDMDL
