MODEL 1
REMARK minimizedAffinity -5.29386425
REMARK minimizedRMSD -1
REMARK  0 active torsions:
REMARK  status: ('A' for Active; 'I' for Inactive)
ROOT
ATOM      1  N1  IND d   1      -1.785   1.287   1.620  0.00  0.00    -0.196 N 
ATOM      2  C2  IND d   1      -2.216   1.901   0.477  0.00  0.00     0.054 A 
ATOM      3  C3  IND d   1      -1.489   1.485  -0.584  0.00  0.00    -0.031 A 
ATOM      4  C4  IND d   1       0.390  -0.272  -0.690  0.00  0.00     0.051 A 
ATOM      5  C5  IND d   1       1.157  -1.078   0.103  0.00  0.00    -0.031 A 
ATOM      6  C6  IND d   1       0.977  -1.141   1.470  0.00  0.00     0.015 A 
ATOM      7  C7  IND d   1       0.012  -0.404   2.095  0.00  0.00    -0.016 A 
ATOM      8  C8  IND d   1      -0.765   0.421   1.294  0.00  0.00    -0.047 A 
ATOM      9  C9  IND d   1      -0.559   0.520  -0.088  0.00  0.00    -0.096 A 
ATOM     10  HN1 IND d   1      -2.099   1.419   2.409  0.00  0.00     0.298 HD
ENDROOT
TORSDOF 0
ENDMDL
