MODEL 1
REMARK minimizedAffinity 10.5490074
REMARK minimizedRMSD -1
REMARK  0 active torsions:
REMARK  status: ('A' for Active; 'I' for Inactive)
ROOT
ATOM      1  C   UNL d   1      -0.849   2.727  -0.814  0.00  0.00     0.023 A 
ATOM      2  C1  UNL d   1      -1.752   3.075  -1.818  0.00  0.00     0.003 A 
ATOM      3  C2  UNL d   1      -1.322   3.817  -2.920  0.00  0.00     0.048 A 
ATOM      4  C3  UNL d   1       0.014   4.208  -3.011  0.00  0.00     0.023 A 
ATOM      5  C4  UNL d   1       0.921   3.861  -2.009  0.00  0.00     0.048 A 
ATOM      6  C5  UNL d   1       0.486   3.120  -0.909  0.00  0.00     0.003 A 
ATOM      7  I   UNL d   1       0.657   5.312  -4.650  0.00  0.00    -0.146 I 
ENDROOT
TORSDOF 0
ENDMDL
