MODEL 1
REMARK minimizedAffinity 11.763382
REMARK minimizedRMSD -1
REMARK  0 active torsions:
REMARK  status: ('A' for Active; 'I' for Inactive)
ROOT
ATOM      1  C   UNL d   1       1.775   6.000  -5.045  0.00  0.00     0.023 A 
ATOM      2  C1  UNL d   1       1.988   5.217  -3.910  0.00  0.00     0.003 A 
ATOM      3  C2  UNL d   1       0.952   4.433  -3.397  0.00  0.00     0.048 A 
ATOM      4  C3  UNL d   1      -0.293   4.435  -4.025  0.00  0.00     0.023 A 
ATOM      5  C4  UNL d   1      -0.509   5.215  -5.162  0.00  0.00     0.048 A 
ATOM      6  C5  UNL d   1       0.528   5.999  -5.670  0.00  0.00     0.003 A 
ATOM      7  I   UNL d   1      -1.835   3.268  -3.264  0.00  0.00    -0.146 I 
ENDROOT
TORSDOF 0
ENDMDL
