MODEL 1
REMARK minimizedAffinity 10.9210329
REMARK minimizedRMSD -1
REMARK  0 active torsions:
REMARK  status: ('A' for Active; 'I' for Inactive)
ROOT
ATOM      1  C   UNL d   1       1.518  -1.805  -6.000  0.00  0.00     0.023 A 
ATOM      2  C1  UNL d   1       0.832  -2.983  -5.706  0.00  0.00     0.003 A 
ATOM      3  C2  UNL d   1       0.787  -3.457  -4.393  0.00  0.00     0.048 A 
ATOM      4  C3  UNL d   1       1.429  -2.747  -3.379  0.00  0.00     0.023 A 
ATOM      5  C4  UNL d   1       2.116  -1.567  -3.668  0.00  0.00     0.048 A 
ATOM      6  C5  UNL d   1       2.159  -1.098  -4.982  0.00  0.00     0.003 A 
ATOM      7  I   UNL d   1       1.362  -3.451  -1.424  0.00  0.00    -0.146 I 
ENDROOT
TORSDOF 0
ENDMDL
