MODEL 1
REMARK minimizedAffinity 13.5570374
REMARK minimizedRMSD -1
REMARK  0 active torsions:
REMARK  status: ('A' for Active; 'I' for Inactive)
ROOT
ATOM      1  C   UNL d   1      -1.128   1.750   2.223  0.00  0.00     0.023 A 
ATOM      2  C1  UNL d   1       0.259   1.801   2.075  0.00  0.00     0.003 A 
ATOM      3  C2  UNL d   1       0.819   2.343   0.917  0.00  0.00     0.048 A 
ATOM      4  C3  UNL d   1      -0.012   2.834  -0.089  0.00  0.00     0.023 A 
ATOM      5  C4  UNL d   1      -1.399   2.785   0.054  0.00  0.00     0.048 A 
ATOM      6  C5  UNL d   1      -1.956   2.241   1.213  0.00  0.00     0.003 A 
ATOM      7  I   UNL d   1       0.821   3.642  -1.814  0.00  0.00    -0.146 I 
ENDROOT
TORSDOF 0
ENDMDL
