MODEL 1
REMARK minimizedAffinity 10.4551725
REMARK minimizedRMSD -1
REMARK  0 active torsions:
REMARK  status: ('A' for Active; 'I' for Inactive)
ROOT
ATOM      1  C   UNL d   1      -4.622   5.750   0.295  0.00  0.00     0.023 A 
ATOM      2  C1  UNL d   1      -5.876   5.802   0.905  0.00  0.00     0.003 A 
ATOM      3  C2  UNL d   1      -5.974   5.872   2.296  0.00  0.00     0.048 A 
ATOM      4  C3  UNL d   1      -4.816   5.891   3.071  0.00  0.00     0.023 A 
ATOM      5  C4  UNL d   1      -3.559   5.841   2.466  0.00  0.00     0.048 A 
ATOM      6  C5  UNL d   1      -3.465   5.769   1.075  0.00  0.00     0.003 A 
ATOM      7  I   UNL d   1      -4.960   5.997   5.142  0.00  0.00    -0.146 I 
ENDROOT
TORSDOF 0
ENDMDL
