MODEL 1
REMARK minimizedAffinity 13.8492823
REMARK minimizedRMSD -1
REMARK  0 active torsions:
REMARK  status: ('A' for Active; 'I' for Inactive)
ROOT
ATOM      1  C   UNL d   1      -0.202   1.810   1.505  0.00  0.00     0.023 A 
ATOM      2  C1  UNL d   1      -0.009   2.602   0.373  0.00  0.00     0.003 A 
ATOM      3  C2  UNL d   1       0.693   3.805   0.474  0.00  0.00     0.048 A 
ATOM      4  C3  UNL d   1       1.199   4.210   1.709  0.00  0.00     0.023 A 
ATOM      5  C4  UNL d   1       1.008   3.419   2.843  0.00  0.00     0.048 A 
ATOM      6  C5  UNL d   1       0.305   2.218   2.738  0.00  0.00     0.003 A 
ATOM      7  I   UNL d   1       2.244   6.000   1.861  0.00  0.00    -0.146 I 
ENDROOT
TORSDOF 0
ENDMDL
