MODEL 1
REMARK minimizedAffinity 13.595932
REMARK minimizedRMSD -1
REMARK  0 active torsions:
REMARK  status: ('A' for Active; 'I' for Inactive)
ROOT
ATOM      1  C   UNL d   1      -1.039   2.464  -1.801  0.00  0.00     0.023 A 
ATOM      2  C1  UNL d   1      -1.519   2.969  -3.009  0.00  0.00     0.003 A 
ATOM      3  C2  UNL d   1      -0.808   3.964  -3.683  0.00  0.00     0.048 A 
ATOM      4  C3  UNL d   1       0.383   4.449  -3.144  0.00  0.00     0.023 A 
ATOM      5  C4  UNL d   1       0.868   3.945  -1.935  0.00  0.00     0.048 A 
ATOM      6  C5  UNL d   1       0.153   2.951  -1.264  0.00  0.00     0.003 A 
ATOM      7  I   UNL d   1       1.443   5.929  -4.145  0.00  0.00    -0.146 I 
ENDROOT
TORSDOF 0
ENDMDL
