MODEL 1
REMARK minimizedAffinity 15.0189857
REMARK minimizedRMSD -1
REMARK  0 active torsions:
REMARK  status: ('A' for Active; 'I' for Inactive)
ROOT
ATOM      1  C   UNL d   1      -4.252   5.636  -0.740  0.00  0.00     0.023 A 
ATOM      2  C1  UNL d   1      -5.571   5.894  -0.366  0.00  0.00     0.003 A 
ATOM      3  C2  UNL d   1      -5.906   5.998   0.986  0.00  0.00     0.048 A 
ATOM      4  C3  UNL d   1      -4.918   5.844   1.957  0.00  0.00     0.023 A 
ATOM      5  C4  UNL d   1      -3.597   5.586   1.587  0.00  0.00     0.048 A 
ATOM      6  C5  UNL d   1      -3.266   5.482   0.235  0.00  0.00     0.003 A 
ATOM      7  I   UNL d   1      -5.415   5.998   3.970  0.00  0.00    -0.146 I 
ENDROOT
TORSDOF 0
ENDMDL
