MODEL 1
REMARK minimizedAffinity 12.8164864
REMARK minimizedRMSD -1
REMARK  0 active torsions:
REMARK  status: ('A' for Active; 'I' for Inactive)
ROOT
ATOM      1  C   UNL d   1       0.672  -0.907  -5.997  0.00  0.00     0.023 A 
ATOM      2  C1  UNL d   1       1.877  -0.204  -5.997  0.00  0.00     0.003 A 
ATOM      3  C2  UNL d   1       3.090  -0.896  -5.997  0.00  0.00     0.048 A 
ATOM      4  C3  UNL d   1       3.090  -2.291  -5.997  0.00  0.00     0.023 A 
ATOM      5  C4  UNL d   1       1.887  -2.998  -5.998  0.00  0.00     0.048 A 
ATOM      6  C5  UNL d   1       0.677  -2.302  -5.997  0.00  0.00     0.003 A 
ATOM      7  I   UNL d   1       4.894  -3.323  -5.997  0.00  0.00    -0.146 I 
ENDROOT
TORSDOF 0
ENDMDL
