MODEL 1
REMARK minimizedAffinity 13.079401
REMARK minimizedRMSD -1
REMARK  0 active torsions:
REMARK  status: ('A' for Active; 'I' for Inactive)
ROOT
ATOM      1  C   UNL d   1       1.709  -2.205  -5.989  0.00  0.00     0.023 A 
ATOM      2  C1  UNL d   1       2.720  -2.214  -5.027  0.00  0.00     0.003 A 
ATOM      3  C2  UNL d   1       2.771  -3.233  -4.075  0.00  0.00     0.048 A 
ATOM      4  C3  UNL d   1       1.808  -4.242  -4.089  0.00  0.00     0.023 A 
ATOM      5  C4  UNL d   1       0.795  -4.238  -5.050  0.00  0.00     0.048 A 
ATOM      6  C5  UNL d   1       0.748  -3.216  -6.000  0.00  0.00     0.003 A 
ATOM      7  I   UNL d   1       1.881  -5.761  -2.673  0.00  0.00    -0.146 I 
ENDROOT
TORSDOF 0
ENDMDL
