MODEL 1
REMARK minimizedAffinity 9.5487051
REMARK minimizedRMSD -1
REMARK  0 active torsions:
REMARK  status: ('A' for Active; 'I' for Inactive)
ROOT
ATOM      1  C   UNL d   1       1.521  -1.664  -6.000  0.00  0.00     0.023 A 
ATOM      2  C1  UNL d   1       0.979  -2.894  -5.627  0.00  0.00     0.003 A 
ATOM      3  C2  UNL d   1       0.983  -3.283  -4.286  0.00  0.00     0.048 A 
ATOM      4  C3  UNL d   1       1.530  -2.436  -3.323  0.00  0.00     0.023 A 
ATOM      5  C4  UNL d   1       2.073  -1.204  -3.690  0.00  0.00     0.048 A 
ATOM      6  C5  UNL d   1       2.067  -0.820  -5.033  0.00  0.00     0.003 A 
ATOM      7  I   UNL d   1       1.537  -3.013  -1.326  0.00  0.00    -0.146 I 
ENDROOT
TORSDOF 0
ENDMDL
