MODEL 1
REMARK minimizedAffinity 3.77579236
REMARK minimizedRMSD -1
REMARK  0 active torsions:
REMARK  status: ('A' for Active; 'I' for Inactive)
ROOT
ATOM      1  C   UNL d   1      -5.852  -3.075   0.522  0.00  0.00     0.023 A 
ATOM      2  C1  UNL d   1      -5.954  -4.466   0.497  0.00  0.00     0.003 A 
ATOM      3  C2  UNL d   1      -5.994  -5.187   1.692  0.00  0.00     0.048 A 
ATOM      4  C3  UNL d   1      -5.932  -4.510   2.910  0.00  0.00     0.023 A 
ATOM      5  C4  UNL d   1      -5.831  -3.118   2.940  0.00  0.00     0.048 A 
ATOM      6  C5  UNL d   1      -5.791  -2.402   1.742  0.00  0.00     0.003 A 
ATOM      7  I   UNL d   1      -5.991  -5.580   4.691  0.00  0.00    -0.146 I 
ENDROOT
TORSDOF 0
ENDMDL
