MODEL 1
REMARK minimizedAffinity 16.6255722
REMARK minimizedRMSD -1
REMARK  0 active torsions:
REMARK  status: ('A' for Active; 'I' for Inactive)
ROOT
ATOM      1  C   UNL d   1       0.759  -3.754  -2.276  0.00  0.00     0.023 A 
ATOM      2  C1  UNL d   1       0.194  -3.858  -3.547  0.00  0.00     0.003 A 
ATOM      3  C2  UNL d   1       0.742  -3.148  -4.617  0.00  0.00     0.048 A 
ATOM      4  C3  UNL d   1       1.857  -2.336  -4.409  0.00  0.00     0.023 A 
ATOM      5  C4  UNL d   1       2.426  -2.229  -3.139  0.00  0.00     0.048 A 
ATOM      6  C5  UNL d   1       1.874  -2.941  -2.073  0.00  0.00     0.003 A 
ATOM      7  I   UNL d   1       2.675  -1.278  -6.000  0.00  0.00    -0.146 I 
ENDROOT
TORSDOF 0
ENDMDL
