MODEL 1
REMARK minimizedAffinity 11.983305
REMARK minimizedRMSD -1
REMARK  0 active torsions:
REMARK  status: ('A' for Active; 'I' for Inactive)
ROOT
ATOM      1  C   UNL d   1       1.770  -2.921   0.308  0.00  0.00     0.023 A 
ATOM      2  C1  UNL d   1       1.742  -1.619  -0.193  0.00  0.00     0.003 A 
ATOM      3  C2  UNL d   1       1.812  -1.397  -1.570  0.00  0.00     0.048 A 
ATOM      4  C3  UNL d   1       1.908  -2.482  -2.441  0.00  0.00     0.023 A 
ATOM      5  C4  UNL d   1       1.935  -3.786  -1.944  0.00  0.00     0.048 A 
ATOM      6  C5  UNL d   1       1.866  -4.003  -0.567  0.00  0.00     0.003 A 
ATOM      7  I   UNL d   1       2.011  -2.155  -4.490  0.00  0.00    -0.146 I 
ENDROOT
TORSDOF 0
ENDMDL
