MODEL 1
REMARK minimizedAffinity 14.3669491
REMARK minimizedRMSD -1
REMARK  0 active torsions:
REMARK  status: ('A' for Active; 'I' for Inactive)
ROOT
ATOM      1  C   UNL d   1       0.653   5.049   0.549  0.00  0.00     0.023 A 
ATOM      2  C1  UNL d   1       0.702   3.720   0.131  0.00  0.00     0.003 A 
ATOM      3  C2  UNL d   1       0.067   3.334  -1.051  0.00  0.00     0.048 A 
ATOM      4  C3  UNL d   1      -0.616   4.283  -1.811  0.00  0.00     0.023 A 
ATOM      5  C4  UNL d   1      -0.667   5.615  -1.397  0.00  0.00     0.048 A 
ATOM      6  C5  UNL d   1      -0.031   5.996  -0.214  0.00  0.00     0.003 A 
ATOM      7  I   UNL d   1      -1.562   3.712  -3.571  0.00  0.00    -0.146 I 
ENDROOT
TORSDOF 0
ENDMDL
