MODEL 1
REMARK minimizedAffinity 9.373106
REMARK minimizedRMSD -1
REMARK  0 active torsions:
REMARK  status: ('A' for Active; 'I' for Inactive)
ROOT
ATOM      1  C   UNL d   1      -0.565   4.149  -2.204  0.00  0.00     0.023 A 
ATOM      2  C1  UNL d   1       0.727   4.067  -1.686  0.00  0.00     0.003 A 
ATOM      3  C2  UNL d   1       0.982   3.279  -0.562  0.00  0.00     0.048 A 
ATOM      4  C3  UNL d   1      -0.060   2.575   0.039  0.00  0.00     0.023 A 
ATOM      5  C4  UNL d   1      -1.355   2.653  -0.476  0.00  0.00     0.048 A 
ATOM      6  C5  UNL d   1      -1.605   3.443  -1.600  0.00  0.00     0.003 A 
ATOM      7  I   UNL d   1       0.316   1.401   1.712  0.00  0.00    -0.146 I 
ENDROOT
TORSDOF 0
ENDMDL
