MODEL 1
REMARK minimizedAffinity 10.5295658
REMARK minimizedRMSD -1
REMARK  0 active torsions:
REMARK  status: ('A' for Active; 'I' for Inactive)
ROOT
ATOM      1  C   UNL d   1       0.408   5.473  -1.575  0.00  0.00     0.023 A 
ATOM      2  C1  UNL d   1       0.618   4.195  -2.093  0.00  0.00     0.003 A 
ATOM      3  C2  UNL d   1       0.343   3.070  -1.313  0.00  0.00     0.048 A 
ATOM      4  C3  UNL d   1      -0.144   3.231  -0.016  0.00  0.00     0.023 A 
ATOM      5  C4  UNL d   1      -0.357   4.508   0.506  0.00  0.00     0.048 A 
ATOM      6  C5  UNL d   1      -0.079   5.630  -0.277  0.00  0.00     0.003 A 
ATOM      7  I   UNL d   1      -0.555   1.559   1.148  0.00  0.00    -0.146 I 
ENDROOT
TORSDOF 0
ENDMDL
