MODEL 1
REMARK minimizedAffinity -5.008986
REMARK minimizedRMSD -1
REMARK  0 active torsions:
REMARK  status: ('A' for Active; 'I' for Inactive)
ROOT
ATOM      1  C2' OXE d   1       2.214   0.939   0.580  0.00  0.00     0.078 C 
ATOM      2  C1' OXE d   1       0.272   0.081  -1.256  0.00  0.00     0.078 C 
ATOM      3  C1  OXE d   1      -0.031  -0.075   0.213  0.00  0.00    -0.078 A 
ATOM      4  C2  OXE d   1       0.944   0.305   1.104  0.00  0.00    -0.078 A 
ATOM      5  C3  OXE d   1       0.694   0.234   2.471  0.00  0.00     0.003 A 
ATOM      6  C4  OXE d   1      -0.479  -0.364   2.947  0.00  0.00    -0.002 A 
ATOM      7  C5  OXE d   1      -1.469  -0.793   2.057  0.00  0.00    -0.002 A 
ATOM      8  C6  OXE d   1      -1.279  -0.617   0.691  0.00  0.00     0.003 A 
ENDROOT
TORSDOF 0
ENDMDL
