MODEL 1
REMARK minimizedAffinity -5.49826336
REMARK minimizedRMSD -1
REMARK  0 active torsions:
REMARK  status: ('A' for Active; 'I' for Inactive)
ROOT
ATOM      1  C2' OXE d   1       1.686   0.758   1.247  0.00  0.00     0.078 C 
ATOM      2  C1' OXE d   1      -0.016   0.956  -0.976  0.00  0.00     0.078 C 
ATOM      3  C1  OXE d   1      -0.551   0.279   0.262  0.00  0.00    -0.078 A 
ATOM      4  C2  OXE d   1       0.305   0.146   1.329  0.00  0.00    -0.078 A 
ATOM      5  C3  OXE d   1      -0.155  -0.421   2.514  0.00  0.00     0.003 A 
ATOM      6  C4  OXE d   1      -1.431  -0.994   2.577  0.00  0.00    -0.002 A 
ATOM      7  C5  OXE d   1      -2.305  -0.904   1.488  0.00  0.00    -0.002 A 
ATOM      8  C6  OXE d   1      -1.896  -0.235   0.340  0.00  0.00     0.003 A 
ENDROOT
TORSDOF 0
ENDMDL
