MODEL 1
REMARK minimizedAffinity -5.20675325
REMARK minimizedRMSD -1
REMARK  0 active torsions:
REMARK  status: ('A' for Active; 'I' for Inactive)
ROOT
ATOM      1  C2' OXE d   1      -1.428  -0.094   3.116  0.00  0.00     0.078 C 
ATOM      2  C1' OXE d   1      -2.556   0.449   0.603  0.00  0.00     0.078 C 
ATOM      3  C1  OXE d   1      -1.062   0.257   0.677  0.00  0.00    -0.078 A 
ATOM      4  C2  OXE d   1      -0.513   0.038   1.918  0.00  0.00    -0.078 A 
ATOM      5  C3  OXE d   1       0.853  -0.200   2.035  0.00  0.00     0.003 A 
ATOM      6  C4  OXE d   1       1.694  -0.066   0.924  0.00  0.00    -0.002 A 
ATOM      7  C5  OXE d   1       1.161   0.196  -0.342  0.00  0.00    -0.002 A 
ATOM      8  C6  OXE d   1      -0.217   0.318  -0.490  0.00  0.00     0.003 A 
ENDROOT
TORSDOF 0
ENDMDL
