MODEL 1
REMARK minimizedAffinity -1.3268801
REMARK minimizedRMSD -1
REMARK  0 active torsions:
REMARK  status: ('A' for Active; 'I' for Inactive)
ROOT
ATOM      1  C2' OXE d   1       2.076   0.786   0.568  0.00  0.00     0.078 C 
ATOM      2  C1' OXE d   1       0.506   0.166  -1.675  0.00  0.00     0.078 C 
ATOM      3  C1  OXE d   1      -0.069  -0.126  -0.311  0.00  0.00    -0.078 A 
ATOM      4  C2  OXE d   1       0.725   0.137   0.779  0.00  0.00    -0.078 A 
ATOM      5  C3  OXE d   1       0.222  -0.062   2.062  0.00  0.00     0.003 A 
ATOM      6  C4  OXE d   1      -1.025  -0.672   2.248  0.00  0.00    -0.002 A 
ATOM      7  C5  OXE d   1      -1.833  -0.985   1.149  0.00  0.00    -0.002 A 
ATOM      8  C6  OXE d   1      -1.388  -0.680  -0.132  0.00  0.00     0.003 A 
ENDROOT
TORSDOF 0
ENDMDL
