MODEL 1
REMARK minimizedAffinity -3.98727608
REMARK minimizedRMSD -1
REMARK  0 active torsions:
REMARK  status: ('A' for Active; 'I' for Inactive)
ROOT
ATOM      1  C2' OXE d   1       1.952   0.699   0.894  0.00  0.00     0.078 C 
ATOM      2  C1' OXE d   1       0.094   0.140  -1.134  0.00  0.00     0.078 C 
ATOM      3  C1  OXE d   1      -0.329  -0.099   0.293  0.00  0.00    -0.078 A 
ATOM      4  C2  OXE d   1       0.602   0.133   1.276  0.00  0.00    -0.078 A 
ATOM      5  C3  OXE d   1       0.246  -0.020   2.613  0.00  0.00     0.003 A 
ATOM      6  C4  OXE d   1      -1.002  -0.553   2.958  0.00  0.00    -0.002 A 
ATOM      7  C5  OXE d   1      -1.952  -0.834   1.970  0.00  0.00    -0.002 A 
ATOM      8  C6  OXE d   1      -1.647  -0.573   0.638  0.00  0.00     0.003 A 
ENDROOT
TORSDOF 0
ENDMDL
