MODEL 1
REMARK minimizedAffinity -4.93351889
REMARK minimizedRMSD -1
REMARK  0 active torsions:
REMARK  status: ('A' for Active; 'I' for Inactive)
ROOT
ATOM      1  C2' OXE d   1       0.735  -0.026  -1.599  0.00  0.00     0.078 C 
ATOM      2  C1' OXE d   1       2.342   1.021   0.450  0.00  0.00     0.078 C 
ATOM      3  C1  OXE d   1       1.066   0.321   0.845  0.00  0.00    -0.078 A 
ATOM      4  C2  OXE d   1       0.262  -0.147  -0.166  0.00  0.00    -0.078 A 
ATOM      5  C3  OXE d   1      -0.899  -0.849   0.144  0.00  0.00     0.003 A 
ATOM      6  C4  OXE d   1      -1.334  -0.948   1.472  0.00  0.00    -0.002 A 
ATOM      7  C5  OXE d   1      -0.550  -0.444   2.515  0.00  0.00    -0.002 A 
ATOM      8  C6  OXE d   1       0.671   0.155   2.222  0.00  0.00     0.003 A 
ENDROOT
TORSDOF 0
ENDMDL
