MODEL 1
REMARK minimizedAffinity -4.25465202
REMARK minimizedRMSD -1
REMARK  0 active torsions:
REMARK  status: ('A' for Active; 'I' for Inactive)
ROOT
ATOM      1  C2' OXE d   1       2.304   0.635   0.626  0.00  0.00     0.078 C 
ATOM      2  C1' OXE d   1       0.327  -0.153  -1.205  0.00  0.00     0.078 C 
ATOM      3  C1  OXE d   1       0.016  -0.282   0.266  0.00  0.00    -0.078 A 
ATOM      4  C2  OXE d   1       1.007   0.062   1.154  0.00  0.00    -0.078 A 
ATOM      5  C3  OXE d   1       0.753   0.013   2.522  0.00  0.00     0.003 A 
ATOM      6  C4  OXE d   1      -0.446  -0.527   3.002  0.00  0.00    -0.002 A 
ATOM      7  C5  OXE d   1      -1.453  -0.921   2.114  0.00  0.00    -0.002 A 
ATOM      8  C6  OXE d   1      -1.255  -0.765   0.746  0.00  0.00     0.003 A 
ENDROOT
TORSDOF 0
ENDMDL
