MODEL 1
REMARK minimizedAffinity -4.11152077
REMARK minimizedRMSD -1
REMARK  0 active torsions:
REMARK  status: ('A' for Active; 'I' for Inactive)
ROOT
ATOM      1  C2' OXE d   1      -0.145   0.430  -1.063  0.00  0.00     0.078 C 
ATOM      2  C1' OXE d   1      -2.785   0.142  -0.152  0.00  0.00     0.078 C 
ATOM      3  C1  OXE d   1      -1.670  -0.096   0.835  0.00  0.00    -0.078 A 
ATOM      4  C2  OXE d   1      -0.381   0.002   0.370  0.00  0.00    -0.078 A 
ATOM      5  C3  OXE d   1       0.684  -0.154   1.252  0.00  0.00     0.003 A 
ATOM      6  C4  OXE d   1       0.458  -0.560   2.572  0.00  0.00    -0.002 A 
ATOM      7  C5  OXE d   1      -0.847  -0.704   3.057  0.00  0.00    -0.002 A 
ATOM      8  C6  OXE d   1      -1.920  -0.435   2.215  0.00  0.00     0.003 A 
ENDROOT
TORSDOF 0
ENDMDL
