MODEL 1
REMARK minimizedAffinity -3.57722473
REMARK minimizedRMSD -1
REMARK  0 active torsions:
REMARK  status: ('A' for Active; 'I' for Inactive)
ROOT
ATOM      1  C2' OXE d   1       0.193   0.329  -1.430  0.00  0.00     0.078 C 
ATOM      2  C1' OXE d   1      -1.960  -0.871  -0.087  0.00  0.00     0.078 C 
ATOM      3  C1  OXE d   1      -0.739  -0.511   0.722  0.00  0.00    -0.078 A 
ATOM      4  C2  OXE d   1       0.328   0.034   0.048  0.00  0.00    -0.078 A 
ATOM      5  C3  OXE d   1       1.458   0.435   0.755  0.00  0.00     0.003 A 
ATOM      6  C4  OXE d   1       1.578   0.149   2.120  0.00  0.00    -0.002 A 
ATOM      7  C5  OXE d   1       0.519  -0.441   2.818  0.00  0.00    -0.002 A 
ATOM      8  C6  OXE d   1      -0.660  -0.738   2.144  0.00  0.00     0.003 A 
ENDROOT
TORSDOF 0
ENDMDL
