MODEL 1
REMARK minimizedAffinity -4.87543631
REMARK minimizedRMSD -1
REMARK  0 active torsions:
REMARK  status: ('A' for Active; 'I' for Inactive)
ROOT
ATOM      1  C2' OXE d   1       0.176   0.383  -1.063  0.00  0.00     0.078 C 
ATOM      2  C1' OXE d   1       2.283   0.498   0.789  0.00  0.00     0.078 C 
ATOM      3  C1  OXE d   1       0.898   0.214   1.315  0.00  0.00    -0.078 A 
ATOM      4  C2  OXE d   1      -0.134   0.205   0.407  0.00  0.00    -0.078 A 
ATOM      5  C3  OXE d   1      -1.423  -0.106   0.832  0.00  0.00     0.003 A 
ATOM      6  C4  OXE d   1      -1.703  -0.259   2.195  0.00  0.00    -0.002 A 
ATOM      7  C5  OXE d   1      -0.673  -0.215   3.140  0.00  0.00    -0.002 A 
ATOM      8  C6  OXE d   1       0.637  -0.022   2.713  0.00  0.00     0.003 A 
ENDROOT
TORSDOF 0
ENDMDL
