MODEL 1
REMARK minimizedAffinity -6.21244669
REMARK minimizedRMSD -1
REMARK  0 active torsions:
REMARK  status: ('A' for Active; 'I' for Inactive)
ROOT
ATOM      1  C2' OXE d   1       1.401   0.467   1.409  0.00  0.00     0.078 C 
ATOM      2  C1' OXE d   1      -0.670  -0.150  -0.383  0.00  0.00     0.078 C 
ATOM      3  C1  OXE d   1      -1.002  -0.104   1.087  0.00  0.00    -0.078 A 
ATOM      4  C2  OXE d   1       0.027   0.152   1.961  0.00  0.00    -0.078 A 
ATOM      5  C3  OXE d   1      -0.236   0.260   3.323  0.00  0.00     0.003 A 
ATOM      6  C4  OXE d   1      -1.507  -0.042   3.826  0.00  0.00    -0.002 A 
ATOM      7  C5  OXE d   1      -2.561  -0.344   2.957  0.00  0.00    -0.002 A 
ATOM      8  C6  OXE d   1      -2.336  -0.338   1.585  0.00  0.00     0.003 A 
ENDROOT
TORSDOF 0
ENDMDL
