MODEL 1
REMARK minimizedAffinity -3.31524372
REMARK minimizedRMSD -1
REMARK  0 active torsions:
REMARK  status: ('A' for Active; 'I' for Inactive)
ROOT
ATOM      1  C2' OXE d   1       0.785   1.514   0.420  0.00  0.00     0.078 C 
ATOM      2  C1' OXE d   1      -0.041  -0.683  -1.120  0.00  0.00     0.078 C 
ATOM      3  C1  OXE d   1      -0.473  -0.634   0.325  0.00  0.00    -0.078 A 
ATOM      4  C2  OXE d   1      -0.025   0.421   1.083  0.00  0.00    -0.078 A 
ATOM      5  C3  OXE d   1      -0.439   0.543   2.406  0.00  0.00     0.003 A 
ATOM      6  C4  OXE d   1      -1.180  -0.478   3.015  0.00  0.00    -0.002 A 
ATOM      7  C5  OXE d   1      -1.613  -1.580   2.271  0.00  0.00    -0.002 A 
ATOM      8  C6  OXE d   1      -1.304  -1.653   0.917  0.00  0.00     0.003 A 
ENDROOT
TORSDOF 0
ENDMDL
