MODEL 1
REMARK minimizedAffinity -5.5755868
REMARK minimizedRMSD -1
REMARK  0 active torsions:
REMARK  status: ('A' for Active; 'I' for Inactive)
ROOT
ATOM      1  C2' OXE d   1       0.335   0.076  -0.414  0.00  0.00     0.078 C 
ATOM      2  C1' OXE d   1      -2.378   0.657  -0.837  0.00  0.00     0.078 C 
ATOM      3  C1  OXE d   1      -1.934   0.358   0.573  0.00  0.00    -0.078 A 
ATOM      4  C2  OXE d   1      -0.614   0.029   0.764  0.00  0.00    -0.078 A 
ATOM      5  C3  OXE d   1      -0.140  -0.203   2.052  0.00  0.00     0.003 A 
ATOM      6  C4  OXE d   1      -1.027  -0.254   3.135  0.00  0.00    -0.002 A 
ATOM      7  C5  OXE d   1      -2.383   0.039   2.956  0.00  0.00    -0.002 A 
ATOM      8  C6  OXE d   1      -2.844   0.388   1.692  0.00  0.00     0.003 A 
ENDROOT
TORSDOF 0
ENDMDL
