MODEL 1
REMARK minimizedAffinity -3.06968975
REMARK minimizedRMSD -1
REMARK  0 active torsions:
REMARK  status: ('A' for Active; 'I' for Inactive)
ROOT
ATOM      1  C2' OXE d   1       1.545  -0.948  -0.049  0.00  0.00     0.078 C 
ATOM      2  C1' OXE d   1       0.775   0.623  -2.244  0.00  0.00     0.078 C 
ATOM      3  C1  OXE d   1      -0.226   0.428  -1.133  0.00  0.00    -0.078 A 
ATOM      4  C2  OXE d   1       0.143  -0.380  -0.084  0.00  0.00    -0.078 A 
ATOM      5  C3  OXE d   1      -0.722  -0.550   0.993  0.00  0.00     0.003 A 
ATOM      6  C4  OXE d   1      -2.022  -0.030   0.947  0.00  0.00    -0.002 A 
ATOM      7  C5  OXE d   1      -2.431   0.764  -0.129  0.00  0.00    -0.002 A 
ATOM      8  C6  OXE d   1      -1.533   1.037  -1.155  0.00  0.00     0.003 A 
ENDROOT
TORSDOF 0
ENDMDL
