MODEL 1
REMARK minimizedAffinity -3.77895021
REMARK minimizedRMSD -1
REMARK  0 active torsions:
REMARK  status: ('A' for Active; 'I' for Inactive)
ROOT
ATOM      1  C2' OXE d   1      -2.634   0.027   0.414  0.00  0.00     0.078 C 
ATOM      2  C1' OXE d   1      -1.215  -0.296   2.814  0.00  0.00     0.078 C 
ATOM      3  C1  OXE d   1      -0.422  -0.028   1.559  0.00  0.00    -0.078 A 
ATOM      4  C2  OXE d   1      -1.122   0.082   0.381  0.00  0.00    -0.078 A 
ATOM      5  C3  OXE d   1      -0.444   0.384  -0.797  0.00  0.00     0.003 A 
ATOM      6  C4  OXE d   1       0.955   0.424  -0.820  0.00  0.00    -0.002 A 
ATOM      7  C5  OXE d   1       1.689   0.274   0.362  0.00  0.00    -0.002 A 
ATOM      8  C6  OXE d   1       1.015   0.091   1.564  0.00  0.00     0.003 A 
ENDROOT
TORSDOF 0
ENDMDL
