MODEL 1
REMARK minimizedAffinity -2.8789196
REMARK minimizedRMSD -1
REMARK  0 active torsions:
REMARK  status: ('A' for Active; 'I' for Inactive)
ROOT
ATOM      1  C2' OXE d   1      -1.029  -0.800   2.957  0.00  0.00     0.078 C 
ATOM      2  C1' OXE d   1      -3.006  -0.612   0.973  0.00  0.00     0.078 C 
ATOM      3  C1  OXE d   1      -1.610  -0.165   0.619  0.00  0.00    -0.078 A 
ATOM      4  C2  OXE d   1      -0.659  -0.216   1.610  0.00  0.00    -0.078 A 
ATOM      5  C3  OXE d   1       0.657   0.133   1.321  0.00  0.00     0.003 A 
ATOM      6  C4  OXE d   1       0.988   0.681   0.076  0.00  0.00    -0.002 A 
ATOM      7  C5  OXE d   1       0.026   0.779  -0.935  0.00  0.00    -0.002 A 
ATOM      8  C6  OXE d   1      -1.265   0.323  -0.694  0.00  0.00     0.003 A 
ENDROOT
TORSDOF 0
ENDMDL
