MODEL 1
REMARK minimizedAffinity -1.6353271
REMARK minimizedRMSD -1
REMARK  0 active torsions:
REMARK  status: ('A' for Active; 'I' for Inactive)
ROOT
ATOM      1  C2' OXE d   1      -0.370  -0.883   3.020  0.00  0.00     0.078 C 
ATOM      2  C1' OXE d   1       2.010   0.203   2.001  0.00  0.00     0.078 C 
ATOM      3  C1  OXE d   1       0.805   0.174   1.094  0.00  0.00    -0.078 A 
ATOM      4  C2  OXE d   1      -0.342  -0.402   1.585  0.00  0.00    -0.078 A 
ATOM      5  C3  OXE d   1      -1.498  -0.406   0.809  0.00  0.00     0.003 A 
ATOM      6  C4  OXE d   1      -1.461   0.032  -0.520  0.00  0.00    -0.002 A 
ATOM      7  C5  OXE d   1      -0.292   0.585  -1.053  0.00  0.00    -0.002 A 
ATOM      8  C6  OXE d   1       0.835   0.702  -0.248  0.00  0.00     0.003 A 
ENDROOT
TORSDOF 0
ENDMDL
