MODEL 1
REMARK minimizedAffinity 2.99232101
REMARK minimizedRMSD -1
REMARK  0 active torsions:
REMARK  status: ('A' for Active; 'I' for Inactive)
ROOT
ATOM      1  O1  BZF d   1      -4.349   0.925   1.366  0.00  0.00    -0.204 OA
ATOM      2  C2  BZF d   1      -4.263   0.471   0.064  0.00  0.00     0.174 A 
ATOM      3  C3  BZF d   1      -3.531   1.315  -0.690  0.00  0.00    -0.012 A 
ATOM      4  C3A BZF d   1      -3.056   2.315   0.217  0.00  0.00    -0.107 A 
ATOM      5  C4  BZF d   1      -2.264   3.418   0.069  0.00  0.00     0.055 A 
ATOM      6  C5  BZF d   1      -2.051   4.227   1.139  0.00  0.00    -0.016 A 
ATOM      7  C6  BZF d   1      -2.618   3.967   2.370  0.00  0.00     0.022 A 
ATOM      8  C7  BZF d   1      -3.407   2.882   2.567  0.00  0.00     0.029 A 
ATOM      9  C7A BZF d   1      -3.597   2.045   1.495  0.00  0.00     0.058 A 
ENDROOT
TORSDOF 0
ENDMDL
