MODEL 1
REMARK minimizedAffinity 3.39916563
REMARK minimizedRMSD -1
REMARK  0 active torsions:
REMARK  status: ('A' for Active; 'I' for Inactive)
ROOT
ATOM      1  O1  BZF d   1      -1.939   3.506   0.053  0.00  0.00    -0.204 OA
ATOM      2  C2  BZF d   1      -1.287   4.406   0.874  0.00  0.00     0.174 A 
ATOM      3  C3  BZF d   1      -0.014   4.017   1.093  0.00  0.00    -0.012 A 
ATOM      4  C3A BZF d   1       0.166   2.848   0.289  0.00  0.00    -0.107 A 
ATOM      5  C4  BZF d   1       1.225   2.014   0.068  0.00  0.00     0.055 A 
ATOM      6  C5  BZF d   1       1.051   0.920  -0.718  0.00  0.00    -0.016 A 
ATOM      7  C6  BZF d   1      -0.167   0.626  -1.294  0.00  0.00     0.022 A 
ATOM      8  C7  BZF d   1      -1.245   1.426  -1.109  0.00  0.00     0.029 A 
ATOM      9  C7A BZF d   1      -1.064   2.551  -0.342  0.00  0.00     0.058 A 
ENDROOT
TORSDOF 0
ENDMDL
