MODEL 1
REMARK minimizedAffinity -0.664892316
REMARK minimizedRMSD -1
REMARK  0 active torsions:
REMARK  status: ('A' for Active; 'I' for Inactive)
ROOT
ATOM      1  O1  BZF d   1       5.935  -0.083  -4.148  0.00  0.00    -0.204 OA
ATOM      2  C2  BZF d   1       4.954  -0.754  -4.852  0.00  0.00     0.174 A 
ATOM      3  C3  BZF d   1       3.812  -0.820  -4.137  0.00  0.00    -0.012 A 
ATOM      4  C3A BZF d   1       4.070  -0.068  -2.947  0.00  0.00    -0.107 A 
ATOM      5  C4  BZF d   1       3.315   0.246  -1.853  0.00  0.00     0.055 A 
ATOM      6  C5  BZF d   1       3.888   0.936  -0.832  0.00  0.00    -0.016 A 
ATOM      7  C6  BZF d   1       5.211   1.324  -0.869  0.00  0.00     0.022 A 
ATOM      8  C7  BZF d   1       5.998   1.040  -1.936  0.00  0.00     0.029 A 
ATOM      9  C7A BZF d   1       5.413   0.371  -2.983  0.00  0.00     0.058 A 
ENDROOT
TORSDOF 0
ENDMDL
