MODEL 1
REMARK minimizedAffinity 4.20267773
REMARK minimizedRMSD -1
REMARK  0 active torsions:
REMARK  status: ('A' for Active; 'I' for Inactive)
ROOT
ATOM      1  O1  BZF d   1       3.278   0.945  -3.068  0.00  0.00    -0.204 OA
ATOM      2  C2  BZF d   1       4.557   1.449  -2.926  0.00  0.00     0.174 A 
ATOM      3  C3  BZF d   1       4.885   1.558  -1.623  0.00  0.00    -0.012 A 
ATOM      4  C3A BZF d   1       3.775   1.007  -0.907  0.00  0.00    -0.107 A 
ATOM      5  C4  BZF d   1       3.513   0.820   0.420  0.00  0.00     0.055 A 
ATOM      6  C5  BZF d   1       2.305   0.322   0.791  0.00  0.00    -0.016 A 
ATOM      7  C6  BZF d   1       1.334   0.006  -0.137  0.00  0.00     0.022 A 
ATOM      8  C7  BZF d   1       1.549   0.170  -1.465  0.00  0.00     0.029 A 
ATOM      9  C7A BZF d   1       2.782   0.642  -1.845  0.00  0.00     0.058 A 
ENDROOT
TORSDOF 0
ENDMDL
