MODEL 1
REMARK minimizedAffinity 8.17857552
REMARK minimizedRMSD -1
REMARK  0 active torsions:
REMARK  status: ('A' for Active; 'I' for Inactive)
ROOT
ATOM      1  O1  BZF d   1       2.003   2.463   1.095  0.00  0.00    -0.204 OA
ATOM      2  C2  BZF d   1       2.849   1.388   1.289  0.00  0.00     0.174 A 
ATOM      3  C3  BZF d   1       2.469   0.337   0.534  0.00  0.00    -0.012 A 
ATOM      4  C3A BZF d   1       1.368   0.814  -0.246  0.00  0.00    -0.107 A 
ATOM      5  C4  BZF d   1       0.573   0.240  -1.197  0.00  0.00     0.055 A 
ATOM      6  C5  BZF d   1      -0.461   0.955  -1.713  0.00  0.00    -0.016 A 
ATOM      7  C6  BZF d   1      -0.733   2.242  -1.297  0.00  0.00     0.022 A 
ATOM      8  C7  BZF d   1       0.031   2.855  -0.360  0.00  0.00     0.029 A 
ATOM      9  C7A BZF d   1       1.097   2.147   0.139  0.00  0.00     0.058 A 
ENDROOT
TORSDOF 0
ENDMDL
