MODEL 1
REMARK minimizedAffinity 13.0911255
REMARK minimizedRMSD -1
REMARK  0 active torsions:
REMARK  status: ('A' for Active; 'I' for Inactive)
ROOT
ATOM      1  O1  BZF d   1       4.259   1.844  -3.041  0.00  0.00    -0.204 OA
ATOM      2  C2  BZF d   1       5.417   2.509  -2.687  0.00  0.00     0.174 A 
ATOM      3  C3  BZF d   1       5.640   2.409  -1.361  0.00  0.00    -0.012 A 
ATOM      4  C3A BZF d   1       4.602   1.556  -0.868  0.00  0.00    -0.107 A 
ATOM      5  C4  BZF d   1       4.296   1.070   0.370  0.00  0.00     0.055 A 
ATOM      6  C5  BZF d   1       3.173   0.320   0.526  0.00  0.00    -0.016 A 
ATOM      7  C6  BZF d   1       2.332   0.043  -0.532  0.00  0.00     0.022 A 
ATOM      8  C7  BZF d   1       2.597   0.499  -1.780  0.00  0.00     0.029 A 
ATOM      9  C7A BZF d   1       3.749   1.229  -1.947  0.00  0.00     0.058 A 
ENDROOT
TORSDOF 0
ENDMDL
