MODEL 1
REMARK minimizedAffinity 6.46345472
REMARK minimizedRMSD -1
REMARK  0 active torsions:
REMARK  status: ('A' for Active; 'I' for Inactive)
ROOT
ATOM      1  O1  BZF d   1       2.336  -1.267  -1.183  0.00  0.00    -0.204 OA
ATOM      2  C2  BZF d   1       2.555  -0.248  -2.090  0.00  0.00     0.174 A 
ATOM      3  C3  BZF d   1       2.806   0.914  -1.453  0.00  0.00    -0.012 A 
ATOM      4  C3A BZF d   1       2.830   0.583  -0.061  0.00  0.00    -0.107 A 
ATOM      5  C4  BZF d   1       3.047   1.311   1.074  0.00  0.00     0.055 A 
ATOM      6  C5  BZF d   1       2.928   0.701   2.282  0.00  0.00    -0.016 A 
ATOM      7  C6  BZF d   1       2.589  -0.631   2.393  0.00  0.00     0.022 A 
ATOM      8  C7  BZF d   1       2.370  -1.396   1.296  0.00  0.00     0.029 A 
ATOM      9  C7A BZF d   1       2.521  -0.791   0.072  0.00  0.00     0.058 A 
ENDROOT
TORSDOF 0
ENDMDL
