MODEL 1
REMARK minimizedAffinity -4.62289286
REMARK minimizedRMSD -1
REMARK  0 active torsions:
REMARK  status: ('A' for Active; 'I' for Inactive)
ROOT
ATOM      1  N1  IND d   1       0.066   0.168  -0.808  0.00  0.00    -0.196 N 
ATOM      2  C2  IND d   1      -0.288   0.324   0.503  0.00  0.00     0.054 A 
ATOM      3  C3  IND d   1      -0.943  -0.772   0.947  0.00  0.00    -0.031 A 
ATOM      4  C4  IND d   1      -1.456  -2.979  -0.276  0.00  0.00     0.051 A 
ATOM      5  C5  IND d   1      -1.363  -3.578  -1.501  0.00  0.00    -0.031 A 
ATOM      6  C6  IND d   1      -0.774  -2.948  -2.578  0.00  0.00     0.015 A 
ATOM      7  C7  IND d   1      -0.245  -1.694  -2.467  0.00  0.00    -0.016 A 
ATOM      8  C8  IND d   1      -0.344  -1.079  -1.227  0.00  0.00    -0.047 A 
ATOM      9  C9  IND d   1      -0.978  -1.697  -0.142  0.00  0.00    -0.096 A 
ATOM     10  HN1 IND d   1       0.475   0.751  -1.290  0.00  0.00     0.298 HD
ENDROOT
TORSDOF 0
ENDMDL
