MODEL 1
REMARK minimizedAffinity -5.85919333
REMARK minimizedRMSD -1
REMARK  0 active torsions:
REMARK  status: ('A' for Active; 'I' for Inactive)
ROOT
ATOM      1  N1  IND d   1       0.127   0.472  -1.297  0.00  0.00    -0.196 N 
ATOM      2  C2  IND d   1      -0.083   1.069  -0.085  0.00  0.00     0.054 A 
ATOM      3  C3  IND d   1      -0.539   0.167   0.812  0.00  0.00    -0.031 A 
ATOM      4  C4  IND d   1      -0.917  -2.365   0.537  0.00  0.00     0.051 A 
ATOM      5  C5  IND d   1      -0.899  -3.362  -0.398  0.00  0.00    -0.031 A 
ATOM      6  C6  IND d   1      -0.527  -3.127  -1.706  0.00  0.00     0.015 A 
ATOM      7  C7  IND d   1      -0.147  -1.884  -2.127  0.00  0.00    -0.016 A 
ATOM      8  C8  IND d   1      -0.172  -0.868  -1.182  0.00  0.00    -0.047 A 
ATOM      9  C9  IND d   1      -0.589  -1.091   0.136  0.00  0.00    -0.096 A 
ATOM     10  HN1 IND d   1       0.400   0.866  -2.010  0.00  0.00     0.298 HD
ENDROOT
TORSDOF 0
ENDMDL
