MODEL 1
REMARK minimizedAffinity -1.04847932
REMARK minimizedRMSD -1
REMARK  0 active torsions:
REMARK  status: ('A' for Active; 'I' for Inactive)
ROOT
ATOM      1  N1  IND d   1       0.261   0.739  -1.113  0.00  0.00    -0.196 N 
ATOM      2  C2  IND d   1       0.663   1.992  -0.742  0.00  0.00     0.054 A 
ATOM      3  C3  IND d   1       0.463   2.177   0.582  0.00  0.00    -0.031 A 
ATOM      4  C4  IND d   1      -0.415   0.525   2.350  0.00  0.00     0.051 A 
ATOM      5  C5  IND d   1      -0.944  -0.728   2.486  0.00  0.00    -0.031 A 
ATOM      6  C6  IND d   1      -1.098  -1.574   1.407  0.00  0.00     0.015 A 
ATOM      7  C7  IND d   1      -0.718  -1.201   0.149  0.00  0.00    -0.016 A 
ATOM      8  C8  IND d   1      -0.187   0.073   0.007  0.00  0.00    -0.047 A 
ATOM      9  C9  IND d   1      -0.067   0.952   1.091  0.00  0.00    -0.096 A 
ATOM     10  HN1 IND d   1       0.285   0.420  -1.911  0.00  0.00     0.298 HD
ENDROOT
TORSDOF 0
ENDMDL
