MODEL 1
REMARK minimizedAffinity -1.66233909
REMARK minimizedRMSD -1
REMARK  0 active torsions:
REMARK  status: ('A' for Active; 'I' for Inactive)
ROOT
ATOM      1  N1  IND d   1       0.326  -1.096  -2.525  0.00  0.00    -0.196 N 
ATOM      2  C2  IND d   1       0.093  -2.420  -2.773  0.00  0.00     0.054 A 
ATOM      3  C3  IND d   1      -0.413  -3.022  -1.674  0.00  0.00    -0.031 A 
ATOM      4  C4  IND d   1      -1.033  -2.006   0.609  0.00  0.00     0.051 A 
ATOM      5  C5  IND d   1      -0.968  -0.843   1.323  0.00  0.00    -0.031 A 
ATOM      6  C6  IND d   1      -0.461   0.319   0.780  0.00  0.00     0.015 A 
ATOM      7  C7  IND d   1      -0.008   0.365  -0.508  0.00  0.00    -0.016 A 
ATOM      8  C8  IND d   1      -0.066  -0.816  -1.235  0.00  0.00    -0.047 A 
ATOM      9  C9  IND d   1      -0.541  -2.009  -0.675  0.00  0.00    -0.096 A 
ATOM     10  HN1 IND d   1       0.661  -0.533  -3.082  0.00  0.00     0.298 HD
ENDROOT
TORSDOF 0
ENDMDL
