MODEL 1
REMARK minimizedAffinity -3.0550499
REMARK minimizedRMSD -1
REMARK  0 active torsions:
REMARK  status: ('A' for Active; 'I' for Inactive)
ROOT
ATOM      1  N1  IND d   1       0.894   1.792  -1.430  0.00  0.00    -0.196 N 
ATOM      2  C2  IND d   1       0.879   2.867  -0.585  0.00  0.00     0.054 A 
ATOM      3  C3  IND d   1       0.466   2.490   0.647  0.00  0.00    -0.031 A 
ATOM      4  C4  IND d   1      -0.138   0.146   1.524  0.00  0.00     0.051 A 
ATOM      5  C5  IND d   1      -0.309  -1.146   1.114  0.00  0.00    -0.031 A 
ATOM      6  C6  IND d   1      -0.081  -1.533  -0.191  0.00  0.00     0.015 A 
ATOM      7  C7  IND d   1       0.340  -0.641  -1.136  0.00  0.00    -0.016 A 
ATOM      8  C8  IND d   1       0.508   0.674  -0.725  0.00  0.00    -0.047 A 
ATOM      9  C9  IND d   1       0.237   1.081   0.588  0.00  0.00    -0.096 A 
ATOM     10  HN1 IND d   1       1.108   1.812  -2.263  0.00  0.00     0.298 HD
ENDROOT
TORSDOF 0
ENDMDL
