MODEL 1
REMARK minimizedAffinity -3.3783977
REMARK minimizedRMSD -1
REMARK  0 active torsions:
REMARK  status: ('A' for Active; 'I' for Inactive)
ROOT
ATOM      1  N1  IND d   1      -0.347   1.401  -0.594  0.00  0.00    -0.196 N 
ATOM      2  C2  IND d   1       0.368   2.315   0.129  0.00  0.00     0.054 A 
ATOM      3  C3  IND d   1       0.611   1.845   1.373  0.00  0.00    -0.031 A 
ATOM      4  C4  IND d   1       0.018  -0.438   2.403  0.00  0.00     0.051 A 
ATOM      5  C5  IND d   1      -0.665  -1.593   2.142  0.00  0.00    -0.031 A 
ATOM      6  C6  IND d   1      -1.287  -1.815   0.931  0.00  0.00     0.015 A 
ATOM      7  C7  IND d   1      -1.239  -0.890  -0.074  0.00  0.00    -0.016 A 
ATOM      8  C8  IND d   1      -0.553   0.287   0.190  0.00  0.00    -0.047 A 
ATOM      9  C9  IND d   1       0.044   0.535   1.433  0.00  0.00    -0.096 A 
ATOM     10  HN1 IND d   1      -0.621   1.504  -1.402  0.00  0.00     0.298 HD
ENDROOT
TORSDOF 0
ENDMDL
