MODEL 1
REMARK minimizedAffinity -3.44554925
REMARK minimizedRMSD -1
REMARK  0 active torsions:
REMARK  status: ('A' for Active; 'I' for Inactive)
ROOT
ATOM      1  N1  IND d   1       0.082   0.589  -1.242  0.00  0.00    -0.196 N 
ATOM      2  C2  IND d   1      -0.124   1.100   0.009  0.00  0.00     0.054 A 
ATOM      3  C3  IND d   1      -0.542   0.128   0.851  0.00  0.00    -0.031 A 
ATOM      4  C4  IND d   1      -0.858  -2.389   0.414  0.00  0.00     0.051 A 
ATOM      5  C5  IND d   1      -0.828  -3.321  -0.585  0.00  0.00    -0.031 A 
ATOM      6  C6  IND d   1      -0.483  -2.991  -1.879  0.00  0.00     0.015 A 
ATOM      7  C7  IND d   1      -0.143  -1.713  -2.222  0.00  0.00    -0.016 A 
ATOM      8  C8  IND d   1      -0.179  -0.763  -1.212  0.00  0.00    -0.047 A 
ATOM      9  C9  IND d   1      -0.570  -1.083   0.094  0.00  0.00    -0.096 A 
ATOM     10  HN1 IND d   1       0.334   1.037  -1.931  0.00  0.00     0.298 HD
ENDROOT
TORSDOF 0
ENDMDL
