MODEL 1
REMARK minimizedAffinity -4.18597317
REMARK minimizedRMSD -1
REMARK  0 active torsions:
REMARK  status: ('A' for Active; 'I' for Inactive)
ROOT
ATOM      1  N1  IND d   1       0.041   0.598  -0.760  0.00  0.00    -0.196 N 
ATOM      2  C2  IND d   1      -0.298   1.002   0.501  0.00  0.00     0.054 A 
ATOM      3  C3  IND d   1      -0.734  -0.050   1.230  0.00  0.00    -0.031 A 
ATOM      4  C4  IND d   1      -0.879  -2.538   0.587  0.00  0.00     0.051 A 
ATOM      5  C5  IND d   1      -0.715  -3.389  -0.470  0.00  0.00    -0.031 A 
ATOM      6  C6  IND d   1      -0.279  -2.945  -1.702  0.00  0.00     0.015 A 
ATOM      7  C7  IND d   1       0.021  -1.631  -1.920  0.00  0.00    -0.016 A 
ATOM      8  C8  IND d   1      -0.151  -0.763  -0.851  0.00  0.00    -0.047 A 
ATOM      9  C9  IND d   1      -0.634  -1.200   0.389  0.00  0.00    -0.096 A 
ATOM     10  HN1 IND d   1       0.325   1.109  -1.391  0.00  0.00     0.298 HD
ENDROOT
TORSDOF 0
ENDMDL
