MODEL 1
REMARK minimizedAffinity -3.14693046
REMARK minimizedRMSD -1
REMARK  0 active torsions:
REMARK  status: ('A' for Active; 'I' for Inactive)
ROOT
ATOM      1  N1  IND d   1       0.237  -1.406  -2.618  0.00  0.00    -0.196 N 
ATOM      2  C2  IND d   1      -0.162  -2.689  -2.869  0.00  0.00     0.054 A 
ATOM      3  C3  IND d   1      -0.671  -3.251  -1.750  0.00  0.00    -0.031 A 
ATOM      4  C4  IND d   1      -1.040  -2.217   0.578  0.00  0.00     0.051 A 
ATOM      5  C5  IND d   1      -0.800  -1.084   1.303  0.00  0.00    -0.031 A 
ATOM      6  C6  IND d   1      -0.192   0.023   0.747  0.00  0.00     0.015 A 
ATOM      7  C7  IND d   1       0.189   0.043  -0.565  0.00  0.00    -0.016 A 
ATOM      8  C8  IND d   1      -0.046  -1.109  -1.302  0.00  0.00    -0.047 A 
ATOM      9  C9  IND d   1      -0.624  -2.250  -0.732  0.00  0.00    -0.096 A 
ATOM     10  HN1 IND d   1       0.603  -0.873  -3.185  0.00  0.00     0.298 HD
ENDROOT
TORSDOF 0
ENDMDL
