MODEL 1
REMARK minimizedAffinity 0.0907727554
REMARK minimizedRMSD -1
REMARK  0 active torsions:
REMARK  status: ('A' for Active; 'I' for Inactive)
ROOT
ATOM      1  N1  IND d   1       0.737   0.220  -0.505  0.00  0.00    -0.196 N 
ATOM      2  C2  IND d   1      -0.584   0.024  -0.214  0.00  0.00     0.054 A 
ATOM      3  C3  IND d   1      -1.077   1.081   0.470  0.00  0.00    -0.031 A 
ATOM      4  C4  IND d   1       0.078   3.284   1.131  0.00  0.00     0.051 A 
ATOM      5  C5  IND d   1       1.293   3.910   1.117  0.00  0.00    -0.031 A 
ATOM      6  C6  IND d   1       2.406   3.328   0.547  0.00  0.00     0.015 A 
ATOM      7  C7  IND d   1       2.344   2.096  -0.042  0.00  0.00    -0.016 A 
ATOM      8  C8  IND d   1       1.113   1.455  -0.023  0.00  0.00    -0.047 A 
ATOM      9  C9  IND d   1      -0.010   2.023   0.592  0.00  0.00    -0.096 A 
ATOM     10  HN1 IND d   1       1.247  -0.334  -0.919  0.00  0.00     0.298 HD
ENDROOT
TORSDOF 0
ENDMDL
