MODEL 1
REMARK minimizedAffinity 0.156568199
REMARK minimizedRMSD -1
REMARK  0 active torsions:
REMARK  status: ('A' for Active; 'I' for Inactive)
ROOT
ATOM      1  N1  IND d   1       0.219  -1.758  -2.616  0.00  0.00    -0.196 N 
ATOM      2  C2  IND d   1      -0.382  -2.985  -2.596  0.00  0.00     0.054 A 
ATOM      3  C3  IND d   1      -0.928  -3.222  -1.382  0.00  0.00    -0.031 A 
ATOM      4  C4  IND d   1      -1.045  -1.692   0.685  0.00  0.00     0.051 A 
ATOM      5  C5  IND d   1      -0.606  -0.488   1.160  0.00  0.00    -0.031 A 
ATOM      6  C6  IND d   1       0.142   0.373   0.384  0.00  0.00     0.015 A 
ATOM      7  C7  IND d   1       0.473   0.065  -0.905  0.00  0.00    -0.016 A 
ATOM      8  C8  IND d   1       0.035  -1.160  -1.389  0.00  0.00    -0.047 A 
ATOM      9  C9  IND d   1      -0.689  -2.056  -0.592  0.00  0.00    -0.096 A 
ATOM     10  HN1 IND d   1       0.641  -1.416  -3.283  0.00  0.00     0.298 HD
ENDROOT
TORSDOF 0
ENDMDL
