MODEL 1
REMARK minimizedAffinity -2.36199284
REMARK minimizedRMSD -1
REMARK  0 active torsions:
REMARK  status: ('A' for Active; 'I' for Inactive)
ROOT
ATOM      1  N1  IND d   1       0.009  -1.730  -2.349  0.00  0.00    -0.196 N 
ATOM      2  C2  IND d   1      -0.338  -3.052  -2.308  0.00  0.00     0.054 A 
ATOM      3  C3  IND d   1      -0.768  -3.387  -1.071  0.00  0.00    -0.031 A 
ATOM      4  C4  IND d   1      -1.079  -1.905   1.010  0.00  0.00     0.051 A 
ATOM      5  C5  IND d   1      -0.861  -0.637   1.472  0.00  0.00    -0.031 A 
ATOM      6  C6  IND d   1      -0.334   0.352   0.667  0.00  0.00     0.015 A 
ATOM      7  C7  IND d   1      -0.014   0.112  -0.639  0.00  0.00    -0.016 A 
ATOM      8  C8  IND d   1      -0.227  -1.176  -1.110  0.00  0.00    -0.047 A 
ATOM      9  C9  IND d   1      -0.722  -2.195  -0.286  0.00  0.00    -0.096 A 
ATOM     10  HN1 IND d   1       0.323  -1.315  -3.033  0.00  0.00     0.298 HD
ENDROOT
TORSDOF 0
ENDMDL
