MODEL 1
REMARK minimizedAffinity -4.0546813
REMARK minimizedRMSD -1
REMARK  0 active torsions:
REMARK  status: ('A' for Active; 'I' for Inactive)
ROOT
ATOM      1  N1  IND d   1       0.029   0.790  -0.636  0.00  0.00    -0.196 N 
ATOM      2  C2  IND d   1      -0.362   1.012   0.655  0.00  0.00     0.054 A 
ATOM      3  C3  IND d   1      -0.768  -0.144   1.228  0.00  0.00    -0.031 A 
ATOM      4  C4  IND d   1      -0.780  -2.531   0.265  0.00  0.00     0.051 A 
ATOM      5  C5  IND d   1      -0.549  -3.229  -0.886  0.00  0.00    -0.031 A 
ATOM      6  C6  IND d   1      -0.101  -2.611  -2.036  0.00  0.00     0.015 A 
ATOM      7  C7  IND d   1       0.143  -1.268  -2.074  0.00  0.00    -0.016 A 
ATOM      8  C8  IND d   1      -0.098  -0.554  -0.908  0.00  0.00    -0.047 A 
ATOM      9  C9  IND d   1      -0.592  -1.169   0.249  0.00  0.00    -0.096 A 
ATOM     10  HN1 IND d   1       0.306   1.390  -1.186  0.00  0.00     0.298 HD
ENDROOT
TORSDOF 0
ENDMDL
