MODEL 1
REMARK minimizedAffinity -4.56570721
REMARK minimizedRMSD -1
REMARK  0 active torsions:
REMARK  status: ('A' for Active; 'I' for Inactive)
ROOT
ATOM      1  N1  IND d   1       0.042  -1.509  -2.827  0.00  0.00    -0.196 N 
ATOM      2  C2  IND d   1      -0.150  -2.856  -2.961  0.00  0.00     0.054 A 
ATOM      3  C3  IND d   1      -0.525  -3.397  -1.780  0.00  0.00    -0.031 A 
ATOM      4  C4  IND d   1      -0.982  -2.245   0.476  0.00  0.00     0.051 A 
ATOM      5  C5  IND d   1      -0.908  -1.032   1.101  0.00  0.00    -0.031 A 
ATOM      6  C6  IND d   1      -0.507   0.108   0.434  0.00  0.00     0.015 A 
ATOM      7  C7  IND d   1      -0.175   0.079  -0.891  0.00  0.00    -0.016 A 
ATOM      8  C8  IND d   1      -0.243  -1.153  -1.527  0.00  0.00    -0.047 A 
ATOM      9  C9  IND d   1      -0.609  -2.321  -0.845  0.00  0.00    -0.096 A 
ATOM     10  HN1 IND d   1       0.298  -0.974  -3.449  0.00  0.00     0.298 HD
ENDROOT
TORSDOF 0
ENDMDL
