MODEL 1
REMARK minimizedAffinity -2.71135092
REMARK minimizedRMSD -1
REMARK  0 active torsions:
REMARK  status: ('A' for Active; 'I' for Inactive)
ROOT
ATOM      1  N1  IND d   1       0.232  -1.395  -2.479  0.00  0.00    -0.196 N 
ATOM      2  C2  IND d   1      -0.224  -2.619  -2.883  0.00  0.00     0.054 A 
ATOM      3  C3  IND d   1      -0.817  -3.263  -1.853  0.00  0.00    -0.031 A 
ATOM      4  C4  IND d   1      -1.241  -2.457   0.554  0.00  0.00     0.051 A 
ATOM      5  C5  IND d   1      -0.975  -1.422   1.406  0.00  0.00    -0.031 A 
ATOM      6  C6  IND d   1      -0.281  -0.301   0.997  0.00  0.00     0.015 A 
ATOM      7  C7  IND d   1       0.164  -0.168  -0.287  0.00  0.00    -0.016 A 
ATOM      8  C8  IND d   1      -0.098  -1.220  -1.153  0.00  0.00    -0.047 A 
ATOM      9  C9  IND d   1      -0.764  -2.379  -0.733  0.00  0.00    -0.096 A 
ATOM     10  HN1 IND d   1       0.654  -0.829  -2.971  0.00  0.00     0.298 HD
ENDROOT
TORSDOF 0
ENDMDL
