MODEL 1
REMARK minimizedAffinity -3.00021839
REMARK minimizedRMSD -1
REMARK  0 active torsions:
REMARK  status: ('A' for Active; 'I' for Inactive)
ROOT
ATOM      1  N1  IND d   1       0.449   0.484  -1.547  0.00  0.00    -0.196 N 
ATOM      2  C2  IND d   1       0.178   1.114  -0.364  0.00  0.00     0.054 A 
ATOM      3  C3  IND d   1      -0.349   0.241   0.523  0.00  0.00    -0.031 A 
ATOM      4  C4  IND d   1      -0.759  -2.289   0.283  0.00  0.00     0.051 A 
ATOM      5  C5  IND d   1      -0.703  -3.308  -0.627  0.00  0.00    -0.031 A 
ATOM      6  C6  IND d   1      -0.248  -3.111  -1.914  0.00  0.00     0.015 A 
ATOM      7  C7  IND d   1       0.180  -1.885  -2.339  0.00  0.00    -0.016 A 
ATOM      8  C8  IND d   1       0.118  -0.847  -1.421  0.00  0.00    -0.047 A 
ATOM      9  C9  IND d   1      -0.383  -1.031  -0.125  0.00  0.00    -0.096 A 
ATOM     10  HN1 IND d   1       0.772   0.857  -2.251  0.00  0.00     0.298 HD
ENDROOT
TORSDOF 0
ENDMDL
