MODEL 1
REMARK minimizedAffinity -0.207630053
REMARK minimizedRMSD -1
REMARK  0 active torsions:
REMARK  status: ('A' for Active; 'I' for Inactive)
ROOT
ATOM      1  N1  IND d   1       0.096  -1.140  -2.628  0.00  0.00    -0.196 N 
ATOM      2  C2  IND d   1      -0.220  -2.431  -2.946  0.00  0.00     0.054 A 
ATOM      3  C3  IND d   1      -0.747  -3.064  -1.873  0.00  0.00    -0.031 A 
ATOM      4  C4  IND d   1      -1.273  -2.143   0.473  0.00  0.00     0.051 A 
ATOM      5  C5  IND d   1      -1.127  -1.029   1.250  0.00  0.00    -0.031 A 
ATOM      6  C6  IND d   1      -0.557   0.130   0.764  0.00  0.00     0.015 A 
ATOM      7  C7  IND d   1      -0.120   0.221  -0.527  0.00  0.00    -0.016 A 
ATOM      8  C8  IND d   1      -0.260  -0.911  -1.317  0.00  0.00    -0.047 A 
ATOM      9  C9  IND d   1      -0.799  -2.103  -0.817  0.00  0.00    -0.096 A 
ATOM     10  HN1 IND d   1       0.458  -0.567  -3.158  0.00  0.00     0.298 HD
ENDROOT
TORSDOF 0
ENDMDL
