MODEL 1
REMARK minimizedAffinity -3.08648443
REMARK minimizedRMSD -1
REMARK  0 active torsions:
REMARK  status: ('A' for Active; 'I' for Inactive)
ROOT
ATOM      1  N1  IND d   1       0.004  -1.299  -2.731  0.00  0.00    -0.196 N 
ATOM      2  C2  IND d   1      -0.125  -2.625  -3.039  0.00  0.00     0.054 A 
ATOM      3  C3  IND d   1      -0.362  -3.346  -1.920  0.00  0.00    -0.031 A 
ATOM      4  C4  IND d   1      -0.679  -2.545   0.506  0.00  0.00     0.051 A 
ATOM      5  C5  IND d   1      -0.615  -1.426   1.288  0.00  0.00    -0.031 A 
ATOM      6  C6  IND d   1      -0.339  -0.181   0.759  0.00  0.00     0.015 A 
ATOM      7  C7  IND d   1      -0.127  -0.008  -0.580  0.00  0.00    -0.016 A 
ATOM      8  C8  IND d   1      -0.184  -1.143  -1.376  0.00  0.00    -0.047 A 
ATOM      9  C9  IND d   1      -0.421  -2.415  -0.838  0.00  0.00    -0.096 A 
ATOM     10  HN1 IND d   1       0.173  -0.668  -3.291  0.00  0.00     0.298 HD
ENDROOT
TORSDOF 0
ENDMDL
