MODEL 1
REMARK minimizedAffinity -3.96936226
REMARK minimizedRMSD -1
REMARK  0 active torsions:
REMARK  status: ('A' for Active; 'I' for Inactive)
ROOT
ATOM      1  N1  IND d   1      -0.290  -1.180  -2.476  0.00  0.00    -0.196 N 
ATOM      2  C2  IND d   1      -0.626  -2.487  -2.696  0.00  0.00     0.054 A 
ATOM      3  C3  IND d   1      -0.994  -3.079  -1.537  0.00  0.00    -0.031 A 
ATOM      4  C4  IND d   1      -1.217  -2.066   0.819  0.00  0.00     0.051 A 
ATOM      5  C5  IND d   1      -0.987  -0.919   1.524  0.00  0.00    -0.031 A 
ATOM      6  C6  IND d   1      -0.505   0.224   0.920  0.00  0.00     0.015 A 
ATOM      7  C7  IND d   1      -0.245   0.266  -0.421  0.00  0.00    -0.016 A 
ATOM      8  C8  IND d   1      -0.471  -0.900  -1.139  0.00  0.00    -0.047 A 
ATOM      9  C9  IND d   1      -0.920  -2.075  -0.524  0.00  0.00    -0.096 A 
ATOM     10  HN1 IND d   1      -0.011  -0.626  -3.072  0.00  0.00     0.298 HD
ENDROOT
TORSDOF 0
ENDMDL
