MODEL 1
REMARK minimizedAffinity -0.853057325
REMARK minimizedRMSD -1
REMARK  2 active torsions:
REMARK  status: ('A' for Active; 'I' for Inactive)
REMARK    1  A    between atoms: C2'_3  and  C1'_4 
REMARK    2  A    between atoms: C1'_4  and  C1_5 
ROOT
ATOM      1  C1  I4B d   1       5.463  -3.298  -3.277  0.00  0.00    -0.075 A 
ATOM      2  C2  I4B d   1       4.890  -4.215  -2.431  0.00  0.00     0.003 A 
ATOM      3  C3  I4B d   1       4.829  -5.582  -2.797  0.00  0.00     0.002 A 
ATOM      4  C4  I4B d   1       5.305  -5.977  -4.030  0.00  0.00    -0.004 A 
ATOM      5  C5  I4B d   1       5.907  -5.050  -4.877  0.00  0.00     0.002 A 
ATOM      6  C6  I4B d   1       5.997  -3.704  -4.493  0.00  0.00     0.003 A 
ENDROOT
BRANCH   1   7
ATOM      7  C1' I4B d   1       5.480  -1.858  -2.874  0.00  0.00     0.060 C 
BRANCH   7   8
ATOM      8  C2' I4B d   1       4.097  -1.498  -2.370  0.00  0.00    -0.013 C 
ATOM      9  C4' I4B d   1       4.147  -1.008  -0.946  0.00  0.00     0.013 C 
ATOM     10  C3' I4B d   1       3.529  -0.453  -3.283  0.00  0.00     0.013 C 
ENDBRANCH   7   8
ENDBRANCH   1   7
TORSDOF 2
ENDMDL
