MODEL 1
REMARK minimizedAffinity 6.94565201
REMARK minimizedRMSD -1
REMARK  2 active torsions:
REMARK  status: ('A' for Active; 'I' for Inactive)
REMARK    1  A    between atoms: C2'_3  and  C1'_4 
REMARK    2  A    between atoms: C1'_4  and  C1_5 
ROOT
ATOM      1  C1  I4B d   1       3.899  -3.492  -1.987  0.00  0.00    -0.075 A 
ATOM      2  C2  I4B d   1       3.623  -4.356  -3.018  0.00  0.00     0.003 A 
ATOM      3  C3  I4B d   1       3.042  -5.619  -2.752  0.00  0.00     0.002 A 
ATOM      4  C4  I4B d   1       2.802  -5.996  -1.447  0.00  0.00    -0.004 A 
ATOM      5  C5  I4B d   1       3.061  -5.110  -0.405  0.00  0.00     0.002 A 
ATOM      6  C6  I4B d   1       3.601  -3.845  -0.677  0.00  0.00     0.003 A 
ENDROOT
BRANCH   1   7
ATOM      7  C1' I4B d   1       4.542  -2.178  -2.300  0.00  0.00     0.060 C 
BRANCH   7   8
ATOM      8  C2' I4B d   1       3.560  -1.081  -1.944  0.00  0.00    -0.013 C 
ATOM      9  C4' I4B d   1       3.810  -0.555  -0.555  0.00  0.00     0.013 C 
ATOM     10  C3' I4B d   1       3.692   0.008  -2.967  0.00  0.00     0.013 C 
ENDBRANCH   7   8
ENDBRANCH   1   7
TORSDOF 2
ENDMDL
