MODEL 1
REMARK minimizedAffinity -1.13321018
REMARK minimizedRMSD -1
REMARK  2 active torsions:
REMARK  status: ('A' for Active; 'I' for Inactive)
REMARK    1  A    between atoms: C2'_3  and  C1'_4 
REMARK    2  A    between atoms: C1'_4  and  C1_5 
ROOT
ATOM      1  C1  I4B d   1       2.758  -5.997  -3.217  0.00  0.00    -0.075 A 
ATOM      2  C2  I4B d   1       1.788  -5.978  -4.188  0.00  0.00     0.003 A 
ATOM      3  C3  I4B d   1       2.149  -5.949  -5.557  0.00  0.00     0.002 A 
ATOM      4  C4  I4B d   1       3.483  -5.889  -5.906  0.00  0.00    -0.004 A 
ATOM      5  C5  I4B d   1       4.466  -5.931  -4.921  0.00  0.00     0.002 A 
ATOM      6  C6  I4B d   1       4.102  -5.998  -3.569  0.00  0.00     0.003 A 
ENDROOT
BRANCH   1   7
ATOM      7  C1' I4B d   1       2.341  -5.994  -1.781  0.00  0.00     0.060 C 
BRANCH   7   8
ATOM      8  C2' I4B d   1       3.539  -5.587  -0.947  0.00  0.00    -0.013 C 
ATOM      9  C4' I4B d   1       3.793  -4.106  -1.045  0.00  0.00     0.013 C 
ATOM     10  C3' I4B d   1       3.278  -6.000   0.471  0.00  0.00     0.013 C 
ENDBRANCH   7   8
ENDBRANCH   1   7
TORSDOF 2
ENDMDL
