MODEL 1
REMARK minimizedAffinity 6.77591133
REMARK minimizedRMSD -1
REMARK  2 active torsions:
REMARK  status: ('A' for Active; 'I' for Inactive)
REMARK    1  A    between atoms: C2'_3  and  C1'_4 
REMARK    2  A    between atoms: C1'_4  and  C1_5 
ROOT
ATOM      1  C1  I4B d   1       4.366  -5.884  -3.399  0.00  0.00    -0.075 A 
ATOM      2  C2  I4B d   1       2.994  -5.914  -3.432  0.00  0.00     0.003 A 
ATOM      3  C3  I4B d   1       2.312  -5.998  -4.670  0.00  0.00     0.002 A 
ATOM      4  C4  I4B d   1       3.036  -5.999  -5.845  0.00  0.00    -0.004 A 
ATOM      5  C5  I4B d   1       4.427  -5.993  -5.809  0.00  0.00     0.002 A 
ATOM      6  C6  I4B d   1       5.097  -5.947  -4.578  0.00  0.00     0.003 A 
ENDROOT
BRANCH   1   7
ATOM      7  C1' I4B d   1       5.053  -5.762  -2.075  0.00  0.00     0.060 C 
BRANCH   7   8
ATOM      8  C2' I4B d   1       4.169  -4.933  -1.166  0.00  0.00    -0.013 C 
ATOM      9  C4' I4B d   1       3.643  -3.715  -1.878  0.00  0.00     0.013 C 
ATOM     10  C3' I4B d   1       3.047  -5.807  -0.688  0.00  0.00     0.013 C 
ENDBRANCH   7   8
ENDBRANCH   1   7
TORSDOF 2
ENDMDL
