MODEL 1
REMARK minimizedAffinity -5.194345
REMARK minimizedRMSD -1
REMARK  0 active torsions:
REMARK  status: ('A' for Active; 'I' for Inactive)
ROOT
ATOM      1  C   UNL d   1       3.400   0.023  -1.427  0.00  0.00    -0.002 A 
ATOM      2  C1  UNL d   1       2.663   0.438  -2.527  0.00  0.00     0.010 A 
ATOM      3  C2  UNL d   1       1.289   0.661  -2.419  0.00  0.00     0.041 A 
ATOM      4  C3  UNL d   1       0.662   0.459  -1.173  0.00  0.00    -0.075 A 
ATOM      5  S   UNL d   1      -1.009   0.671  -0.804  0.00  0.00     0.015 SA
ATOM      6  C4  UNL d   1      -0.783   0.216   0.823  0.00  0.00     0.022 A 
ATOM      7  C5  UNL d   1       0.529  -0.093   1.095  0.00  0.00     0.026 A 
ATOM      8  C6  UNL d   1       1.383   0.043  -0.051  0.00  0.00    -0.082 A 
ATOM      9  C7  UNL d   1       2.775  -0.176  -0.193  0.00  0.00     0.045 A 
ENDROOT
TORSDOF 0
ENDMDL
