MODEL 1
REMARK minimizedAffinity -2.47714877
REMARK minimizedRMSD -1
REMARK  0 active torsions:
REMARK  status: ('A' for Active; 'I' for Inactive)
ROOT
ATOM      1  C   UNL d   1       1.805  -1.552  -1.216  0.00  0.00    -0.002 A 
ATOM      2  C1  UNL d   1       2.122  -0.519  -2.087  0.00  0.00     0.010 A 
ATOM      3  C2  UNL d   1       1.390   0.670  -2.075  0.00  0.00     0.041 A 
ATOM      4  C3  UNL d   1       0.323   0.804  -1.164  0.00  0.00    -0.075 A 
ATOM      5  S   UNL d   1      -0.712   2.169  -0.971  0.00  0.00     0.015 SA
ATOM      6  C4  UNL d   1      -1.600   1.413   0.273  0.00  0.00     0.022 A 
ATOM      7  C5  UNL d   1      -1.131   0.149   0.546  0.00  0.00     0.026 A 
ATOM      8  C6  UNL d   1      -0.015  -0.222  -0.278  0.00  0.00    -0.082 A 
ATOM      9  C7  UNL d   1       0.747  -1.415  -0.314  0.00  0.00     0.045 A 
ENDROOT
TORSDOF 0
ENDMDL
