MODEL 1
REMARK minimizedAffinity -2.74696898
REMARK minimizedRMSD -1
REMARK  0 active torsions:
REMARK  status: ('A' for Active; 'I' for Inactive)
ROOT
ATOM      1  C   UNL d   1       2.673  -1.344  -1.063  0.00  0.00    -0.002 A 
ATOM      2  C1  UNL d   1       2.665  -0.174  -1.809  0.00  0.00     0.010 A 
ATOM      3  C2  UNL d   1       1.616   0.739  -1.686  0.00  0.00     0.041 A 
ATOM      4  C3  UNL d   1       0.566   0.454  -0.791  0.00  0.00    -0.075 A 
ATOM      5  S   UNL d   1      -0.822   1.426  -0.474  0.00  0.00     0.015 SA
ATOM      6  C4  UNL d   1      -1.437   0.311   0.659  0.00  0.00     0.022 A 
ATOM      7  C5  UNL d   1      -0.616  -0.782   0.804  0.00  0.00     0.026 A 
ATOM      8  C6  UNL d   1       0.552  -0.717  -0.028  0.00  0.00    -0.082 A 
ATOM      9  C7  UNL d   1       1.630  -1.623  -0.176  0.00  0.00     0.045 A 
ENDROOT
TORSDOF 0
ENDMDL
