MODEL 1
REMARK minimizedAffinity -3.76587653
REMARK minimizedRMSD -1
REMARK  0 active torsions:
REMARK  status: ('A' for Active; 'I' for Inactive)
ROOT
ATOM      1  C   UNL d   1       3.119   0.154  -2.312  0.00  0.00    -0.002 A 
ATOM      2  C1  UNL d   1       2.602   1.404  -2.623  0.00  0.00     0.010 A 
ATOM      3  C2  UNL d   1       1.421   1.852  -2.029  0.00  0.00     0.041 A 
ATOM      4  C3  UNL d   1       0.761   1.015  -1.108  0.00  0.00    -0.075 A 
ATOM      5  S   UNL d   1      -0.700   1.354  -0.257  0.00  0.00     0.015 SA
ATOM      6  C4  UNL d   1      -0.673  -0.153   0.540  0.00  0.00     0.022 A 
ATOM      7  C5  UNL d   1       0.417  -0.908   0.177  0.00  0.00     0.026 A 
ATOM      8  C6  UNL d   1       1.261  -0.248  -0.779  0.00  0.00    -0.082 A 
ATOM      9  C7  UNL d   1       2.461  -0.674  -1.398  0.00  0.00     0.045 A 
ENDROOT
TORSDOF 0
ENDMDL
