MODEL 1
REMARK minimizedAffinity 2.13072109
REMARK minimizedRMSD -1
REMARK  0 active torsions:
REMARK  status: ('A' for Active; 'I' for Inactive)
ROOT
ATOM      1  C   UNL d   1      -0.790  -0.100   3.672  0.00  0.00    -0.002 A 
ATOM      2  C1  UNL d   1      -1.401   1.050   3.192  0.00  0.00     0.010 A 
ATOM      3  C2  UNL d   1      -1.374   1.352   1.829  0.00  0.00     0.041 A 
ATOM      4  C3  UNL d   1      -0.720   0.469   0.947  0.00  0.00    -0.075 A 
ATOM      5  S   UNL d   1      -0.561   0.633  -0.761  0.00  0.00     0.015 SA
ATOM      6  C4  UNL d   1       0.320  -0.820  -0.895  0.00  0.00     0.022 A 
ATOM      7  C5  UNL d   1       0.498  -1.428   0.325  0.00  0.00     0.026 A 
ATOM      8  C6  UNL d   1      -0.099  -0.696   1.407  0.00  0.00    -0.082 A 
ATOM      9  C7  UNL d   1      -0.142  -0.973   2.795  0.00  0.00     0.045 A 
ENDROOT
TORSDOF 0
ENDMDL
