MODEL 1
REMARK minimizedAffinity -5.25310659
REMARK minimizedRMSD -1
REMARK  0 active torsions:
REMARK  status: ('A' for Active; 'I' for Inactive)
ROOT
ATOM      1  C   UNL d   1       3.199   0.158  -2.134  0.00  0.00    -0.002 A 
ATOM      2  C1  UNL d   1       2.480   1.345  -2.148  0.00  0.00     0.010 A 
ATOM      3  C2  UNL d   1       1.225   1.423  -1.541  0.00  0.00     0.041 A 
ATOM      4  C3  UNL d   1       0.700   0.276  -0.914  0.00  0.00    -0.075 A 
ATOM      5  S   UNL d   1      -0.817   0.136  -0.106  0.00  0.00     0.015 SA
ATOM      6  C4  UNL d   1      -0.547  -1.503   0.276  0.00  0.00     0.022 A 
ATOM      7  C5  UNL d   1       0.666  -1.949  -0.193  0.00  0.00     0.026 A 
ATOM      8  C6  UNL d   1       1.405  -0.931  -0.886  0.00  0.00    -0.082 A 
ATOM      9  C7  UNL d   1       2.674  -0.977  -1.511  0.00  0.00     0.045 A 
ENDROOT
TORSDOF 0
ENDMDL
