MODEL 1
REMARK minimizedAffinity 0.077170983
REMARK minimizedRMSD -1
REMARK  0 active torsions:
REMARK  status: ('A' for Active; 'I' for Inactive)
ROOT
ATOM      1  C   UNL d   1       4.533   0.149   4.915  0.00  0.00    -0.002 A 
ATOM      2  C1  UNL d   1       5.253  -0.335   5.998  0.00  0.00     0.010 A 
ATOM      3  C2  UNL d   1       5.739  -1.644   6.000  0.00  0.00     0.041 A 
ATOM      4  C3  UNL d   1       5.488  -2.466   4.883  0.00  0.00    -0.075 A 
ATOM      5  S   UNL d   1       5.986  -4.102   4.664  0.00  0.00     0.015 SA
ATOM      6  C4  UNL d   1       5.255  -4.197   3.127  0.00  0.00     0.022 A 
ATOM      7  C5  UNL d   1       4.641  -3.018   2.775  0.00  0.00     0.026 A 
ATOM      8  C6  UNL d   1       4.766  -2.001   3.781  0.00  0.00    -0.082 A 
ATOM      9  C7  UNL d   1       4.286  -0.670   3.809  0.00  0.00     0.045 A 
ENDROOT
TORSDOF 0
ENDMDL
