MODEL 1
REMARK minimizedAffinity -4.54568386
REMARK minimizedRMSD -1
REMARK  0 active torsions:
REMARK  status: ('A' for Active; 'I' for Inactive)
ROOT
ATOM      1  C   UNL d   1       4.784  -1.527   4.148  0.00  0.00    -0.002 A 
ATOM      2  C1  UNL d   1       3.765  -2.088   3.392  0.00  0.00     0.010 A 
ATOM      3  C2  UNL d   1       3.510  -3.460   3.449  0.00  0.00     0.041 A 
ATOM      4  C3  UNL d   1       4.305  -4.266   4.289  0.00  0.00    -0.075 A 
ATOM      5  S   UNL d   1       4.176  -5.970   4.520  0.00  0.00     0.015 SA
ATOM      6  C4  UNL d   1       5.470  -5.993   5.628  0.00  0.00     0.022 A 
ATOM      7  C5  UNL d   1       6.000  -4.740   5.828  0.00  0.00     0.026 A 
ATOM      8  C6  UNL d   1       5.337  -3.724   5.060  0.00  0.00    -0.082 A 
ATOM      9  C7  UNL d   1       5.570  -2.330   4.979  0.00  0.00     0.045 A 
ENDROOT
TORSDOF 0
ENDMDL
