MODEL 1
REMARK minimizedAffinity -2.73502302
REMARK minimizedRMSD -1
REMARK  0 active torsions:
REMARK  status: ('A' for Active; 'I' for Inactive)
ROOT
ATOM      1  C   UNL d   1       2.449   1.047  -2.703  0.00  0.00    -0.002 A 
ATOM      2  C1  UNL d   1       1.584   1.938  -2.084  0.00  0.00     0.010 A 
ATOM      3  C2  UNL d   1       0.631   1.484  -1.171  0.00  0.00     0.041 A 
ATOM      4  C3  UNL d   1       0.561   0.106  -0.887  0.00  0.00    -0.075 A 
ATOM      5  S   UNL d   1      -0.525  -0.678   0.198  0.00  0.00     0.015 SA
ATOM      6  C4  UNL d   1       0.134  -2.214  -0.134  0.00  0.00     0.022 A 
ATOM      7  C5  UNL d   1       1.159  -2.149  -1.048  0.00  0.00     0.026 A 
ATOM      8  C6  UNL d   1       1.423  -0.811  -1.496  0.00  0.00    -0.082 A 
ATOM      9  C7  UNL d   1       2.378  -0.319  -2.418  0.00  0.00     0.045 A 
ENDROOT
TORSDOF 0
ENDMDL
