MODEL 1
REMARK minimizedAffinity -3.29527283
REMARK minimizedRMSD -1
REMARK  0 active torsions:
REMARK  status: ('A' for Active; 'I' for Inactive)
ROOT
ATOM      1  C   UNL d   1       2.553  -1.257  -2.095  0.00  0.00    -0.002 A 
ATOM      2  C1  UNL d   1       2.626   0.059  -2.530  0.00  0.00     0.010 A 
ATOM      3  C2  UNL d   1       1.684   1.000  -2.108  0.00  0.00     0.041 A 
ATOM      4  C3  UNL d   1       0.659   0.592  -1.231  0.00  0.00    -0.075 A 
ATOM      5  S   UNL d   1      -0.604   1.570  -0.582  0.00  0.00     0.015 SA
ATOM      6  C4  UNL d   1      -1.269   0.265   0.289  0.00  0.00     0.022 A 
ATOM      7  C5  UNL d   1      -0.558  -0.897   0.100  0.00  0.00     0.026 A 
ATOM      8  C6  UNL d   1       0.565  -0.727  -0.779  0.00  0.00    -0.082 A 
ATOM      9  C7  UNL d   1       1.535  -1.657  -1.225  0.00  0.00     0.045 A 
ENDROOT
TORSDOF 0
ENDMDL
