MODEL 1
REMARK minimizedAffinity -1.2658453
REMARK minimizedRMSD -1
REMARK  0 active torsions:
REMARK  status: ('A' for Active; 'I' for Inactive)
ROOT
ATOM      1  C1  DEN d   1      -0.916   3.261  -1.837  0.00  0.00     0.130 A 
ATOM      2  C2  DEN d   1      -0.361   3.590  -3.147  0.00  0.00    -0.031 A 
ATOM      3  C3  DEN d   1       0.372   2.408  -3.643  0.00  0.00     0.027 A 
ATOM      4  C4  DEN d   1       0.694   0.109  -2.519  0.00  0.00     0.027 A 
ATOM      5  C5  DEN d   1       0.418  -0.640  -1.396  0.00  0.00    -0.003 A 
ATOM      6  C6  DEN d   1      -0.287  -0.135  -0.336  0.00  0.00     0.001 A 
ATOM      7  C7  DEN d   1      -0.779   1.142  -0.396  0.00  0.00     0.017 A 
ATOM      8  C8  DEN d   1      -0.499   1.906  -1.521  0.00  0.00    -0.094 A 
ATOM      9  C9  DEN d   1       0.205   1.373  -2.587  0.00  0.00    -0.072 A 
ENDROOT
TORSDOF 0
ENDMDL
