MODEL 1
REMARK minimizedAffinity -5.26739979
REMARK minimizedRMSD -1
REMARK  0 active torsions:
REMARK  status: ('A' for Active; 'I' for Inactive)
ROOT
ATOM      1  C1  DEN d   1       1.766  -0.998  -0.685  0.00  0.00     0.130 A 
ATOM      2  C2  DEN d   1       0.686  -0.854  -1.657  0.00  0.00    -0.031 A 
ATOM      3  C3  DEN d   1      -0.557  -0.555  -0.918  0.00  0.00     0.027 A 
ATOM      4  C4  DEN d   1      -0.911  -0.298   1.624  0.00  0.00     0.027 A 
ATOM      5  C5  DEN d   1      -0.292  -0.344   2.854  0.00  0.00    -0.003 A 
ATOM      6  C6  DEN d   1       1.038  -0.642   2.992  0.00  0.00     0.001 A 
ATOM      7  C7  DEN d   1       1.803  -0.861   1.877  0.00  0.00     0.017 A 
ATOM      8  C8  DEN d   1       1.185  -0.825   0.634  0.00  0.00    -0.094 A 
ATOM      9  C9  DEN d   1      -0.158  -0.509   0.515  0.00  0.00    -0.072 A 
ENDROOT
TORSDOF 0
ENDMDL
