MODEL 1
REMARK minimizedAffinity -4.36563301
REMARK minimizedRMSD -1
REMARK  0 active torsions:
REMARK  status: ('A' for Active; 'I' for Inactive)
ROOT
ATOM      1  C1  DEN d   1       1.691  -0.281   2.065  0.00  0.00     0.130 A 
ATOM      2  C2  DEN d   1       0.948  -0.581   3.286  0.00  0.00    -0.031 A 
ATOM      3  C3  DEN d   1      -0.493  -0.548   2.962  0.00  0.00     0.027 A 
ATOM      4  C4  DEN d   1      -1.638  -0.070   0.701  0.00  0.00     0.027 A 
ATOM      5  C5  DEN d   1      -1.422   0.249  -0.621  0.00  0.00    -0.003 A 
ATOM      6  C6  DEN d   1      -0.165   0.446  -1.129  0.00  0.00     0.001 A 
ATOM      7  C7  DEN d   1       0.928   0.280  -0.319  0.00  0.00     0.017 A 
ATOM      8  C8  DEN d   1       0.717  -0.034   1.017  0.00  0.00    -0.094 A 
ATOM      9  C9  DEN d   1      -0.560  -0.240   1.508  0.00  0.00    -0.072 A 
ENDROOT
TORSDOF 0
ENDMDL
