MODEL 1
REMARK minimizedAffinity -4.57250118
REMARK minimizedRMSD -1
REMARK  0 active torsions:
REMARK  status: ('A' for Active; 'I' for Inactive)
ROOT
ATOM      1  C1  DEN d   1      -1.184   0.154   0.342  0.00  0.00     0.130 A 
ATOM      2  C2  DEN d   1      -0.672   0.378  -1.007  0.00  0.00    -0.031 A 
ATOM      3  C3  DEN d   1       0.782   0.123  -0.992  0.00  0.00     0.027 A 
ATOM      4  C4  DEN d   1       2.283  -0.596   0.979  0.00  0.00     0.027 A 
ATOM      5  C5  DEN d   1       2.303  -0.899   2.322  0.00  0.00    -0.003 A 
ATOM      6  C6  DEN d   1       1.178  -0.839   3.101  0.00  0.00     0.001 A 
ATOM      7  C7  DEN d   1      -0.025  -0.512   2.532  0.00  0.00     0.017 A 
ATOM      8  C8  DEN d   1      -0.052  -0.198   1.180  0.00  0.00    -0.094 A 
ATOM      9  C9  DEN d   1       1.094  -0.277   0.407  0.00  0.00    -0.072 A 
ENDROOT
TORSDOF 0
ENDMDL
