MODEL 1
REMARK minimizedAffinity -1.37642264
REMARK minimizedRMSD -1
REMARK  0 active torsions:
REMARK  status: ('A' for Active; 'I' for Inactive)
ROOT
ATOM      1  C1  DEN d   1       2.028  -0.367   1.687  0.00  0.00     0.130 A 
ATOM      2  C2  DEN d   1       1.458  -1.306   2.649  0.00  0.00    -0.031 A 
ATOM      3  C3  DEN d   1       0.050  -1.546   2.273  0.00  0.00     0.027 A 
ATOM      4  C4  DEN d   1      -1.294  -0.563   0.304  0.00  0.00     0.027 A 
ATOM      5  C5  DEN d   1      -1.241   0.288  -0.778  0.00  0.00    -0.003 A 
ATOM      6  C6  DEN d   1      -0.114   1.001  -1.091  0.00  0.00     0.001 A 
ATOM      7  C7  DEN d   1       1.020   0.841  -0.340  0.00  0.00     0.017 A 
ATOM      8  C8  DEN d   1       0.972  -0.010   0.756  0.00  0.00    -0.094 A 
ATOM      9  C9  DEN d   1      -0.173  -0.731   1.049  0.00  0.00    -0.072 A 
ENDROOT
TORSDOF 0
ENDMDL
