MODEL 1
REMARK minimizedAffinity -4.31348753
REMARK minimizedRMSD -1
REMARK  0 active torsions:
REMARK  status: ('A' for Active; 'I' for Inactive)
ROOT
ATOM      1  C1  DEN d   1       0.243   0.645  -0.602  0.00  0.00     0.130 A 
ATOM      2  C2  DEN d   1      -1.124   0.154  -0.751  0.00  0.00    -0.031 A 
ATOM      3  C3  DEN d   1      -1.457  -0.641   0.448  0.00  0.00     0.027 A 
ATOM      4  C4  DEN d   1       0.004  -1.155   2.511  0.00  0.00     0.027 A 
ATOM      5  C5  DEN d   1       1.241  -0.966   3.086  0.00  0.00    -0.003 A 
ATOM      6  C6  DEN d   1       2.236  -0.261   2.461  0.00  0.00     0.001 A 
ATOM      7  C7  DEN d   1       1.995   0.319   1.244  0.00  0.00     0.017 A 
ATOM      8  C8  DEN d   1       0.753   0.127   0.655  0.00  0.00    -0.094 A 
ATOM      9  C9  DEN d   1      -0.244  -0.579   1.307  0.00  0.00    -0.072 A 
ENDROOT
TORSDOF 0
ENDMDL
