MODEL 1
REMARK minimizedAffinity -1.21068215
REMARK minimizedRMSD -1
REMARK  0 active torsions:
REMARK  status: ('A' for Active; 'I' for Inactive)
ROOT
ATOM      1  C1  DEN d   1       1.157   0.419  -1.108  0.00  0.00     0.130 A 
ATOM      2  C2  DEN d   1       0.239  -0.034  -0.067  0.00  0.00    -0.031 A 
ATOM      3  C3  DEN d   1      -1.049   0.663  -0.259  0.00  0.00     0.027 A 
ATOM      4  C4  DEN d   1      -1.708   2.387  -2.061  0.00  0.00     0.027 A 
ATOM      5  C5  DEN d   1      -1.260   3.095  -3.154  0.00  0.00    -0.003 A 
ATOM      6  C6  DEN d   1       0.025   2.988  -3.617  0.00  0.00     0.001 A 
ATOM      7  C7  DEN d   1       0.894   2.119  -3.013  0.00  0.00     0.017 A 
ATOM      8  C8  DEN d   1       0.452   1.407  -1.905  0.00  0.00    -0.094 A 
ATOM      9  C9  DEN d   1      -0.854   1.520  -1.460  0.00  0.00    -0.072 A 
ENDROOT
TORSDOF 0
ENDMDL
