MODEL 1
REMARK minimizedAffinity -3.69878125
REMARK minimizedRMSD -1
REMARK  0 active torsions:
REMARK  status: ('A' for Active; 'I' for Inactive)
ROOT
ATOM      1  C1  DEN d   1      -1.232   0.999   0.295  0.00  0.00     0.130 A 
ATOM      2  C2  DEN d   1      -0.902   1.120  -1.122  0.00  0.00    -0.031 A 
ATOM      3  C3  DEN d   1       0.357   0.386  -1.362  0.00  0.00     0.027 A 
ATOM      4  C4  DEN d   1       1.816  -0.923   0.314  0.00  0.00     0.027 A 
ATOM      5  C5  DEN d   1       1.948  -1.299   1.633  0.00  0.00    -0.003 A 
ATOM      6  C6  DEN d   1       1.056  -0.910   2.596  0.00  0.00     0.001 A 
ATOM      7  C7  DEN d   1      -0.035  -0.158   2.247  0.00  0.00     0.017 A 
ATOM      8  C8  DEN d   1      -0.171   0.231   0.921  0.00  0.00    -0.094 A 
ATOM      9  C9  DEN d   1       0.735  -0.183  -0.040  0.00  0.00    -0.072 A 
ENDROOT
TORSDOF 0
ENDMDL
