MODEL 1
REMARK minimizedAffinity 2.67302895
REMARK minimizedRMSD -1
REMARK  1 active torsions:
REMARK  status: ('A' for Active; 'I' for Inactive)
REMARK    1  A    between atoms: C1_2  and  C2_3 
ROOT
ATOM      1  C2  UNL d   1      -0.208  -1.684   2.915  0.00  0.00    -0.077 A 
ATOM      2  C3  UNL d   1      -0.854  -1.766   1.673  0.00  0.00     0.002 A 
ATOM      3  C4  UNL d   1      -1.901  -0.896   1.362  0.00  0.00     0.002 A 
ATOM      4  C5  UNL d   1      -2.308   0.064   2.286  0.00  0.00    -0.004 A 
ATOM      5  C6  UNL d   1      -1.673   0.153   3.524  0.00  0.00     0.002 A 
ATOM      6  C7  UNL d   1      -0.628  -0.717   3.837  0.00  0.00     0.002 A 
ENDROOT
BRANCH   1   7
ATOM      7  C1  UNL d   1       0.953  -2.590   3.232  0.00  0.00     0.055 C 
ATOM      8  C   UNL d   1       2.281  -1.920   2.911  0.00  0.00     0.019 C 
ENDBRANCH   1   7
TORSDOF 1
ENDMDL
