MODEL 1
REMARK minimizedAffinity 10.9175692
REMARK minimizedRMSD -1
REMARK  1 active torsions:
REMARK  status: ('A' for Active; 'I' for Inactive)
REMARK    1  A    between atoms: C1_2  and  C2_3 
ROOT
ATOM      1  C2  UNL d   1      -0.786  -1.021   1.564  0.00  0.00    -0.077 A 
ATOM      2  C3  UNL d   1      -1.435  -2.075   0.906  0.00  0.00     0.002 A 
ATOM      3  C4  UNL d   1      -2.729  -1.907   0.409  0.00  0.00     0.002 A 
ATOM      4  C5  UNL d   1      -3.382  -0.686   0.560  0.00  0.00    -0.004 A 
ATOM      5  C6  UNL d   1      -2.745   0.368   1.215  0.00  0.00     0.002 A 
ATOM      6  C7  UNL d   1      -1.453   0.201   1.713  0.00  0.00     0.002 A 
ENDROOT
BRANCH   1   7
ATOM      7  C1  UNL d   1       0.628  -1.185   2.057  0.00  0.00     0.055 C 
ATOM      8  C   UNL d   1       1.070  -2.640   1.999  0.00  0.00     0.019 C 
ENDBRANCH   1   7
TORSDOF 1
ENDMDL
