MODEL 1
REMARK minimizedAffinity 1.98894215
REMARK minimizedRMSD -1
REMARK  1 active torsions:
REMARK  status: ('A' for Active; 'I' for Inactive)
REMARK    1  A    between atoms: C1_2  and  C2_3 
ROOT
ATOM      1  C2  UNL d   1       2.271   5.280  -2.811  0.00  0.00    -0.077 A 
ATOM      2  C3  UNL d   1       3.371   5.994  -2.315  0.00  0.00     0.002 A 
ATOM      3  C4  UNL d   1       4.590   5.349  -2.096  0.00  0.00     0.002 A 
ATOM      4  C5  UNL d   1       4.722   3.991  -2.375  0.00  0.00    -0.004 A 
ATOM      5  C6  UNL d   1       3.633   3.272  -2.867  0.00  0.00     0.002 A 
ATOM      6  C7  UNL d   1       2.413   3.914  -3.085  0.00  0.00     0.002 A 
ENDROOT
BRANCH   1   7
ATOM      7  C1  UNL d   1       0.969   5.984  -3.095  0.00  0.00     0.055 C 
ATOM      8  C   UNL d   1       0.429   5.616  -4.469  0.00  0.00     0.019 C 
ENDBRANCH   1   7
TORSDOF 1
ENDMDL
