MODEL 1
REMARK minimizedAffinity 2.02557492
REMARK minimizedRMSD -1
REMARK  1 active torsions:
REMARK  status: ('A' for Active; 'I' for Inactive)
REMARK    1  A    between atoms: C1_2  and  C2_3 
ROOT
ATOM      1  C2  UNL d   1      -5.770  -4.197   4.121  0.00  0.00    -0.077 A 
ATOM      2  C3  UNL d   1      -5.998  -5.541   3.792  0.00  0.00     0.002 A 
ATOM      3  C4  UNL d   1      -5.762  -6.000   2.495  0.00  0.00     0.002 A 
ATOM      4  C5  UNL d   1      -5.292  -5.124   1.519  0.00  0.00    -0.004 A 
ATOM      5  C6  UNL d   1      -5.064  -3.786   1.836  0.00  0.00     0.002 A 
ATOM      6  C7  UNL d   1      -5.301  -3.324   3.131  0.00  0.00     0.002 A 
ENDROOT
BRANCH   1   7
ATOM      7  C1  UNL d   1      -5.978  -3.711   5.532  0.00  0.00     0.055 C 
ATOM      8  C   UNL d   1      -5.586  -2.248   5.676  0.00  0.00     0.019 C 
ENDBRANCH   1   7
TORSDOF 1
ENDMDL
