MODEL 1
REMARK minimizedAffinity 12.8475828
REMARK minimizedRMSD -1
REMARK  1 active torsions:
REMARK  status: ('A' for Active; 'I' for Inactive)
REMARK    1  A    between atoms: C1_2  and  C2_3 
ROOT
ATOM      1  C2  UNL d   1      -0.100  -1.199   2.369  0.00  0.00    -0.077 A 
ATOM      2  C3  UNL d   1      -0.792  -1.766   1.289  0.00  0.00     0.002 A 
ATOM      3  C4  UNL d   1      -2.080  -1.333   0.971  0.00  0.00     0.002 A 
ATOM      4  C5  UNL d   1      -2.687  -0.330   1.724  0.00  0.00    -0.004 A 
ATOM      5  C6  UNL d   1      -2.008   0.238   2.802  0.00  0.00     0.002 A 
ATOM      6  C7  UNL d   1      -0.720  -0.194   3.122  0.00  0.00     0.002 A 
ENDROOT
BRANCH   1   7
ATOM      7  C1  UNL d   1       1.309  -1.630   2.684  0.00  0.00     0.055 C 
ATOM      8  C   UNL d   1       1.333  -2.689   3.777  0.00  0.00     0.019 C 
ENDBRANCH   1   7
TORSDOF 1
ENDMDL
