MODEL 1
REMARK minimizedAffinity 3.70164943
REMARK minimizedRMSD -1
REMARK  1 active torsions:
REMARK  status: ('A' for Active; 'I' for Inactive)
REMARK    1  A    between atoms: C1_2  and  C2_3 
ROOT
ATOM      1  C2  UNL d   1      -3.242   0.442   0.801  0.00  0.00    -0.077 A 
ATOM      2  C3  UNL d   1      -2.207  -0.343   0.274  0.00  0.00     0.002 A 
ATOM      3  C4  UNL d   1      -1.291  -0.967   1.124  0.00  0.00     0.002 A 
ATOM      4  C5  UNL d   1      -1.405  -0.816   2.505  0.00  0.00    -0.004 A 
ATOM      5  C6  UNL d   1      -2.430  -0.036   3.038  0.00  0.00     0.002 A 
ATOM      6  C7  UNL d   1      -3.345   0.589   2.190  0.00  0.00     0.002 A 
ENDROOT
BRANCH   1   7
ATOM      7  C1  UNL d   1      -4.260   1.075  -0.112  0.00  0.00     0.055 C 
ATOM      8  C   UNL d   1      -5.666   0.948   0.455  0.00  0.00     0.019 C 
ENDBRANCH   1   7
TORSDOF 1
ENDMDL
