MODEL 1
REMARK minimizedAffinity 10.5910521
REMARK minimizedRMSD -1
REMARK  1 active torsions:
REMARK  status: ('A' for Active; 'I' for Inactive)
REMARK    1  A    between atoms: C1_2  and  C2_3 
ROOT
ATOM      1  C2  UNL d   1       4.731   3.769  -2.586  0.00  0.00    -0.077 A 
ATOM      2  C3  UNL d   1       4.033   3.495  -3.770  0.00  0.00     0.002 A 
ATOM      3  C4  UNL d   1       2.843   2.765  -3.736  0.00  0.00     0.002 A 
ATOM      4  C5  UNL d   1       2.339   2.308  -2.520  0.00  0.00    -0.004 A 
ATOM      5  C6  UNL d   1       3.027   2.573  -1.337  0.00  0.00     0.002 A 
ATOM      6  C7  UNL d   1       4.218   3.301  -1.369  0.00  0.00     0.002 A 
ENDROOT
BRANCH   1   7
ATOM      7  C1  UNL d   1       5.989   4.597  -2.615  0.00  0.00     0.055 C 
ATOM      8  C   UNL d   1       5.992   5.638  -1.505  0.00  0.00     0.019 C 
ENDBRANCH   1   7
TORSDOF 1
ENDMDL
