MODEL 1
REMARK minimizedAffinity 15.4447041
REMARK minimizedRMSD -1
REMARK  1 active torsions:
REMARK  status: ('A' for Active; 'I' for Inactive)
REMARK    1  A    between atoms: C1_2  and  C2_3 
ROOT
ATOM      1  C2  UNL d   1      -0.399  -0.753   3.173  0.00  0.00    -0.077 A 
ATOM      2  C3  UNL d   1      -1.252   0.150   2.524  0.00  0.00     0.002 A 
ATOM      3  C4  UNL d   1      -1.768  -0.149   1.261  0.00  0.00     0.002 A 
ATOM      4  C5  UNL d   1      -1.440  -1.352   0.640  0.00  0.00    -0.004 A 
ATOM      5  C6  UNL d   1      -0.590  -2.256   1.276  0.00  0.00     0.002 A 
ATOM      6  C7  UNL d   1      -0.073  -1.958   2.538  0.00  0.00     0.002 A 
ENDROOT
BRANCH   1   7
ATOM      7  C1  UNL d   1       0.119  -0.455   4.556  0.00  0.00     0.055 C 
ATOM      8  C   UNL d   1      -1.010  -0.059   5.497  0.00  0.00     0.019 C 
ENDBRANCH   1   7
TORSDOF 1
ENDMDL
