MODEL 1
REMARK minimizedAffinity -4.15042067
REMARK minimizedRMSD -1
REMARK  0 active torsions:
REMARK  status: ('A' for Active; 'I' for Inactive)
ROOT
ATOM      1  C   UNL d   1      -0.935   0.872   0.772  0.00  0.00     0.020 A 
ATOM      2  C1  UNL d   1      -0.497   1.409  -0.437  0.00  0.00     0.020 A 
ATOM      3  C2  UNL d   1       0.090   0.581  -1.397  0.00  0.00     0.034 A 
ATOM      4  C3  UNL d   1       0.240  -0.788  -1.149  0.00  0.00     0.017 A 
ATOM      5  C4  UNL d   1      -0.201  -1.326   0.066  0.00  0.00     0.017 A 
ATOM      6  C5  UNL d   1      -0.787  -0.493   1.023  0.00  0.00     0.034 A 
ATOM      7 Cl   UNL d   1      -0.049  -3.006   0.444  0.00  0.00    -0.070 Cl
ATOM      8 Cl1  UNL d   1       0.974  -1.752  -2.380  0.00  0.00    -0.070 Cl
ENDROOT
TORSDOF 0
ENDMDL
