MODEL 1
REMARK minimizedAffinity -2.80870152
REMARK minimizedRMSD -1
REMARK  0 active torsions:
REMARK  status: ('A' for Active; 'I' for Inactive)
ROOT
ATOM      1  C   UNL d   1       1.265  -3.044  -0.451  0.00  0.00     0.020 A 
ATOM      2  C1  UNL d   1       0.368  -3.398   0.556  0.00  0.00     0.020 A 
ATOM      3  C2  UNL d   1      -0.540  -2.456   1.045  0.00  0.00     0.034 A 
ATOM      4  C3  UNL d   1      -0.553  -1.156   0.527  0.00  0.00     0.017 A 
ATOM      5  C4  UNL d   1       0.349  -0.801  -0.483  0.00  0.00     0.017 A 
ATOM      6  C5  UNL d   1       1.256  -1.748  -0.969  0.00  0.00     0.034 A 
ATOM      7 Cl   UNL d   1       0.393   0.783  -1.172  0.00  0.00    -0.070 Cl
ATOM      8 Cl1  UNL d   1      -1.703  -0.043   1.178  0.00  0.00    -0.070 Cl
ENDROOT
TORSDOF 0
ENDMDL
