MODEL 1
REMARK minimizedAffinity -1.60102344
REMARK minimizedRMSD -1
REMARK  0 active torsions:
REMARK  status: ('A' for Active; 'I' for Inactive)
ROOT
ATOM      1  C   UNL d   1      -0.356  -2.356  -0.063  0.00  0.00     0.020 A 
ATOM      2  C1  UNL d   1       0.355  -1.614  -1.005  0.00  0.00     0.020 A 
ATOM      3  C2  UNL d   1       0.373  -0.219  -0.926  0.00  0.00     0.034 A 
ATOM      4  C3  UNL d   1      -0.321   0.436   0.097  0.00  0.00     0.017 A 
ATOM      5  C4  UNL d   1      -1.034  -0.310   1.042  0.00  0.00     0.017 A 
ATOM      6  C5  UNL d   1      -1.049  -1.706   0.958  0.00  0.00     0.034 A 
ATOM      7 Cl   UNL d   1      -1.915   0.428   2.333  0.00  0.00    -0.070 Cl
ATOM      8 Cl1  UNL d   1      -0.255   2.163   0.134  0.00  0.00    -0.070 Cl
ENDROOT
TORSDOF 0
ENDMDL
