MODEL 1
REMARK minimizedAffinity -2.78264952
REMARK minimizedRMSD -1
REMARK  0 active torsions:
REMARK  status: ('A' for Active; 'I' for Inactive)
ROOT
ATOM      1  C   UNL d   1      -0.117  -2.490   0.946  0.00  0.00     0.020 A 
ATOM      2  C1  UNL d   1      -0.243  -1.341   1.726  0.00  0.00     0.020 A 
ATOM      3  C2  UNL d   1      -0.158  -0.081   1.132  0.00  0.00     0.034 A 
ATOM      4  C3  UNL d   1       0.054   0.035  -0.247  0.00  0.00     0.017 A 
ATOM      5  C4  UNL d   1       0.180  -1.119  -1.029  0.00  0.00     0.017 A 
ATOM      6  C5  UNL d   1       0.094  -2.379  -0.429  0.00  0.00     0.034 A 
ATOM      7 Cl   UNL d   1       0.442  -1.057  -2.737  0.00  0.00    -0.070 Cl
ATOM      8 Cl1  UNL d   1       0.148   1.625  -0.916  0.00  0.00    -0.070 Cl
ENDROOT
TORSDOF 0
ENDMDL
