MODEL 1
REMARK minimizedAffinity -2.05587697
REMARK minimizedRMSD -1
REMARK  0 active torsions:
REMARK  status: ('A' for Active; 'I' for Inactive)
ROOT
ATOM      1  C   UNL d   1       0.538  -0.178  -1.138  0.00  0.00     0.020 A 
ATOM      2  C1  UNL d   1       0.289   1.006  -0.445  0.00  0.00     0.020 A 
ATOM      3  C2  UNL d   1      -0.539   0.995   0.679  0.00  0.00     0.034 A 
ATOM      4  C3  UNL d   1      -1.122  -0.201   1.113  0.00  0.00     0.017 A 
ATOM      5  C4  UNL d   1      -0.871  -1.389   0.417  0.00  0.00     0.017 A 
ATOM      6  C5  UNL d   1      -0.041  -1.373  -0.708  0.00  0.00     0.034 A 
ATOM      7 Cl   UNL d   1      -1.554  -2.904   0.892  0.00  0.00    -0.070 Cl
ATOM      8 Cl1  UNL d   1      -2.136  -0.140   2.511  0.00  0.00    -0.070 Cl
ENDROOT
TORSDOF 0
ENDMDL
