MODEL 1
REMARK minimizedAffinity -1.93163431
REMARK minimizedRMSD -1
REMARK  0 active torsions:
REMARK  status: ('A' for Active; 'I' for Inactive)
ROOT
ATOM      1  C   UNL d   1       0.496  -2.626  -0.639  0.00  0.00     0.020 A 
ATOM      2  C1  UNL d   1      -0.599  -3.148   0.049  0.00  0.00     0.020 A 
ATOM      3  C2  UNL d   1      -1.406  -2.307   0.818  0.00  0.00     0.034 A 
ATOM      4  C3  UNL d   1      -1.120  -0.940   0.902  0.00  0.00     0.017 A 
ATOM      5  C4  UNL d   1      -0.021  -0.416   0.211  0.00  0.00     0.017 A 
ATOM      6  C5  UNL d   1       0.784  -1.263  -0.558  0.00  0.00     0.034 A 
ATOM      7 Cl   UNL d   1       0.395   1.260   0.265  0.00  0.00    -0.070 Cl
ATOM      8 Cl1  UNL d   1      -2.161   0.041   1.871  0.00  0.00    -0.070 Cl
ENDROOT
TORSDOF 0
ENDMDL
