MODEL 1
REMARK minimizedAffinity -3.39887428
REMARK minimizedRMSD -1
REMARK  0 active torsions:
REMARK  status: ('A' for Active; 'I' for Inactive)
ROOT
ATOM      1  C   UNL d   1       1.184  -2.732  -0.293  0.00  0.00     0.020 A 
ATOM      2  C1  UNL d   1       0.252  -3.208   0.629  0.00  0.00     0.020 A 
ATOM      3  C2  UNL d   1      -0.751  -2.362   1.108  0.00  0.00     0.034 A 
ATOM      4  C3  UNL d   1      -0.824  -1.036   0.665  0.00  0.00     0.017 A 
ATOM      5  C4  UNL d   1       0.111  -0.560  -0.261  0.00  0.00     0.017 A 
ATOM      6  C5  UNL d   1       1.113  -1.411  -0.737  0.00  0.00     0.034 A 
ATOM      7 Cl   UNL d   1       0.084   1.063  -0.854  0.00  0.00    -0.070 Cl
ATOM      8 Cl1  UNL d   1      -2.091  -0.047   1.299  0.00  0.00    -0.070 Cl
ENDROOT
TORSDOF 0
ENDMDL
