MODEL 1
REMARK minimizedAffinity -5.92594385
REMARK minimizedRMSD -1
REMARK  0 active torsions:
REMARK  status: ('A' for Active; 'I' for Inactive)
ROOT
ATOM      1  C   UNL d   1      -0.155  -3.106   0.250  0.00  0.00     0.020 A 
ATOM      2  C1  UNL d   1      -0.286  -2.275   1.361  0.00  0.00     0.020 A 
ATOM      3  C2  UNL d   1      -0.185  -0.890   1.213  0.00  0.00     0.034 A 
ATOM      4  C3  UNL d   1       0.047  -0.332  -0.050  0.00  0.00     0.017 A 
ATOM      5  C4  UNL d   1       0.178  -1.168  -1.165  0.00  0.00     0.017 A 
ATOM      6  C5  UNL d   1       0.076  -2.554  -1.011  0.00  0.00     0.034 A 
ATOM      7 Cl   UNL d   1       0.465  -0.553  -2.755  0.00  0.00    -0.070 Cl
ATOM      8 Cl1  UNL d   1       0.159   1.389  -0.160  0.00  0.00    -0.070 Cl
ENDROOT
TORSDOF 0
ENDMDL
