MODEL 1
REMARK minimizedAffinity -4.13109875
REMARK minimizedRMSD -1
REMARK  0 active torsions:
REMARK  status: ('A' for Active; 'I' for Inactive)
ROOT
ATOM      1  C   UNL d   1       0.686  -0.244  -1.729  0.00  0.00     0.020 A 
ATOM      2  C1  UNL d   1       0.083   0.910  -1.230  0.00  0.00     0.020 A 
ATOM      3  C2  UNL d   1      -0.589   0.874  -0.007  0.00  0.00     0.034 A 
ATOM      4  C3  UNL d   1      -0.660  -0.319   0.722  0.00  0.00     0.017 A 
ATOM      5  C4  UNL d   1      -0.055  -1.477   0.221  0.00  0.00     0.017 A 
ATOM      6  C5  UNL d   1       0.617  -1.435  -1.005  0.00  0.00     0.034 A 
ATOM      7 Cl   UNL d   1      -0.100  -2.985   1.063  0.00  0.00    -0.070 Cl
ATOM      8 Cl1  UNL d   1      -1.508  -0.291   2.228  0.00  0.00    -0.070 Cl
ENDROOT
TORSDOF 0
ENDMDL
