MODEL 1
REMARK minimizedAffinity -2.18106532
REMARK minimizedRMSD -1
REMARK  0 active torsions:
REMARK  status: ('A' for Active; 'I' for Inactive)
ROOT
ATOM      1  C   UNL d   1       0.615  -2.574  -0.945  0.00  0.00     0.020 A 
ATOM      2  C1  UNL d   1      -0.324  -3.143  -0.086  0.00  0.00     0.020 A 
ATOM      3  C2  UNL d   1      -1.153  -2.323   0.683  0.00  0.00     0.034 A 
ATOM      4  C3  UNL d   1      -1.045  -0.931   0.594  0.00  0.00     0.017 A 
ATOM      5  C4  UNL d   1      -0.102  -0.361  -0.270  0.00  0.00     0.017 A 
ATOM      6  C5  UNL d   1       0.726  -1.186  -1.037  0.00  0.00     0.034 A 
ATOM      7 Cl   UNL d   1       0.090   1.349  -0.434  0.00  0.00    -0.070 Cl
ATOM      8 Cl1  UNL d   1      -2.103   0.022   1.573  0.00  0.00    -0.070 Cl
ENDROOT
TORSDOF 0
ENDMDL
