MODEL 1
REMARK minimizedAffinity -3.25728106
REMARK minimizedRMSD -1
REMARK  0 active torsions:
REMARK  status: ('A' for Active; 'I' for Inactive)
ROOT
ATOM      1  C   UNL d   1      -0.860   0.702   1.010  0.00  0.00     0.020 A 
ATOM      2  C1  UNL d   1      -0.199   1.343  -0.037  0.00  0.00     0.020 A 
ATOM      3  C2  UNL d   1       0.364   0.592  -1.071  0.00  0.00     0.034 A 
ATOM      4  C3  UNL d   1       0.267  -0.805  -1.060  0.00  0.00     0.017 A 
ATOM      5  C4  UNL d   1      -0.397  -1.447  -0.008  0.00  0.00     0.017 A 
ATOM      6  C5  UNL d   1      -0.959  -0.690   1.024  0.00  0.00     0.034 A 
ATOM      7 Cl   UNL d   1      -0.557  -3.166   0.075  0.00  0.00    -0.070 Cl
ATOM      8 Cl1  UNL d   1       0.987  -1.670  -2.371  0.00  0.00    -0.070 Cl
ENDROOT
TORSDOF 0
ENDMDL
