MODEL 1
REMARK minimizedAffinity -3.75226521
REMARK minimizedRMSD -1
REMARK  0 active torsions:
REMARK  status: ('A' for Active; 'I' for Inactive)
ROOT
ATOM      1  C   UNL d   1      -1.068  -1.028   2.160  0.00  0.00     0.020 A 
ATOM      2  C1  UNL d   1      -0.935  -2.196   1.410  0.00  0.00     0.020 A 
ATOM      3  C2  UNL d   1      -0.305  -2.157   0.164  0.00  0.00     0.034 A 
ATOM      4  C3  UNL d   1       0.194  -0.949  -0.336  0.00  0.00     0.017 A 
ATOM      5  C4  UNL d   1       0.060   0.223   0.418  0.00  0.00     0.017 A 
ATOM      6  C5  UNL d   1      -0.572   0.179   1.665  0.00  0.00     0.034 A 
ATOM      7 Cl   UNL d   1       0.650   1.751  -0.132  0.00  0.00    -0.070 Cl
ATOM      8 Cl1  UNL d   1       0.962  -0.975  -1.883  0.00  0.00    -0.070 Cl
ENDROOT
TORSDOF 0
ENDMDL
