MODEL 1
REMARK minimizedAffinity -4.24878979
REMARK minimizedRMSD -1
REMARK  0 active torsions:
REMARK  status: ('A' for Active; 'I' for Inactive)
ROOT
ATOM      1  C   UNL d   1      -1.036  -0.806   1.592  0.00  0.00     0.020 A 
ATOM      2  C1  UNL d   1      -0.550   0.210   0.770  0.00  0.00     0.020 A 
ATOM      3  C2  UNL d   1       0.180  -0.109  -0.376  0.00  0.00     0.034 A 
ATOM      4  C3  UNL d   1       0.427  -1.448  -0.704  0.00  0.00     0.017 A 
ATOM      5  C4  UNL d   1      -0.061  -2.467   0.122  0.00  0.00     0.017 A 
ATOM      6  C5  UNL d   1      -0.792  -2.141   1.269  0.00  0.00     0.034 A 
ATOM      7 Cl   UNL d   1       0.202  -4.141  -0.217  0.00  0.00    -0.070 Cl
ATOM      8 Cl1  UNL d   1       1.337  -1.770  -2.137  0.00  0.00    -0.070 Cl
ENDROOT
TORSDOF 0
ENDMDL
