MODEL 1
REMARK minimizedAffinity -0.524166346
REMARK minimizedRMSD -1
REMARK  0 active torsions:
REMARK  status: ('A' for Active; 'I' for Inactive)
ROOT
ATOM      1  C   UNL d   1      -0.031  -3.505   0.647  0.00  0.00     0.020 A 
ATOM      2  C1  UNL d   1       1.104  -3.026  -0.006  0.00  0.00     0.020 A 
ATOM      3  C2  UNL d   1       1.221  -1.665  -0.297  0.00  0.00     0.034 A 
ATOM      4  C3  UNL d   1       0.200  -0.778   0.065  0.00  0.00     0.017 A 
ATOM      5  C4  UNL d   1      -0.939  -1.260   0.720  0.00  0.00     0.017 A 
ATOM      6  C5  UNL d   1      -1.050  -2.623   1.009  0.00  0.00     0.034 A 
ATOM      7 Cl   UNL d   1      -2.240  -0.227   1.198  0.00  0.00    -0.070 Cl
ATOM      8 Cl1  UNL d   1       0.411   0.892  -0.326  0.00  0.00    -0.070 Cl
ENDROOT
TORSDOF 0
ENDMDL
