MODEL 1
REMARK minimizedAffinity -2.90632319
REMARK minimizedRMSD -1
REMARK  0 active torsions:
REMARK  status: ('A' for Active; 'I' for Inactive)
ROOT
ATOM      1  C   UNL d   1      -1.175  -1.659   1.786  0.00  0.00     0.020 A 
ATOM      2  C1  UNL d   1      -0.590  -2.688   1.049  0.00  0.00     0.020 A 
ATOM      3  C2  UNL d   1       0.040  -2.407  -0.165  0.00  0.00     0.034 A 
ATOM      4  C3  UNL d   1       0.086  -1.094  -0.647  0.00  0.00     0.017 A 
ATOM      5  C4  UNL d   1      -0.501  -0.061   0.093  0.00  0.00     0.017 A 
ATOM      6  C5  UNL d   1      -1.130  -0.348   1.309  0.00  0.00     0.034 A 
ATOM      7 Cl   UNL d   1      -0.484   1.584  -0.436  0.00  0.00    -0.070 Cl
ATOM      8 Cl1  UNL d   1       0.882  -0.819  -2.156  0.00  0.00    -0.070 Cl
ENDROOT
TORSDOF 0
ENDMDL
