MODEL 1
REMARK minimizedAffinity -2.56686449
REMARK minimizedRMSD -1
REMARK  0 active torsions:
REMARK  status: ('A' for Active; 'I' for Inactive)
ROOT
ATOM      1  C   UNL d   1       0.943  -2.442  -0.625  0.00  0.00     0.020 A 
ATOM      2  C1  UNL d   1       0.002  -3.055   0.202  0.00  0.00     0.020 A 
ATOM      3  C2  UNL d   1      -0.902  -2.276   0.928  0.00  0.00     0.034 A 
ATOM      4  C3  UNL d   1      -0.867  -0.881   0.828  0.00  0.00     0.017 A 
ATOM      5  C4  UNL d   1       0.077  -0.266  -0.003  0.00  0.00     0.017 A 
ATOM      6  C5  UNL d   1       0.980  -1.051  -0.727  0.00  0.00     0.034 A 
ATOM      7 Cl   UNL d   1       0.181   1.450  -0.177  0.00  0.00    -0.070 Cl
ATOM      8 Cl1  UNL d   1      -2.015   0.020   1.754  0.00  0.00    -0.070 Cl
ENDROOT
TORSDOF 0
ENDMDL
