MODEL 1
REMARK minimizedAffinity 5.21129227
REMARK minimizedRMSD -1
REMARK  0 active torsions:
REMARK  status: ('A' for Active; 'I' for Inactive)
ROOT
ATOM      1  C   UNL d   1       2.869   2.223  -0.765  0.00  0.00     0.078 C 
ATOM      2  C1  UNL d   1       2.463   0.916  -0.152  0.00  0.00    -0.077 A 
ATOM      3  C2  UNL d   1       2.220   0.809   1.222  0.00  0.00    -0.001 A 
ATOM      4  C3  UNL d   1       1.852  -0.416   1.781  0.00  0.00     0.003 A 
ATOM      5  C4  UNL d   1       1.724  -1.544   0.971  0.00  0.00    -0.005 A 
ATOM      6  C5  UNL d   1       1.965  -1.447  -0.397  0.00  0.00     0.003 A 
ATOM      7  C6  UNL d   1       2.333  -0.222  -0.957  0.00  0.00    -0.001 A 
ENDROOT
TORSDOF 0
ENDMDL
