MODEL 1
REMARK minimizedAffinity -0.615086138
REMARK minimizedRMSD -1
REMARK  0 active torsions:
REMARK  status: ('A' for Active; 'I' for Inactive)
ROOT
ATOM      1  C   UNL d   1       3.098   3.216   3.356  0.00  0.00     0.078 C 
ATOM      2  C1  UNL d   1       4.077   4.136   4.022  0.00  0.00    -0.077 A 
ATOM      3  C2  UNL d   1       4.354   4.026   5.391  0.00  0.00    -0.001 A 
ATOM      4  C3  UNL d   1       5.260   4.896   5.999  0.00  0.00     0.003 A 
ATOM      5  C4  UNL d   1       5.896   5.882   5.248  0.00  0.00    -0.005 A 
ATOM      6  C5  UNL d   1       5.625   6.000   3.886  0.00  0.00     0.003 A 
ATOM      7  C6  UNL d   1       4.719   5.131   3.276  0.00  0.00    -0.001 A 
ENDROOT
TORSDOF 0
ENDMDL
