MODEL 1
REMARK minimizedAffinity -0.344073415
REMARK minimizedRMSD -1
REMARK  0 active torsions:
REMARK  status: ('A' for Active; 'I' for Inactive)
ROOT
ATOM      1  C   UNL d   1      -2.611   5.017   3.322  0.00  0.00     0.078 C 
ATOM      2  C1  UNL d   1      -3.790   4.946   4.246  0.00  0.00    -0.077 A 
ATOM      3  C2  UNL d   1      -4.652   3.842   4.232  0.00  0.00    -0.001 A 
ATOM      4  C3  UNL d   1      -5.751   3.793   5.090  0.00  0.00     0.003 A 
ATOM      5  C4  UNL d   1      -6.000   4.846   5.969  0.00  0.00    -0.005 A 
ATOM      6  C5  UNL d   1      -5.149   5.949   5.989  0.00  0.00     0.003 A 
ATOM      7  C6  UNL d   1      -4.049   6.000   5.131  0.00  0.00    -0.001 A 
ENDROOT
TORSDOF 0
ENDMDL
