MODEL 1
REMARK minimizedAffinity 5.4805007
REMARK minimizedRMSD -1
REMARK  0 active torsions:
REMARK  status: ('A' for Active; 'I' for Inactive)
ROOT
ATOM      1  C   UNL d   1       2.526  -2.451  -0.136  0.00  0.00     0.078 C 
ATOM      2  C1  UNL d   1       2.952  -1.013  -0.125  0.00  0.00    -0.077 A 
ATOM      3  C2  UNL d   1       4.287  -0.655  -0.351  0.00  0.00    -0.001 A 
ATOM      4  C3  UNL d   1       4.671   0.687  -0.328  0.00  0.00     0.003 A 
ATOM      5  C4  UNL d   1       3.727   1.681  -0.078  0.00  0.00    -0.005 A 
ATOM      6  C5  UNL d   1       2.397   1.334   0.150  0.00  0.00     0.003 A 
ATOM      7  C6  UNL d   1       2.011  -0.007   0.127  0.00  0.00    -0.001 A 
ENDROOT
TORSDOF 0
ENDMDL
