MODEL 1
REMARK minimizedAffinity 5.06754875
REMARK minimizedRMSD -1
REMARK  0 active torsions:
REMARK  status: ('A' for Active; 'I' for Inactive)
ROOT
ATOM      1  C   UNL d   1      -2.525   5.885   3.865  0.00  0.00     0.078 C 
ATOM      2  C1  UNL d   1      -3.730   5.261   4.503  0.00  0.00    -0.077 A 
ATOM      3  C2  UNL d   1      -4.107   3.947   4.200  0.00  0.00    -0.001 A 
ATOM      4  C3  UNL d   1      -5.237   3.382   4.794  0.00  0.00     0.003 A 
ATOM      5  C4  UNL d   1      -6.000   4.124   5.693  0.00  0.00    -0.005 A 
ATOM      6  C5  UNL d   1      -5.634   5.433   5.999  0.00  0.00     0.003 A 
ATOM      7  C6  UNL d   1      -4.504   6.000   5.406  0.00  0.00    -0.001 A 
ENDROOT
TORSDOF 0
ENDMDL
