MODEL 1
REMARK minimizedAffinity 7.70631742
REMARK minimizedRMSD -1
REMARK  0 active torsions:
REMARK  status: ('A' for Active; 'I' for Inactive)
ROOT
ATOM      1  C   UNL d   1      -4.585   0.554  -0.780  0.00  0.00     0.078 C 
ATOM      2  C1  UNL d   1      -4.575  -0.383  -1.950  0.00  0.00    -0.077 A 
ATOM      3  C2  UNL d   1      -3.665  -1.445  -2.017  0.00  0.00    -0.001 A 
ATOM      4  C3  UNL d   1      -3.661  -2.303  -3.118  0.00  0.00     0.003 A 
ATOM      5  C4  UNL d   1      -4.564  -2.108  -4.160  0.00  0.00    -0.005 A 
ATOM      6  C5  UNL d   1      -5.473  -1.053  -4.104  0.00  0.00     0.003 A 
ATOM      7  C6  UNL d   1      -5.478  -0.194  -3.004  0.00  0.00    -0.001 A 
ENDROOT
TORSDOF 0
ENDMDL
