MODEL 1
REMARK minimizedAffinity 2.95427942
REMARK minimizedRMSD -1
REMARK  0 active torsions:
REMARK  status: ('A' for Active; 'I' for Inactive)
ROOT
ATOM      1  C   UNL d   1       4.456  -2.205   5.995  0.00  0.00     0.078 C 
ATOM      2  C1  UNL d   1       4.229  -3.531   5.334  0.00  0.00    -0.077 A 
ATOM      3  C2  UNL d   1       4.519  -4.728   6.000  0.00  0.00    -0.001 A 
ATOM      4  C3  UNL d   1       4.312  -5.955   5.368  0.00  0.00     0.003 A 
ATOM      5  C4  UNL d   1       3.814  -5.997   4.067  0.00  0.00    -0.005 A 
ATOM      6  C5  UNL d   1       3.524  -4.811   3.396  0.00  0.00     0.003 A 
ATOM      7  C6  UNL d   1       3.731  -3.583   4.026  0.00  0.00    -0.001 A 
ENDROOT
TORSDOF 0
ENDMDL
