MODEL 1
REMARK minimizedAffinity 2.0885365
REMARK minimizedRMSD -1
REMARK  0 active torsions:
REMARK  status: ('A' for Active; 'I' for Inactive)
ROOT
ATOM      1  C   UNL d   1      -4.347   1.010  -0.578  0.00  0.00     0.078 C 
ATOM      2  C1  UNL d   1      -4.352   0.049  -1.729  0.00  0.00    -0.077 A 
ATOM      3  C2  UNL d   1      -3.650  -1.160  -1.662  0.00  0.00    -0.001 A 
ATOM      4  C3  UNL d   1      -3.656  -2.041  -2.745  0.00  0.00     0.003 A 
ATOM      5  C4  UNL d   1      -4.361  -1.720  -3.904  0.00  0.00    -0.005 A 
ATOM      6  C5  UNL d   1      -5.061  -0.518  -3.980  0.00  0.00     0.003 A 
ATOM      7  C6  UNL d   1      -5.057   0.364  -2.898  0.00  0.00    -0.001 A 
ENDROOT
TORSDOF 0
ENDMDL
