MODEL 1
REMARK minimizedAffinity 0.349171579
REMARK minimizedRMSD -1
REMARK  0 active torsions:
REMARK  status: ('A' for Active; 'I' for Inactive)
ROOT
ATOM      1  C   UNL d   1       2.255  -3.752   2.917  0.00  0.00     0.078 C 
ATOM      2  C1  UNL d   1       3.264  -4.424   3.799  0.00  0.00    -0.077 A 
ATOM      3  C2  UNL d   1       4.153  -5.375   3.283  0.00  0.00    -0.001 A 
ATOM      4  C3  UNL d   1       5.081  -6.000   4.118  0.00  0.00     0.003 A 
ATOM      5  C4  UNL d   1       5.128  -5.681   5.474  0.00  0.00    -0.005 A 
ATOM      6  C5  UNL d   1       4.246  -4.738   5.997  0.00  0.00     0.003 A 
ATOM      7  C6  UNL d   1       3.318  -4.112   5.163  0.00  0.00    -0.001 A 
ENDROOT
TORSDOF 0
ENDMDL
