MODEL 1
REMARK minimizedAffinity 8.60661221
REMARK minimizedRMSD -1
REMARK  0 active torsions:
REMARK  status: ('A' for Active; 'I' for Inactive)
ROOT
ATOM      1  C   UNL d   1      -2.539  -1.214  -1.210  0.00  0.00     0.078 C 
ATOM      2  C1  UNL d   1      -3.663  -1.115  -2.198  0.00  0.00    -0.077 A 
ATOM      3  C2  UNL d   1      -3.883  -2.124  -3.143  0.00  0.00    -0.001 A 
ATOM      4  C3  UNL d   1      -4.927  -2.014  -4.063  0.00  0.00     0.003 A 
ATOM      5  C4  UNL d   1      -5.757  -0.895  -4.049  0.00  0.00    -0.005 A 
ATOM      6  C5  UNL d   1      -5.544   0.115  -3.114  0.00  0.00     0.003 A 
ATOM      7  C6  UNL d   1      -4.501   0.007  -2.193  0.00  0.00    -0.001 A 
ENDROOT
TORSDOF 0
ENDMDL
