MODEL 1
REMARK minimizedAffinity 10.3944683
REMARK minimizedRMSD -1
REMARK  0 active torsions:
REMARK  status: ('A' for Active; 'I' for Inactive)
ROOT
ATOM      1  C   UNL d   1      -4.255   0.571  -0.859  0.00  0.00     0.078 C 
ATOM      2  C1  UNL d   1      -4.451  -0.542  -1.844  0.00  0.00    -0.077 A 
ATOM      3  C2  UNL d   1      -3.894  -1.808  -1.623  0.00  0.00    -0.001 A 
ATOM      4  C3  UNL d   1      -4.076  -2.832  -2.553  0.00  0.00     0.003 A 
ATOM      5  C4  UNL d   1      -4.815  -2.601  -3.712  0.00  0.00    -0.005 A 
ATOM      6  C5  UNL d   1      -5.372  -1.344  -3.942  0.00  0.00     0.003 A 
ATOM      7  C6  UNL d   1      -5.190  -0.319  -3.013  0.00  0.00    -0.001 A 
ENDROOT
TORSDOF 0
ENDMDL
