MODEL 1
REMARK minimizedAffinity 6.10588121
REMARK minimizedRMSD -1
REMARK  0 active torsions:
REMARK  status: ('A' for Active; 'I' for Inactive)
ROOT
ATOM      1  C   UNL d   1      -4.913  -3.022  -4.651  0.00  0.00     0.078 C 
ATOM      2  C1  UNL d   1      -4.642  -1.965  -3.624  0.00  0.00    -0.077 A 
ATOM      3  C2  UNL d   1      -5.345  -0.754  -3.631  0.00  0.00    -0.001 A 
ATOM      4  C3  UNL d   1      -5.075   0.225  -2.674  0.00  0.00     0.003 A 
ATOM      5  C4  UNL d   1      -4.100   0.005  -1.704  0.00  0.00    -0.005 A 
ATOM      6  C5  UNL d   1      -3.393  -1.195  -1.689  0.00  0.00     0.003 A 
ATOM      7  C6  UNL d   1      -3.662  -2.176  -2.645  0.00  0.00    -0.001 A 
ENDROOT
TORSDOF 0
ENDMDL
