MODEL 1
REMARK minimizedAffinity 5.96033144
REMARK minimizedRMSD -1
REMARK  0 active torsions:
REMARK  status: ('A' for Active; 'I' for Inactive)
ROOT
ATOM      1  C   UNL d   1       1.221  -2.553   1.857  0.00  0.00     0.078 C 
ATOM      2  C1  UNL d   1       1.172  -1.356   0.955  0.00  0.00    -0.077 A 
ATOM      3  C2  UNL d   1       0.323  -1.327  -0.159  0.00  0.00    -0.001 A 
ATOM      4  C3  UNL d   1       0.295  -0.210  -0.995  0.00  0.00     0.003 A 
ATOM      5  C4  UNL d   1       1.114   0.885  -0.728  0.00  0.00    -0.005 A 
ATOM      6  C5  UNL d   1       1.963   0.864   0.376  0.00  0.00     0.003 A 
ATOM      7  C6  UNL d   1       1.993  -0.251   1.214  0.00  0.00    -0.001 A 
ENDROOT
TORSDOF 0
ENDMDL
