MODEL 1
REMARK minimizedAffinity -4.36203146
REMARK minimizedRMSD -1
REMARK  0 active torsions:
REMARK  status: ('A' for Active; 'I' for Inactive)
ROOT
ATOM      1  C   UNL d   1       3.956  -2.561   5.957  0.00  0.00     0.078 C 
ATOM      2  C1  UNL d   1       3.947  -2.798   4.477  0.00  0.00    -0.077 A 
ATOM      3  C2  UNL d   1       2.830  -3.356   3.842  0.00  0.00    -0.001 A 
ATOM      4  C3  UNL d   1       2.840  -3.580   2.465  0.00  0.00     0.003 A 
ATOM      5  C4  UNL d   1       3.964  -3.251   1.710  0.00  0.00    -0.005 A 
ATOM      6  C5  UNL d   1       5.081  -2.698   2.333  0.00  0.00     0.003 A 
ATOM      7  C6  UNL d   1       5.073  -2.473   3.710  0.00  0.00    -0.001 A 
ENDROOT
TORSDOF 0
ENDMDL
