MODEL 1
REMARK minimizedAffinity -3.11514688
REMARK minimizedRMSD -1
REMARK  0 active torsions:
REMARK  status: ('A' for Active; 'I' for Inactive)
ROOT
ATOM      1  C   UNL d   1       2.789  -4.056   2.403  0.00  0.00     0.078 C 
ATOM      2  C1  UNL d   1       3.495  -4.463   3.662  0.00  0.00    -0.077 A 
ATOM      3  C2  UNL d   1       3.383  -3.700   4.831  0.00  0.00    -0.001 A 
ATOM      4  C3  UNL d   1       4.054  -4.086   5.992  0.00  0.00     0.003 A 
ATOM      5  C4  UNL d   1       4.842  -5.235   5.997  0.00  0.00    -0.005 A 
ATOM      6  C5  UNL d   1       4.960  -6.000   4.838  0.00  0.00     0.003 A 
ATOM      7  C6  UNL d   1       4.291  -5.616   3.675  0.00  0.00    -0.001 A 
ENDROOT
TORSDOF 0
ENDMDL
