MODEL 1
REMARK minimizedAffinity 10.3365479
REMARK minimizedRMSD -1
REMARK  0 active torsions:
REMARK  status: ('A' for Active; 'I' for Inactive)
ROOT
ATOM      1  C4' PXY d   1       6.000  -2.619   2.996  0.00  0.00     0.077 C 
ATOM      2  C1' PXY d   1       0.495  -1.246   1.887  0.00  0.00     0.077 C 
ATOM      3  C1  PXY d   1       1.936  -1.609   2.190  0.00  0.00    -0.082 A 
ATOM      4  C2  PXY d   1       2.911  -1.062   1.483  0.00  0.00     0.003 A 
ATOM      5  C3  PXY d   1       4.217  -1.404   1.722  0.00  0.00     0.003 A 
ATOM      6  C4  PXY d   1       4.532  -2.274   2.731  0.00  0.00    -0.082 A 
ATOM      7  C5  PXY d   1       3.543  -2.829   3.464  0.00  0.00     0.003 A 
ATOM      8  C6  PXY d   1       2.221  -2.500   3.178  0.00  0.00     0.003 A 
ENDROOT
TORSDOF 0
ENDMDL
