MODEL 1
REMARK minimizedAffinity 7.6709404
REMARK minimizedRMSD -1
REMARK  0 active torsions:
REMARK  status: ('A' for Active; 'I' for Inactive)
ROOT
ATOM      1  C4' PXY d   1      -4.393  -1.422  -2.639  0.00  0.00     0.077 C 
ATOM      2  C1' PXY d   1      -5.662  -5.951  -5.999  0.00  0.00     0.077 C 
ATOM      3  C1  PXY d   1      -5.334  -4.756  -5.127  0.00  0.00    -0.082 A 
ATOM      4  C2  PXY d   1      -4.405  -4.864  -4.191  0.00  0.00     0.003 A 
ATOM      5  C3  PXY d   1      -4.118  -3.802  -3.372  0.00  0.00     0.003 A 
ATOM      6  C4  PXY d   1      -4.751  -2.600  -3.549  0.00  0.00    -0.082 A 
ATOM      7  C5  PXY d   1      -5.692  -2.479  -4.509  0.00  0.00     0.003 A 
ATOM      8  C6  PXY d   1      -5.998  -3.581  -5.302  0.00  0.00     0.003 A 
ENDROOT
TORSDOF 0
ENDMDL
