MODEL 1
REMARK minimizedAffinity 6.29271317
REMARK minimizedRMSD -1
REMARK  0 active torsions:
REMARK  status: ('A' for Active; 'I' for Inactive)
ROOT
ATOM      1  C4' PXY d   1       0.389  -5.691   5.900  0.00  0.00     0.077 C 
ATOM      2  C1' PXY d   1       1.374  -2.172   1.421  0.00  0.00     0.077 C 
ATOM      3  C1  PXY d   1       1.114  -3.085   2.604  0.00  0.00    -0.082 A 
ATOM      4  C2  PXY d   1       1.549  -4.334   2.573  0.00  0.00     0.003 A 
ATOM      5  C3  PXY d   1       1.295  -5.182   3.620  0.00  0.00     0.003 A 
ATOM      6  C4  PXY d   1       0.636  -4.732   4.733  0.00  0.00    -0.082 A 
ATOM      7  C5  PXY d   1       0.199  -3.455   4.776  0.00  0.00     0.003 A 
ATOM      8  C6  PXY d   1       0.431  -2.622   3.685  0.00  0.00     0.003 A 
ENDROOT
TORSDOF 0
ENDMDL
