MODEL 1
REMARK minimizedAffinity 0.452044755
REMARK minimizedRMSD -1
REMARK  0 active torsions:
REMARK  status: ('A' for Active; 'I' for Inactive)
ROOT
ATOM      1  C4' PXY d   1       3.510  -1.801  -4.236  0.00  0.00     0.077 C 
ATOM      2  C1' PXY d   1       5.947   3.136  -5.999  0.00  0.00     0.077 C 
ATOM      3  C1  PXY d   1       5.316   1.834  -5.545  0.00  0.00    -0.082 A 
ATOM      4  C2  PXY d   1       4.104   1.846  -5.015  0.00  0.00     0.003 A 
ATOM      5  C3  PXY d   1       3.531   0.682  -4.570  0.00  0.00     0.003 A 
ATOM      6  C4  PXY d   1       4.183  -0.512  -4.717  0.00  0.00    -0.082 A 
ATOM      7  C5  PXY d   1       5.416  -0.533  -5.267  0.00  0.00     0.003 A 
ATOM      8  C6  PXY d   1       5.997   0.664  -5.675  0.00  0.00     0.003 A 
ENDROOT
TORSDOF 0
ENDMDL
