MODEL 1
REMARK minimizedAffinity 2.94230461
REMARK minimizedRMSD -1
REMARK  0 active torsions:
REMARK  status: ('A' for Active; 'I' for Inactive)
ROOT
ATOM      1  C4' PXY d   1       5.868   5.954  -5.951  0.00  0.00     0.077 C 
ATOM      2  C1' PXY d   1       3.518   5.106  -0.739  0.00  0.00     0.077 C 
ATOM      3  C1  PXY d   1       4.142   5.337  -2.101  0.00  0.00    -0.082 A 
ATOM      4  C2  PXY d   1       3.436   5.099  -3.193  0.00  0.00     0.003 A 
ATOM      5  C3  PXY d   1       3.996   5.272  -4.433  0.00  0.00     0.003 A 
ATOM      6  C4  PXY d   1       5.275   5.744  -4.555  0.00  0.00    -0.082 A 
ATOM      7  C5  PXY d   1       5.999   6.000  -3.445  0.00  0.00     0.003 A 
ATOM      8  C6  PXY d   1       5.426   5.778  -2.196  0.00  0.00     0.003 A 
ENDROOT
TORSDOF 0
ENDMDL
