MODEL 1
REMARK minimizedAffinity 7.11862898
REMARK minimizedRMSD -1
REMARK  0 active torsions:
REMARK  status: ('A' for Active; 'I' for Inactive)
ROOT
ATOM      1  C4' PXY d   1       1.390   2.294   3.612  0.00  0.00     0.077 C 
ATOM      2  C1' PXY d   1       1.487  -3.203   1.825  0.00  0.00     0.077 C 
ATOM      3  C1  PXY d   1       1.453  -1.764   2.303  0.00  0.00    -0.082 A 
ATOM      4  C2  PXY d   1       1.794  -0.791   1.473  0.00  0.00     0.003 A 
ATOM      5  C3  PXY d   1       1.800   0.512   1.899  0.00  0.00     0.003 A 
ATOM      6  C4  PXY d   1       1.401   0.828   3.170  0.00  0.00    -0.082 A 
ATOM      7  C5  PXY d   1       1.041  -0.158   4.019  0.00  0.00     0.003 A 
ATOM      8  C6  PXY d   1       1.082  -1.479   3.580  0.00  0.00     0.003 A 
ENDROOT
TORSDOF 0
ENDMDL
