MODEL 1
REMARK minimizedAffinity 6.62285042
REMARK minimizedRMSD -1
REMARK  0 active torsions:
REMARK  status: ('A' for Active; 'I' for Inactive)
ROOT
ATOM      1  C4' PXY d   1       0.339  -2.908   5.598  0.00  0.00     0.077 C 
ATOM      2  C1' PXY d   1       1.991  -0.517   0.601  0.00  0.00     0.077 C 
ATOM      3  C1  PXY d   1       1.555  -1.132   1.916  0.00  0.00    -0.082 A 
ATOM      4  C2  PXY d   1       2.030  -2.314   2.275  0.00  0.00     0.003 A 
ATOM      5  C3  PXY d   1       1.621  -2.899   3.446  0.00  0.00     0.003 A 
ATOM      6  C4  PXY d   1       0.759  -2.244   4.284  0.00  0.00    -0.082 A 
ATOM      7  C5  PXY d   1       0.278  -1.034   3.930  0.00  0.00     0.003 A 
ATOM      8  C6  PXY d   1       0.673  -0.475   2.718  0.00  0.00     0.003 A 
ENDROOT
TORSDOF 0
ENDMDL
