MODEL 1
REMARK minimizedAffinity 13.6407785
REMARK minimizedRMSD -1
REMARK  0 active torsions:
REMARK  status: ('A' for Active; 'I' for Inactive)
ROOT
ATOM      1  C4' PXY d   1       2.673   2.264   2.500  0.00  0.00     0.077 C 
ATOM      2  C1' PXY d   1      -2.582   1.815   0.134  0.00  0.00     0.077 C 
ATOM      3  C1  PXY d   1      -1.204   1.920   0.758  0.00  0.00    -0.082 A 
ATOM      4  C2  PXY d   1      -0.756   3.099   1.159  0.00  0.00     0.003 A 
ATOM      5  C3  PXY d   1       0.500   3.217   1.696  0.00  0.00     0.003 A 
ATOM      6  C4  PXY d   1       1.284   2.109   1.874  0.00  0.00    -0.082 A 
ATOM      7  C5  PXY d   1       0.830   0.901   1.477  0.00  0.00     0.003 A 
ATOM      8  C6  PXY d   1      -0.431   0.809   0.896  0.00  0.00     0.003 A 
ENDROOT
TORSDOF 0
ENDMDL
