MODEL 1
REMARK minimizedAffinity -0.301272959
REMARK minimizedRMSD -1
REMARK  0 active torsions:
REMARK  status: ('A' for Active; 'I' for Inactive)
ROOT
ATOM      1  C4' PXY d   1      -3.716  -1.089  -3.152  0.00  0.00     0.077 C 
ATOM      2  C1' PXY d   1      -1.341   2.733   0.476  0.00  0.00     0.077 C 
ATOM      3  C1  PXY d   1      -1.975   1.738  -0.476  0.00  0.00    -0.082 A 
ATOM      4  C2  PXY d   1      -1.546   0.487  -0.495  0.00  0.00     0.003 A 
ATOM      5  C3  PXY d   1      -2.086  -0.419  -1.372  0.00  0.00     0.003 A 
ATOM      6  C4  PXY d   1      -3.112  -0.052  -2.201  0.00  0.00    -0.082 A 
ATOM      7  C5  PXY d   1      -3.562   1.220  -2.181  0.00  0.00     0.003 A 
ATOM      8  C6  PXY d   1      -2.973   2.134  -1.312  0.00  0.00     0.003 A 
ENDROOT
TORSDOF 0
ENDMDL
