MODEL 1
REMARK minimizedAffinity 13.828125
REMARK minimizedRMSD -1
REMARK  0 active torsions:
REMARK  status: ('A' for Active; 'I' for Inactive)
ROOT
ATOM      1  C4' PXY d   1      -4.000  -1.261  -4.246  0.00  0.00     0.077 C 
ATOM      2  C1' PXY d   1      -2.578   2.109   0.230  0.00  0.00     0.077 C 
ATOM      3  C1  PXY d   1      -2.963   1.230  -0.943  0.00  0.00    -0.082 A 
ATOM      4  C2  PXY d   1      -2.221   0.176  -1.241  0.00  0.00     0.003 A 
ATOM      5  C3  PXY d   1      -2.537  -0.612  -2.318  0.00  0.00     0.003 A 
ATOM      6  C4  PXY d   1      -3.654  -0.350  -3.065  0.00  0.00    -0.082 A 
ATOM      7  C5  PXY d   1      -4.423   0.717  -2.760  0.00  0.00     0.003 A 
ATOM      8  C6  PXY d   1      -4.062   1.529  -1.688  0.00  0.00     0.003 A 
ENDROOT
TORSDOF 0
ENDMDL
