MODEL 1
REMARK minimizedAffinity -2.7151227
REMARK minimizedRMSD -1
REMARK  3 active torsions:
REMARK  status: ('A' for Active; 'I' for Inactive)
REMARK    1  A    between atoms: C3'_2  and  C2'_3 
REMARK    2  A    between atoms: C2'_3  and  C1'_4 
REMARK    3  A    between atoms: C1'_4  and  C1_5 
ROOT
ATOM      1  C1  N4B d   1       1.665  -3.240   2.668  0.00  0.00    -0.075 A 
ATOM      2  C2  N4B d   1       1.475  -1.840   2.671  0.00  0.00     0.002 A 
ATOM      3  C3  N4B d   1       0.255  -1.313   3.014  0.00  0.00     0.002 A 
ATOM      4  C4  N4B d   1      -0.793  -2.163   3.338  0.00  0.00    -0.004 A 
ATOM      5  C5  N4B d   1      -0.594  -3.512   3.357  0.00  0.00     0.002 A 
ATOM      6  C6  N4B d   1       0.628  -4.056   3.018  0.00  0.00     0.002 A 
ENDROOT
BRANCH   1   7
ATOM      7  C1' N4B d   1       2.956  -3.865   2.216  0.00  0.00     0.057 C 
BRANCH   7   8
ATOM      8  C2' N4B d   1       3.470  -4.797   3.310  0.00  0.00     0.009 C 
BRANCH   8   9
ATOM      9  C3' N4B d   1       4.870  -4.420   3.765  0.00  0.00     0.004 C 
ATOM     10  C4' N4B d   1       4.875  -3.649   5.051  0.00  0.00     0.003 C 
ENDBRANCH   8   9
ENDBRANCH   7   8
ENDBRANCH   1   7
TORSDOF 3
ENDMDL
