MODEL 1
REMARK minimizedAffinity 4.53994083
REMARK minimizedRMSD -1
REMARK  3 active torsions:
REMARK  status: ('A' for Active; 'I' for Inactive)
REMARK    1  A    between atoms: C3'_2  and  C2'_3 
REMARK    2  A    between atoms: C2'_3  and  C1'_4 
REMARK    3  A    between atoms: C1'_4  and  C1_5 
ROOT
ATOM      1  C1  N4B d   1      -1.110   4.088  -5.005  0.00  0.00    -0.075 A 
ATOM      2  C2  N4B d   1      -2.432   4.578  -4.929  0.00  0.00     0.002 A 
ATOM      3  C3  N4B d   1      -3.340   3.977  -4.092  0.00  0.00     0.002 A 
ATOM      4  C4  N4B d   1      -2.956   2.878  -3.339  0.00  0.00    -0.004 A 
ATOM      5  C5  N4B d   1      -1.670   2.426  -3.400  0.00  0.00     0.002 A 
ATOM      6  C6  N4B d   1      -0.746   3.023  -4.233  0.00  0.00     0.002 A 
ENDROOT
BRANCH   1   7
ATOM      7  C1' N4B d   1      -0.106   4.658  -5.969  0.00  0.00     0.057 C 
BRANCH   7   8
ATOM      8  C2' N4B d   1       1.284   4.586  -5.345  0.00  0.00     0.009 C 
BRANCH   8   9
ATOM      9  C3' N4B d   1       2.252   5.557  -6.000  0.00  0.00     0.004 C 
ATOM     10  C4' N4B d   1       3.679   5.106  -5.908  0.00  0.00     0.003 C 
ENDBRANCH   8   9
ENDBRANCH   7   8
ENDBRANCH   1   7
TORSDOF 3
ENDMDL
