MODEL 1
REMARK minimizedAffinity 12.984045
REMARK minimizedRMSD -1
REMARK  3 active torsions:
REMARK  status: ('A' for Active; 'I' for Inactive)
REMARK    1  A    between atoms: C3'_2  and  C2'_3 
REMARK    2  A    between atoms: C2'_3  and  C1'_4 
REMARK    3  A    between atoms: C1'_4  and  C1_5 
ROOT
ATOM      1  C1  N4B d   1      -0.551  -1.035   2.352  0.00  0.00    -0.075 A 
ATOM      2  C2  N4B d   1       0.563  -0.467   3.009  0.00  0.00     0.002 A 
ATOM      3  C3  N4B d   1       1.835  -0.780   2.599  0.00  0.00     0.002 A 
ATOM      4  C4  N4B d   1       2.018  -1.669   1.550  0.00  0.00    -0.004 A 
ATOM      5  C5  N4B d   1       0.937  -2.193   0.904  0.00  0.00     0.002 A 
ATOM      6  C6  N4B d   1      -0.348  -1.884   1.303  0.00  0.00     0.002 A 
ENDROOT
BRANCH   1   7
ATOM      7  C1' N4B d   1      -1.959  -0.790   2.820  0.00  0.00     0.057 C 
BRANCH   7   8
ATOM      8  C2' N4B d   1      -2.117   0.684   3.182  0.00  0.00     0.009 C 
BRANCH   8   9
ATOM      9  C3' N4B d   1      -3.475   1.227   2.771  0.00  0.00     0.004 C 
ATOM     10  C4' N4B d   1      -4.109   2.072   3.836  0.00  0.00     0.003 C 
ENDBRANCH   8   9
ENDBRANCH   7   8
ENDBRANCH   1   7
TORSDOF 3
ENDMDL
