MODEL 1
REMARK minimizedAffinity 9.54170895
REMARK minimizedRMSD -1
REMARK  3 active torsions:
REMARK  status: ('A' for Active; 'I' for Inactive)
REMARK    1  A    between atoms: C3'_2  and  C2'_3 
REMARK    2  A    between atoms: C2'_3  and  C1'_4 
REMARK    3  A    between atoms: C1'_4  and  C1_5 
ROOT
ATOM      1  C1  N4B d   1      -4.029   2.773  -3.303  0.00  0.00    -0.075 A 
ATOM      2  C2  N4B d   1      -4.090   4.175  -3.460  0.00  0.00     0.002 A 
ATOM      3  C3  N4B d   1      -4.872   4.721  -4.448  0.00  0.00     0.002 A 
ATOM      4  C4  N4B d   1      -5.582   3.889  -5.299  0.00  0.00    -0.004 A 
ATOM      5  C5  N4B d   1      -5.537   2.537  -5.125  0.00  0.00     0.002 A 
ATOM      6  C6  N4B d   1      -4.760   1.974  -4.133  0.00  0.00     0.002 A 
ENDROOT
BRANCH   1   7
ATOM      7  C1' N4B d   1      -3.122   2.126  -2.292  0.00  0.00     0.057 C 
BRANCH   7   8
ATOM      8  C2' N4B d   1      -1.776   1.827  -2.946  0.00  0.00     0.009 C 
BRANCH   8   9
ATOM      9  C3' N4B d   1      -0.728   2.868  -2.593  0.00  0.00     0.004 C 
ATOM     10  C4' N4B d   1       0.219   3.146  -3.722  0.00  0.00     0.003 C 
ENDBRANCH   8   9
ENDBRANCH   7   8
ENDBRANCH   1   7
TORSDOF 3
ENDMDL
