MODEL 1
REMARK minimizedAffinity 5.55523729
REMARK minimizedRMSD -1
REMARK  0 active torsions:
REMARK  status: ('A' for Active; 'I' for Inactive)
ROOT
ATOM      1  C   UNL d   1      -2.090   2.589   1.340  0.00  0.00     0.172 C 
ATOM      2  N   UNL d   1      -0.650   2.582   1.224  0.00  0.00    -0.070 N 
ATOM      3  C1  UNL d   1       0.069   3.117   0.189  0.00  0.00    -0.004 A 
ATOM      4  C2  UNL d   1       1.406   2.907   0.451  0.00  0.00    -0.047 A 
ATOM      5  C3  UNL d   1       1.492   2.221   1.686  0.00  0.00    -0.047 A 
ATOM      6  C4  UNL d   1       0.205   2.032   2.142  0.00  0.00    -0.004 A 
ENDROOT
TORSDOF 0
ENDMDL
