MODEL 1
REMARK minimizedAffinity 1.60579538
REMARK minimizedRMSD -1
REMARK  0 active torsions:
REMARK  status: ('A' for Active; 'I' for Inactive)
ROOT
ATOM      1  C   UNL d   1       2.613  -1.098  -0.717  0.00  0.00     0.172 C 
ATOM      2  N   UNL d   1       1.650  -2.173  -0.653  0.00  0.00    -0.070 N 
ATOM      3  C1  UNL d   1       0.507  -2.266  -1.401  0.00  0.00    -0.004 A 
ATOM      4  C2  UNL d   1      -0.135  -3.433  -1.047  0.00  0.00    -0.047 A 
ATOM      5  C3  UNL d   1       0.649  -4.063  -0.052  0.00  0.00    -0.047 A 
ATOM      6  C4  UNL d   1       1.749  -3.262   0.172  0.00  0.00    -0.004 A 
ENDROOT
TORSDOF 0
ENDMDL
