MODEL 1
REMARK minimizedAffinity 1.68121457
REMARK minimizedRMSD -1
REMARK  0 active torsions:
REMARK  status: ('A' for Active; 'I' for Inactive)
ROOT
ATOM      1  C   UNL d   1      -1.264  -2.991  -1.200  0.00  0.00     0.172 C 
ATOM      2  N   UNL d   1       0.059  -2.690  -0.707  0.00  0.00    -0.070 N 
ATOM      3  C1  UNL d   1       0.902  -1.736  -1.211  0.00  0.00    -0.004 A 
ATOM      4  C2  UNL d   1       2.062  -1.762  -0.468  0.00  0.00    -0.047 A 
ATOM      5  C3  UNL d   1       1.912  -2.767   0.517  0.00  0.00    -0.047 A 
ATOM      6  C4  UNL d   1       0.663  -3.326   0.346  0.00  0.00    -0.004 A 
ENDROOT
TORSDOF 0
ENDMDL
