MODEL 1
REMARK minimizedAffinity 1.37752187
REMARK minimizedRMSD -1
REMARK  0 active torsions:
REMARK  status: ('A' for Active; 'I' for Inactive)
ROOT
ATOM      1  C   UNL d   1       1.520   2.264   0.348  0.00  0.00     0.172 C 
ATOM      2  N   UNL d   1       2.286   2.257   1.573  0.00  0.00    -0.070 N 
ATOM      3  C1  UNL d   1       3.503   2.857   1.757  0.00  0.00    -0.004 A 
ATOM      4  C2  UNL d   1       3.897   2.622   3.057  0.00  0.00    -0.047 A 
ATOM      5  C3  UNL d   1       2.882   1.853   3.674  0.00  0.00    -0.047 A 
ATOM      6  C4  UNL d   1       1.896   1.642   2.733  0.00  0.00    -0.004 A 
ENDROOT
TORSDOF 0
ENDMDL
