MODEL 1
REMARK minimizedAffinity 4.16716814
REMARK minimizedRMSD -1
REMARK  0 active torsions:
REMARK  status: ('A' for Active; 'I' for Inactive)
ROOT
ATOM      1  C   UNL d   1      -0.255   1.642   3.606  0.00  0.00     0.172 C 
ATOM      2  N   UNL d   1      -0.005   2.074   2.251  0.00  0.00    -0.070 N 
ATOM      3  C1  UNL d   1      -0.794   2.927   1.526  0.00  0.00    -0.004 A 
ATOM      4  C2  UNL d   1      -0.215   3.086   0.286  0.00  0.00    -0.047 A 
ATOM      5  C3  UNL d   1       0.962   2.300   0.264  0.00  0.00    -0.047 A 
ATOM      6  C4  UNL d   1       1.067   1.684   1.493  0.00  0.00    -0.004 A 
ENDROOT
TORSDOF 0
ENDMDL
