MODEL 1
REMARK minimizedAffinity -0.658793151
REMARK minimizedRMSD -1
REMARK  0 active torsions:
REMARK  status: ('A' for Active; 'I' for Inactive)
ROOT
ATOM      1  C   UNL d   1       1.196   1.043  -0.188  0.00  0.00     0.172 C 
ATOM      2  N   UNL d   1       1.372  -0.390  -0.241  0.00  0.00    -0.070 N 
ATOM      3  C1  UNL d   1       2.498  -1.070   0.138  0.00  0.00    -0.004 A 
ATOM      4  C2  UNL d   1       2.267  -2.414  -0.063  0.00  0.00    -0.047 A 
ATOM      5  C3  UNL d   1       0.957  -2.545  -0.583  0.00  0.00    -0.047 A 
ATOM      6  C4  UNL d   1       0.426  -1.277  -0.682  0.00  0.00    -0.004 A 
ENDROOT
TORSDOF 0
ENDMDL
