MODEL 1
REMARK minimizedAffinity 3.01565552
REMARK minimizedRMSD -1
REMARK  0 active torsions:
REMARK  status: ('A' for Active; 'I' for Inactive)
ROOT
ATOM      1  C   UNL d   1       1.810   1.266   0.149  0.00  0.00     0.172 C 
ATOM      2  N   UNL d   1       1.804  -0.168  -0.021  0.00  0.00    -0.070 N 
ATOM      3  C1  UNL d   1       2.908  -0.954  -0.221  0.00  0.00    -0.004 A 
ATOM      4  C2  UNL d   1       2.482  -2.259  -0.335  0.00  0.00    -0.047 A 
ATOM      5  C3  UNL d   1       1.073  -2.259  -0.201  0.00  0.00    -0.047 A 
ATOM      6  C4  UNL d   1       0.680  -0.951  -0.008  0.00  0.00    -0.004 A 
ENDROOT
TORSDOF 0
ENDMDL
