MODEL 1
REMARK minimizedAffinity 1.90958393
REMARK minimizedRMSD -1
REMARK  0 active torsions:
REMARK  status: ('A' for Active; 'I' for Inactive)
ROOT
ATOM      1  C   UNL d   1       2.284   0.064  -0.199  0.00  0.00     0.172 C 
ATOM      2  N   UNL d   1       1.229   0.648   0.596  0.00  0.00    -0.070 N 
ATOM      3  C1  UNL d   1       0.979   0.375   1.914  0.00  0.00    -0.004 A 
ATOM      4  C2  UNL d   1      -0.105   1.132   2.304  0.00  0.00    -0.047 A 
ATOM      5  C3  UNL d   1      -0.520   1.886   1.181  0.00  0.00    -0.047 A 
ATOM      6  C4  UNL d   1       0.323   1.567   0.137  0.00  0.00    -0.004 A 
ENDROOT
TORSDOF 0
ENDMDL
