MODEL 1
REMARK minimizedAffinity 1.41517735
REMARK minimizedRMSD -1
REMARK  0 active torsions:
REMARK  status: ('A' for Active; 'I' for Inactive)
ROOT
ATOM      1  C   UNL d   1      -3.439   1.503   1.243  0.00  0.00     0.172 C 
ATOM      2  N   UNL d   1      -2.023   1.712   1.431  0.00  0.00    -0.070 N 
ATOM      3  C1  UNL d   1      -1.308   1.379   2.550  0.00  0.00    -0.004 A 
ATOM      4  C2  UNL d   1       0.005   1.738   2.335  0.00  0.00    -0.047 A 
ATOM      5  C3  UNL d   1       0.082   2.307   1.042  0.00  0.00    -0.047 A 
ATOM      6  C4  UNL d   1      -1.187   2.278   0.504  0.00  0.00    -0.004 A 
ENDROOT
TORSDOF 0
ENDMDL
