MODEL 1
REMARK minimizedAffinity -0.608219862
REMARK minimizedRMSD -1
REMARK  0 active torsions:
REMARK  status: ('A' for Active; 'I' for Inactive)
ROOT
ATOM      1  N1  IND d   1       2.225  -0.657  -1.157  0.00  0.00    -0.196 N 
ATOM      2  C2  IND d   1       1.138  -1.291  -0.623  0.00  0.00     0.054 A 
ATOM      3  C3  IND d   1       0.053  -1.105  -1.408  0.00  0.00    -0.031 A 
ATOM      4  C4  IND d   1      -0.143   0.118  -3.665  0.00  0.00     0.051 A 
ATOM      5  C5  IND d   1       0.573   0.887  -4.539  0.00  0.00    -0.031 A 
ATOM      6  C6  IND d   1       1.904   1.184  -4.328  0.00  0.00     0.015 A 
ATOM      7  C7  IND d   1       2.574   0.712  -3.235  0.00  0.00    -0.016 A 
ATOM      8  C8  IND d   1       1.849  -0.063  -2.342  0.00  0.00    -0.047 A 
ATOM      9  C9  IND d   1       0.487  -0.333  -2.529  0.00  0.00    -0.096 A 
ATOM     10  HN1 IND d   1       3.012  -0.633  -0.811  0.00  0.00     0.298 HD
ENDROOT
TORSDOF 0
ENDMDL
