MODEL 1
REMARK minimizedAffinity -3.16316056
REMARK minimizedRMSD -1
REMARK  0 active torsions:
REMARK  status: ('A' for Active; 'I' for Inactive)
ROOT
ATOM      1  N1  IND d   1      -1.333  -0.985  -0.350  0.00  0.00    -0.196 N 
ATOM      2  C2  IND d   1      -0.275  -1.021  -1.216  0.00  0.00     0.054 A 
ATOM      3  C3  IND d   1       0.706  -0.192  -0.796  0.00  0.00    -0.031 A 
ATOM      4  C4  IND d   1       0.831   1.245   1.337  0.00  0.00     0.051 A 
ATOM      5  C5  IND d   1       0.091   1.636   2.418  0.00  0.00    -0.031 A 
ATOM      6  C6  IND d   1      -1.186   1.161   2.637  0.00  0.00     0.015 A 
ATOM      7  C7  IND d   1      -1.769   0.266   1.785  0.00  0.00    -0.016 A 
ATOM      8  C8  IND d   1      -1.023  -0.128   0.683  0.00  0.00    -0.047 A 
ATOM      9  C9  IND d   1       0.257   0.383   0.433  0.00  0.00    -0.096 A 
ATOM     10  HN1 IND d   1      -2.067  -1.423  -0.437  0.00  0.00     0.298 HD
ENDROOT
TORSDOF 0
ENDMDL
