MODEL 1
REMARK minimizedAffinity 1.59307635
REMARK minimizedRMSD -1
REMARK  0 active torsions:
REMARK  status: ('A' for Active; 'I' for Inactive)
ROOT
ATOM      1  N1  IND d   1       0.924   0.335   0.012  0.00  0.00    -0.196 N 
ATOM      2  C2  IND d   1       0.452   0.302  -1.270  0.00  0.00     0.054 A 
ATOM      3  C3  IND d   1      -0.887   0.113  -1.274  0.00  0.00    -0.031 A 
ATOM      4  C4  IND d   1      -2.519  -0.064   0.710  0.00  0.00     0.051 A 
ATOM      5  C5  IND d   1      -2.553  -0.125   2.075  0.00  0.00    -0.031 A 
ATOM      6  C6  IND d   1      -1.407  -0.032   2.837  0.00  0.00     0.015 A 
ATOM      7  C7  IND d   1      -0.180   0.139   2.261  0.00  0.00    -0.016 A 
ATOM      8  C8  IND d   1      -0.141   0.195   0.875  0.00  0.00    -0.047 A 
ATOM      9  C9  IND d   1      -1.295   0.058   0.094  0.00  0.00    -0.096 A 
ATOM     10  HN1 IND d   1       1.747   0.429   0.241  0.00  0.00     0.298 HD
ENDROOT
TORSDOF 0
ENDMDL
