MODEL 1
REMARK minimizedAffinity -3.79613233
REMARK minimizedRMSD -1
REMARK  0 active torsions:
REMARK  status: ('A' for Active; 'I' for Inactive)
ROOT
ATOM      1  N1  IND d   1       1.154  -0.857  -0.211  0.00  0.00    -0.196 N 
ATOM      2  C2  IND d   1       0.106  -0.593  -1.047  0.00  0.00     0.054 A 
ATOM      3  C3  IND d   1      -0.944  -0.108  -0.347  0.00  0.00    -0.031 A 
ATOM      4  C4  IND d   1      -1.128   0.428   2.164  0.00  0.00     0.051 A 
ATOM      5  C5  IND d   1      -0.442   0.321   3.341  0.00  0.00    -0.031 A 
ATOM      6  C6  IND d   1       0.838  -0.192   3.396  0.00  0.00     0.015 A 
ATOM      7  C7  IND d   1       1.487  -0.608   2.268  0.00  0.00    -0.016 A 
ATOM      8  C8  IND d   1       0.791  -0.508   1.072  0.00  0.00    -0.047 A 
ATOM      9  C9  IND d   1      -0.524  -0.028   1.016  0.00  0.00    -0.096 A 
ATOM     10  HN1 IND d   1       1.913  -1.186  -0.445  0.00  0.00     0.298 HD
ENDROOT
TORSDOF 0
ENDMDL
