MODEL 1
REMARK minimizedAffinity -5.50767565
REMARK minimizedRMSD -1
REMARK  0 active torsions:
REMARK  status: ('A' for Active; 'I' for Inactive)
ROOT
ATOM      1  N1  IND d   1      -0.945   1.217   2.931  0.00  0.00    -0.196 N 
ATOM      2  C2  IND d   1       0.299   1.238   3.497  0.00  0.00     0.054 A 
ATOM      3  C3  IND d   1       1.152   0.465   2.788  0.00  0.00    -0.031 A 
ATOM      4  C4  IND d   1       0.746  -0.843   0.608  0.00  0.00     0.051 A 
ATOM      5  C5  IND d   1      -0.241  -1.195  -0.269  0.00  0.00    -0.031 A 
ATOM      6  C6  IND d   1      -1.539  -0.749  -0.124  0.00  0.00     0.015 A 
ATOM      7  C7  IND d   1      -1.897   0.078   0.903  0.00  0.00    -0.016 A 
ATOM      8  C8  IND d   1      -0.899   0.431   1.800  0.00  0.00    -0.047 A 
ATOM      9  C9  IND d   1       0.410  -0.052   1.682  0.00  0.00    -0.096 A 
ATOM     10  HN1 IND d   1      -1.639   1.627   3.230  0.00  0.00     0.298 HD
ENDROOT
TORSDOF 0
ENDMDL
