MODEL 1
REMARK minimizedAffinity -2.30668449
REMARK minimizedRMSD -1
REMARK  0 active torsions:
REMARK  status: ('A' for Active; 'I' for Inactive)
ROOT
ATOM      1  C2' OXE d   1      -3.049   1.253   4.982  0.00  0.00     0.078 C 
ATOM      2  C1' OXE d   1      -3.768  -0.999   3.466  0.00  0.00     0.078 C 
ATOM      3  C1  OXE d   1      -2.766  -0.041   2.872  0.00  0.00    -0.078 A 
ATOM      4  C2  OXE d   1      -2.455   1.082   3.600  0.00  0.00    -0.078 A 
ATOM      5  C3  OXE d   1      -1.496   1.970   3.122  0.00  0.00     0.003 A 
ATOM      6  C4  OXE d   1      -0.958   1.810   1.839  0.00  0.00    -0.002 A 
ATOM      7  C5  OXE d   1      -1.291   0.694   1.064  0.00  0.00    -0.002 A 
ATOM      8  C6  OXE d   1      -2.159  -0.261   1.582  0.00  0.00     0.003 A 
ENDROOT
TORSDOF 0
ENDMDL
