MODEL 1
REMARK minimizedAffinity -0.192198768
REMARK minimizedRMSD -1
REMARK  0 active torsions:
REMARK  status: ('A' for Active; 'I' for Inactive)
ROOT
ATOM      1  C2' OXE d   1      -0.801   0.269   0.335  0.00  0.00     0.078 C 
ATOM      2  C1' OXE d   1       0.659  -2.123   0.184  0.00  0.00     0.078 C 
ATOM      3  C1  OXE d   1       1.092  -0.978  -0.697  0.00  0.00    -0.078 A 
ATOM      4  C2  OXE d   1       0.343   0.173  -0.651  0.00  0.00    -0.078 A 
ATOM      5  C3  OXE d   1       0.731   1.278  -1.403  0.00  0.00     0.003 A 
ATOM      6  C4  OXE d   1       1.785   1.177  -2.320  0.00  0.00    -0.002 A 
ATOM      7  C5  OXE d   1       2.536   0.001  -2.411  0.00  0.00    -0.002 A 
ATOM      8  C6  OXE d   1       2.230  -1.070  -1.578  0.00  0.00     0.003 A 
ENDROOT
TORSDOF 0
ENDMDL
