MODEL 1
REMARK minimizedAffinity -2.34195542
REMARK minimizedRMSD -1
REMARK  0 active torsions:
REMARK  status: ('A' for Active; 'I' for Inactive)
ROOT
ATOM      1  C2' OXE d   1      -1.165  -0.035   1.156  0.00  0.00     0.078 C 
ATOM      2  C1' OXE d   1       0.240  -2.465   1.149  0.00  0.00     0.078 C 
ATOM      3  C1  OXE d   1       0.647  -1.415   0.146  0.00  0.00    -0.078 A 
ATOM      4  C2  OXE d   1      -0.077  -0.247   0.125  0.00  0.00    -0.078 A 
ATOM      5  C3  OXE d   1       0.292   0.777  -0.743  0.00  0.00     0.003 A 
ATOM      6  C4  OXE d   1       1.293   0.569  -1.700  0.00  0.00    -0.002 A 
ATOM      7  C5  OXE d   1       2.015  -0.629  -1.722  0.00  0.00    -0.002 A 
ATOM      8  C6  OXE d   1       1.734  -1.612  -0.781  0.00  0.00     0.003 A 
ENDROOT
TORSDOF 0
ENDMDL
