MODEL 1
REMARK minimizedAffinity -3.27000165
REMARK minimizedRMSD -1
REMARK  0 active torsions:
REMARK  status: ('A' for Active; 'I' for Inactive)
ROOT
ATOM      1  C2' OXE d   1      -0.910   1.641  -1.427  0.00  0.00     0.078 C 
ATOM      2  C1' OXE d   1      -1.679   0.238   0.880  0.00  0.00     0.078 C 
ATOM      3  C1  OXE d   1      -0.385  -0.158   0.214  0.00  0.00    -0.078 A 
ATOM      4  C2  OXE d   1      -0.040   0.502  -0.940  0.00  0.00    -0.078 A 
ATOM      5  C3  OXE d   1       1.171   0.214  -1.564  0.00  0.00     0.003 A 
ATOM      6  C4  OXE d   1       1.965  -0.847  -1.113  0.00  0.00    -0.002 A 
ATOM      7  C5  OXE d   1       1.612  -1.559   0.038  0.00  0.00    -0.002 A 
ATOM      8  C6  OXE d   1       0.464  -1.200   0.736  0.00  0.00     0.003 A 
ENDROOT
TORSDOF 0
ENDMDL
