MODEL 1
REMARK minimizedAffinity -5.34387779
REMARK minimizedRMSD -1
REMARK  0 active torsions:
REMARK  status: ('A' for Active; 'I' for Inactive)
ROOT
ATOM      1  C2' OXE d   1       1.127   1.976  -1.126  0.00  0.00     0.078 C 
ATOM      2  C1' OXE d   1       2.638  -0.390  -1.152  0.00  0.00     0.078 C 
ATOM      3  C1  OXE d   1       1.198  -0.480  -0.715  0.00  0.00    -0.078 A 
ATOM      4  C2  OXE d   1       0.479   0.690  -0.661  0.00  0.00    -0.078 A 
ATOM      5  C3  OXE d   1      -0.870   0.655  -0.317  0.00  0.00     0.003 A 
ATOM      6  C4  OXE d   1      -1.459  -0.537   0.122  0.00  0.00    -0.002 A 
ATOM      7  C5  OXE d   1      -0.733  -1.733   0.113  0.00  0.00    -0.002 A 
ATOM      8  C6  OXE d   1       0.581  -1.729  -0.342  0.00  0.00     0.003 A 
ENDROOT
TORSDOF 0
ENDMDL
