MODEL 1
REMARK minimizedAffinity -4.67005587
REMARK minimizedRMSD -1
REMARK  0 active torsions:
REMARK  status: ('A' for Active; 'I' for Inactive)
ROOT
ATOM      1  C2' OXE d   1      -1.435  -0.017   1.080  0.00  0.00     0.078 C 
ATOM      2  C1' OXE d   1      -0.592  -2.500   0.077  0.00  0.00     0.078 C 
ATOM      3  C1  OXE d   1       0.196  -1.276  -0.320  0.00  0.00    -0.078 A 
ATOM      4  C2  OXE d   1      -0.251  -0.060   0.138  0.00  0.00    -0.078 A 
ATOM      5  C3  OXE d   1       0.470   1.094  -0.154  0.00  0.00     0.003 A 
ATOM      6  C4  OXE d   1       1.558   1.046  -1.034  0.00  0.00    -0.002 A 
ATOM      7  C5  OXE d   1       2.007  -0.177  -1.543  0.00  0.00    -0.002 A 
ATOM      8  C6  OXE d   1       1.364  -1.350  -1.163  0.00  0.00     0.003 A 
ENDROOT
TORSDOF 0
ENDMDL
