MODEL 1
REMARK minimizedAffinity -3.70192504
REMARK minimizedRMSD -1
REMARK  0 active torsions:
REMARK  status: ('A' for Active; 'I' for Inactive)
ROOT
ATOM      1  C2' OXE d   1      -1.810   2.792   2.615  0.00  0.00     0.078 C 
ATOM      2  C1' OXE d   1      -1.829   0.786   0.651  0.00  0.00     0.078 C 
ATOM      3  C1  OXE d   1      -2.514   0.494   1.963  0.00  0.00    -0.078 A 
ATOM      4  C2  OXE d   1      -2.460   1.463   2.935  0.00  0.00    -0.078 A 
ATOM      5  C3  OXE d   1      -3.122   1.267   4.143  0.00  0.00     0.003 A 
ATOM      6  C4  OXE d   1      -3.713   0.031   4.435  0.00  0.00    -0.002 A 
ATOM      7  C5  OXE d   1      -3.745  -0.985   3.473  0.00  0.00    -0.002 A 
ATOM      8  C6  OXE d   1      -3.189  -0.755   2.220  0.00  0.00     0.003 A 
ENDROOT
TORSDOF 0
ENDMDL
