MODEL 1
REMARK minimizedAffinity -5.0579381
REMARK minimizedRMSD -1
REMARK  0 active torsions:
REMARK  status: ('A' for Active; 'I' for Inactive)
ROOT
ATOM      1  C2' OXE d   1      -0.724  -2.312   0.168  0.00  0.00     0.078 C 
ATOM      2  C1' OXE d   1      -1.214   0.349   0.915  0.00  0.00     0.078 C 
ATOM      3  C1  OXE d   1       0.058   0.053   0.159  0.00  0.00    -0.078 A 
ATOM      4  C2  OXE d   1       0.312  -1.259  -0.161  0.00  0.00    -0.078 A 
ATOM      5  C3  OXE d   1       1.443  -1.580  -0.905  0.00  0.00     0.003 A 
ATOM      6  C4  OXE d   1       2.401  -0.602  -1.197  0.00  0.00    -0.002 A 
ATOM      7  C5  OXE d   1       2.182   0.734  -0.845  0.00  0.00    -0.002 A 
ATOM      8  C6  OXE d   1       0.998   1.085  -0.205  0.00  0.00     0.003 A 
ENDROOT
TORSDOF 0
ENDMDL
