MODEL 1
REMARK minimizedAffinity -1.81922054
REMARK minimizedRMSD -1
REMARK  0 active torsions:
REMARK  status: ('A' for Active; 'I' for Inactive)
ROOT
ATOM      1  C2' OXE d   1       0.051  -2.888   0.064  0.00  0.00     0.078 C 
ATOM      2  C1' OXE d   1       1.927  -1.523  -1.516  0.00  0.00     0.078 C 
ATOM      3  C1  OXE d   1       0.930  -0.700  -0.740  0.00  0.00    -0.078 A 
ATOM      4  C2  OXE d   1      -0.014  -1.377  -0.006  0.00  0.00    -0.078 A 
ATOM      5  C3  OXE d   1      -0.923  -0.666   0.772  0.00  0.00     0.003 A 
ATOM      6  C4  OXE d   1      -0.983   0.731   0.693  0.00  0.00    -0.002 A 
ATOM      7  C5  OXE d   1      -0.056   1.439  -0.079  0.00  0.00    -0.002 A 
ATOM      8  C6  OXE d   1       0.931   0.742  -0.767  0.00  0.00     0.003 A 
ENDROOT
TORSDOF 0
ENDMDL
