MODEL 1
REMARK minimizedAffinity -5.21671724
REMARK minimizedRMSD -1
REMARK  0 active torsions:
REMARK  status: ('A' for Active; 'I' for Inactive)
ROOT
ATOM      1  C2' OXE d   1       2.866  -0.596  -1.458  0.00  0.00     0.078 C 
ATOM      2  C1' OXE d   1       1.421   1.803  -1.643  0.00  0.00     0.078 C 
ATOM      3  C1  OXE d   1       0.812   0.675  -0.849  0.00  0.00    -0.078 A 
ATOM      4  C2  OXE d   1       1.505  -0.511  -0.802  0.00  0.00    -0.078 A 
ATOM      5  C3  OXE d   1       1.015  -1.566  -0.038  0.00  0.00     0.003 A 
ATOM      6  C4  OXE d   1      -0.250  -1.482   0.557  0.00  0.00    -0.002 A 
ATOM      7  C5  OXE d   1      -0.990  -0.297   0.489  0.00  0.00    -0.002 A 
ATOM      8  C6  OXE d   1      -0.455   0.803  -0.173  0.00  0.00     0.003 A 
ENDROOT
TORSDOF 0
ENDMDL
