MODEL 1
REMARK minimizedAffinity -1.71868575
REMARK minimizedRMSD -1
REMARK  0 active torsions:
REMARK  status: ('A' for Active; 'I' for Inactive)
ROOT
ATOM      1  C2' OXE d   1      -1.084   2.075   2.987  0.00  0.00     0.078 C 
ATOM      2  C1' OXE d   1      -1.715   0.548   0.718  0.00  0.00     0.078 C 
ATOM      3  C1  OXE d   1      -2.395   0.192   2.016  0.00  0.00    -0.078 A 
ATOM      4  C2  OXE d   1      -2.045   0.915   3.131  0.00  0.00    -0.078 A 
ATOM      5  C3  OXE d   1      -2.682   0.664   4.343  0.00  0.00     0.003 A 
ATOM      6  C4  OXE d   1      -3.562  -0.418   4.471  0.00  0.00    -0.002 A 
ATOM      7  C5  OXE d   1      -3.902  -1.192   3.356  0.00  0.00    -0.002 A 
ATOM      8  C6  OXE d   1      -3.361  -0.874   2.115  0.00  0.00     0.003 A 
ENDROOT
TORSDOF 0
ENDMDL
