MODEL 1
REMARK minimizedAffinity -3.48277473
REMARK minimizedRMSD -1
REMARK  0 active torsions:
REMARK  status: ('A' for Active; 'I' for Inactive)
ROOT
ATOM      1  C2' OXE d   1       2.605  -0.495  -1.091  0.00  0.00     0.078 C 
ATOM      2  C1' OXE d   1       1.645   2.133  -1.322  0.00  0.00     0.078 C 
ATOM      3  C1  OXE d   1       0.682   1.071  -0.853  0.00  0.00    -0.078 A 
ATOM      4  C2  OXE d   1       1.148  -0.221  -0.788  0.00  0.00    -0.078 A 
ATOM      5  C3  OXE d   1       0.317  -1.229  -0.310  0.00  0.00     0.003 A 
ATOM      6  C4  OXE d   1      -1.033  -0.969  -0.041  0.00  0.00    -0.002 A 
ATOM      7  C5  OXE d   1      -1.537   0.332  -0.139  0.00  0.00    -0.002 A 
ATOM      8  C6  OXE d   1      -0.684   1.369  -0.502  0.00  0.00     0.003 A 
ENDROOT
TORSDOF 0
ENDMDL
