MODEL 1
REMARK minimizedAffinity -3.5450151
REMARK minimizedRMSD -1
REMARK  0 active torsions:
REMARK  status: ('A' for Active; 'I' for Inactive)
ROOT
ATOM      1  C2' OXE d   1      -0.791   0.067   0.667  0.00  0.00     0.078 C 
ATOM      2  C1' OXE d   1      -0.104  -2.627   0.278  0.00  0.00     0.078 C 
ATOM      3  C1  OXE d   1       0.808  -1.577  -0.306  0.00  0.00    -0.078 A 
ATOM      4  C2  OXE d   1       0.439  -0.262  -0.152  0.00  0.00    -0.078 A 
ATOM      5  C3  OXE d   1       1.272   0.748  -0.624  0.00  0.00     0.003 A 
ATOM      6  C4  OXE d   1       2.403   0.434  -1.388  0.00  0.00    -0.002 A 
ATOM      7  C5  OXE d   1       2.775  -0.899  -1.592  0.00  0.00    -0.002 A 
ATOM      8  C6  OXE d   1       2.013  -1.913  -1.023  0.00  0.00     0.003 A 
ENDROOT
TORSDOF 0
ENDMDL
