MODEL 1
REMARK minimizedAffinity -1.76695454
REMARK minimizedRMSD -1
REMARK  0 active torsions:
REMARK  status: ('A' for Active; 'I' for Inactive)
ROOT
ATOM      1  C2' OXE d   1       3.136   0.191  -2.552  0.00  0.00     0.078 C 
ATOM      2  C1' OXE d   1       1.386   2.368  -2.271  0.00  0.00     0.078 C 
ATOM      3  C1  OXE d   1       1.184   1.181  -1.363  0.00  0.00    -0.078 A 
ATOM      4  C2  OXE d   1       2.015   0.101  -1.539  0.00  0.00    -0.078 A 
ATOM      5  C3  OXE d   1       1.907  -0.998  -0.692  0.00  0.00     0.003 A 
ATOM      6  C4  OXE d   1       0.861  -1.078   0.236  0.00  0.00    -0.002 A 
ATOM      7  C5  OXE d   1      -0.022  -0.005   0.404  0.00  0.00    -0.002 A 
ATOM      8  C6  OXE d   1       0.152   1.146  -0.356  0.00  0.00     0.003 A 
ENDROOT
TORSDOF 0
ENDMDL
