MODEL 1
REMARK minimizedAffinity -3.3375299
REMARK minimizedRMSD -1
REMARK  0 active torsions:
REMARK  status: ('A' for Active; 'I' for Inactive)
ROOT
ATOM      1  C2' OXE d   1      -1.573   0.049   0.909  0.00  0.00     0.078 C 
ATOM      2  C1' OXE d   1      -0.917  -2.558   0.101  0.00  0.00     0.078 C 
ATOM      3  C1  OXE d   1       0.029  -1.446  -0.277  0.00  0.00    -0.078 A 
ATOM      4  C2  OXE d   1      -0.324  -0.167   0.082  0.00  0.00    -0.078 A 
ATOM      5  C3  OXE d   1       0.540   0.889  -0.193  0.00  0.00     0.003 A 
ATOM      6  C4  OXE d   1       1.688   0.682  -0.967  0.00  0.00    -0.002 A 
ATOM      7  C5  OXE d   1       2.046  -0.607  -1.377  0.00  0.00    -0.002 A 
ATOM      8  C6  OXE d   1       1.250  -1.685  -1.004  0.00  0.00     0.003 A 
ENDROOT
TORSDOF 0
ENDMDL
