MODEL 1
REMARK minimizedAffinity -5.15913057
REMARK minimizedRMSD -1
REMARK  0 active torsions:
REMARK  status: ('A' for Active; 'I' for Inactive)
ROOT
ATOM      1  C2' OXE d   1       1.162  -1.818  -0.212  0.00  0.00     0.078 C 
ATOM      2  C1' OXE d   1      -0.632   0.260   0.372  0.00  0.00     0.078 C 
ATOM      3  C1  OXE d   1       0.384   0.493  -0.718  0.00  0.00    -0.078 A 
ATOM      4  C2  OXE d   1       1.288  -0.511  -0.966  0.00  0.00    -0.078 A 
ATOM      5  C3  OXE d   1       2.211  -0.369  -1.998  0.00  0.00     0.003 A 
ATOM      6  C4  OXE d   1       2.327   0.846  -2.682  0.00  0.00    -0.002 A 
ATOM      7  C5  OXE d   1       1.442   1.897  -2.419  0.00  0.00    -0.002 A 
ATOM      8  C6  OXE d   1       0.439   1.722  -1.472  0.00  0.00     0.003 A 
ENDROOT
TORSDOF 0
ENDMDL
