MODEL 1
REMARK minimizedAffinity -4.7523613
REMARK minimizedRMSD -1
REMARK  2 active torsions:
REMARK  status: ('A' for Active; 'I' for Inactive)
REMARK    1  A    between atoms: C2'_3  and  C1'_4 
REMARK    2  A    between atoms: C1'_4  and  C1_5 
ROOT
ATOM      1  C1  I4B d   1      -0.808  -0.428   0.065  0.00  0.00    -0.075 A 
ATOM      2  C2  I4B d   1      -1.822  -0.192   0.959  0.00  0.00     0.003 A 
ATOM      3  C3  I4B d   1      -2.102  -1.128   1.984  0.00  0.00     0.002 A 
ATOM      4  C4  I4B d   1      -1.380  -2.303   2.046  0.00  0.00    -0.004 A 
ATOM      5  C5  I4B d   1      -0.338  -2.530   1.153  0.00  0.00     0.002 A 
ATOM      6  C6  I4B d   1      -0.041  -1.582   0.163  0.00  0.00     0.003 A 
ENDROOT
BRANCH   1   7
ATOM      7  C1' I4B d   1      -0.562   0.566  -1.025  0.00  0.00     0.060 C 
BRANCH   7   8
ATOM      8  C2' I4B d   1       0.525   1.512  -0.557  0.00  0.00    -0.013 C 
ATOM      9  C4' I4B d   1       1.373   1.982  -1.710  0.00  0.00     0.013 C 
ATOM     10  C3' I4B d   1      -0.133   2.667   0.137  0.00  0.00     0.013 C 
ENDBRANCH   7   8
ENDBRANCH   1   7
TORSDOF 2
ENDMDL
