MODEL 1
REMARK minimizedAffinity -3.37476993
REMARK minimizedRMSD -1
REMARK  2 active torsions:
REMARK  status: ('A' for Active; 'I' for Inactive)
REMARK    1  A    between atoms: C2'_3  and  C1'_4 
REMARK    2  A    between atoms: C1'_4  and  C1_5 
ROOT
ATOM      1  C1  I4B d   1       0.521   0.598  -0.224  0.00  0.00    -0.075 A 
ATOM      2  C2  I4B d   1       0.911   0.219   1.037  0.00  0.00     0.003 A 
ATOM      3  C3  I4B d   1       0.823  -1.137   1.433  0.00  0.00     0.002 A 
ATOM      4  C4  I4B d   1       0.295  -2.067   0.560  0.00  0.00    -0.004 A 
ATOM      5  C5  I4B d   1      -0.078  -1.685  -0.725  0.00  0.00     0.002 A 
ATOM      6  C6  I4B d   1       0.047  -0.347  -1.125  0.00  0.00     0.003 A 
ENDROOT
BRANCH   1   7
ATOM      7  C1' I4B d   1       0.597   2.044  -0.598  0.00  0.00     0.060 C 
BRANCH   7   8
ATOM      8  C2' I4B d   1       1.305   2.145  -1.934  0.00  0.00    -0.013 C 
ATOM      9  C4' I4B d   1       0.437   2.823  -2.961  0.00  0.00     0.013 C 
ATOM     10  C3' I4B d   1       2.585   2.898  -1.724  0.00  0.00     0.013 C 
ENDBRANCH   7   8
ENDBRANCH   1   7
TORSDOF 2
ENDMDL
