MODEL 1
REMARK minimizedAffinity -4.67365551
REMARK minimizedRMSD -1
REMARK  2 active torsions:
REMARK  status: ('A' for Active; 'I' for Inactive)
REMARK    1  A    between atoms: C2'_3  and  C1'_4 
REMARK    2  A    between atoms: C1'_4  and  C1_5 
ROOT
ATOM      1  C1  I4B d   1       0.281   0.692   0.137  0.00  0.00    -0.075 A 
ATOM      2  C2  I4B d   1      -1.009   0.324   0.428  0.00  0.00     0.003 A 
ATOM      3  C3  I4B d   1      -1.291  -0.988   0.878  0.00  0.00     0.002 A 
ATOM      4  C4  I4B d   1      -0.267  -1.909   0.974  0.00  0.00    -0.004 A 
ATOM      5  C5  I4B d   1       1.043  -1.527   0.700  0.00  0.00     0.002 A 
ATOM      6  C6  I4B d   1       1.321  -0.215   0.290  0.00  0.00     0.003 A 
ENDROOT
BRANCH   1   7
ATOM      7  C1' I4B d   1       0.539   2.077  -0.368  0.00  0.00     0.060 C 
BRANCH   7   8
ATOM      8  C2' I4B d   1       1.030   1.969  -1.797  0.00  0.00    -0.013 C 
ATOM      9  C4' I4B d   1      -0.093   2.188  -2.777  0.00  0.00     0.013 C 
ATOM     10  C3' I4B d   1       2.121   2.979  -1.990  0.00  0.00     0.013 C 
ENDBRANCH   7   8
ENDBRANCH   1   7
TORSDOF 2
ENDMDL
