MODEL 1
REMARK minimizedAffinity -0.892871022
REMARK minimizedRMSD -1
REMARK  2 active torsions:
REMARK  status: ('A' for Active; 'I' for Inactive)
REMARK    1  A    between atoms: C2'_3  and  C1'_4 
REMARK    2  A    between atoms: C1'_4  and  C1_5 
ROOT
ATOM      1  C1  I4B d   1      -0.231  -0.132   0.704  0.00  0.00    -0.075 A 
ATOM      2  C2  I4B d   1      -0.205  -1.425   1.163  0.00  0.00     0.003 A 
ATOM      3  C3  I4B d   1      -1.241  -1.906   2.000  0.00  0.00     0.002 A 
ATOM      4  C4  I4B d   1      -2.250  -1.051   2.391  0.00  0.00    -0.004 A 
ATOM      5  C5  I4B d   1      -2.288   0.253   1.906  0.00  0.00     0.002 A 
ATOM      6  C6  I4B d   1      -1.279   0.712   1.047  0.00  0.00     0.003 A 
ENDROOT
BRANCH   1   7
ATOM      7  C1' I4B d   1       0.896   0.353  -0.151  0.00  0.00     0.060 C 
BRANCH   7   8
ATOM      8  C2' I4B d   1       0.548   0.055  -1.595  0.00  0.00    -0.013 C 
ATOM      9  C4' I4B d   1       1.233   1.017  -2.531  0.00  0.00     0.013 C 
ATOM     10  C3' I4B d   1       0.947  -1.360  -1.886  0.00  0.00     0.013 C 
ENDBRANCH   7   8
ENDBRANCH   1   7
TORSDOF 2
ENDMDL
