MODEL 1
REMARK minimizedAffinity -2.75540543
REMARK minimizedRMSD -1
REMARK  2 active torsions:
REMARK  status: ('A' for Active; 'I' for Inactive)
REMARK    1  A    between atoms: C2'_3  and  C1'_4 
REMARK    2  A    between atoms: C1'_4  and  C1_5 
ROOT
ATOM      1  C1  I4B d   1       0.202   0.829  -0.356  0.00  0.00    -0.075 A 
ATOM      2  C2  I4B d   1       1.010  -0.268  -0.523  0.00  0.00     0.003 A 
ATOM      3  C3  I4B d   1       0.573  -1.546  -0.098  0.00  0.00     0.002 A 
ATOM      4  C4  I4B d   1      -0.648  -1.673   0.531  0.00  0.00    -0.004 A 
ATOM      5  C5  I4B d   1      -1.476  -0.564   0.680  0.00  0.00     0.002 A 
ATOM      6  C6  I4B d   1      -1.054   0.693   0.222  0.00  0.00     0.003 A 
ENDROOT
BRANCH   1   7
ATOM      7  C1' I4B d   1       0.708   2.169  -0.786  0.00  0.00     0.060 C 
BRANCH   7   8
ATOM      8  C2' I4B d   1       1.084   2.077  -2.251  0.00  0.00    -0.013 C 
ATOM      9  C4' I4B d   1       0.190   2.943  -3.099  0.00  0.00     0.013 C 
ATOM     10  C3' I4B d   1       2.521   2.486  -2.386  0.00  0.00     0.013 C 
ENDBRANCH   7   8
ENDBRANCH   1   7
TORSDOF 2
ENDMDL
