MODEL 1
REMARK minimizedAffinity -3.66882873
REMARK minimizedRMSD -1
REMARK  2 active torsions:
REMARK  status: ('A' for Active; 'I' for Inactive)
REMARK    1  A    between atoms: C2'_3  and  C1'_4 
REMARK    2  A    between atoms: C1'_4  and  C1_5 
ROOT
ATOM      1  C1  I4B d   1       0.483   0.529  -1.002  0.00  0.00    -0.075 A 
ATOM      2  C2  I4B d   1       0.385  -0.151  -2.190  0.00  0.00     0.003 A 
ATOM      3  C3  I4B d   1       0.858   0.436  -3.388  0.00  0.00     0.002 A 
ATOM      4  C4  I4B d   1       1.371   1.716  -3.362  0.00  0.00    -0.004 A 
ATOM      5  C5  I4B d   1       1.490   2.395  -2.152  0.00  0.00     0.002 A 
ATOM      6  C6  I4B d   1       1.055   1.794  -0.963  0.00  0.00     0.003 A 
ENDROOT
BRANCH   1   7
ATOM      7  C1' I4B d   1      -0.057  -0.108   0.240  0.00  0.00     0.060 C 
BRANCH   7   8
ATOM      8  C2' I4B d   1       0.765  -1.348   0.523  0.00  0.00    -0.013 C 
ATOM      9  C4' I4B d   1       2.123  -0.990   1.068  0.00  0.00     0.013 C 
ATOM     10  C3' I4B d   1       0.000  -2.199   1.493  0.00  0.00     0.013 C 
ENDBRANCH   7   8
ENDBRANCH   1   7
TORSDOF 2
ENDMDL
