MODEL 1
REMARK minimizedAffinity -4.13845348
REMARK minimizedRMSD -1
REMARK  2 active torsions:
REMARK  status: ('A' for Active; 'I' for Inactive)
REMARK    1  A    between atoms: C2'_3  and  C1'_4 
REMARK    2  A    between atoms: C1'_4  and  C1_5 
ROOT
ATOM      1  C1  I4B d   1      -0.431  -0.322   0.690  0.00  0.00    -0.075 A 
ATOM      2  C2  I4B d   1      -1.548   0.249   1.248  0.00  0.00     0.003 A 
ATOM      3  C3  I4B d   1      -2.342  -0.483   2.163  0.00  0.00     0.002 A 
ATOM      4  C4  I4B d   1      -2.013  -1.792   2.452  0.00  0.00    -0.004 A 
ATOM      5  C5  I4B d   1      -0.868  -2.362   1.903  0.00  0.00     0.002 A 
ATOM      6  C6  I4B d   1      -0.065  -1.619   1.026  0.00  0.00     0.003 A 
ENDROOT
BRANCH   1   7
ATOM      7  C1' I4B d   1       0.366   0.468  -0.298  0.00  0.00     0.060 C 
BRANCH   7   8
ATOM      8  C2' I4B d   1      -0.196   0.194  -1.678  0.00  0.00    -0.013 C 
ATOM      9  C4' I4B d   1       0.519   1.002  -2.729  0.00  0.00     0.013 C 
ATOM     10  C3' I4B d   1      -0.070  -1.276  -1.946  0.00  0.00     0.013 C 
ENDBRANCH   7   8
ENDBRANCH   1   7
TORSDOF 2
ENDMDL
