MODEL 1
REMARK minimizedAffinity -3.74959898
REMARK minimizedRMSD -1
REMARK  2 active torsions:
REMARK  status: ('A' for Active; 'I' for Inactive)
REMARK    1  A    between atoms: C2'_3  and  C1'_4 
REMARK    2  A    between atoms: C1'_4  and  C1_5 
ROOT
ATOM      1  C1  I4B d   1       0.414   0.766  -1.054  0.00  0.00    -0.075 A 
ATOM      2  C2  I4B d   1      -0.351   0.402  -2.134  0.00  0.00     0.003 A 
ATOM      3  C3  I4B d   1      -0.222   1.092  -3.364  0.00  0.00     0.002 A 
ATOM      4  C4  I4B d   1       0.641   2.165  -3.454  0.00  0.00    -0.004 A 
ATOM      5  C5  I4B d   1       1.432   2.518  -2.365  0.00  0.00     0.002 A 
ATOM      6  C6  I4B d   1       1.328   1.807  -1.161  0.00  0.00     0.003 A 
ENDROOT
BRANCH   1   7
ATOM      7  C1' I4B d   1       0.229   0.037   0.239  0.00  0.00     0.060 C 
BRANCH   7   8
ATOM      8  C2' I4B d   1       0.716  -1.385   0.047  0.00  0.00    -0.013 C 
ATOM      9  C4' I4B d   1       2.216  -1.465   0.143  0.00  0.00     0.013 C 
ATOM     10  C3' I4B d   1       0.060  -2.243   1.088  0.00  0.00     0.013 C 
ENDBRANCH   7   8
ENDBRANCH   1   7
TORSDOF 2
ENDMDL
