MODEL 1
REMARK minimizedAffinity -4.96647978
REMARK minimizedRMSD -1
REMARK  2 active torsions:
REMARK  status: ('A' for Active; 'I' for Inactive)
REMARK    1  A    between atoms: C2'_3  and  C1'_4 
REMARK    2  A    between atoms: C1'_4  and  C1_5 
ROOT
ATOM      1  C1  I4B d   1       0.120   0.831  -1.016  0.00  0.00    -0.075 A 
ATOM      2  C2  I4B d   1       1.231   1.604  -0.791  0.00  0.00     0.003 A 
ATOM      3  C3  I4B d   1       1.878   2.253  -1.870  0.00  0.00     0.002 A 
ATOM      4  C4  I4B d   1       1.414   2.062  -3.155  0.00  0.00    -0.004 A 
ATOM      5  C5  I4B d   1       0.274   1.296  -3.379  0.00  0.00     0.002 A 
ATOM      6  C6  I4B d   1      -0.385   0.686  -2.302  0.00  0.00     0.003 A 
ENDROOT
BRANCH   1   7
ATOM      7  C1' I4B d   1      -0.520   0.133   0.142  0.00  0.00     0.060 C 
BRANCH   7   8
ATOM      8  C2' I4B d   1      -0.133  -1.330   0.078  0.00  0.00    -0.013 C 
ATOM      9  C4' I4B d   1       1.339  -1.517   0.340  0.00  0.00     0.013 C 
ATOM     10  C3' I4B d   1      -0.960  -2.073   1.083  0.00  0.00     0.013 C 
ENDBRANCH   7   8
ENDBRANCH   1   7
TORSDOF 2
ENDMDL
