MODEL 1
REMARK minimizedAffinity -4.90833235
REMARK minimizedRMSD -1
REMARK  2 active torsions:
REMARK  status: ('A' for Active; 'I' for Inactive)
REMARK    1  A    between atoms: C2'_3  and  C1'_4 
REMARK    2  A    between atoms: C1'_4  and  C1_5 
ROOT
ATOM      1  C1  I4B d   1       0.277   0.561   0.010  0.00  0.00    -0.075 A 
ATOM      2  C2  I4B d   1      -1.008   0.232   0.363  0.00  0.00     0.003 A 
ATOM      3  C3  I4B d   1      -1.315  -1.084   0.788  0.00  0.00     0.002 A 
ATOM      4  C4  I4B d   1      -0.324  -2.044   0.797  0.00  0.00    -0.004 A 
ATOM      5  C5  I4B d   1       0.983  -1.702   0.460  0.00  0.00     0.002 A 
ATOM      6  C6  I4B d   1       1.288  -0.388   0.076  0.00  0.00     0.003 A 
ENDROOT
BRANCH   1   7
ATOM      7  C1' I4B d   1       0.560   1.951  -0.465  0.00  0.00     0.060 C 
BRANCH   7   8
ATOM      8  C2' I4B d   1       1.075   1.862  -1.887  0.00  0.00    -0.013 C 
ATOM      9  C4' I4B d   1      -0.024   2.125  -2.883  0.00  0.00     0.013 C 
ATOM     10  C3' I4B d   1       2.190   2.853  -2.038  0.00  0.00     0.013 C 
ENDBRANCH   7   8
ENDBRANCH   1   7
TORSDOF 2
ENDMDL
