MODEL 1
REMARK minimizedAffinity -4.55476904
REMARK minimizedRMSD -1
REMARK  2 active torsions:
REMARK  status: ('A' for Active; 'I' for Inactive)
REMARK    1  A    between atoms: C2'_3  and  C1'_4 
REMARK    2  A    between atoms: C1'_4  and  C1_5 
ROOT
ATOM      1  C1  I4B d   1      -0.524  -0.750  -0.055  0.00  0.00    -0.075 A 
ATOM      2  C2  I4B d   1      -0.532  -2.103   0.180  0.00  0.00     0.003 A 
ATOM      3  C3  I4B d   1      -1.487  -2.668   1.059  0.00  0.00     0.002 A 
ATOM      4  C4  I4B d   1      -2.377  -1.844   1.717  0.00  0.00    -0.004 A 
ATOM      5  C5  I4B d   1      -2.382  -0.476   1.460  0.00  0.00     0.002 A 
ATOM      6  C6  I4B d   1      -1.458   0.074   0.559  0.00  0.00     0.003 A 
ENDROOT
BRANCH   1   7
ATOM      7  C1' I4B d   1       0.520  -0.183  -0.964  0.00  0.00     0.060 C 
BRANCH   7   8
ATOM      8  C2' I4B d   1       0.269   1.306  -1.091  0.00  0.00    -0.013 C 
ATOM      9  C4' I4B d   1       0.984   2.074  -0.010  0.00  0.00     0.013 C 
ATOM     10  C3' I4B d   1       0.723   1.738  -2.453  0.00  0.00     0.013 C 
ENDBRANCH   7   8
ENDBRANCH   1   7
TORSDOF 2
ENDMDL
