MODEL 1
REMARK minimizedAffinity 7.87547636
REMARK minimizedRMSD -1
REMARK  0 active torsions:
REMARK  status: ('A' for Active; 'I' for Inactive)
ROOT
ATOM      1  C   UNL d   1       2.438  -2.672   4.499  0.00  0.00     0.020 A 
ATOM      2  C1  UNL d   1       3.663  -2.009   4.543  0.00  0.00     0.020 A 
ATOM      3  C2  UNL d   1       3.885  -0.897   3.727  0.00  0.00     0.034 A 
ATOM      4  C3  UNL d   1       2.880  -0.446   2.864  0.00  0.00     0.017 A 
ATOM      5  C4  UNL d   1       1.651  -1.112   2.821  0.00  0.00     0.017 A 
ATOM      6  C5  UNL d   1       1.434  -2.225   3.640  0.00  0.00     0.034 A 
ATOM      7 Cl   UNL d   1       0.362  -0.614   1.781  0.00  0.00    -0.070 Cl
ATOM      8 Cl1  UNL d   1       3.224   0.935   1.884  0.00  0.00    -0.070 Cl
ENDROOT
TORSDOF 0
ENDMDL
