MODEL 1
REMARK minimizedAffinity 12.9186583
REMARK minimizedRMSD -1
REMARK  0 active torsions:
REMARK  status: ('A' for Active; 'I' for Inactive)
ROOT
ATOM      1  C   UNL d   1       1.622  -0.949   1.379  0.00  0.00     0.020 A 
ATOM      2  C1  UNL d   1       1.671  -1.681   0.193  0.00  0.00     0.020 A 
ATOM      3  C2  UNL d   1       0.561  -1.712  -0.654  0.00  0.00     0.034 A 
ATOM      4  C3  UNL d   1      -0.603  -1.011  -0.316  0.00  0.00     0.017 A 
ATOM      5  C4  UNL d   1      -0.651  -0.277   0.875  0.00  0.00     0.017 A 
ATOM      6  C5  UNL d   1       0.464  -0.249   1.719  0.00  0.00     0.034 A 
ATOM      7 Cl   UNL d   1      -2.050   0.613   1.360  0.00  0.00    -0.070 Cl
ATOM      8 Cl1  UNL d   1      -1.937  -1.094  -1.410  0.00  0.00    -0.070 Cl
ENDROOT
TORSDOF 0
ENDMDL
