MODEL 1
REMARK minimizedAffinity 4.88933325
REMARK minimizedRMSD -1
REMARK  0 active torsions:
REMARK  status: ('A' for Active; 'I' for Inactive)
ROOT
ATOM      1  C   UNL d   1       1.831   0.102   2.707  0.00  0.00     0.020 A 
ATOM      2  C1  UNL d   1       2.410  -0.842   3.555  0.00  0.00     0.020 A 
ATOM      3  C2  UNL d   1       2.560  -2.164   3.130  0.00  0.00     0.034 A 
ATOM      4  C3  UNL d   1       2.130  -2.545   1.854  0.00  0.00     0.017 A 
ATOM      5  C4  UNL d   1       1.549  -1.598   1.003  0.00  0.00     0.017 A 
ATOM      6  C5  UNL d   1       1.402  -0.275   1.434  0.00  0.00     0.034 A 
ATOM      7 Cl   UNL d   1       0.995  -1.993  -0.585  0.00  0.00    -0.070 Cl
ATOM      8 Cl1  UNL d   1       2.347  -4.197   1.394  0.00  0.00    -0.070 Cl
ENDROOT
TORSDOF 0
ENDMDL
