MODEL 1
REMARK minimizedAffinity 3.4602685
REMARK minimizedRMSD -1
REMARK  0 active torsions:
REMARK  status: ('A' for Active; 'I' for Inactive)
ROOT
ATOM      1  C   UNL d   1       2.049  -2.399   5.401  0.00  0.00     0.020 A 
ATOM      2  C1  UNL d   1       1.924  -2.185   4.029  0.00  0.00     0.020 A 
ATOM      3  C2  UNL d   1       3.066  -2.017   3.242  0.00  0.00     0.034 A 
ATOM      4  C3  UNL d   1       4.337  -2.063   3.827  0.00  0.00     0.017 A 
ATOM      5  C4  UNL d   1       4.461  -2.278   5.204  0.00  0.00     0.017 A 
ATOM      6  C5  UNL d   1       3.314  -2.446   5.987  0.00  0.00     0.034 A 
ATOM      7 Cl   UNL d   1       5.995  -2.347   5.997  0.00  0.00    -0.070 Cl
ATOM      8 Cl1  UNL d   1       5.705  -1.848   2.793  0.00  0.00    -0.070 Cl
ENDROOT
TORSDOF 0
ENDMDL
