MODEL 1
REMARK minimizedAffinity 15.6627665
REMARK minimizedRMSD -1
REMARK  0 active torsions:
REMARK  status: ('A' for Active; 'I' for Inactive)
ROOT
ATOM      1  C   UNL d   1      -0.261  -4.852   6.000  0.00  0.00     0.020 A 
ATOM      2  C1  UNL d   1       0.258  -6.000   5.403  0.00  0.00     0.020 A 
ATOM      3  C2  UNL d   1       1.175  -5.888   4.356  0.00  0.00     0.034 A 
ATOM      4  C3  UNL d   1       1.576  -4.626   3.902  0.00  0.00     0.017 A 
ATOM      5  C4  UNL d   1       1.054  -3.474   4.502  0.00  0.00     0.017 A 
ATOM      6  C5  UNL d   1       0.136  -3.592   5.551  0.00  0.00     0.034 A 
ATOM      7 Cl   UNL d   1       1.500  -1.883   3.998  0.00  0.00    -0.070 Cl
ATOM      8 Cl1  UNL d   1       2.714  -4.562   2.603  0.00  0.00    -0.070 Cl
ENDROOT
TORSDOF 0
ENDMDL
