MODEL 1
REMARK minimizedAffinity 1.29205263
REMARK minimizedRMSD -1
REMARK  0 active torsions:
REMARK  status: ('A' for Active; 'I' for Inactive)
ROOT
ATOM      1  C   UNL d   1       2.312  -2.995   4.224  0.00  0.00     0.020 A 
ATOM      2  C1  UNL d   1       1.513  -2.245   3.362  0.00  0.00     0.020 A 
ATOM      3  C2  UNL d   1       2.096  -1.302   2.513  0.00  0.00     0.034 A 
ATOM      4  C3  UNL d   1       3.482  -1.105   2.525  0.00  0.00     0.017 A 
ATOM      5  C4  UNL d   1       4.283  -1.858   3.391  0.00  0.00     0.017 A 
ATOM      6  C5  UNL d   1       3.694  -2.801   4.239  0.00  0.00     0.034 A 
ATOM      7 Cl   UNL d   1       6.000  -1.672   3.463  0.00  0.00    -0.070 Cl
ATOM      8 Cl1  UNL d   1       4.135   0.078   1.449  0.00  0.00    -0.070 Cl
ENDROOT
TORSDOF 0
ENDMDL
