MODEL 1
REMARK minimizedAffinity 3.39216089
REMARK minimizedRMSD -1
REMARK  0 active torsions:
REMARK  status: ('A' for Active; 'I' for Inactive)
ROOT
ATOM      1  C   UNL d   1       2.040  -3.430   4.150  0.00  0.00     0.020 A 
ATOM      2  C1  UNL d   1       2.090  -2.608   5.276  0.00  0.00     0.020 A 
ATOM      3  C2  UNL d   1       3.323  -2.260   5.831  0.00  0.00     0.034 A 
ATOM      4  C3  UNL d   1       4.511  -2.733   5.261  0.00  0.00     0.017 A 
ATOM      5  C4  UNL d   1       4.459  -3.558   4.131  0.00  0.00     0.017 A 
ATOM      6  C5  UNL d   1       3.222  -3.903   3.579  0.00  0.00     0.034 A 
ATOM      7 Cl   UNL d   1       5.882  -4.180   3.373  0.00  0.00    -0.070 Cl
ATOM      8 Cl1  UNL d   1       6.000  -2.262   6.000  0.00  0.00    -0.070 Cl
ENDROOT
TORSDOF 0
ENDMDL
