MODEL 1
REMARK minimizedAffinity 14.4255486
REMARK minimizedRMSD -1
REMARK  0 active torsions:
REMARK  status: ('A' for Active; 'I' for Inactive)
ROOT
ATOM      1  C   UNL d   1      -0.866  -1.926  -1.450  0.00  0.00     0.020 A 
ATOM      2  C1  UNL d   1       0.455  -2.324  -1.247  0.00  0.00     0.020 A 
ATOM      3  C2  UNL d   1       1.184  -1.805  -0.175  0.00  0.00     0.034 A 
ATOM      4  C3  UNL d   1       0.594  -0.884   0.697  0.00  0.00     0.017 A 
ATOM      5  C4  UNL d   1      -0.732  -0.485   0.493  0.00  0.00     0.017 A 
ATOM      6  C5  UNL d   1      -1.458  -1.008  -0.581  0.00  0.00     0.034 A 
ATOM      7 Cl   UNL d   1      -1.529   0.648   1.528  0.00  0.00    -0.070 Cl
ATOM      8 Cl1  UNL d   1       1.554  -0.282   2.002  0.00  0.00    -0.070 Cl
ENDROOT
TORSDOF 0
ENDMDL
