MODEL 1
REMARK minimizedAffinity 11.9904594
REMARK minimizedRMSD -1
REMARK  0 active torsions:
REMARK  status: ('A' for Active; 'I' for Inactive)
ROOT
ATOM      1  C   UNL d   1       2.545  -5.912  -1.599  0.00  0.00     0.020 A 
ATOM      2  C1  UNL d   1       3.893  -5.925  -1.243  0.00  0.00     0.020 A 
ATOM      3  C2  UNL d   1       4.876  -5.953  -2.234  0.00  0.00     0.034 A 
ATOM      4  C3  UNL d   1       4.513  -5.966  -3.586  0.00  0.00     0.017 A 
ATOM      5  C4  UNL d   1       3.160  -5.952  -3.942  0.00  0.00     0.017 A 
ATOM      6  C5  UNL d   1       2.179  -5.925  -2.946  0.00  0.00     0.034 A 
ATOM      7 Cl   UNL d   1       2.635  -5.968  -5.589  0.00  0.00    -0.070 Cl
ATOM      8 Cl1  UNL d   1       5.782  -6.000  -4.758  0.00  0.00    -0.070 Cl
ENDROOT
TORSDOF 0
ENDMDL
