MODEL 1
REMARK minimizedAffinity 10.1746559
REMARK minimizedRMSD -1
REMARK  0 active torsions:
REMARK  status: ('A' for Active; 'I' for Inactive)
ROOT
ATOM      1  C   UNL d   1       2.538  -1.813   0.752  0.00  0.00     0.172 C 
ATOM      2  N   UNL d   1       2.815  -0.483   0.260  0.00  0.00    -0.070 N 
ATOM      3  C1  UNL d   1       2.095   0.181  -0.695  0.00  0.00    -0.004 A 
ATOM      4  C2  UNL d   1       2.678   1.416  -0.882  0.00  0.00    -0.047 A 
ATOM      5  C3  UNL d   1       3.789   1.496  -0.008  0.00  0.00    -0.047 A 
ATOM      6  C4  UNL d   1       3.850   0.306   0.687  0.00  0.00    -0.004 A 
ENDROOT
TORSDOF 0
ENDMDL
