MODEL 1
REMARK minimizedAffinity 1.34633565
REMARK minimizedRMSD -1
REMARK  0 active torsions:
REMARK  status: ('A' for Active; 'I' for Inactive)
ROOT
ATOM      1  C   UNL d   1      -5.996   1.501  -3.247  0.00  0.00     0.172 C 
ATOM      2  N   UNL d   1      -5.308   1.472  -1.977  0.00  0.00    -0.070 N 
ATOM      3  C1  UNL d   1      -5.236   2.509  -1.085  0.00  0.00    -0.004 A 
ATOM      4  C2  UNL d   1      -4.496   2.083  -0.003  0.00  0.00    -0.047 A 
ATOM      5  C3  UNL d   1      -4.109   0.745  -0.255  0.00  0.00    -0.047 A 
ATOM      6  C4  UNL d   1      -4.625   0.392  -1.484  0.00  0.00    -0.004 A 
ENDROOT
TORSDOF 0
ENDMDL
