MODEL 1
REMARK minimizedAffinity 0.483958155
REMARK minimizedRMSD -1
REMARK  0 active torsions:
REMARK  status: ('A' for Active; 'I' for Inactive)
ROOT
ATOM      1  C   UNL d   1      -2.522   5.989   5.225  0.00  0.00     0.172 C 
ATOM      2  N   UNL d   1      -3.925   5.690   5.062  0.00  0.00    -0.070 N 
ATOM      3  C1  UNL d   1      -4.685   5.999   3.966  0.00  0.00    -0.004 A 
ATOM      4  C2  UNL d   1      -5.965   5.547   4.199  0.00  0.00    -0.047 A 
ATOM      5  C3  UNL d   1      -5.976   4.946   5.480  0.00  0.00    -0.047 A 
ATOM      6  C4  UNL d   1      -4.700   5.049   5.992  0.00  0.00    -0.004 A 
ENDROOT
TORSDOF 0
ENDMDL
