MODEL 1
REMARK minimizedAffinity 2.47577381
REMARK minimizedRMSD -1
REMARK  0 active torsions:
REMARK  status: ('A' for Active; 'I' for Inactive)
ROOT
ATOM      1  C   UNL d   1      -5.999   3.180   5.790  0.00  0.00     0.172 C 
ATOM      2  N   UNL d   1      -5.999   4.095   4.673  0.00  0.00    -0.070 N 
ATOM      3  C1  UNL d   1      -6.000   5.462   4.760  0.00  0.00    -0.004 A 
ATOM      4  C2  UNL d   1      -5.999   5.967   3.478  0.00  0.00    -0.047 A 
ATOM      5  C3  UNL d   1      -5.998   4.866   2.589  0.00  0.00    -0.047 A 
ATOM      6  C4  UNL d   1      -5.998   3.720   3.355  0.00  0.00    -0.004 A 
ENDROOT
TORSDOF 0
ENDMDL
