MODEL 1
REMARK minimizedAffinity 2.90647292
REMARK minimizedRMSD -1
REMARK  0 active torsions:
REMARK  status: ('A' for Active; 'I' for Inactive)
ROOT
ATOM      1  C   UNL d   1       3.298  -1.274   1.134  0.00  0.00     0.172 C 
ATOM      2  N   UNL d   1       3.575  -0.196   0.214  0.00  0.00    -0.070 N 
ATOM      3  C1  UNL d   1       2.865   0.086  -0.922  0.00  0.00    -0.004 A 
ATOM      4  C2  UNL d   1       3.443   1.185  -1.520  0.00  0.00    -0.047 A 
ATOM      5  C3  UNL d   1       4.539   1.577  -0.714  0.00  0.00    -0.047 A 
ATOM      6  C4  UNL d   1       4.598   0.705   0.352  0.00  0.00    -0.004 A 
ENDROOT
TORSDOF 0
ENDMDL
