MODEL 1
REMARK minimizedAffinity 5.68137407
REMARK minimizedRMSD -1
REMARK  0 active torsions:
REMARK  status: ('A' for Active; 'I' for Inactive)
ROOT
ATOM      1  C   UNL d   1      -2.436   5.474   4.935  0.00  0.00     0.172 C 
ATOM      2  N   UNL d   1      -3.877   5.422   5.006  0.00  0.00    -0.070 N 
ATOM      3  C1  UNL d   1      -4.699   4.805   4.103  0.00  0.00    -0.004 A 
ATOM      4  C2  UNL d   1      -5.999   4.981   4.525  0.00  0.00    -0.047 A 
ATOM      5  C3  UNL d   1      -5.956   5.732   5.724  0.00  0.00    -0.047 A 
ATOM      6  C4  UNL d   1      -4.630   5.991   5.999  0.00  0.00    -0.004 A 
ENDROOT
TORSDOF 0
ENDMDL
