MODEL 1
REMARK minimizedAffinity -0.897776425
REMARK minimizedRMSD -1
REMARK  0 active torsions:
REMARK  status: ('A' for Active; 'I' for Inactive)
ROOT
ATOM      1  C   UNL d   1      -5.671   3.952   2.311  0.00  0.00     0.172 C 
ATOM      2  N   UNL d   1      -5.757   4.528   3.632  0.00  0.00    -0.070 N 
ATOM      3  C1  UNL d   1      -5.623   5.857   3.933  0.00  0.00    -0.004 A 
ATOM      4  C2  UNL d   1      -5.771   5.998   5.297  0.00  0.00    -0.047 A 
ATOM      5  C3  UNL d   1      -6.000   4.708   5.833  0.00  0.00    -0.047 A 
ATOM      6  C4  UNL d   1      -5.986   3.817   4.780  0.00  0.00    -0.004 A 
ENDROOT
TORSDOF 0
ENDMDL
