MODEL 1
REMARK minimizedAffinity 13.2457886
REMARK minimizedRMSD -1
REMARK  2 active torsions:
REMARK  status: ('A' for Active; 'I' for Inactive)
REMARK    1  A    between atoms: C2'_3  and  C1'_4 
REMARK    2  A    between atoms: C1'_4  and  C1_5 
ROOT
ATOM      1  C1  I4B d   1       1.543  -1.812   2.576  0.00  0.00    -0.075 A 
ATOM      2  C2  I4B d   1       0.493  -2.490   3.144  0.00  0.00     0.003 A 
ATOM      3  C3  I4B d   1       0.725  -3.423   4.183  0.00  0.00     0.002 A 
ATOM      4  C4  I4B d   1       2.019  -3.682   4.587  0.00  0.00    -0.004 A 
ATOM      5  C5  I4B d   1       3.080  -2.977   4.026  0.00  0.00     0.002 A 
ATOM      6  C6  I4B d   1       2.840  -2.027   3.023  0.00  0.00     0.003 A 
ENDROOT
BRANCH   1   7
ATOM      7  C1' I4B d   1       1.265  -0.857   1.458  0.00  0.00     0.060 C 
BRANCH   7   8
ATOM      8  C2' I4B d   1       2.484   0.026   1.285  0.00  0.00    -0.013 C 
ATOM      9  C4' I4B d   1       3.053  -0.098  -0.104  0.00  0.00     0.013 C 
ATOM     10  C3' I4B d   1       2.078   1.439   1.579  0.00  0.00     0.013 C 
ENDBRANCH   7   8
ENDBRANCH   1   7
TORSDOF 2
ENDMDL
