MODEL 1
REMARK minimizedAffinity 6.88222504
REMARK minimizedRMSD -1
REMARK  2 active torsions:
REMARK  status: ('A' for Active; 'I' for Inactive)
REMARK    1  A    between atoms: C2'_3  and  C1'_4 
REMARK    2  A    between atoms: C1'_4  and  C1_5 
ROOT
ATOM      1  C1  I4B d   1      -3.708   1.742  -3.369  0.00  0.00    -0.075 A 
ATOM      2  C2  I4B d   1      -4.258   2.817  -4.021  0.00  0.00     0.003 A 
ATOM      3  C3  I4B d   1      -4.791   2.664  -5.324  0.00  0.00     0.002 A 
ATOM      4  C4  I4B d   1      -4.709   1.438  -5.952  0.00  0.00    -0.004 A 
ATOM      5  C5  I4B d   1      -4.172   0.344  -5.281  0.00  0.00     0.002 A 
ATOM      6  C6  I4B d   1      -3.679   0.493  -3.976  0.00  0.00     0.003 A 
ENDROOT
BRANCH   1   7
ATOM      7  C1' I4B d   1      -3.123   1.947  -2.007  0.00  0.00     0.060 C 
BRANCH   7   8
ATOM      8  C2' I4B d   1      -3.277   3.411  -1.649  0.00  0.00    -0.013 C 
ATOM      9  C4' I4B d   1      -3.784   3.576  -0.240  0.00  0.00     0.013 C 
ATOM     10  C3' I4B d   1      -1.944   4.073  -1.826  0.00  0.00     0.013 C 
ENDBRANCH   7   8
ENDBRANCH   1   7
TORSDOF 2
ENDMDL
