MODEL 1
REMARK minimizedAffinity 13.8974285
REMARK minimizedRMSD -1
REMARK  2 active torsions:
REMARK  status: ('A' for Active; 'I' for Inactive)
REMARK    1  A    between atoms: C2'_3  and  C1'_4 
REMARK    2  A    between atoms: C1'_4  and  C1_5 
ROOT
ATOM      1  C1  I4B d   1      -0.311  -0.323   1.097  0.00  0.00    -0.075 A 
ATOM      2  C2  I4B d   1       0.584   0.716   1.045  0.00  0.00     0.003 A 
ATOM      3  C3  I4B d   1       1.890   0.559   1.570  0.00  0.00     0.002 A 
ATOM      4  C4  I4B d   1       2.239  -0.629   2.179  0.00  0.00    -0.004 A 
ATOM      5  C5  I4B d   1       1.337  -1.689   2.210  0.00  0.00     0.002 A 
ATOM      6  C6  I4B d   1       0.058  -1.540   1.654  0.00  0.00     0.003 A 
ENDROOT
BRANCH   1   7
ATOM      7  C1' I4B d   1      -1.693  -0.111   0.563  0.00  0.00     0.060 C 
BRANCH   7   8
ATOM      8  C2' I4B d   1      -1.848   1.361   0.241  0.00  0.00    -0.013 C 
ATOM      9  C4' I4B d   1      -2.425   1.561  -1.135  0.00  0.00     0.013 C 
ATOM     10  C3' I4B d   1      -2.728   1.974   1.291  0.00  0.00     0.013 C 
ENDBRANCH   7   8
ENDBRANCH   1   7
TORSDOF 2
ENDMDL
