MODEL 1
REMARK minimizedAffinity 2.03984523
REMARK minimizedRMSD -1
REMARK  2 active torsions:
REMARK  status: ('A' for Active; 'I' for Inactive)
REMARK    1  A    between atoms: C2'_3  and  C1'_4 
REMARK    2  A    between atoms: C1'_4  and  C1_5 
ROOT
ATOM      1  C1  I4B d   1       4.137  -6.000  -3.242  0.00  0.00    -0.075 A 
ATOM      2  C2  I4B d   1       3.062  -6.000  -4.096  0.00  0.00     0.003 A 
ATOM      3  C3  I4B d   1       3.266  -5.979  -5.498  0.00  0.00     0.002 A 
ATOM      4  C4  I4B d   1       4.550  -5.908  -5.997  0.00  0.00    -0.004 A 
ATOM      5  C5  I4B d   1       5.639  -5.932  -5.130  0.00  0.00     0.002 A 
ATOM      6  C6  I4B d   1       5.432  -5.990  -3.744  0.00  0.00     0.003 A 
ENDROOT
BRANCH   1   7
ATOM      7  C1' I4B d   1       3.885  -5.989  -1.768  0.00  0.00     0.060 C 
BRANCH   7   8
ATOM      8  C2' I4B d   1       2.414  -5.704  -1.547  0.00  0.00    -0.013 C 
ATOM      9  C4' I4B d   1       2.021  -5.945  -0.113  0.00  0.00     0.013 C 
ATOM     10  C3' I4B d   1       2.151  -4.284  -1.950  0.00  0.00     0.013 C 
ENDBRANCH   7   8
ENDBRANCH   1   7
TORSDOF 2
ENDMDL
