MODEL 1
REMARK minimizedAffinity 3.64488983
REMARK minimizedRMSD -1
REMARK  2 active torsions:
REMARK  status: ('A' for Active; 'I' for Inactive)
REMARK    1  A    between atoms: C2'_3  and  C1'_4 
REMARK    2  A    between atoms: C1'_4  and  C1_5 
ROOT
ATOM      1  C1  I4B d   1       3.034  -0.239   0.838  0.00  0.00    -0.075 A 
ATOM      2  C2  I4B d   1       2.087  -1.205   1.068  0.00  0.00     0.003 A 
ATOM      3  C3  I4B d   1       1.381  -1.233   2.296  0.00  0.00     0.002 A 
ATOM      4  C4  I4B d   1       1.689  -0.313   3.278  0.00  0.00    -0.004 A 
ATOM      5  C5  I4B d   1       2.634   0.679   3.034  0.00  0.00     0.002 A 
ATOM      6  C6  I4B d   1       3.303   0.725   1.802  0.00  0.00     0.003 A 
ENDROOT
BRANCH   1   7
ATOM      7  C1' I4B d   1       3.783  -0.259  -0.457  0.00  0.00     0.060 C 
BRANCH   7   8
ATOM      8  C2' I4B d   1       2.854  -0.798  -1.525  0.00  0.00    -0.013 C 
ATOM      9  C4' I4B d   1       2.783   0.134  -2.706  0.00  0.00     0.013 C 
ATOM     10  C3' I4B d   1       3.354  -2.151  -1.933  0.00  0.00     0.013 C 
ENDBRANCH   7   8
ENDBRANCH   1   7
TORSDOF 2
ENDMDL
