MODEL 1
REMARK minimizedAffinity 11.8589125
REMARK minimizedRMSD -1
REMARK  2 active torsions:
REMARK  status: ('A' for Active; 'I' for Inactive)
REMARK    1  A    between atoms: C2'_3  and  C1'_4 
REMARK    2  A    between atoms: C1'_4  and  C1_5 
ROOT
ATOM      1  C1  I4B d   1       3.610  -3.096   3.993  0.00  0.00    -0.075 A 
ATOM      2  C2  I4B d   1       3.585  -2.572   5.261  0.00  0.00     0.003 A 
ATOM      3  C3  I4B d   1       4.785  -2.434   6.000  0.00  0.00     0.002 A 
ATOM      4  C4  I4B d   1       5.973  -2.876   5.455  0.00  0.00    -0.004 A 
ATOM      5  C5  I4B d   1       6.000  -3.386   4.160  0.00  0.00     0.002 A 
ATOM      6  C6  I4B d   1       4.813  -3.485   3.419  0.00  0.00     0.003 A 
ENDROOT
BRANCH   1   7
ATOM      7  C1' I4B d   1       2.319  -3.258   3.254  0.00  0.00     0.060 C 
BRANCH   7   8
ATOM      8  C2' I4B d   1       1.242  -2.529   4.031  0.00  0.00    -0.013 C 
ATOM      9  C4' I4B d   1       0.623  -1.431   3.207  0.00  0.00     0.013 C 
ATOM     10  C3' I4B d   1       0.214  -3.536   4.453  0.00  0.00     0.013 C 
ENDBRANCH   7   8
ENDBRANCH   1   7
TORSDOF 2
ENDMDL
