MODEL 1
REMARK minimizedAffinity 10.9154644
REMARK minimizedRMSD -1
REMARK  2 active torsions:
REMARK  status: ('A' for Active; 'I' for Inactive)
REMARK    1  A    between atoms: C2'_3  and  C1'_4 
REMARK    2  A    between atoms: C1'_4  and  C1_5 
ROOT
ATOM      1  C1  I4B d   1       3.351  -2.781   3.833  0.00  0.00    -0.075 A 
ATOM      2  C2  I4B d   1       4.270  -2.616   2.827  0.00  0.00     0.003 A 
ATOM      3  C3  I4B d   1       5.611  -3.030   3.011  0.00  0.00     0.002 A 
ATOM      4  C4  I4B d   1       5.999  -3.555   4.227  0.00  0.00    -0.004 A 
ATOM      5  C5  I4B d   1       5.062  -3.743   5.238  0.00  0.00     0.002 A 
ATOM      6  C6  I4B d   1       3.726  -3.365   5.036  0.00  0.00     0.003 A 
ENDROOT
BRANCH   1   7
ATOM      7  C1' I4B d   1       1.951  -2.302   3.617  0.00  0.00     0.060 C 
BRANCH   7   8
ATOM      8  C2' I4B d   1       1.921  -1.518   2.320  0.00  0.00    -0.013 C 
ATOM      9  C4' I4B d   1       0.727  -1.895   1.483  0.00  0.00     0.013 C 
ATOM     10  C3' I4B d   1       1.904  -0.058   2.662  0.00  0.00     0.013 C 
ENDBRANCH   7   8
ENDBRANCH   1   7
TORSDOF 2
ENDMDL
