MODEL 1
REMARK minimizedAffinity 7.64202833
REMARK minimizedRMSD -1
REMARK  2 active torsions:
REMARK  status: ('A' for Active; 'I' for Inactive)
REMARK    1  A    between atoms: C2'_3  and  C1'_4 
REMARK    2  A    between atoms: C1'_4  and  C1_5 
ROOT
ATOM      1  C1  I4B d   1       3.769  -3.597   4.334  0.00  0.00    -0.075 A 
ATOM      2  C2  I4B d   1       3.353  -2.418   3.767  0.00  0.00     0.003 A 
ATOM      3  C3  I4B d   1       2.000  -2.249   3.385  0.00  0.00     0.002 A 
ATOM      4  C4  I4B d   1       1.114  -3.296   3.540  0.00  0.00    -0.004 A 
ATOM      5  C5  I4B d   1       1.532  -4.483   4.136  0.00  0.00     0.002 A 
ATOM      6  C6  I4B d   1       2.865  -4.630   4.547  0.00  0.00     0.003 A 
ENDROOT
BRANCH   1   7
ATOM      7  C1' I4B d   1       5.212  -3.753   4.695  0.00  0.00     0.060 C 
BRANCH   7   8
ATOM      8  C2' I4B d   1       6.000  -3.916   3.411  0.00  0.00    -0.013 C 
ATOM      9  C4' I4B d   1       5.423  -5.010   2.552  0.00  0.00     0.013 C 
ATOM     10  C3' I4B d   1       5.989  -2.600   2.692  0.00  0.00     0.013 C 
ENDBRANCH   7   8
ENDBRANCH   1   7
TORSDOF 2
ENDMDL
