MODEL 1
REMARK minimizedAffinity 0.542728305
REMARK minimizedRMSD -1
REMARK  0 active torsions:
REMARK  status: ('A' for Active; 'I' for Inactive)
ROOT
ATOM      1  C4' PXY d   1       1.611  -2.262   2.556  0.00  0.00     0.077 C 
ATOM      2  C1' PXY d   1      -1.407  -1.581  -2.328  0.00  0.00     0.077 C 
ATOM      3  C1  PXY d   1      -0.612  -1.772  -1.051  0.00  0.00    -0.082 A 
ATOM      4  C2  PXY d   1      -0.895  -1.035   0.012  0.00  0.00     0.003 A 
ATOM      5  C3  PXY d   1      -0.166  -1.173   1.165  0.00  0.00     0.003 A 
ATOM      6  C4  PXY d   1       0.829  -2.110   1.248  0.00  0.00    -0.082 A 
ATOM      7  C5  PXY d   1       1.116  -2.873   0.172  0.00  0.00     0.003 A 
ATOM      8  C6  PXY d   1       0.391  -2.689  -1.002  0.00  0.00     0.003 A 
ENDROOT
TORSDOF 0
ENDMDL
