MODEL 1
REMARK minimizedAffinity 6.03940535
REMARK minimizedRMSD -1
REMARK  0 active torsions:
REMARK  status: ('A' for Active; 'I' for Inactive)
ROOT
ATOM      1  C4' PXY d   1       2.899   1.488   1.111  0.00  0.00     0.077 C 
ATOM      2  C1' PXY d   1       1.643  -3.299   4.098  0.00  0.00     0.077 C 
ATOM      3  C1  PXY d   1       1.963  -2.047   3.306  0.00  0.00    -0.082 A 
ATOM      4  C2  PXY d   1       3.146  -1.471   3.443  0.00  0.00     0.003 A 
ATOM      5  C3  PXY d   1       3.441  -0.320   2.759  0.00  0.00     0.003 A 
ATOM      6  C4  PXY d   1       2.535   0.217   1.884  0.00  0.00    -0.082 A 
ATOM      7  C5  PXY d   1       1.330  -0.371   1.729  0.00  0.00     0.003 A 
ATOM      8  C6  PXY d   1       1.035  -1.516   2.465  0.00  0.00     0.003 A 
ENDROOT
TORSDOF 0
ENDMDL
