MODEL 1
REMARK minimizedAffinity 4.4222455
REMARK minimizedRMSD -1
REMARK  0 active torsions:
REMARK  status: ('A' for Active; 'I' for Inactive)
ROOT
ATOM      1  C4' PXY d   1       2.458   1.904   1.383  0.00  0.00     0.077 C 
ATOM      2  C1' PXY d   1       1.934  -2.990   4.415  0.00  0.00     0.077 C 
ATOM      3  C1  PXY d   1       2.078  -1.713   3.610  0.00  0.00    -0.082 A 
ATOM      4  C2  PXY d   1       1.992  -0.542   4.221  0.00  0.00     0.003 A 
ATOM      5  C3  PXY d   1       2.088   0.623   3.504  0.00  0.00     0.003 A 
ATOM      6  C4  PXY d   1       2.328   0.589   2.156  0.00  0.00    -0.082 A 
ATOM      7  C5  PXY d   1       2.428  -0.602   1.528  0.00  0.00     0.003 A 
ATOM      8  C6  PXY d   1       2.287  -1.773   2.267  0.00  0.00     0.003 A 
ENDROOT
TORSDOF 0
ENDMDL
