MODEL 1
REMARK minimizedAffinity 6.20937252
REMARK minimizedRMSD -1
REMARK  0 active torsions:
REMARK  status: ('A' for Active; 'I' for Inactive)
ROOT
ATOM      1  C4' PXY d   1       2.834   1.119   0.893  0.00  0.00     0.077 C 
ATOM      2  C1' PXY d   1       2.647  -3.569   4.270  0.00  0.00     0.077 C 
ATOM      3  C1  PXY d   1       2.709  -2.338   3.388  0.00  0.00    -0.082 A 
ATOM      4  C2  PXY d   1       1.597  -1.677   3.108  0.00  0.00     0.003 A 
ATOM      5  C3  PXY d   1       1.630  -0.581   2.286  0.00  0.00     0.003 A 
ATOM      6  C4  PXY d   1       2.821  -0.124   1.788  0.00  0.00    -0.082 A 
ATOM      7  C5  PXY d   1       3.961  -0.786   2.077  0.00  0.00     0.003 A 
ATOM      8  C6  PXY d   1       3.901  -1.921   2.880  0.00  0.00     0.003 A 
ENDROOT
TORSDOF 0
ENDMDL
