MODEL 1
REMARK minimizedAffinity 3.57338142
REMARK minimizedRMSD -1
REMARK  0 active torsions:
REMARK  status: ('A' for Active; 'I' for Inactive)
ROOT
ATOM      1  C4' PXY d   1       1.905   3.887  -0.234  0.00  0.00     0.077 C 
ATOM      2  C1' PXY d   1       1.830  -1.145   2.609  0.00  0.00     0.077 C 
ATOM      3  C1  PXY d   1       1.837   0.175   1.864  0.00  0.00    -0.082 A 
ATOM      4  C2  PXY d   1       2.855   0.476   1.075  0.00  0.00     0.003 A 
ATOM      5  C3  PXY d   1       2.893   1.679   0.419  0.00  0.00     0.003 A 
ATOM      6  C4  PXY d   1       1.852   2.562   0.530  0.00  0.00    -0.082 A 
ATOM      7  C5  PXY d   1       0.804   2.257   1.325  0.00  0.00     0.003 A 
ATOM      8  C6  PXY d   1       0.804   1.048   2.015  0.00  0.00     0.003 A 
ENDROOT
TORSDOF 0
ENDMDL
