MODEL 1
REMARK minimizedAffinity 6.00871992
REMARK minimizedRMSD -1
REMARK  0 active torsions:
REMARK  status: ('A' for Active; 'I' for Inactive)
ROOT
ATOM      1  C   UNL d   1      -0.862   5.347  -5.967  0.00  0.00     0.023 A 
ATOM      2  C1  UNL d   1       0.371   5.999  -6.000  0.00  0.00     0.003 A 
ATOM      3  C2  UNL d   1       1.369   5.654  -5.085  0.00  0.00     0.048 A 
ATOM      4  C3  UNL d   1       1.127   4.657  -4.142  0.00  0.00     0.023 A 
ATOM      5  C4  UNL d   1      -0.105   4.001  -4.106  0.00  0.00     0.048 A 
ATOM      6  C5  UNL d   1      -1.100   4.350  -5.021  0.00  0.00     0.003 A 
ATOM      7  I   UNL d   1       2.610   4.142  -2.780  0.00  0.00    -0.146 I 
ENDROOT
TORSDOF 0
ENDMDL
