MODEL 1
REMARK minimizedAffinity 4.1594038
REMARK minimizedRMSD -1
REMARK  0 active torsions:
REMARK  status: ('A' for Active; 'I' for Inactive)
ROOT
ATOM      1  C   UNL d   1      -1.101   5.999  -5.167  0.00  0.00     0.023 A 
ATOM      2  C1  UNL d   1      -1.139   5.998  -3.773  0.00  0.00     0.003 A 
ATOM      3  C2  UNL d   1      -0.425   5.036  -3.055  0.00  0.00     0.048 A 
ATOM      4  C3  UNL d   1       0.326   4.080  -3.738  0.00  0.00     0.023 A 
ATOM      5  C4  UNL d   1       0.367   4.078  -5.133  0.00  0.00     0.048 A 
ATOM      6  C5  UNL d   1      -0.349   5.041  -5.846  0.00  0.00     0.003 A 
ATOM      7  I   UNL d   1       1.389   2.648  -2.671  0.00  0.00    -0.146 I 
ENDROOT
TORSDOF 0
ENDMDL
