MODEL 1
REMARK minimizedAffinity 2.32167578
REMARK minimizedRMSD -1
REMARK  0 active torsions:
REMARK  status: ('A' for Active; 'I' for Inactive)
ROOT
ATOM      1  C   UNL d   1      -5.995   1.084  -5.980  0.00  0.00     0.023 A 
ATOM      2  C1  UNL d   1      -5.964   1.819  -4.795  0.00  0.00     0.003 A 
ATOM      3  C2  UNL d   1      -5.923   1.160  -3.564  0.00  0.00     0.048 A 
ATOM      4  C3  UNL d   1      -5.912  -0.234  -3.526  0.00  0.00     0.023 A 
ATOM      5  C4  UNL d   1      -5.942  -0.973  -4.710  0.00  0.00     0.048 A 
ATOM      6  C5  UNL d   1      -5.984  -0.310  -5.938  0.00  0.00     0.003 A 
ATOM      7  I   UNL d   1      -5.850  -1.217  -1.696  0.00  0.00    -0.146 I 
ENDROOT
TORSDOF 0
ENDMDL
