MODEL 1
REMARK minimizedAffinity 0.152790144
REMARK minimizedRMSD -1
REMARK  0 active torsions:
REMARK  status: ('A' for Active; 'I' for Inactive)
ROOT
ATOM      1  C   UNL d   1      -1.363   5.218  -5.758  0.00  0.00     0.023 A 
ATOM      2  C1  UNL d   1      -0.002   5.032  -6.000  0.00  0.00     0.003 A 
ATOM      3  C2  UNL d   1       0.820   4.505  -5.001  0.00  0.00     0.048 A 
ATOM      4  C3  UNL d   1       0.274   4.166  -3.764  0.00  0.00     0.023 A 
ATOM      5  C4  UNL d   1      -1.087   4.350  -3.517  0.00  0.00     0.048 A 
ATOM      6  C5  UNL d   1      -1.905   4.878  -4.518  0.00  0.00     0.003 A 
ATOM      7  I   UNL d   1       1.496   3.381  -2.276  0.00  0.00    -0.146 I 
ENDROOT
TORSDOF 0
ENDMDL
