MODEL 1
REMARK minimizedAffinity 2.70082593
REMARK minimizedRMSD -1
REMARK  0 active torsions:
REMARK  status: ('A' for Active; 'I' for Inactive)
ROOT
ATOM      1  C   UNL d   1      -4.497   4.231   0.158  0.00  0.00     0.023 A 
ATOM      2  C1  UNL d   1      -5.543   3.322  -0.007  0.00  0.00     0.003 A 
ATOM      3  C2  UNL d   1      -5.975   2.979  -1.290  0.00  0.00     0.048 A 
ATOM      4  C3  UNL d   1      -5.357   3.548  -2.403  0.00  0.00     0.023 A 
ATOM      5  C4  UNL d   1      -4.310   4.457  -2.243  0.00  0.00     0.048 A 
ATOM      6  C5  UNL d   1      -3.882   4.798  -0.958  0.00  0.00     0.003 A 
ATOM      7  I   UNL d   1      -5.999   3.039  -4.313  0.00  0.00    -0.146 I 
ENDROOT
TORSDOF 0
ENDMDL
