MODEL 1
REMARK minimizedAffinity 9.16644287
REMARK minimizedRMSD -1
REMARK  0 active torsions:
REMARK  status: ('A' for Active; 'I' for Inactive)
ROOT
ATOM      1  C   UNL d   1       1.720  -2.617   3.247  0.00  0.00     0.023 A 
ATOM      2  C1  UNL d   1       1.051  -3.167   2.153  0.00  0.00     0.003 A 
ATOM      3  C2  UNL d   1      -0.253  -2.767   1.857  0.00  0.00     0.048 A 
ATOM      4  C3  UNL d   1      -0.883  -1.815   2.658  0.00  0.00     0.023 A 
ATOM      5  C4  UNL d   1      -0.217  -1.261   3.753  0.00  0.00     0.048 A 
ATOM      6  C5  UNL d   1       1.087  -1.665   4.045  0.00  0.00     0.003 A 
ATOM      7  I   UNL d   1      -2.824  -1.217   2.219  0.00  0.00    -0.146 I 
ENDROOT
TORSDOF 0
ENDMDL
