MODEL 1
REMARK minimizedAffinity 7.3829174
REMARK minimizedRMSD -1
REMARK  0 active torsions:
REMARK  status: ('A' for Active; 'I' for Inactive)
ROOT
ATOM      1  C   UNL d   1       0.815  -4.138   1.172  0.00  0.00     0.023 A 
ATOM      2  C1  UNL d   1       1.318  -4.773   0.036  0.00  0.00     0.003 A 
ATOM      3  C2  UNL d   1       0.469  -5.077  -1.030  0.00  0.00     0.048 A 
ATOM      4  C3  UNL d   1      -0.883  -4.741  -0.954  0.00  0.00     0.023 A 
ATOM      5  C4  UNL d   1      -1.390  -4.105   0.180  0.00  0.00     0.048 A 
ATOM      6  C5  UNL d   1      -0.537  -3.804   1.244  0.00  0.00     0.003 A 
ATOM      7  I   UNL d   1      -2.149  -5.192  -2.539  0.00  0.00    -0.146 I 
ENDROOT
TORSDOF 0
ENDMDL
