MODEL 1
REMARK minimizedAffinity 7.91501617
REMARK minimizedRMSD -1
REMARK  0 active torsions:
REMARK  status: ('A' for Active; 'I' for Inactive)
ROOT
ATOM      1  C   UNL d   1      -3.230  -0.450   3.479  0.00  0.00     0.023 A 
ATOM      2  C1  UNL d   1      -2.296   0.197   4.287  0.00  0.00     0.003 A 
ATOM      3  C2  UNL d   1      -0.932  -0.036   4.105  0.00  0.00     0.048 A 
ATOM      4  C3  UNL d   1      -0.508  -0.917   3.111  0.00  0.00     0.023 A 
ATOM      5  C4  UNL d   1      -1.439  -1.566   2.298  0.00  0.00     0.048 A 
ATOM      6  C5  UNL d   1      -2.802  -1.331   2.485  0.00  0.00     0.003 A 
ATOM      7  I   UNL d   1       1.523  -1.265   2.836  0.00  0.00    -0.146 I 
ENDROOT
TORSDOF 0
ENDMDL
