MODEL 1
REMARK minimizedAffinity 10.9702263
REMARK minimizedRMSD -1
REMARK  0 active torsions:
REMARK  status: ('A' for Active; 'I' for Inactive)
ROOT
ATOM      1  C   UNL d   1       1.825   2.277  -1.735  0.00  0.00     0.023 A 
ATOM      2  C1  UNL d   1       2.882   1.440  -2.092  0.00  0.00     0.003 A 
ATOM      3  C2  UNL d   1       3.332   0.462  -1.203  0.00  0.00     0.048 A 
ATOM      4  C3  UNL d   1       2.720   0.326   0.043  0.00  0.00     0.023 A 
ATOM      5  C4  UNL d   1       1.661   1.161   0.405  0.00  0.00     0.048 A 
ATOM      6  C5  UNL d   1       1.216   2.138  -0.488  0.00  0.00     0.003 A 
ATOM      7  I   UNL d   1       3.387  -1.129   1.368  0.00  0.00    -0.146 I 
ENDROOT
TORSDOF 0
ENDMDL
