MODEL 1
REMARK minimizedAffinity 7.53670883
REMARK minimizedRMSD -1
REMARK  0 active torsions:
REMARK  status: ('A' for Active; 'I' for Inactive)
ROOT
ATOM      1  C   UNL d   1       1.644   2.994  -2.560  0.00  0.00     0.023 A 
ATOM      2  C1  UNL d   1       0.341   2.838  -3.032  0.00  0.00     0.003 A 
ATOM      3  C2  UNL d   1      -0.154   3.695  -4.018  0.00  0.00     0.048 A 
ATOM      4  C3  UNL d   1       0.661   4.705  -4.527  0.00  0.00     0.023 A 
ATOM      5  C4  UNL d   1       1.966   4.864  -4.059  0.00  0.00     0.048 A 
ATOM      6  C5  UNL d   1       2.456   4.006  -3.073  0.00  0.00     0.003 A 
ATOM      7  I   UNL d   1      -0.072   5.982  -5.994  0.00  0.00    -0.146 I 
ENDROOT
TORSDOF 0
ENDMDL
