MODEL 1
REMARK minimizedAffinity 9.59600353
REMARK minimizedRMSD -1
REMARK  0 active torsions:
REMARK  status: ('A' for Active; 'I' for Inactive)
ROOT
ATOM      1  C   UNL d   1      -5.999   1.802  -4.749  0.00  0.00     0.023 A 
ATOM      2  C1  UNL d   1      -5.998   1.297  -3.448  0.00  0.00     0.003 A 
ATOM      3  C2  UNL d   1      -5.998  -0.082  -3.234  0.00  0.00     0.048 A 
ATOM      4  C3  UNL d   1      -5.999  -0.952  -4.324  0.00  0.00     0.023 A 
ATOM      5  C4  UNL d   1      -5.999  -0.451  -5.627  0.00  0.00     0.048 A 
ATOM      6  C5  UNL d   1      -6.000   0.929  -5.837  0.00  0.00     0.003 A 
ATOM      7  I   UNL d   1      -5.999  -3.006  -4.007  0.00  0.00    -0.146 I 
ENDROOT
TORSDOF 0
ENDMDL
