MODEL 1
REMARK minimizedAffinity 7.40367508
REMARK minimizedRMSD -1
REMARK  0 active torsions:
REMARK  status: ('A' for Active; 'I' for Inactive)
ROOT
ATOM      1  C   UNL d   1       1.676   2.096  -2.351  0.00  0.00     0.023 A 
ATOM      2  C1  UNL d   1       0.941   1.634  -1.259  0.00  0.00     0.003 A 
ATOM      3  C2  UNL d   1       1.593   1.275  -0.078  0.00  0.00     0.048 A 
ATOM      4  C3  UNL d   1       2.981   1.382   0.006  0.00  0.00     0.023 A 
ATOM      5  C4  UNL d   1       3.721   1.845  -1.083  0.00  0.00     0.048 A 
ATOM      6  C5  UNL d   1       3.064   2.202  -2.263  0.00  0.00     0.003 A 
ATOM      7  I   UNL d   1       3.954   0.849   1.764  0.00  0.00    -0.146 I 
ENDROOT
TORSDOF 0
ENDMDL
