MODEL 1
REMARK minimizedAffinity 0.629044354
REMARK minimizedRMSD -1
REMARK  0 active torsions:
REMARK  status: ('A' for Active; 'I' for Inactive)
ROOT
ATOM      1  C   UNL d   1       4.390   2.273  -3.726  0.00  0.00     0.023 A 
ATOM      2  C1  UNL d   1       3.926   3.287  -4.563  0.00  0.00     0.003 A 
ATOM      3  C2  UNL d   1       2.774   4.001  -4.226  0.00  0.00     0.048 A 
ATOM      4  C3  UNL d   1       2.091   3.695  -3.049  0.00  0.00     0.023 A 
ATOM      5  C4  UNL d   1       2.553   2.681  -2.207  0.00  0.00     0.048 A 
ATOM      6  C5  UNL d   1       3.704   1.970  -2.549  0.00  0.00     0.003 A 
ATOM      7  I   UNL d   1       0.377   4.755  -2.544  0.00  0.00    -0.146 I 
ENDROOT
TORSDOF 0
ENDMDL
