MODEL 1
REMARK minimizedAffinity -0.658962131
REMARK minimizedRMSD -1
REMARK  0 active torsions:
REMARK  status: ('A' for Active; 'I' for Inactive)
ROOT
ATOM      1  C   UNL d   1       1.425   1.535   0.803  0.00  0.00     0.023 A 
ATOM      2  C1  UNL d   1       2.378   2.553   0.760  0.00  0.00     0.003 A 
ATOM      3  C2  UNL d   1       2.928   2.945  -0.462  0.00  0.00     0.048 A 
ATOM      4  C3  UNL d   1       2.520   2.317  -1.638  0.00  0.00     0.023 A 
ATOM      5  C4  UNL d   1       1.566   1.299  -1.600  0.00  0.00     0.048 A 
ATOM      6  C5  UNL d   1       1.020   0.909  -0.376  0.00  0.00     0.003 A 
ATOM      7  I   UNL d   1       3.337   2.900  -3.457  0.00  0.00    -0.146 I 
ENDROOT
TORSDOF 0
ENDMDL
