MODEL 1
REMARK minimizedAffinity 2.84344411
REMARK minimizedRMSD -1
REMARK  0 active torsions:
REMARK  status: ('A' for Active; 'I' for Inactive)
ROOT
ATOM      1  C   UNL d   1       3.245   2.367  -2.639  0.00  0.00     0.023 A 
ATOM      2  C1  UNL d   1       3.971   2.947  -3.680  0.00  0.00     0.003 A 
ATOM      3  C2  UNL d   1       3.337   3.806  -4.580  0.00  0.00     0.048 A 
ATOM      4  C3  UNL d   1       1.978   4.082  -4.433  0.00  0.00     0.023 A 
ATOM      5  C4  UNL d   1       1.248   3.504  -3.393  0.00  0.00     0.048 A 
ATOM      6  C5  UNL d   1       1.886   2.645  -2.496  0.00  0.00     0.003 A 
ATOM      7  I   UNL d   1       1.033   5.360  -5.772  0.00  0.00    -0.146 I 
ENDROOT
TORSDOF 0
ENDMDL
