MODEL 1
REMARK minimizedAffinity -5.50316525
REMARK minimizedRMSD -1
REMARK  0 active torsions:
REMARK  status: ('A' for Active; 'I' for Inactive)
ROOT
ATOM      1  C1  DEN d   1      -0.037  -0.849   0.035  0.00  0.00     0.130 A 
ATOM      2  C2  DEN d   1      -1.471  -1.020   0.253  0.00  0.00    -0.031 A 
ATOM      3  C3  DEN d   1      -2.060   0.314   0.486  0.00  0.00     0.027 A 
ATOM      4  C4  DEN d   1      -0.898   2.616   0.527  0.00  0.00     0.027 A 
ATOM      5  C5  DEN d   1       0.311   3.266   0.406  0.00  0.00    -0.003 A 
ATOM      6  C6  DEN d   1       1.483   2.592   0.189  0.00  0.00     0.001 A 
ATOM      7  C7  DEN d   1       1.466   1.231   0.040  0.00  0.00     0.017 A 
ATOM      8  C8  DEN d   1       0.253   0.568   0.168  0.00  0.00    -0.094 A 
ATOM      9  C9  DEN d   1      -0.923   1.268   0.376  0.00  0.00    -0.072 A 
ENDROOT
TORSDOF 0
ENDMDL
