MODEL 1
REMARK minimizedAffinity -1.7683301
REMARK minimizedRMSD -1
REMARK  0 active torsions:
REMARK  status: ('A' for Active; 'I' for Inactive)
ROOT
ATOM      1  C1  DEN d   1       1.035   0.126  -0.778  0.00  0.00     0.130 A 
ATOM      2  C2  DEN d   1       0.516  -1.236  -0.869  0.00  0.00    -0.031 A 
ATOM      3  C3  DEN d   1      -0.759  -1.289  -0.125  0.00  0.00     0.027 A 
ATOM      4  C4  DEN d   1      -1.975   0.596   1.147  0.00  0.00     0.027 A 
ATOM      5  C5  DEN d   1      -1.916   1.923   1.514  0.00  0.00    -0.003 A 
ATOM      6  C6  DEN d   1      -0.861   2.728   1.174  0.00  0.00     0.001 A 
ATOM      7  C7  DEN d   1       0.157   2.225   0.407  0.00  0.00     0.017 A 
ATOM      8  C8  DEN d   1       0.108   0.887   0.040  0.00  0.00    -0.094 A 
ATOM      9  C9  DEN d   1      -0.973   0.093   0.383  0.00  0.00    -0.072 A 
ENDROOT
TORSDOF 0
ENDMDL
