MODEL 1
REMARK minimizedAffinity -3.9823873
REMARK minimizedRMSD -1
REMARK  0 active torsions:
REMARK  status: ('A' for Active; 'I' for Inactive)
ROOT
ATOM      1  C1  DEN d   1      -0.850  -1.301   0.179  0.00  0.00     0.130 A 
ATOM      2  C2  DEN d   1       0.388  -1.820  -0.396  0.00  0.00    -0.031 A 
ATOM      3  C3  DEN d   1       1.280  -0.675  -0.669  0.00  0.00     0.027 A 
ATOM      4  C4  DEN d   1       0.867   1.837  -0.256  0.00  0.00     0.027 A 
ATOM      5  C5  DEN d   1      -0.041   2.765   0.204  0.00  0.00    -0.003 A 
ATOM      6  C6  DEN d   1      -1.285   2.408   0.653  0.00  0.00     0.001 A 
ATOM      7  C7  DEN d   1      -1.639   1.085   0.694  0.00  0.00     0.017 A 
ATOM      8  C8  DEN d   1      -0.731   0.145   0.224  0.00  0.00    -0.094 A 
ATOM      9  C9  DEN d   1       0.526   0.524  -0.214  0.00  0.00    -0.072 A 
ENDROOT
TORSDOF 0
ENDMDL
