MODEL 1
REMARK minimizedAffinity -3.48659444
REMARK minimizedRMSD -1
REMARK  0 active torsions:
REMARK  status: ('A' for Active; 'I' for Inactive)
ROOT
ATOM      1  C1  DEN d   1      -2.516   0.929   1.321  0.00  0.00     0.130 A 
ATOM      2  C2  DEN d   1      -2.288   2.363   1.171  0.00  0.00    -0.031 A 
ATOM      3  C3  DEN d   1      -0.959   2.552   0.555  0.00  0.00     0.027 A 
ATOM      4  C4  DEN d   1       0.756   0.772  -0.181  0.00  0.00     0.027 A 
ATOM      5  C5  DEN d   1       1.014  -0.580  -0.244  0.00  0.00    -0.003 A 
ATOM      6  C6  DEN d   1       0.136  -1.514   0.237  0.00  0.00     0.001 A 
ATOM      7  C7  DEN d   1      -1.064  -1.111   0.762  0.00  0.00     0.017 A 
ATOM      8  C8  DEN d   1      -1.328   0.250   0.836  0.00  0.00    -0.094 A 
ATOM      9  C9  DEN d   1      -0.432   1.178   0.333  0.00  0.00    -0.072 A 
ENDROOT
TORSDOF 0
ENDMDL
