MODEL 1
REMARK minimizedAffinity -3.80267501
REMARK minimizedRMSD -1
REMARK  0 active torsions:
REMARK  status: ('A' for Active; 'I' for Inactive)
ROOT
ATOM      1  C1  DEN d   1       2.117   2.625   1.342  0.00  0.00     0.130 A 
ATOM      2  C2  DEN d   1       3.106   1.554   1.256  0.00  0.00    -0.031 A 
ATOM      3  C3  DEN d   1       2.445   0.368   0.674  0.00  0.00     0.027 A 
ATOM      4  C4  DEN d   1       0.001   0.090  -0.101  0.00  0.00     0.027 A 
ATOM      5  C5  DEN d   1      -1.219   0.719  -0.216  0.00  0.00    -0.003 A 
ATOM      6  C6  DEN d   1      -1.420   2.005   0.209  0.00  0.00     0.001 A 
ATOM      7  C7  DEN d   1      -0.372   2.720   0.727  0.00  0.00     0.017 A 
ATOM      8  C8  DEN d   1       0.859   2.090   0.852  0.00  0.00    -0.094 A 
ATOM      9  C9  DEN d   1       1.045   0.793   0.406  0.00  0.00    -0.072 A 
ENDROOT
TORSDOF 0
ENDMDL
