MODEL 1
REMARK minimizedAffinity -5.06666374
REMARK minimizedRMSD -1
REMARK  0 active torsions:
REMARK  status: ('A' for Active; 'I' for Inactive)
ROOT
ATOM      1  C1  DEN d   1       0.587   2.597  -0.552  0.00  0.00     0.130 A 
ATOM      2  C2  DEN d   1      -0.156   3.629   0.165  0.00  0.00    -0.031 A 
ATOM      3  C3  DEN d   1      -1.099   2.958   1.083  0.00  0.00     0.027 A 
ATOM      4  C4  DEN d   1      -1.475   0.435   1.463  0.00  0.00     0.027 A 
ATOM      5  C5  DEN d   1      -1.087  -0.829   1.076  0.00  0.00    -0.003 A 
ATOM      6  C6  DEN d   1      -0.146  -1.038   0.103  0.00  0.00     0.001 A 
ATOM      7  C7  DEN d   1       0.472   0.034  -0.485  0.00  0.00     0.017 A 
ATOM      8  C8  DEN d   1       0.081   1.311  -0.105  0.00  0.00    -0.094 A 
ATOM      9  C9  DEN d   1      -0.864   1.502   0.889  0.00  0.00    -0.072 A 
ENDROOT
TORSDOF 0
ENDMDL
