MODEL 1
REMARK minimizedAffinity -5.21434832
REMARK minimizedRMSD -1
REMARK  0 active torsions:
REMARK  status: ('A' for Active; 'I' for Inactive)
ROOT
ATOM      1  C1  DEN d   1       0.482   3.518   0.384  0.00  0.00     0.130 A 
ATOM      2  C2  DEN d   1       1.905   3.284   0.159  0.00  0.00    -0.031 A 
ATOM      3  C3  DEN d   1       2.118   1.826   0.063  0.00  0.00     0.027 A 
ATOM      4  C4  DEN d   1       0.391  -0.081   0.236  0.00  0.00     0.027 A 
ATOM      5  C5  DEN d   1      -0.940  -0.376   0.435  0.00  0.00    -0.003 A 
ATOM      6  C6  DEN d   1      -1.877   0.597   0.663  0.00  0.00     0.001 A 
ATOM      7  C7  DEN d   1      -1.504   1.915   0.652  0.00  0.00     0.017 A 
ATOM      8  C8  DEN d   1      -0.162   2.219   0.460  0.00  0.00    -0.094 A 
ATOM      9  C9  DEN d   1       0.768   1.222   0.219  0.00  0.00    -0.072 A 
ENDROOT
TORSDOF 0
ENDMDL
