MODEL 1
REMARK minimizedAffinity -1.23277259
REMARK minimizedRMSD -1
REMARK  0 active torsions:
REMARK  status: ('A' for Active; 'I' for Inactive)
ROOT
ATOM      1  C1  DEN d   1       0.794  -0.755   0.071  0.00  0.00     0.130 A 
ATOM      2  C2  DEN d   1      -0.081  -1.839  -0.368  0.00  0.00    -0.031 A 
ATOM      3  C3  DEN d   1      -1.477  -1.367  -0.269  0.00  0.00     0.027 A 
ATOM      4  C4  DEN d   1      -2.363   0.927   0.511  0.00  0.00     0.027 A 
ATOM      5  C5  DEN d   1      -2.000   2.166   0.992  0.00  0.00    -0.003 A 
ATOM      6  C6  DEN d   1      -0.694   2.503   1.229  0.00  0.00     0.001 A 
ATOM      7  C7  DEN d   1       0.301   1.607   0.944  0.00  0.00     0.017 A 
ATOM      8  C8  DEN d   1      -0.057   0.353   0.466  0.00  0.00    -0.094 A 
ATOM      9  C9  DEN d   1      -1.382   0.035   0.221  0.00  0.00    -0.072 A 
ENDROOT
TORSDOF 0
ENDMDL
