MODEL 1
REMARK minimizedAffinity -5.71834373
REMARK minimizedRMSD -1
REMARK  0 active torsions:
REMARK  status: ('A' for Active; 'I' for Inactive)
ROOT
ATOM      1  C1  DEN d   1       1.272   2.596   0.064  0.00  0.00     0.130 A 
ATOM      2  C2  DEN d   1       0.273   3.607   0.401  0.00  0.00    -0.031 A 
ATOM      3  C3  DEN d   1      -0.991   2.912   0.716  0.00  0.00     0.027 A 
ATOM      4  C4  DEN d   1      -1.495   0.383   0.721  0.00  0.00     0.027 A 
ATOM      5  C5  DEN d   1      -0.966  -0.868   0.491  0.00  0.00    -0.003 A 
ATOM      6  C6  DEN d   1       0.326  -1.048   0.073  0.00  0.00     0.001 A 
ATOM      7  C7  DEN d   1       1.146   0.038  -0.084  0.00  0.00     0.017 A 
ATOM      8  C8  DEN d   1       0.618   1.302   0.139  0.00  0.00    -0.094 A 
ATOM      9  C9  DEN d   1      -0.687   1.463   0.572  0.00  0.00    -0.072 A 
ENDROOT
TORSDOF 0
ENDMDL
