MODEL 1
REMARK minimizedAffinity -6.38169289
REMARK minimizedRMSD -1
REMARK  0 active torsions:
REMARK  status: ('A' for Active; 'I' for Inactive)
ROOT
ATOM      1  C1  DEN d   1       0.596  -0.506  -0.190  0.00  0.00     0.130 A 
ATOM      2  C2  DEN d   1      -0.733  -0.961   0.209  0.00  0.00    -0.031 A 
ATOM      3  C3  DEN d   1      -1.524   0.224   0.596  0.00  0.00     0.027 A 
ATOM      4  C4  DEN d   1      -0.826   2.707   0.612  0.00  0.00     0.027 A 
ATOM      5  C5  DEN d   1       0.208   3.584   0.367  0.00  0.00    -0.003 A 
ATOM      6  C6  DEN d   1       1.443   3.160  -0.045  0.00  0.00     0.001 A 
ATOM      7  C7  DEN d   1       1.663   1.826  -0.268  0.00  0.00     0.017 A 
ATOM      8  C8  DEN d   1       0.628   0.935  -0.016  0.00  0.00    -0.094 A 
ATOM      9  C9  DEN d   1      -0.617   1.385   0.388  0.00  0.00    -0.072 A 
ENDROOT
TORSDOF 0
ENDMDL
