MODEL 1
REMARK minimizedAffinity 5.48572159
REMARK minimizedRMSD -1
REMARK  0 active torsions:
REMARK  status: ('A' for Active; 'I' for Inactive)
ROOT
ATOM      1  C1  DEN d   1      -2.382   2.476   1.316  0.00  0.00     0.130 A 
ATOM      2  C2  DEN d   1      -1.722   2.604   2.613  0.00  0.00    -0.031 A 
ATOM      3  C3  DEN d   1      -0.815   1.450   2.779  0.00  0.00     0.027 A 
ATOM      4  C4  DEN d   1      -0.368  -0.508   1.162  0.00  0.00     0.027 A 
ATOM      5  C5  DEN d   1      -0.702  -1.057  -0.057  0.00  0.00    -0.003 A 
ATOM      6  C6  DEN d   1      -1.637  -0.489  -0.881  0.00  0.00     0.001 A 
ATOM      7  C7  DEN d   1      -2.238   0.687  -0.517  0.00  0.00     0.017 A 
ATOM      8  C8  DEN d   1      -1.912   1.242   0.713  0.00  0.00    -0.094 A 
ATOM      9  C9  DEN d   1      -0.955   0.659   1.527  0.00  0.00    -0.072 A 
ENDROOT
TORSDOF 0
ENDMDL
