MODEL 1
REMARK minimizedAffinity -5.0563674
REMARK minimizedRMSD -1
REMARK  0 active torsions:
REMARK  status: ('A' for Active; 'I' for Inactive)
ROOT
ATOM      1  C1  DEN d   1      -0.014  -1.191  -0.499  0.00  0.00     0.130 A 
ATOM      2  C2  DEN d   1      -0.755  -1.536   0.712  0.00  0.00    -0.031 A 
ATOM      3  C3  DEN d   1      -0.957  -0.299   1.491  0.00  0.00     0.027 A 
ATOM      4  C4  DEN d   1      -0.205   2.106   0.942  0.00  0.00     0.027 A 
ATOM      5  C5  DEN d   1       0.464   2.893   0.030  0.00  0.00    -0.003 A 
ATOM      6  C6  DEN d   1       1.045   2.372  -1.096  0.00  0.00     0.001 A 
ATOM      7  C7  DEN d   1       0.929   1.033  -1.362  0.00  0.00     0.017 A 
ATOM      8  C8  DEN d   1       0.262   0.233  -0.444  0.00  0.00    -0.094 A 
ATOM      9  C9  DEN d   1      -0.329   0.780   0.682  0.00  0.00    -0.072 A 
ENDROOT
TORSDOF 0
ENDMDL
