MODEL 1
REMARK minimizedAffinity 11.8302593
REMARK minimizedRMSD -1
REMARK  3 active torsions:
REMARK  status: ('A' for Active; 'I' for Inactive)
REMARK    1  A    between atoms: C3'_2  and  C2'_3 
REMARK    2  A    between atoms: C2'_3  and  C1'_4 
REMARK    3  A    between atoms: C1'_4  and  C1_5 
ROOT
ATOM      1  C1  N4B d   1       4.169   4.922  -2.674  0.00  0.00    -0.075 A 
ATOM      2  C2  N4B d   1       3.599   3.768  -3.254  0.00  0.00     0.002 A 
ATOM      3  C3  N4B d   1       2.250   3.721  -3.506  0.00  0.00     0.002 A 
ATOM      4  C4  N4B d   1       1.451   4.803  -3.169  0.00  0.00    -0.004 A 
ATOM      5  C5  N4B d   1       2.013   5.924  -2.631  0.00  0.00     0.002 A 
ATOM      6  C6  N4B d   1       3.369   5.987  -2.377  0.00  0.00     0.002 A 
ENDROOT
BRANCH   1   7
ATOM      7  C1' N4B d   1       5.625   4.988  -2.301  0.00  0.00     0.057 C 
BRANCH   7   8
ATOM      8  C2' N4B d   1       5.760   4.873  -0.786  0.00  0.00     0.009 C 
BRANCH   8   9
ATOM      9  C3' N4B d   1       5.999   3.440  -0.343  0.00  0.00     0.004 C 
ATOM     10  C4' N4B d   1       5.988   3.283   1.148  0.00  0.00     0.003 C 
ENDBRANCH   8   9
ENDBRANCH   7   8
ENDBRANCH   1   7
TORSDOF 3
ENDMDL
