MODEL 1
REMARK minimizedAffinity 10.4121284
REMARK minimizedRMSD -1
REMARK  3 active torsions:
REMARK  status: ('A' for Active; 'I' for Inactive)
REMARK    1  A    between atoms: C3'_2  and  C2'_3 
REMARK    2  A    between atoms: C2'_3  and  C1'_4 
REMARK    3  A    between atoms: C1'_4  and  C1_5 
ROOT
ATOM      1  C1  N4B d   1       3.925   3.162  -3.144  0.00  0.00    -0.075 A 
ATOM      2  C2  N4B d   1       4.756   3.997  -2.365  0.00  0.00     0.002 A 
ATOM      3  C3  N4B d   1       5.626   4.864  -2.978  0.00  0.00     0.002 A 
ATOM      4  C4  N4B d   1       5.697   4.900  -4.363  0.00  0.00    -0.004 A 
ATOM      5  C5  N4B d   1       4.873   4.108  -5.109  0.00  0.00     0.002 A 
ATOM      6  C6  N4B d   1       3.990   3.235  -4.506  0.00  0.00     0.002 A 
ENDROOT
BRANCH   1   7
ATOM      7  C1' N4B d   1       3.019   2.137  -2.519  0.00  0.00     0.057 C 
BRANCH   7   8
ATOM      8  C2' N4B d   1       3.857   1.161  -1.699  0.00  0.00     0.009 C 
BRANCH   8   9
ATOM      9  C3' N4B d   1       3.787   1.463  -0.212  0.00  0.00     0.004 C 
ATOM     10  C4' N4B d   1       2.944   0.478   0.542  0.00  0.00     0.003 C 
ENDBRANCH   8   9
ENDBRANCH   7   8
ENDBRANCH   1   7
TORSDOF 3
ENDMDL
