MODEL 1
REMARK minimizedAffinity 7.97536087
REMARK minimizedRMSD -1
REMARK  3 active torsions:
REMARK  status: ('A' for Active; 'I' for Inactive)
REMARK    1  A    between atoms: C3'_2  and  C2'_3 
REMARK    2  A    between atoms: C2'_3  and  C1'_4 
REMARK    3  A    between atoms: C1'_4  and  C1_5 
ROOT
ATOM      1  C1  N4B d   1      -3.188  -2.687   2.037  0.00  0.00    -0.075 A 
ATOM      2  C2  N4B d   1      -1.985  -2.878   1.322  0.00  0.00     0.002 A 
ATOM      3  C3  N4B d   1      -1.038  -1.884   1.295  0.00  0.00     0.002 A 
ATOM      4  C4  N4B d   1      -1.278  -0.689   1.955  0.00  0.00    -0.004 A 
ATOM      5  C5  N4B d   1      -2.431  -0.522   2.664  0.00  0.00     0.002 A 
ATOM      6  C6  N4B d   1      -3.391  -1.513   2.704  0.00  0.00     0.002 A 
ENDROOT
BRANCH   1   7
ATOM      7  C1' N4B d   1      -4.290  -3.710   2.026  0.00  0.00     0.057 C 
BRANCH   7   8
ATOM      8  C2' N4B d   1      -4.852  -3.858   3.437  0.00  0.00     0.009 C 
BRANCH   8   9
ATOM      9  C3' N4B d   1      -5.367  -5.263   3.699  0.00  0.00     0.004 C 
ATOM     10  C4' N4B d   1      -5.975  -5.413   5.062  0.00  0.00     0.003 C 
ENDBRANCH   8   9
ENDBRANCH   7   8
ENDBRANCH   1   7
TORSDOF 3
ENDMDL
