MODEL 1
REMARK minimizedAffinity 11.9540815
REMARK minimizedRMSD -1
REMARK  3 active torsions:
REMARK  status: ('A' for Active; 'I' for Inactive)
REMARK    1  A    between atoms: C3'_2  and  C2'_3 
REMARK    2  A    between atoms: C2'_3  and  C1'_4 
REMARK    3  A    between atoms: C1'_4  and  C1_5 
ROOT
ATOM      1  C1  N4B d   1      -4.752  -4.411   3.548  0.00  0.00    -0.075 A 
ATOM      2  C2  N4B d   1      -5.472  -5.621   3.660  0.00  0.00     0.002 A 
ATOM      3  C3  N4B d   1      -6.000  -5.997   4.871  0.00  0.00     0.002 A 
ATOM      4  C4  N4B d   1      -5.805  -5.192   5.983  0.00  0.00    -0.004 A 
ATOM      5  C5  N4B d   1      -5.131  -4.012   5.862  0.00  0.00     0.002 A 
ATOM      6  C6  N4B d   1      -4.599  -3.620   4.650  0.00  0.00     0.002 A 
ENDROOT
BRANCH   1   7
ATOM      7  C1' N4B d   1      -4.084  -4.001   2.265  0.00  0.00     0.057 C 
BRANCH   7   8
ATOM      8  C2' N4B d   1      -3.790  -2.504   2.310  0.00  0.00     0.009 C 
BRANCH   8   9
ATOM      9  C3' N4B d   1      -2.426  -2.175   1.727  0.00  0.00     0.004 C 
ATOM     10  C4' N4B d   1      -2.050  -0.735   1.908  0.00  0.00     0.003 C 
ENDBRANCH   8   9
ENDBRANCH   7   8
ENDBRANCH   1   7
TORSDOF 3
ENDMDL
