MODEL 1
REMARK minimizedAffinity 5.98536587
REMARK minimizedRMSD -1
REMARK  3 active torsions:
REMARK  status: ('A' for Active; 'I' for Inactive)
REMARK    1  A    between atoms: C3'_2  and  C2'_3 
REMARK    2  A    between atoms: C2'_3  and  C1'_4 
REMARK    3  A    between atoms: C1'_4  and  C1_5 
ROOT
ATOM      1  C1  N4B d   1      -5.937   1.188   1.248  0.00  0.00    -0.075 A 
ATOM      2  C2  N4B d   1      -5.972  -0.180   0.900  0.00  0.00     0.002 A 
ATOM      3  C3  N4B d   1      -5.994  -0.552  -0.422  0.00  0.00     0.002 A 
ATOM      4  C4  N4B d   1      -6.000   0.423  -1.408  0.00  0.00    -0.004 A 
ATOM      5  C5  N4B d   1      -5.940   1.742  -1.064  0.00  0.00     0.002 A 
ATOM      6  C6  N4B d   1      -5.914   2.129   0.261  0.00  0.00     0.002 A 
ENDROOT
BRANCH   1   7
ATOM      7  C1' N4B d   1      -5.999   1.644   2.680  0.00  0.00     0.057 C 
BRANCH   7   8
ATOM      8  C2' N4B d   1      -4.606   2.073   3.130  0.00  0.00     0.009 C 
BRANCH   8   9
ATOM      9  C3' N4B d   1      -4.521   2.238   4.638  0.00  0.00     0.004 C 
ATOM     10  C4' N4B d   1      -5.602   3.120   5.188  0.00  0.00     0.003 C 
ENDBRANCH   8   9
ENDBRANCH   7   8
ENDBRANCH   1   7
TORSDOF 3
ENDMDL
