MODEL 1
REMARK minimizedAffinity 9.95188999
REMARK minimizedRMSD -1
REMARK  3 active torsions:
REMARK  status: ('A' for Active; 'I' for Inactive)
REMARK    1  A    between atoms: C3'_2  and  C2'_3 
REMARK    2  A    between atoms: C2'_3  and  C1'_4 
REMARK    3  A    between atoms: C1'_4  and  C1_5 
ROOT
ATOM      1  C1  N4B d   1      -2.254   0.482   3.083  0.00  0.00    -0.075 A 
ATOM      2  C2  N4B d   1      -2.626   0.003   1.808  0.00  0.00     0.002 A 
ATOM      3  C3  N4B d   1      -1.889  -0.987   1.204  0.00  0.00     0.002 A 
ATOM      4  C4  N4B d   1      -0.771  -1.498   1.846  0.00  0.00    -0.004 A 
ATOM      5  C5  N4B d   1      -0.434  -1.048   3.089  0.00  0.00     0.002 A 
ATOM      6  C6  N4B d   1      -1.167  -0.056   3.709  0.00  0.00     0.002 A 
ENDROOT
BRANCH   1   7
ATOM      7  C1' N4B d   1      -2.978   1.622   3.746  0.00  0.00     0.057 C 
BRANCH   7   8
ATOM      8  C2' N4B d   1      -3.590   1.134   5.055  0.00  0.00     0.009 C 
BRANCH   8   9
ATOM      9  C3' N4B d   1      -4.483   2.185   5.692  0.00  0.00     0.004 C 
ATOM     10  C4' N4B d   1      -5.858   1.671   5.999  0.00  0.00     0.003 C 
ENDBRANCH   8   9
ENDBRANCH   7   8
ENDBRANCH   1   7
TORSDOF 3
ENDMDL
