MODEL 1
REMARK minimizedAffinity 2.95704722
REMARK minimizedRMSD -1
REMARK  3 active torsions:
REMARK  status: ('A' for Active; 'I' for Inactive)
REMARK    1  A    between atoms: C3'_2  and  C2'_3 
REMARK    2  A    between atoms: C2'_3  and  C1'_4 
REMARK    3  A    between atoms: C1'_4  and  C1_5 
ROOT
ATOM      1  C1  N4B d   1       2.882   1.639  -0.059  0.00  0.00    -0.075 A 
ATOM      2  C2  N4B d   1       1.560   1.143  -0.034  0.00  0.00     0.002 A 
ATOM      3  C3  N4B d   1       0.777   1.219  -1.159  0.00  0.00     0.002 A 
ATOM      4  C4  N4B d   1       1.285   1.800  -2.311  0.00  0.00    -0.004 A 
ATOM      5  C5  N4B d   1       2.572   2.254  -2.335  0.00  0.00     0.002 A 
ATOM      6  C6  N4B d   1       3.372   2.181  -1.213  0.00  0.00     0.002 A 
ENDROOT
BRANCH   1   7
ATOM      7  C1' N4B d   1       3.748   1.657   1.171  0.00  0.00     0.057 C 
BRANCH   7   8
ATOM      8  C2' N4B d   1       4.063   3.103   1.541  0.00  0.00     0.009 C 
BRANCH   8   9
ATOM      9  C3' N4B d   1       5.556   3.383   1.517  0.00  0.00     0.004 C 
ATOM     10  C4' N4B d   1       5.996   4.085   0.267  0.00  0.00     0.003 C 
ENDBRANCH   8   9
ENDBRANCH   7   8
ENDBRANCH   1   7
TORSDOF 3
ENDMDL
