MODEL 1
REMARK minimizedAffinity 7.521842
REMARK minimizedRMSD -1
REMARK  3 active torsions:
REMARK  status: ('A' for Active; 'I' for Inactive)
REMARK    1  A    between atoms: C3'_2  and  C2'_3 
REMARK    2  A    between atoms: C2'_3  and  C1'_4 
REMARK    3  A    between atoms: C1'_4  and  C1_5 
ROOT
ATOM      1  C1  N4B d   1      -3.251   1.572   3.806  0.00  0.00    -0.075 A 
ATOM      2  C2  N4B d   1      -3.795   1.354   2.521  0.00  0.00     0.002 A 
ATOM      3  C3  N4B d   1      -3.321   0.329   1.740  0.00  0.00     0.002 A 
ATOM      4  C4  N4B d   1      -2.296  -0.476   2.212  0.00  0.00    -0.004 A 
ATOM      5  C5  N4B d   1      -1.793  -0.275   3.465  0.00  0.00     0.002 A 
ATOM      6  C6  N4B d   1      -2.262   0.749   4.263  0.00  0.00     0.002 A 
ENDROOT
BRANCH   1   7
ATOM      7  C1' N4B d   1      -3.677   2.733   4.662  0.00  0.00     0.057 C 
BRANCH   7   8
ATOM      8  C2' N4B d   1      -5.190   2.901   4.562  0.00  0.00     0.009 C 
BRANCH   8   9
ATOM      9  C3' N4B d   1      -5.761   3.634   5.764  0.00  0.00     0.004 C 
ATOM     10  C4' N4B d   1      -5.609   5.123   5.662  0.00  0.00     0.003 C 
ENDBRANCH   8   9
ENDBRANCH   7   8
ENDBRANCH   1   7
TORSDOF 3
ENDMDL
