MODEL 1
REMARK minimizedAffinity 9.14098167
REMARK minimizedRMSD -1
REMARK  3 active torsions:
REMARK  status: ('A' for Active; 'I' for Inactive)
REMARK    1  A    between atoms: C3'_2  and  C2'_3 
REMARK    2  A    between atoms: C2'_3  and  C1'_4 
REMARK    3  A    between atoms: C1'_4  and  C1_5 
ROOT
ATOM      1  C1  N4B d   1       3.608   1.354  -0.872  0.00  0.00    -0.075 A 
ATOM      2  C2  N4B d   1       4.723   2.100  -0.430  0.00  0.00     0.002 A 
ATOM      3  C3  N4B d   1       4.984   2.214   0.913  0.00  0.00     0.002 A 
ATOM      4  C4  N4B d   1       4.136   1.610   1.830  0.00  0.00    -0.004 A 
ATOM      5  C5  N4B d   1       3.076   0.870   1.394  0.00  0.00     0.002 A 
ATOM      6  C6  N4B d   1       2.804   0.744   0.046  0.00  0.00     0.002 A 
ENDROOT
BRANCH   1   7
ATOM      7  C1' N4B d   1       3.234   1.273  -2.327  0.00  0.00     0.057 C 
BRANCH   7   8
ATOM      8  C2' N4B d   1       2.838   2.661  -2.821  0.00  0.00     0.009 C 
BRANCH   8   9
ATOM      9  C3' N4B d   1       4.003   3.385  -3.474  0.00  0.00     0.004 C 
ATOM     10  C4' N4B d   1       4.176   3.022  -4.919  0.00  0.00     0.003 C 
ENDBRANCH   8   9
ENDBRANCH   7   8
ENDBRANCH   1   7
TORSDOF 3
ENDMDL
