MODEL 1
REMARK minimizedAffinity 12.2980156
REMARK minimizedRMSD -1
REMARK  3 active torsions:
REMARK  status: ('A' for Active; 'I' for Inactive)
REMARK    1  A    between atoms: C3'_2  and  C2'_3 
REMARK    2  A    between atoms: C2'_3  and  C1'_4 
REMARK    3  A    between atoms: C1'_4  and  C1_5 
ROOT
ATOM      1  C1  N4B d   1      -1.152  -4.303  -3.060  0.00  0.00    -0.075 A 
ATOM      2  C2  N4B d   1      -2.259  -5.135  -3.340  0.00  0.00     0.002 A 
ATOM      3  C3  N4B d   1      -2.228  -5.977  -4.424  0.00  0.00     0.002 A 
ATOM      4  C4  N4B d   1      -1.114  -5.992  -5.250  0.00  0.00    -0.004 A 
ATOM      5  C5  N4B d   1      -0.039  -5.204  -4.959  0.00  0.00     0.002 A 
ATOM      6  C6  N4B d   1      -0.054  -4.355  -3.870  0.00  0.00     0.002 A 
ENDROOT
BRANCH   1   7
ATOM      7  C1' N4B d   1      -1.174  -3.304  -1.936  0.00  0.00     0.057 C 
BRANCH   7   8
ATOM      8  C2' N4B d   1      -1.053  -4.043  -0.607  0.00  0.00     0.009 C 
BRANCH   8   9
ATOM      9  C3' N4B d   1      -1.960  -3.449   0.457  0.00  0.00     0.004 C 
ATOM     10  C4' N4B d   1      -1.436  -2.159   1.014  0.00  0.00     0.003 C 
ENDBRANCH   8   9
ENDBRANCH   7   8
ENDBRANCH   1   7
TORSDOF 3
ENDMDL
