MODEL 1
REMARK minimizedAffinity 3.93524146
REMARK minimizedRMSD -1
REMARK  3 active torsions:
REMARK  status: ('A' for Active; 'I' for Inactive)
REMARK    1  A    between atoms: C3'_2  and  C2'_3 
REMARK    2  A    between atoms: C2'_3  and  C1'_4 
REMARK    3  A    between atoms: C1'_4  and  C1_5 
ROOT
ATOM      1  C1  N4B d   1       3.648  -3.863   0.221  0.00  0.00    -0.075 A 
ATOM      2  C2  N4B d   1       4.925  -3.423  -0.188  0.00  0.00     0.002 A 
ATOM      3  C3  N4B d   1       5.996  -4.282  -0.139  0.00  0.00     0.002 A 
ATOM      4  C4  N4B d   1       5.817  -5.574   0.331  0.00  0.00    -0.004 A 
ATOM      5  C5  N4B d   1       4.575  -5.999   0.701  0.00  0.00     0.002 A 
ATOM      6  C6  N4B d   1       3.489  -5.148   0.653  0.00  0.00     0.002 A 
ENDROOT
BRANCH   1   7
ATOM      7  C1' N4B d   1       2.465  -2.934   0.267  0.00  0.00     0.057 C 
BRANCH   7   8
ATOM      8  C2' N4B d   1       1.313  -3.626   0.989  0.00  0.00     0.009 C 
BRANCH   8   9
ATOM      9  C3' N4B d   1       0.068  -3.712   0.122  0.00  0.00     0.004 C 
ATOM     10  C4' N4B d   1       0.385  -3.836  -1.338  0.00  0.00     0.003 C 
ENDBRANCH   8   9
ENDBRANCH   7   8
ENDBRANCH   1   7
TORSDOF 3
ENDMDL
