MODEL 1
REMARK minimizedAffinity 1.95456123
REMARK minimizedRMSD -1
REMARK  3 active torsions:
REMARK  status: ('A' for Active; 'I' for Inactive)
REMARK    1  A    between atoms: C3'_2  and  C2'_3 
REMARK    2  A    between atoms: C2'_3  and  C1'_4 
REMARK    3  A    between atoms: C1'_4  and  C1_5 
ROOT
ATOM      1  C1  N4B d   1       2.171  -3.420   0.715  0.00  0.00    -0.075 A 
ATOM      2  C2  N4B d   1       2.939  -2.310   1.131  0.00  0.00     0.002 A 
ATOM      3  C3  N4B d   1       2.340  -1.277   1.809  0.00  0.00     0.002 A 
ATOM      4  C4  N4B d   1       0.978  -1.323   2.065  0.00  0.00    -0.004 A 
ATOM      5  C5  N4B d   1       0.248  -2.410   1.682  0.00  0.00     0.002 A 
ATOM      6  C6  N4B d   1       0.838  -3.458   1.003  0.00  0.00     0.002 A 
ENDROOT
BRANCH   1   7
ATOM      7  C1' N4B d   1       2.764  -4.534  -0.104  0.00  0.00     0.057 C 
BRANCH   7   8
ATOM      8  C2' N4B d   1       4.266  -4.605   0.160  0.00  0.00     0.009 C 
BRANCH   8   9
ATOM      9  C3' N4B d   1       4.701  -5.993   0.598  0.00  0.00     0.004 C 
ATOM     10  C4' N4B d   1       5.996  -5.984   1.353  0.00  0.00     0.003 C 
ENDBRANCH   8   9
ENDBRANCH   7   8
ENDBRANCH   1   7
TORSDOF 3
ENDMDL
