MODEL 1
REMARK minimizedAffinity -6.0738616
REMARK minimizedRMSD -1
REMARK  2 active torsions:
REMARK  status: ('A' for Active; 'I' for Inactive)
REMARK    1  A    between atoms: C2'_3  and  C1'_4 
REMARK    2  A    between atoms: C1'_4  and  C1_5 
ROOT
ATOM      1  C1  I4B d   1      -0.743  -0.640  -0.353  0.00  0.00    -0.075 A 
ATOM      2  C2  I4B d   1      -1.844  -0.484  -1.157  0.00  0.00     0.003 A 
ATOM      3  C3  I4B d   1      -3.091  -1.033  -0.772  0.00  0.00     0.002 A 
ATOM      4  C4  I4B d   1      -3.180  -1.769   0.392  0.00  0.00    -0.004 A 
ATOM      5  C5  I4B d   1      -2.067  -1.906   1.217  0.00  0.00     0.002 A 
ATOM      6  C6  I4B d   1      -0.844  -1.328   0.849  0.00  0.00     0.003 A 
ENDROOT
BRANCH   1   7
ATOM      7  C1' I4B d   1       0.566  -0.076  -0.806  0.00  0.00     0.060 C 
BRANCH   7   8
ATOM      8  C2' I4B d   1       1.523  -0.115   0.368  0.00  0.00    -0.013 C 
ATOM      9  C4' I4B d   1       2.431  -1.314   0.292  0.00  0.00     0.013 C 
ATOM     10  C3' I4B d   1       2.311   1.162   0.366  0.00  0.00     0.013 C 
ENDBRANCH   7   8
ENDBRANCH   1   7
TORSDOF 2
ENDMDL
