MODEL 1
REMARK minimizedAffinity -5.0872941
REMARK minimizedRMSD -1
REMARK  2 active torsions:
REMARK  status: ('A' for Active; 'I' for Inactive)
REMARK    1  A    between atoms: C2'_3  and  C1'_4 
REMARK    2  A    between atoms: C1'_4  and  C1_5 
ROOT
ATOM      1  C1  I4B d   1      -1.102  -0.123   0.405  0.00  0.00    -0.075 A 
ATOM      2  C2  I4B d   1      -0.760   0.263  -0.866  0.00  0.00     0.003 A 
ATOM      3  C3  I4B d   1       0.603   0.374  -1.235  0.00  0.00     0.002 A 
ATOM      4  C4  I4B d   1       1.583   0.139  -0.293  0.00  0.00    -0.004 A 
ATOM      5  C5  I4B d   1       1.234  -0.275   0.990  0.00  0.00     0.002 A 
ATOM      6  C6  I4B d   1      -0.116  -0.419   1.338  0.00  0.00     0.003 A 
ENDROOT
BRANCH   1   7
ATOM      7  C1' I4B d   1      -2.551  -0.198   0.770  0.00  0.00     0.060 C 
BRANCH   7   8
ATOM      8  C2' I4B d   1      -3.008  -1.630   0.576  0.00  0.00    -0.013 C 
ATOM      9  C4' I4B d   1      -3.144  -1.965  -0.886  0.00  0.00     0.013 C 
ATOM     10  C3' I4B d   1      -2.012  -2.529   1.247  0.00  0.00     0.013 C 
ENDBRANCH   7   8
ENDBRANCH   1   7
TORSDOF 2
ENDMDL
