MODEL 1
REMARK minimizedAffinity -3.4443326
REMARK minimizedRMSD -1
REMARK  2 active torsions:
REMARK  status: ('A' for Active; 'I' for Inactive)
REMARK    1  A    between atoms: C2'_3  and  C1'_4 
REMARK    2  A    between atoms: C1'_4  and  C1_5 
ROOT
ATOM      1  C1  I4B d   1      -0.691  -0.391   0.084  0.00  0.00    -0.075 A 
ATOM      2  C2  I4B d   1      -1.795  -0.373  -0.732  0.00  0.00     0.003 A 
ATOM      3  C3  I4B d   1      -2.940  -1.136  -0.399  0.00  0.00     0.002 A 
ATOM      4  C4  I4B d   1      -2.920  -1.936   0.725  0.00  0.00    -0.004 A 
ATOM      5  C5  I4B d   1      -1.809  -1.935   1.564  0.00  0.00     0.002 A 
ATOM      6  C6  I4B d   1      -0.692  -1.148   1.248  0.00  0.00     0.003 A 
ENDROOT
BRANCH   1   7
ATOM      7  C1' I4B d   1       0.514   0.401  -0.316  0.00  0.00     0.060 C 
BRANCH   7   8
ATOM      8  C2' I4B d   1       1.500   0.362   0.833  0.00  0.00    -0.013 C 
ATOM      9  C4' I4B d   1       2.292  -0.919   0.829  0.00  0.00     0.013 C 
ATOM     10  C3' I4B d   1       2.400   1.556   0.712  0.00  0.00     0.013 C 
ENDBRANCH   7   8
ENDBRANCH   1   7
TORSDOF 2
ENDMDL
