MODEL 1
REMARK minimizedAffinity -5.51035786
REMARK minimizedRMSD -1
REMARK  2 active torsions:
REMARK  status: ('A' for Active; 'I' for Inactive)
REMARK    1  A    between atoms: C2'_3  and  C1'_4 
REMARK    2  A    between atoms: C1'_4  and  C1_5 
ROOT
ATOM      1  C1  I4B d   1       0.352   0.437  -0.331  0.00  0.00    -0.075 A 
ATOM      2  C2  I4B d   1      -0.447  -0.254   0.545  0.00  0.00     0.003 A 
ATOM      3  C3  I4B d   1      -1.738  -0.681   0.148  0.00  0.00     0.002 A 
ATOM      4  C4  I4B d   1      -2.206  -0.353  -1.108  0.00  0.00    -0.004 A 
ATOM      5  C5  I4B d   1      -1.385   0.327  -2.003  0.00  0.00     0.002 A 
ATOM      6  C6  I4B d   1      -0.094   0.714  -1.617  0.00  0.00     0.003 A 
ENDROOT
BRANCH   1   7
ATOM      7  C1' I4B d   1       1.697   0.900   0.132  0.00  0.00     0.060 C 
BRANCH   7   8
ATOM      8  C2' I4B d   1       1.495   2.130   0.993  0.00  0.00    -0.013 C 
ATOM      9  C4' I4B d   1       2.222   2.002   2.306  0.00  0.00     0.013 C 
ATOM     10  C3' I4B d   1       1.979   3.321   0.221  0.00  0.00     0.013 C 
ENDBRANCH   7   8
ENDBRANCH   1   7
TORSDOF 2
ENDMDL
