MODEL 1
REMARK minimizedAffinity -4.00235367
REMARK minimizedRMSD -1
REMARK  2 active torsions:
REMARK  status: ('A' for Active; 'I' for Inactive)
REMARK    1  A    between atoms: C2'_3  and  C1'_4 
REMARK    2  A    between atoms: C1'_4  and  C1_5 
ROOT
ATOM      1  C1  I4B d   1      -0.504  -0.275   0.410  0.00  0.00    -0.075 A 
ATOM      2  C2  I4B d   1      -1.647   0.347  -0.027  0.00  0.00     0.003 A 
ATOM      3  C3  I4B d   1      -2.896  -0.315   0.060  0.00  0.00     0.002 A 
ATOM      4  C4  I4B d   1      -2.948  -1.608   0.540  0.00  0.00    -0.004 A 
ATOM      5  C5  I4B d   1      -1.791  -2.228   1.003  0.00  0.00     0.002 A 
ATOM      6  C6  I4B d   1      -0.563  -1.553   0.949  0.00  0.00     0.003 A 
ENDROOT
BRANCH   1   7
ATOM      7  C1' I4B d   1       0.803   0.441   0.273  0.00  0.00     0.060 C 
BRANCH   7   8
ATOM      8  C2' I4B d   1       0.745   1.686   1.133  0.00  0.00    -0.013 C 
ATOM      9  C4' I4B d   1       0.900   1.348   2.593  0.00  0.00     0.013 C 
ATOM     10  C3' I4B d   1       1.829   2.616   0.675  0.00  0.00     0.013 C 
ENDBRANCH   7   8
ENDBRANCH   1   7
TORSDOF 2
ENDMDL
