MODEL 1
REMARK minimizedAffinity -5.31601191
REMARK minimizedRMSD -1
REMARK  2 active torsions:
REMARK  status: ('A' for Active; 'I' for Inactive)
REMARK    1  A    between atoms: C2'_3  and  C1'_4 
REMARK    2  A    between atoms: C1'_4  and  C1_5 
ROOT
ATOM      1  C1  I4B d   1      -1.012  -0.618   0.014  0.00  0.00    -0.075 A 
ATOM      2  C2  I4B d   1      -2.278  -0.341  -0.440  0.00  0.00     0.003 A 
ATOM      3  C3  I4B d   1      -3.369  -1.155  -0.049  0.00  0.00     0.002 A 
ATOM      4  C4  I4B d   1      -3.143  -2.257   0.750  0.00  0.00    -0.004 A 
ATOM      5  C5  I4B d   1      -1.863  -2.523   1.228  0.00  0.00     0.002 A 
ATOM      6  C6  I4B d   1      -0.792  -1.691   0.867  0.00  0.00     0.003 A 
ENDROOT
BRANCH   1   7
ATOM      7  C1' I4B d   1       0.122   0.242  -0.446  0.00  0.00     0.060 C 
BRANCH   7   8
ATOM      8  C2' I4B d   1       1.218   0.166   0.598  0.00  0.00    -0.013 C 
ATOM      9  C4' I4B d   1       2.142  -0.994   0.334  0.00  0.00     0.013 C 
ATOM     10  C3' I4B d   1       1.963   1.467   0.582  0.00  0.00     0.013 C 
ENDBRANCH   7   8
ENDBRANCH   1   7
TORSDOF 2
ENDMDL
