MODEL 1
REMARK minimizedAffinity -4.44655514
REMARK minimizedRMSD -1
REMARK  2 active torsions:
REMARK  status: ('A' for Active; 'I' for Inactive)
REMARK    1  A    between atoms: C2'_3  and  C1'_4 
REMARK    2  A    between atoms: C1'_4  and  C1_5 
ROOT
ATOM      1  C1  I4B d   1       0.221  -0.069  -0.078  0.00  0.00    -0.075 A 
ATOM      2  C2  I4B d   1      -0.214   0.376  -1.301  0.00  0.00     0.003 A 
ATOM      3  C3  I4B d   1      -1.564   0.190  -1.688  0.00  0.00     0.002 A 
ATOM      4  C4  I4B d   1      -2.425  -0.486  -0.848  0.00  0.00    -0.004 A 
ATOM      5  C5  I4B d   1      -1.987  -0.916   0.402  0.00  0.00     0.002 A 
ATOM      6  C6  I4B d   1      -0.659  -0.695   0.795  0.00  0.00     0.003 A 
ENDROOT
BRANCH   1   7
ATOM      7  C1' I4B d   1       1.661   0.115   0.285  0.00  0.00     0.060 C 
BRANCH   7   8
ATOM      8  C2' I4B d   1       1.784   1.407   1.066  0.00  0.00    -0.013 C 
ATOM      9  C4' I4B d   1       2.000   1.139   2.533  0.00  0.00     0.013 C 
ATOM     10  C3' I4B d   1       2.923   2.192   0.486  0.00  0.00     0.013 C 
ENDBRANCH   7   8
ENDBRANCH   1   7
TORSDOF 2
ENDMDL
