MODEL 1
REMARK minimizedAffinity -4.82494545
REMARK minimizedRMSD -1
REMARK  2 active torsions:
REMARK  status: ('A' for Active; 'I' for Inactive)
REMARK    1  A    between atoms: C2'_3  and  C1'_4 
REMARK    2  A    between atoms: C1'_4  and  C1_5 
ROOT
ATOM      1  C1  I4B d   1       0.252   0.012  -0.084  0.00  0.00    -0.075 A 
ATOM      2  C2  I4B d   1      -0.596  -0.790   0.639  0.00  0.00     0.003 A 
ATOM      3  C3  I4B d   1      -1.964  -0.882   0.285  0.00  0.00     0.002 A 
ATOM      4  C4  I4B d   1      -2.449  -0.122  -0.759  0.00  0.00    -0.004 A 
ATOM      5  C5  I4B d   1      -1.584   0.673  -1.505  0.00  0.00     0.002 A 
ATOM      6  C6  I4B d   1      -0.222   0.731  -1.174  0.00  0.00     0.003 A 
ENDROOT
BRANCH   1   7
ATOM      7  C1' I4B d   1       1.684   0.112   0.337  0.00  0.00     0.060 C 
BRANCH   7   8
ATOM      8  C2' I4B d   1       2.002   1.575   0.568  0.00  0.00    -0.013 C 
ATOM      9  C4' I4B d   1       1.597   2.008   1.953  0.00  0.00     0.013 C 
ATOM     10  C3' I4B d   1       3.472   1.770   0.348  0.00  0.00     0.013 C 
ENDBRANCH   7   8
ENDBRANCH   1   7
TORSDOF 2
ENDMDL
