MODEL 1
REMARK minimizedAffinity -5.04607868
REMARK minimizedRMSD -1
REMARK  2 active torsions:
REMARK  status: ('A' for Active; 'I' for Inactive)
REMARK    1  A    between atoms: C2'_3  and  C1'_4 
REMARK    2  A    between atoms: C1'_4  and  C1_5 
ROOT
ATOM      1  C1  I4B d   1      -1.463  -0.574   0.427  0.00  0.00    -0.075 A 
ATOM      2  C2  I4B d   1      -2.619  -0.427  -0.298  0.00  0.00     0.003 A 
ATOM      3  C3  I4B d   1      -3.576  -1.469  -0.333  0.00  0.00     0.002 A 
ATOM      4  C4  I4B d   1      -3.316  -2.654   0.325  0.00  0.00    -0.004 A 
ATOM      5  C5  I4B d   1      -2.153  -2.793   1.078  0.00  0.00     0.002 A 
ATOM      6  C6  I4B d   1      -1.226  -1.743   1.139  0.00  0.00     0.003 A 
ENDROOT
BRANCH   1   7
ATOM      7  C1' I4B d   1      -0.458   0.534   0.415  0.00  0.00     0.060 C 
BRANCH   7   8
ATOM      8  C2' I4B d   1       0.772   0.042  -0.320  0.00  0.00    -0.013 C 
ATOM      9  C4' I4B d   1       0.622   0.214  -1.809  0.00  0.00     0.013 C 
ATOM     10  C3' I4B d   1       1.955   0.804   0.197  0.00  0.00     0.013 C 
ENDBRANCH   7   8
ENDBRANCH   1   7
TORSDOF 2
ENDMDL
