MODEL 1
REMARK minimizedAffinity -4.74811029
REMARK minimizedRMSD -1
REMARK  2 active torsions:
REMARK  status: ('A' for Active; 'I' for Inactive)
REMARK    1  A    between atoms: C2'_3  and  C1'_4 
REMARK    2  A    between atoms: C1'_4  and  C1_5 
ROOT
ATOM      1  C1  I4B d   1      -0.025  -0.046   0.197  0.00  0.00    -0.075 A 
ATOM      2  C2  I4B d   1      -0.419   0.057  -1.113  0.00  0.00     0.003 A 
ATOM      3  C3  I4B d   1      -1.719  -0.350  -1.501  0.00  0.00     0.002 A 
ATOM      4  C4  I4B d   1      -2.569  -0.896  -0.561  0.00  0.00    -0.004 A 
ATOM      5  C5  I4B d   1      -2.175  -0.979   0.772  0.00  0.00     0.002 A 
ATOM      6  C6  I4B d   1      -0.900  -0.540   1.156  0.00  0.00     0.003 A 
ENDROOT
BRANCH   1   7
ATOM      7  C1' I4B d   1       1.366   0.362   0.566  0.00  0.00     0.060 C 
BRANCH   7   8
ATOM      8  C2' I4B d   1       1.319   1.797   1.051  0.00  0.00    -0.013 C 
ATOM      9  C4' I4B d   1       1.512   1.874   2.542  0.00  0.00     0.013 C 
ATOM     10  C3' I4B d   1       2.383   2.566   0.326  0.00  0.00     0.013 C 
ENDBRANCH   7   8
ENDBRANCH   1   7
TORSDOF 2
ENDMDL
