MODEL 1
REMARK minimizedAffinity 7.27810907
REMARK minimizedRMSD -1
REMARK  0 active torsions:
REMARK  status: ('A' for Active; 'I' for Inactive)
ROOT
ATOM      1  C4' PXY d   1       2.021   3.318   2.855  0.00  0.00     0.077 C 
ATOM      2  C1' PXY d   1       1.694  -0.765  -1.223  0.00  0.00     0.077 C 
ATOM      3  C1  PXY d   1       1.776   0.297  -0.145  0.00  0.00    -0.082 A 
ATOM      4  C2  PXY d   1       1.685   1.574  -0.477  0.00  0.00     0.003 A 
ATOM      5  C3  PXY d   1       1.789   2.549   0.482  0.00  0.00     0.003 A 
ATOM      6  C4  PXY d   1       1.935   2.211   1.801  0.00  0.00    -0.082 A 
ATOM      7  C5  PXY d   1       2.017   0.910   2.149  0.00  0.00     0.003 A 
ATOM      8  C6  PXY d   1       1.951  -0.063   1.156  0.00  0.00     0.003 A 
ENDROOT
TORSDOF 0
ENDMDL
