MODEL 1
REMARK minimizedAffinity 3.94090033
REMARK minimizedRMSD -1
REMARK  0 active torsions:
REMARK  status: ('A' for Active; 'I' for Inactive)
ROOT
ATOM      1  C4' PXY d   1      -5.852   5.998   3.638  0.00  0.00     0.077 C 
ATOM      2  C1' PXY d   1      -5.670   0.585   5.660  0.00  0.00     0.077 C 
ATOM      3  C1  PXY d   1      -5.725   2.008   5.140  0.00  0.00    -0.082 A 
ATOM      4  C2  PXY d   1      -5.555   2.240   3.849  0.00  0.00     0.003 A 
ATOM      5  C3  PXY d   1      -5.569   3.523   3.366  0.00  0.00     0.003 A 
ATOM      6  C4  PXY d   1      -5.814   4.576   4.206  0.00  0.00    -0.082 A 
ATOM      7  C5  PXY d   1      -6.000   4.348   5.524  0.00  0.00     0.003 A 
ATOM      8  C6  PXY d   1      -5.940   3.041   6.000  0.00  0.00     0.003 A 
ENDROOT
TORSDOF 0
ENDMDL
