MODEL 1
REMARK minimizedAffinity 2.8414464
REMARK minimizedRMSD -1
REMARK  0 active torsions:
REMARK  status: ('A' for Active; 'I' for Inactive)
ROOT
ATOM      1  C4' PXY d   1       2.240   3.753   1.900  0.00  0.00     0.077 C 
ATOM      2  C1' PXY d   1      -1.972   0.784  -0.720  0.00  0.00     0.077 C 
ATOM      3  C1  PXY d   1      -0.868   1.572  -0.042  0.00  0.00    -0.082 A 
ATOM      4  C2  PXY d   1      -0.023   0.952   0.765  0.00  0.00     0.003 A 
ATOM      5  C3  PXY d   1       0.962   1.654   1.411  0.00  0.00     0.003 A 
ATOM      6  C4  PXY d   1       1.116   2.996   1.187  0.00  0.00    -0.082 A 
ATOM      7  C5  PXY d   1       0.264   3.634   0.357  0.00  0.00     0.003 A 
ATOM      8  C6  PXY d   1      -0.754   2.911  -0.257  0.00  0.00     0.003 A 
ENDROOT
TORSDOF 0
ENDMDL
