MODEL 1
REMARK minimizedAffinity 13.3824911
REMARK minimizedRMSD -1
REMARK  0 active torsions:
REMARK  status: ('A' for Active; 'I' for Inactive)
ROOT
ATOM      1  C4' PXY d   1      -1.049   5.453   0.140  0.00  0.00     0.077 C 
ATOM      2  C1' PXY d   1      -5.809   5.696   3.412  0.00  0.00     0.077 C 
ATOM      3  C1  PXY d   1      -4.566   5.623   2.546  0.00  0.00    -0.082 A 
ATOM      4  C2  PXY d   1      -3.398   5.989   3.048  0.00  0.00     0.003 A 
ATOM      5  C3  PXY d   1      -2.269   5.960   2.269  0.00  0.00     0.003 A 
ATOM      6  C4  PXY d   1      -2.328   5.501   0.980  0.00  0.00    -0.082 A 
ATOM      7  C5  PXY d   1      -3.515   5.116   0.465  0.00  0.00     0.003 A 
ATOM      8  C6  PXY d   1      -4.656   5.192   1.259  0.00  0.00     0.003 A 
ENDROOT
TORSDOF 0
ENDMDL
