MODEL 1
REMARK minimizedAffinity 2.91854787
REMARK minimizedRMSD -1
REMARK  0 active torsions:
REMARK  status: ('A' for Active; 'I' for Inactive)
ROOT
ATOM      1  C4' PXY d   1       3.199  -0.792   0.554  0.00  0.00     0.077 C 
ATOM      2  C1' PXY d   1      -0.385  -4.860  -1.452  0.00  0.00     0.077 C 
ATOM      3  C1  PXY d   1       0.557  -3.789  -0.938  0.00  0.00    -0.082 A 
ATOM      4  C2  PXY d   1       1.135  -3.938   0.242  0.00  0.00     0.003 A 
ATOM      5  C3  PXY d   1       1.965  -2.965   0.736  0.00  0.00     0.003 A 
ATOM      6  C4  PXY d   1       2.248  -1.852  -0.009  0.00  0.00    -0.082 A 
ATOM      7  C5  PXY d   1       1.670  -1.697  -1.219  0.00  0.00     0.003 A 
ATOM      8  C6  PXY d   1       0.798  -2.677  -1.685  0.00  0.00     0.003 A 
ENDROOT
TORSDOF 0
ENDMDL
