MODEL 1
REMARK minimizedAffinity 0.225282341
REMARK minimizedRMSD -1
REMARK  0 active torsions:
REMARK  status: ('A' for Active; 'I' for Inactive)
ROOT
ATOM      1  C4' PXY d   1      -0.295  -5.767  -0.160  0.00  0.00     0.077 C 
ATOM      2  C1' PXY d   1       2.734  -0.848  -0.351  0.00  0.00     0.077 C 
ATOM      3  C1  PXY d   1       1.951  -2.145  -0.303  0.00  0.00    -0.082 A 
ATOM      4  C2  PXY d   1       0.644  -2.128  -0.512  0.00  0.00     0.003 A 
ATOM      5  C3  PXY d   1      -0.085  -3.287  -0.441  0.00  0.00     0.003 A 
ATOM      6  C4  PXY d   1       0.538  -4.483  -0.207  0.00  0.00    -0.082 A 
ATOM      7  C5  PXY d   1       1.872  -4.511  -0.004  0.00  0.00     0.003 A 
ATOM      8  C6  PXY d   1       2.588  -3.318  -0.039  0.00  0.00     0.003 A 
ENDROOT
TORSDOF 0
ENDMDL
