MODEL 1
REMARK minimizedAffinity 3.24334455
REMARK minimizedRMSD -1
REMARK  0 active torsions:
REMARK  status: ('A' for Active; 'I' for Inactive)
ROOT
ATOM      1  C4' PXY d   1      -0.930   2.178  -1.455  0.00  0.00     0.077 C 
ATOM      2  C1' PXY d   1       1.462  -3.036  -0.745  0.00  0.00     0.077 C 
ATOM      3  C1  PXY d   1       0.827  -1.673  -0.939  0.00  0.00    -0.082 A 
ATOM      4  C2  PXY d   1       1.527  -0.581  -0.678  0.00  0.00     0.003 A 
ATOM      5  C3  PXY d   1       0.957   0.658  -0.818  0.00  0.00     0.003 A 
ATOM      6  C4  PXY d   1      -0.326   0.782  -1.282  0.00  0.00    -0.082 A 
ATOM      7  C5  PXY d   1      -1.043  -0.327  -1.561  0.00  0.00     0.003 A 
ATOM      8  C6  PXY d   1      -0.460  -1.577  -1.372  0.00  0.00     0.003 A 
ENDROOT
TORSDOF 0
ENDMDL
