MODEL 1
REMARK minimizedAffinity -1.51952243
REMARK minimizedRMSD -1
REMARK  0 active torsions:
REMARK  status: ('A' for Active; 'I' for Inactive)
ROOT
ATOM      1  C4' PXY d   1      -5.589   3.166   2.331  0.00  0.00     0.077 C 
ATOM      2  C1' PXY d   1      -4.883  -1.857  -0.442  0.00  0.00     0.077 C 
ATOM      3  C1  PXY d   1      -5.065  -0.546   0.297  0.00  0.00    -0.082 A 
ATOM      4  C2  PXY d   1      -5.849   0.389  -0.215  0.00  0.00     0.003 A 
ATOM      5  C3  PXY d   1      -6.000   1.594   0.424  0.00  0.00     0.003 A 
ATOM      6  C4  PXY d   1      -5.384   1.823   1.625  0.00  0.00    -0.082 A 
ATOM      7  C5  PXY d   1      -4.590   0.870   2.158  0.00  0.00     0.003 A 
ATOM      8  C6  PXY d   1      -4.418  -0.330   1.474  0.00  0.00     0.003 A 
ENDROOT
TORSDOF 0
ENDMDL
