MODEL 1
REMARK minimizedAffinity 7.36481285
REMARK minimizedRMSD -1
REMARK  0 active torsions:
REMARK  status: ('A' for Active; 'I' for Inactive)
ROOT
ATOM      1  C4' PXY d   1       5.999   3.445  -2.535  0.00  0.00     0.077 C 
ATOM      2  C1' PXY d   1       2.643   0.266   0.936  0.00  0.00     0.077 C 
ATOM      3  C1  PXY d   1       3.525   1.108   0.035  0.00  0.00    -0.082 A 
ATOM      4  C2  PXY d   1       3.347   1.071  -1.275  0.00  0.00     0.003 A 
ATOM      5  C3  PXY d   1       4.157   1.802  -2.106  0.00  0.00     0.003 A 
ATOM      6  C4  PXY d   1       5.125   2.619  -1.587  0.00  0.00    -0.082 A 
ATOM      7  C5  PXY d   1       5.307   2.670  -0.250  0.00  0.00     0.003 A 
ATOM      8  C6  PXY d   1       4.501   1.889   0.574  0.00  0.00     0.003 A 
ENDROOT
TORSDOF 0
ENDMDL
