MODEL 1
REMARK minimizedAffinity 11.4464731
REMARK minimizedRMSD -1
REMARK  0 active torsions:
REMARK  status: ('A' for Active; 'I' for Inactive)
ROOT
ATOM      1  C4' PXY d   1      -3.994  -4.384  -6.000  0.00  0.00     0.077 C 
ATOM      2  C1' PXY d   1      -0.253  -1.896  -2.362  0.00  0.00     0.077 C 
ATOM      3  C1  PXY d   1      -1.241  -2.537  -3.317  0.00  0.00    -0.082 A 
ATOM      4  C2  PXY d   1      -1.430  -3.846  -3.281  0.00  0.00     0.003 A 
ATOM      5  C3  PXY d   1      -2.295  -4.447  -4.159  0.00  0.00     0.003 A 
ATOM      6  C4  PXY d   1      -3.014  -3.693  -5.048  0.00  0.00    -0.082 A 
ATOM      7  C5  PXY d   1      -2.835  -2.355  -5.084  0.00  0.00     0.003 A 
ATOM      8  C6  PXY d   1      -1.921  -1.770  -4.212  0.00  0.00     0.003 A 
ENDROOT
TORSDOF 0
ENDMDL
