MODEL 1
REMARK minimizedAffinity 19.1980743
REMARK minimizedRMSD -1
REMARK  0 active torsions:
REMARK  status: ('A' for Active; 'I' for Inactive)
ROOT
ATOM      1  C4' PXY d   1      -3.396   1.929   1.222  0.00  0.00     0.077 C 
ATOM      2  C1' PXY d   1      -5.999  -1.696  -2.451  0.00  0.00     0.077 C 
ATOM      3  C1  PXY d   1      -5.305  -0.751  -1.490  0.00  0.00    -0.082 A 
ATOM      4  C2  PXY d   1      -6.000  -0.175  -0.523  0.00  0.00     0.003 A 
ATOM      5  C3  PXY d   1      -5.395   0.707   0.335  0.00  0.00     0.003 A 
ATOM      6  C4  PXY d   1      -4.053   0.961   0.235  0.00  0.00    -0.082 A 
ATOM      7  C5  PXY d   1      -3.335   0.369  -0.743  0.00  0.00     0.003 A 
ATOM      8  C6  PXY d   1      -3.977  -0.492  -1.629  0.00  0.00     0.003 A 
ENDROOT
TORSDOF 0
ENDMDL
