MODEL 1
REMARK minimizedAffinity 2.92680311
REMARK minimizedRMSD -1
REMARK  0 active torsions:
REMARK  status: ('A' for Active; 'I' for Inactive)
ROOT
ATOM      1  C4' PXY d   1       0.560   4.234   1.176  0.00  0.00     0.077 C 
ATOM      2  C1' PXY d   1       2.150   1.471   5.999  0.00  0.00     0.077 C 
ATOM      3  C1  PXY d   1       1.745   2.201   4.733  0.00  0.00    -0.082 A 
ATOM      4  C2  PXY d   1       0.464   2.431   4.493  0.00  0.00     0.003 A 
ATOM      5  C3  PXY d   1       0.078   3.062   3.338  0.00  0.00     0.003 A 
ATOM      6  C4  PXY d   1       1.016   3.509   2.446  0.00  0.00    -0.082 A 
ATOM      7  C5  PXY d   1       2.325   3.287   2.689  0.00  0.00     0.003 A 
ATOM      8  C6  PXY d   1       2.694   2.609   3.848  0.00  0.00     0.003 A 
ENDROOT
TORSDOF 0
ENDMDL
