MODEL 1
REMARK minimizedAffinity -1.31214046
REMARK minimizedRMSD -1
REMARK  0 active torsions:
REMARK  status: ('A' for Active; 'I' for Inactive)
ROOT
ATOM      1  C4' PXY d   1       3.393  -0.272   2.496  0.00  0.00     0.077 C 
ATOM      2  C1' PXY d   1       4.612   2.554  -2.396  0.00  0.00     0.077 C 
ATOM      3  C1  PXY d   1       4.280   1.812  -1.117  0.00  0.00    -0.082 A 
ATOM      4  C2  PXY d   1       5.052   1.964  -0.053  0.00  0.00     0.003 A 
ATOM      5  C3  PXY d   1       4.784   1.276   1.102  0.00  0.00     0.003 A 
ATOM      6  C4  PXY d   1       3.685   0.464   1.186  0.00  0.00    -0.082 A 
ATOM      7  C5  PXY d   1       2.886   0.312   0.108  0.00  0.00     0.003 A 
ATOM      8  C6  PXY d   1       3.199   0.988  -1.068  0.00  0.00     0.003 A 
ENDROOT
TORSDOF 0
ENDMDL
