MODEL 1
REMARK minimizedAffinity 7.43047714
REMARK minimizedRMSD -1
REMARK  0 active torsions:
REMARK  status: ('A' for Active; 'I' for Inactive)
ROOT
ATOM      1  C4' PXY d   1       1.342   3.399   3.631  0.00  0.00     0.077 C 
ATOM      2  C1' PXY d   1       3.325   1.370  -1.406  0.00  0.00     0.077 C 
ATOM      3  C1  PXY d   1       2.796   1.909  -0.092  0.00  0.00    -0.082 A 
ATOM      4  C2  PXY d   1       3.595   1.966   0.961  0.00  0.00     0.003 A 
ATOM      5  C3  PXY d   1       3.124   2.421   2.166  0.00  0.00     0.003 A 
ATOM      6  C4  PXY d   1       1.836   2.871   2.281  0.00  0.00    -0.082 A 
ATOM      7  C5  PXY d   1       1.018   2.826   1.209  0.00  0.00     0.003 A 
ATOM      8  C6  PXY d   1       1.503   2.322   0.005  0.00  0.00     0.003 A 
ENDROOT
TORSDOF 0
ENDMDL
