MODEL 1
REMARK minimizedAffinity -0.712813497
REMARK minimizedRMSD -1
REMARK  0 active torsions:
REMARK  status: ('A' for Active; 'I' for Inactive)
ROOT
ATOM      1  C4' PXY d   1       2.628   0.532   0.389  0.00  0.00     0.077 C 
ATOM      2  C1' PXY d   1       6.000   4.186  -2.560  0.00  0.00     0.077 C 
ATOM      3  C1  PXY d   1       5.124   3.227  -1.777  0.00  0.00    -0.082 A 
ATOM      4  C2  PXY d   1       4.235   2.484  -2.415  0.00  0.00     0.003 A 
ATOM      5  C3  PXY d   1       3.413   1.635  -1.719  0.00  0.00     0.003 A 
ATOM      6  C4  PXY d   1       3.540   1.507  -0.362  0.00  0.00    -0.082 A 
ATOM      7  C5  PXY d   1       4.452   2.254   0.295  0.00  0.00     0.003 A 
ATOM      8  C6  PXY d   1       5.249   3.140  -0.425  0.00  0.00     0.003 A 
ENDROOT
TORSDOF 0
ENDMDL
