MODEL 1
REMARK minimizedAffinity 1.63833427
REMARK minimizedRMSD -1
REMARK  0 active torsions:
REMARK  status: ('A' for Active; 'I' for Inactive)
ROOT
ATOM      1  C4' PXY d   1       3.067   1.450   1.586  0.00  0.00     0.077 C 
ATOM      2  C1' PXY d   1       6.000   3.094  -3.116  0.00  0.00     0.077 C 
ATOM      3  C1  PXY d   1       5.242   2.660  -1.877  0.00  0.00    -0.082 A 
ATOM      4  C2  PXY d   1       3.984   2.263  -1.985  0.00  0.00     0.003 A 
ATOM      5  C3  PXY d   1       3.274   1.897  -0.870  0.00  0.00     0.003 A 
ATOM      6  C4  PXY d   1       3.874   1.888   0.361  0.00  0.00    -0.082 A 
ATOM      7  C5  PXY d   1       5.160   2.282   0.478  0.00  0.00     0.003 A 
ATOM      8  C6  PXY d   1       5.850   2.688  -0.660  0.00  0.00     0.003 A 
ENDROOT
TORSDOF 0
ENDMDL
