MODEL 1
REMARK minimizedAffinity 5.38736057
REMARK minimizedRMSD -1
REMARK  0 active torsions:
REMARK  status: ('A' for Active; 'I' for Inactive)
ROOT
ATOM      1  C4' PXY d   1       2.041  -0.292   0.167  0.00  0.00     0.077 C 
ATOM      2  C1' PXY d   1       5.935   3.640  -1.505  0.00  0.00     0.077 C 
ATOM      3  C1  PXY d   1       4.920   2.607  -1.056  0.00  0.00    -0.082 A 
ATOM      4  C2  PXY d   1       4.154   2.009  -1.954  0.00  0.00     0.003 A 
ATOM      5  C3  PXY d   1       3.210   1.095  -1.562  0.00  0.00     0.003 A 
ATOM      6  C4  PXY d   1       3.085   0.751  -0.242  0.00  0.00    -0.082 A 
ATOM      7  C5  PXY d   1       3.870   1.348   0.679  0.00  0.00     0.003 A 
ATOM      8  C6  PXY d   1       4.794   2.303   0.265  0.00  0.00     0.003 A 
ENDROOT
TORSDOF 0
ENDMDL
