MODEL 1
REMARK minimizedAffinity 15.9386873
REMARK minimizedRMSD -1
REMARK  0 active torsions:
REMARK  status: ('A' for Active; 'I' for Inactive)
ROOT
ATOM      1  C4' PXY d   1       6.000   3.211  -2.219  0.00  0.00     0.077 C 
ATOM      2  C1' PXY d   1       2.730  -0.006   1.298  0.00  0.00     0.077 C 
ATOM      3  C1  PXY d   1       3.592   0.845   0.386  0.00  0.00    -0.082 A 
ATOM      4  C2  PXY d   1       3.294   0.932  -0.901  0.00  0.00     0.003 A 
ATOM      5  C3  PXY d   1       4.081   1.672  -1.746  0.00  0.00     0.003 A 
ATOM      6  C4  PXY d   1       5.153   2.372  -1.260  0.00  0.00    -0.082 A 
ATOM      7  C5  PXY d   1       5.457   2.296   0.053  0.00  0.00     0.003 A 
ATOM      8  C6  PXY d   1       4.670   1.507   0.887  0.00  0.00     0.003 A 
ENDROOT
TORSDOF 0
ENDMDL
