MODEL 1
REMARK minimizedAffinity -2.94417429
REMARK minimizedRMSD -1
REMARK  0 active torsions:
REMARK  status: ('A' for Active; 'I' for Inactive)
ROOT
ATOM      1  C2' OXE d   1       1.278  -0.111   2.305  0.00  0.00     0.078 C 
ATOM      2  C1' OXE d   1       0.083  -0.693  -0.167  0.00  0.00     0.078 C 
ATOM      3  C1  OXE d   1      -0.497   0.438   0.645  0.00  0.00    -0.078 A 
ATOM      4  C2  OXE d   1       0.065   0.685   1.875  0.00  0.00    -0.078 A 
ATOM      5  C3  OXE d   1      -0.397   1.752   2.641  0.00  0.00     0.003 A 
ATOM      6  C4  OXE d   1      -1.526   2.476   2.241  0.00  0.00    -0.002 A 
ATOM      7  C5  OXE d   1      -2.137   2.215   1.010  0.00  0.00    -0.002 A 
ATOM      8  C6  OXE d   1      -1.610   1.229   0.183  0.00  0.00     0.003 A 
ENDROOT
TORSDOF 0
ENDMDL
