MODEL 1
REMARK minimizedAffinity -1.64407313
REMARK minimizedRMSD -1
REMARK  0 active torsions:
REMARK  status: ('A' for Active; 'I' for Inactive)
ROOT
ATOM      1  C2' OXE d   1       0.446   0.081   1.977  0.00  0.00     0.078 C 
ATOM      2  C1' OXE d   1      -1.185   2.343   1.658  0.00  0.00     0.078 C 
ATOM      3  C1  OXE d   1      -0.688   1.653   0.412  0.00  0.00    -0.078 A 
ATOM      4  C2  OXE d   1       0.148   0.575   0.578  0.00  0.00    -0.078 A 
ATOM      5  C3  OXE d   1       0.591  -0.131  -0.537  0.00  0.00     0.003 A 
ATOM      6  C4  OXE d   1       0.319   0.338  -1.828  0.00  0.00    -0.002 A 
ATOM      7  C5  OXE d   1      -0.498   1.458  -2.018  0.00  0.00    -0.002 A 
ATOM      8  C6  OXE d   1      -1.043   2.100  -0.912  0.00  0.00     0.003 A 
ENDROOT
TORSDOF 0
ENDMDL
