MODEL 1
REMARK minimizedAffinity -2.04449368
REMARK minimizedRMSD -1
REMARK  0 active torsions:
REMARK  status: ('A' for Active; 'I' for Inactive)
ROOT
ATOM      1  C2' OXE d   1       0.278   1.078  -1.927  0.00  0.00     0.078 C 
ATOM      2  C1' OXE d   1       0.288  -1.206  -0.295  0.00  0.00     0.078 C 
ATOM      3  C1  OXE d   1      -0.038   0.118   0.350  0.00  0.00    -0.078 A 
ATOM      4  C2  OXE d   1       0.004   1.237  -0.447  0.00  0.00    -0.078 A 
ATOM      5  C3  OXE d   1      -0.342   2.476   0.085  0.00  0.00     0.003 A 
ATOM      6  C4  OXE d   1      -0.584   2.616   1.457  0.00  0.00    -0.002 A 
ATOM      7  C5  OXE d   1      -0.593   1.495   2.294  0.00  0.00    -0.002 A 
ATOM      8  C6  OXE d   1      -0.365   0.236   1.750  0.00  0.00     0.003 A 
ENDROOT
TORSDOF 0
ENDMDL
