MODEL 1
REMARK minimizedAffinity -4.670434
REMARK minimizedRMSD -1
REMARK  0 active torsions:
REMARK  status: ('A' for Active; 'I' for Inactive)
ROOT
ATOM      1  C2' OXE d   1       0.229  -0.378  -0.500  0.00  0.00     0.078 C 
ATOM      2  C1' OXE d   1       0.053   0.451   2.176  0.00  0.00     0.078 C 
ATOM      3  C1  OXE d   1      -0.361   1.432   1.108  0.00  0.00    -0.078 A 
ATOM      4  C2  OXE d   1      -0.228   1.034  -0.201  0.00  0.00    -0.078 A 
ATOM      5  C3  OXE d   1      -0.647   1.879  -1.224  0.00  0.00     0.003 A 
ATOM      6  C4  OXE d   1      -1.059   3.187  -0.940  0.00  0.00    -0.002 A 
ATOM      7  C5  OXE d   1      -1.164   3.626   0.384  0.00  0.00    -0.002 A 
ATOM      8  C6  OXE d   1      -0.860   2.748   1.419  0.00  0.00     0.003 A 
ENDROOT
TORSDOF 0
ENDMDL
