MODEL 1
REMARK minimizedAffinity -0.849877298
REMARK minimizedRMSD -1
REMARK  0 active torsions:
REMARK  status: ('A' for Active; 'I' for Inactive)
ROOT
ATOM      1  C2' OXE d   1      -0.453  -3.632  -1.179  0.00  0.00     0.078 C 
ATOM      2  C1' OXE d   1      -0.118  -2.615  -3.774  0.00  0.00     0.078 C 
ATOM      3  C1  OXE d   1       0.058  -1.663  -2.617  0.00  0.00    -0.078 A 
ATOM      4  C2  OXE d   1      -0.154  -2.159  -1.353  0.00  0.00    -0.078 A 
ATOM      5  C3  OXE d   1       0.049  -1.338  -0.248  0.00  0.00     0.003 A 
ATOM      6  C4  OXE d   1       0.316   0.026  -0.417  0.00  0.00    -0.002 A 
ATOM      7  C5  OXE d   1       0.496   0.561  -1.697  0.00  0.00    -0.002 A 
ATOM      8  C6  OXE d   1       0.412  -0.278  -2.804  0.00  0.00     0.003 A 
ENDROOT
TORSDOF 0
ENDMDL
