MODEL 1
REMARK minimizedAffinity -1.17990339
REMARK minimizedRMSD -1
REMARK  0 active torsions:
REMARK  status: ('A' for Active; 'I' for Inactive)
ROOT
ATOM      1  C2' OXE d   1       1.385  -6.000   0.049  0.00  0.00     0.078 C 
ATOM      2  C1' OXE d   1       2.620  -3.529  -0.450  0.00  0.00     0.078 C 
ATOM      3  C1  OXE d   1       1.181  -3.693  -0.870  0.00  0.00    -0.078 A 
ATOM      4  C2  OXE d   1       0.599  -4.921  -0.665  0.00  0.00    -0.078 A 
ATOM      5  C3  OXE d   1      -0.742  -5.110  -0.984  0.00  0.00     0.003 A 
ATOM      6  C4  OXE d   1      -1.460  -4.110  -1.652  0.00  0.00    -0.002 A 
ATOM      7  C5  OXE d   1      -0.874  -2.866  -1.907  0.00  0.00    -0.002 A 
ATOM      8  C6  OXE d   1       0.430  -2.627  -1.485  0.00  0.00     0.003 A 
ENDROOT
TORSDOF 0
ENDMDL
