MODEL 1
REMARK minimizedAffinity 0.471428186
REMARK minimizedRMSD -1
REMARK  0 active torsions:
REMARK  status: ('A' for Active; 'I' for Inactive)
ROOT
ATOM      1  C2' OXE d   1      -2.342   1.905   0.695  0.00  0.00     0.078 C 
ATOM      2  C1' OXE d   1      -1.417   2.918  -1.754  0.00  0.00     0.078 C 
ATOM      3  C1  OXE d   1      -0.926   1.559  -1.324  0.00  0.00    -0.078 A 
ATOM      4  C2  OXE d   1      -1.347   1.091  -0.103  0.00  0.00    -0.078 A 
ATOM      5  C3  OXE d   1      -0.966  -0.181   0.317  0.00  0.00     0.003 A 
ATOM      6  C4  OXE d   1      -0.038  -0.923  -0.423  0.00  0.00    -0.002 A 
ATOM      7  C5  OXE d   1       0.435  -0.448  -1.651  0.00  0.00    -0.002 A 
ATOM      8  C6  OXE d   1      -0.031   0.770  -2.135  0.00  0.00     0.003 A 
ENDROOT
TORSDOF 0
ENDMDL
