MODEL 1
REMARK minimizedAffinity 0.173124552
REMARK minimizedRMSD -1
REMARK  0 active torsions:
REMARK  status: ('A' for Active; 'I' for Inactive)
ROOT
ATOM      1  C2' OXE d   1      -1.394   2.301  -1.180  0.00  0.00     0.078 C 
ATOM      2  C1' OXE d   1      -0.909   2.998   1.495  0.00  0.00     0.078 C 
ATOM      3  C1  OXE d   1      -0.371   1.677   1.004  0.00  0.00    -0.078 A 
ATOM      4  C2  OXE d   1      -0.654   1.323  -0.294  0.00  0.00    -0.078 A 
ATOM      5  C3  OXE d   1      -0.135   0.141  -0.814  0.00  0.00     0.003 A 
ATOM      6  C4  OXE d   1       0.540  -0.763   0.015  0.00  0.00    -0.002 A 
ATOM      7  C5  OXE d   1       0.804  -0.440   1.351  0.00  0.00    -0.002 A 
ATOM      8  C6  OXE d   1       0.393   0.792   1.848  0.00  0.00     0.003 A 
ENDROOT
TORSDOF 0
ENDMDL
