MODEL 1
REMARK minimizedAffinity 3.43157792
REMARK minimizedRMSD -1
REMARK  1 active torsions:
REMARK  status: ('A' for Active; 'I' for Inactive)
REMARK    1  A    between atoms: C1_2  and  C2_3 
ROOT
ATOM      1  C2  UNL d   1      -3.427   0.559  -4.239  0.00  0.00    -0.077 A 
ATOM      2  C3  UNL d   1      -4.011  -0.266  -3.267  0.00  0.00     0.002 A 
ATOM      3  C4  UNL d   1      -3.210  -1.015  -2.402  0.00  0.00     0.002 A 
ATOM      4  C5  UNL d   1      -1.822  -0.944  -2.499  0.00  0.00    -0.004 A 
ATOM      5  C6  UNL d   1      -1.232  -0.128  -3.463  0.00  0.00     0.002 A 
ATOM      6  C7  UNL d   1      -2.031   0.620  -4.329  0.00  0.00     0.002 A 
ENDROOT
BRANCH   1   7
ATOM      7  C1  UNL d   1      -4.289   1.405  -5.139  0.00  0.00     0.055 C 
ATOM      8  C   UNL d   1      -4.653   2.725  -4.476  0.00  0.00     0.019 C 
ENDBRANCH   1   7
TORSDOF 1
ENDMDL
