MODEL 1
REMARK minimizedAffinity 0.688043177
REMARK minimizedRMSD -1
REMARK  1 active torsions:
REMARK  status: ('A' for Active; 'I' for Inactive)
REMARK    1  A    between atoms: C1_2  and  C2_3 
ROOT
ATOM      1  C2  UNL d   1       1.379  -3.227   0.539  0.00  0.00    -0.077 A 
ATOM      2  C3  UNL d   1       1.157  -2.191  -0.379  0.00  0.00     0.002 A 
ATOM      3  C4  UNL d   1       2.026  -1.100  -0.437  0.00  0.00     0.002 A 
ATOM      4  C5  UNL d   1       3.125  -1.037   0.417  0.00  0.00    -0.004 A 
ATOM      5  C6  UNL d   1       3.354  -2.061   1.335  0.00  0.00     0.002 A 
ATOM      6  C7  UNL d   1       2.485  -3.152   1.396  0.00  0.00     0.002 A 
ENDROOT
BRANCH   1   7
ATOM      7  C1  UNL d   1       0.470  -4.428   0.570  0.00  0.00     0.055 C 
ATOM      8  C   UNL d   1      -0.566  -4.366  -0.543  0.00  0.00     0.019 C 
ENDBRANCH   1   7
TORSDOF 1
ENDMDL
