MODEL 1
REMARK minimizedAffinity 1.34548593
REMARK minimizedRMSD -1
REMARK  1 active torsions:
REMARK  status: ('A' for Active; 'I' for Inactive)
REMARK    1  A    between atoms: C1_2  and  C2_3 
ROOT
ATOM      1  C2  UNL d   1       2.550  -0.531   0.054  0.00  0.00    -0.077 A 
ATOM      2  C3  UNL d   1       1.337   0.172   0.035  0.00  0.00     0.002 A 
ATOM      3  C4  UNL d   1       1.325   1.563   0.157  0.00  0.00     0.002 A 
ATOM      4  C5  UNL d   1       2.523   2.263   0.293  0.00  0.00    -0.004 A 
ATOM      5  C6  UNL d   1       3.734   1.572   0.314  0.00  0.00     0.002 A 
ATOM      6  C7  UNL d   1       3.748   0.182   0.194  0.00  0.00     0.002 A 
ENDROOT
BRANCH   1   7
ATOM      7  C1  UNL d   1       2.568  -2.026  -0.126  0.00  0.00     0.055 C 
ATOM      8  C   UNL d   1       2.856  -2.406  -1.571  0.00  0.00     0.019 C 
ENDBRANCH   1   7
TORSDOF 1
ENDMDL
