MODEL 1
REMARK minimizedAffinity 4.80896235
REMARK minimizedRMSD -1
REMARK  1 active torsions:
REMARK  status: ('A' for Active; 'I' for Inactive)
REMARK    1  A    between atoms: C1_2  and  C2_3 
ROOT
ATOM      1  C2  UNL d   1       2.989   0.594   0.777  0.00  0.00    -0.077 A 
ATOM      2  C3  UNL d   1       1.594   0.454   0.752  0.00  0.00     0.002 A 
ATOM      3  C4  UNL d   1       0.771   1.581   0.742  0.00  0.00     0.002 A 
ATOM      4  C5  UNL d   1       1.332   2.856   0.753  0.00  0.00    -0.004 A 
ATOM      5  C6  UNL d   1       2.718   3.006   0.779  0.00  0.00     0.002 A 
ATOM      6  C7  UNL d   1       3.543   1.880   0.790  0.00  0.00     0.002 A 
ENDROOT
BRANCH   1   7
ATOM      7  C1  UNL d   1       3.879  -0.620   0.738  0.00  0.00     0.055 C 
ATOM      8  C   UNL d   1       3.131  -1.870   1.180  0.00  0.00     0.019 C 
ENDBRANCH   1   7
TORSDOF 1
ENDMDL
