MODEL 1
REMARK minimizedAffinity 1.18339396
REMARK minimizedRMSD -1
REMARK  1 active torsions:
REMARK  status: ('A' for Active; 'I' for Inactive)
REMARK    1  A    between atoms: C1_2  and  C2_3 
ROOT
ATOM      1  C2  UNL d   1      -2.146   0.386  -2.977  0.00  0.00    -0.077 A 
ATOM      2  C3  UNL d   1      -2.930   1.185  -3.821  0.00  0.00     0.002 A 
ATOM      3  C4  UNL d   1      -4.165   1.671  -3.386  0.00  0.00     0.002 A 
ATOM      4  C5  UNL d   1      -4.625   1.367  -2.107  0.00  0.00    -0.004 A 
ATOM      5  C6  UNL d   1      -3.853   0.570  -1.261  0.00  0.00     0.002 A 
ATOM      6  C7  UNL d   1      -2.620   0.083  -1.694  0.00  0.00     0.002 A 
ENDROOT
BRANCH   1   7
ATOM      7  C1  UNL d   1      -0.792  -0.099  -3.426  0.00  0.00     0.055 C 
ATOM      8  C   UNL d   1      -0.298  -1.244  -2.554  0.00  0.00     0.019 C 
ENDBRANCH   1   7
TORSDOF 1
ENDMDL
