MODEL 1
REMARK minimizedAffinity 5.92959547
REMARK minimizedRMSD -1
REMARK  1 active torsions:
REMARK  status: ('A' for Active; 'I' for Inactive)
REMARK    1  A    between atoms: C1_2  and  C2_3 
ROOT
ATOM      1  C2  UNL d   1      -0.445   1.564   2.039  0.00  0.00    -0.077 A 
ATOM      2  C3  UNL d   1       0.565   1.086   1.192  0.00  0.00     0.002 A 
ATOM      3  C4  UNL d   1       1.310   1.972   0.412  0.00  0.00     0.002 A 
ATOM      4  C5  UNL d   1       1.057   3.341   0.474  0.00  0.00    -0.004 A 
ATOM      5  C6  UNL d   1       0.054   3.826   1.312  0.00  0.00     0.002 A 
ATOM      6  C7  UNL d   1      -0.694   2.942   2.091  0.00  0.00     0.002 A 
ENDROOT
BRANCH   1   7
ATOM      7  C1  UNL d   1      -1.217   0.615   2.918  0.00  0.00     0.055 C 
ATOM      8  C   UNL d   1      -0.290  -0.166   3.837  0.00  0.00     0.019 C 
ENDBRANCH   1   7
TORSDOF 1
ENDMDL
