MODEL 1
REMARK minimizedAffinity 0.667580664
REMARK minimizedRMSD -1
REMARK  1 active torsions:
REMARK  status: ('A' for Active; 'I' for Inactive)
REMARK    1  A    between atoms: C1_2  and  C2_3 
ROOT
ATOM      1  C2  UNL d   1       2.865   0.060   0.851  0.00  0.00    -0.077 A 
ATOM      2  C3  UNL d   1       4.072   0.767   0.753  0.00  0.00     0.002 A 
ATOM      3  C4  UNL d   1       4.074   2.163   0.741  0.00  0.00     0.002 A 
ATOM      4  C5  UNL d   1       2.874   2.864   0.831  0.00  0.00    -0.004 A 
ATOM      5  C6  UNL d   1       1.668   2.171   0.927  0.00  0.00     0.002 A 
ATOM      6  C7  UNL d   1       1.664   0.775   0.938  0.00  0.00     0.002 A 
ENDROOT
BRANCH   1   7
ATOM      7  C1  UNL d   1       2.865  -1.445   0.914  0.00  0.00     0.055 C 
ATOM      8  C   UNL d   1       2.084  -2.047  -0.245  0.00  0.00     0.019 C 
ENDBRANCH   1   7
TORSDOF 1
ENDMDL
