MODEL 1
REMARK minimizedAffinity 6.55147982
REMARK minimizedRMSD -1
REMARK  1 active torsions:
REMARK  status: ('A' for Active; 'I' for Inactive)
REMARK    1  A    between atoms: C1_2  and  C2_3 
ROOT
ATOM      1  C2  UNL d   1       0.739   1.066  -0.196  0.00  0.00    -0.077 A 
ATOM      2  C3  UNL d   1       0.094   0.562  -1.334  0.00  0.00     0.002 A 
ATOM      3  C4  UNL d   1       0.651  -0.498  -2.051  0.00  0.00     0.002 A 
ATOM      4  C5  UNL d   1       1.853  -1.067  -1.636  0.00  0.00    -0.004 A 
ATOM      5  C6  UNL d   1       2.504  -0.572  -0.506  0.00  0.00     0.002 A 
ATOM      6  C7  UNL d   1       1.949   0.489   0.211  0.00  0.00     0.002 A 
ENDROOT
BRANCH   1   7
ATOM      7  C1  UNL d   1       0.115   2.177   0.607  0.00  0.00     0.055 C 
ATOM      8  C   UNL d   1      -0.643   1.632   1.809  0.00  0.00     0.019 C 
ENDBRANCH   1   7
TORSDOF 1
ENDMDL
