MODEL 1
REMARK minimizedAffinity -2.07315874
REMARK minimizedRMSD -1
REMARK  0 active torsions:
REMARK  status: ('A' for Active; 'I' for Inactive)
ROOT
ATOM      1  C4' PXY d   1      -5.985   2.223  -1.622  0.00  0.00     0.077 C 
ATOM      2  C1' PXY d   1      -5.512   5.969  -6.000  0.00  0.00     0.077 C 
ATOM      3  C1  PXY d   1      -5.633   4.996  -4.843  0.00  0.00    -0.082 A 
ATOM      4  C2  PXY d   1      -5.490   3.699  -5.062  0.00  0.00     0.003 A 
ATOM      5  C3  PXY d   1      -5.628   2.802  -4.034  0.00  0.00     0.003 A 
ATOM      6  C4  PXY d   1      -5.861   3.242  -2.758  0.00  0.00    -0.082 A 
ATOM      7  C5  PXY d   1      -5.998   4.565  -2.525  0.00  0.00     0.003 A 
ATOM      8  C6  PXY d   1      -5.895   5.455  -3.590  0.00  0.00     0.003 A 
ENDROOT
TORSDOF 0
ENDMDL
