MODEL 1
REMARK minimizedAffinity 6.36318684
REMARK minimizedRMSD -1
REMARK  0 active torsions:
REMARK  status: ('A' for Active; 'I' for Inactive)
ROOT
ATOM      1  C4' PXY d   1       5.032   5.996   4.018  0.00  0.00     0.077 C 
ATOM      2  C1' PXY d   1       5.753   3.346  -1.069  0.00  0.00     0.077 C 
ATOM      3  C1  PXY d   1       5.573   4.049   0.262  0.00  0.00    -0.082 A 
ATOM      4  C2  PXY d   1       5.057   3.390   1.286  0.00  0.00     0.003 A 
ATOM      5  C3  PXY d   1       4.858   4.019   2.488  0.00  0.00     0.003 A 
ATOM      6  C4  PXY d   1       5.240   5.323   2.658  0.00  0.00    -0.082 A 
ATOM      7  C5  PXY d   1       5.778   6.000   1.621  0.00  0.00     0.003 A 
ATOM      8  C6  PXY d   1       5.933   5.354   0.398  0.00  0.00     0.003 A 
ENDROOT
TORSDOF 0
ENDMDL
