MODEL 1
REMARK minimizedAffinity 15.3331394
REMARK minimizedRMSD -1
REMARK  0 active torsions:
REMARK  status: ('A' for Active; 'I' for Inactive)
ROOT
ATOM      1  C4' PXY d   1       1.874   2.050  -4.667  0.00  0.00     0.077 C 
ATOM      2  C1' PXY d   1      -2.353   5.764  -5.992  0.00  0.00     0.077 C 
ATOM      3  C1  PXY d   1      -1.237   4.795  -5.654  0.00  0.00    -0.082 A 
ATOM      4  C2  PXY d   1      -1.519   3.668  -5.019  0.00  0.00     0.003 A 
ATOM      5  C3  PXY d   1      -0.518   2.796  -4.678  0.00  0.00     0.003 A 
ATOM      6  C4  PXY d   1       0.778   3.053  -5.036  0.00  0.00    -0.082 A 
ATOM      7  C5  PXY d   1       1.072   4.195  -5.693  0.00  0.00     0.003 A 
ATOM      8  C6  PXY d   1       0.047   5.088  -5.994  0.00  0.00     0.003 A 
ENDROOT
TORSDOF 0
ENDMDL
