MODEL 1
REMARK minimizedAffinity -2.57443047
REMARK minimizedRMSD -1
REMARK  0 active torsions:
REMARK  status: ('A' for Active; 'I' for Inactive)
ROOT
ATOM      1  C4' PXY d   1      -4.203   2.358  -6.000  0.00  0.00     0.077 C 
ATOM      2  C1' PXY d   1      -5.967   5.996  -1.869  0.00  0.00     0.077 C 
ATOM      3  C1  PXY d   1      -5.501   5.052  -2.959  0.00  0.00    -0.082 A 
ATOM      4  C2  PXY d   1      -6.000   3.829  -3.023  0.00  0.00     0.003 A 
ATOM      5  C3  PXY d   1      -5.566   2.951  -3.983  0.00  0.00     0.003 A 
ATOM      6  C4  PXY d   1      -4.651   3.348  -4.921  0.00  0.00    -0.082 A 
ATOM      7  C5  PXY d   1      -4.146   4.599  -4.870  0.00  0.00     0.003 A 
ATOM      8  C6  PXY d   1      -4.568   5.461  -3.862  0.00  0.00     0.003 A 
ENDROOT
TORSDOF 0
ENDMDL
