MODEL 1
REMARK minimizedAffinity 12.4410753
REMARK minimizedRMSD -1
REMARK  0 active torsions:
REMARK  status: ('A' for Active; 'I' for Inactive)
ROOT
ATOM      1  C4' PXY d   1      -1.510  -5.635  -3.527  0.00  0.00     0.077 C 
ATOM      2  C1' PXY d   1      -5.999  -3.591  -0.514  0.00  0.00     0.077 C 
ATOM      3  C1  PXY d   1      -4.815  -4.129  -1.293  0.00  0.00    -0.082 A 
ATOM      4  C2  PXY d   1      -4.622  -3.739  -2.542  0.00  0.00     0.003 A 
ATOM      5  C3  PXY d   1      -3.575  -4.240  -3.272  0.00  0.00     0.003 A 
ATOM      6  C4  PXY d   1      -2.686  -5.110  -2.700  0.00  0.00    -0.082 A 
ATOM      7  C5  PXY d   1      -2.870  -5.505  -1.422  0.00  0.00     0.003 A 
ATOM      8  C6  PXY d   1      -3.963  -5.016  -0.712  0.00  0.00     0.003 A 
ENDROOT
TORSDOF 0
ENDMDL
