MODEL 1
REMARK minimizedAffinity 0.30600062
REMARK minimizedRMSD -1
REMARK  0 active torsions:
REMARK  status: ('A' for Active; 'I' for Inactive)
ROOT
ATOM      1  C4' PXY d   1      -5.950   4.816  -0.702  0.00  0.00     0.077 C 
ATOM      2  C1' PXY d   1      -3.795   5.666  -5.998  0.00  0.00     0.077 C 
ATOM      3  C1  PXY d   1      -4.353   5.432  -4.608  0.00  0.00    -0.082 A 
ATOM      4  C2  PXY d   1      -5.496   6.000  -4.258  0.00  0.00     0.003 A 
ATOM      5  C3  PXY d   1      -5.999   5.825  -2.995  0.00  0.00     0.003 A 
ATOM      6  C4  PXY d   1      -5.353   5.017  -2.098  0.00  0.00    -0.082 A 
ATOM      7  C5  PXY d   1      -4.192   4.425  -2.451  0.00  0.00     0.003 A 
ATOM      8  C6  PXY d   1      -3.677   4.649  -3.724  0.00  0.00     0.003 A 
ENDROOT
TORSDOF 0
ENDMDL
