MODEL 1
REMARK minimizedAffinity -4.0696373
REMARK minimizedRMSD -1
REMARK  0 active torsions:
REMARK  status: ('A' for Active; 'I' for Inactive)
ROOT
ATOM      1  C4' PXY d   1      -5.878   2.196  -1.436  0.00  0.00     0.077 C 
ATOM      2  C1' PXY d   1      -4.039   5.994  -5.387  0.00  0.00     0.077 C 
ATOM      3  C1  PXY d   1      -4.518   4.988  -4.359  0.00  0.00    -0.082 A 
ATOM      4  C2  PXY d   1      -5.454   5.335  -3.491  0.00  0.00     0.003 A 
ATOM      5  C3  PXY d   1      -5.876   4.448  -2.534  0.00  0.00     0.003 A 
ATOM      6  C4  PXY d   1      -5.371   3.176  -2.498  0.00  0.00    -0.082 A 
ATOM      7  C5  PXY d   1      -4.423   2.811  -3.387  0.00  0.00     0.003 A 
ATOM      8  C6  PXY d   1      -3.979   3.739  -4.324  0.00  0.00     0.003 A 
ENDROOT
TORSDOF 0
ENDMDL
