MODEL 1
REMARK minimizedAffinity -2.33592868
REMARK minimizedRMSD -1
REMARK  0 active torsions:
REMARK  status: ('A' for Active; 'I' for Inactive)
ROOT
ATOM      1  C4' PXY d   1       6.000   1.502  -5.996  0.00  0.00     0.077 C 
ATOM      2  C1' PXY d   1       1.541   2.453  -2.442  0.00  0.00     0.077 C 
ATOM      3  C1  PXY d   1       2.702   2.202  -3.384  0.00  0.00    -0.082 A 
ATOM      4  C2  PXY d   1       3.843   1.734  -2.905  0.00  0.00     0.003 A 
ATOM      5  C3  PXY d   1       4.914   1.532  -3.738  0.00  0.00     0.003 A 
ATOM      6  C4  PXY d   1       4.798   1.761  -5.083  0.00  0.00    -0.082 A 
ATOM      7  C5  PXY d   1       3.633   2.228  -5.581  0.00  0.00     0.003 A 
ATOM      8  C6  PXY d   1       2.572   2.466  -4.712  0.00  0.00     0.003 A 
ENDROOT
TORSDOF 0
ENDMDL
