MODEL 1
REMARK minimizedAffinity -2.97023654
REMARK minimizedRMSD -1
REMARK  0 active torsions:
REMARK  status: ('A' for Active; 'I' for Inactive)
ROOT
ATOM      1  C4' PXY d   1      -5.963  -0.019   1.153  0.00  0.00     0.077 C 
ATOM      2  C1' PXY d   1      -6.000   4.874  -1.925  0.00  0.00     0.077 C 
ATOM      3  C1  PXY d   1      -5.996   3.585  -1.128  0.00  0.00    -0.082 A 
ATOM      4  C2  PXY d   1      -6.000   3.633   0.195  0.00  0.00     0.003 A 
ATOM      5  C3  PXY d   1      -5.964   2.477   0.931  0.00  0.00     0.003 A 
ATOM      6  C4  PXY d   1      -5.977   1.258   0.308  0.00  0.00    -0.082 A 
ATOM      7  C5  PXY d   1      -5.983   1.200  -1.041  0.00  0.00     0.003 A 
ATOM      8  C6  PXY d   1      -5.978   2.385  -1.770  0.00  0.00     0.003 A 
ENDROOT
TORSDOF 0
ENDMDL
