MODEL 1
REMARK minimizedAffinity 0.711981833
REMARK minimizedRMSD -1
REMARK  0 active torsions:
REMARK  status: ('A' for Active; 'I' for Inactive)
ROOT
ATOM      1  C4' PXY d   1      -0.120  -0.124   1.482  0.00  0.00     0.077 C 
ATOM      2  C1' PXY d   1      -3.715  -3.744  -1.235  0.00  0.00     0.077 C 
ATOM      3  C1  PXY d   1      -2.783  -2.787  -0.519  0.00  0.00    -0.082 A 
ATOM      4  C2  PXY d   1      -1.501  -2.755  -0.847  0.00  0.00     0.003 A 
ATOM      5  C3  PXY d   1      -0.637  -1.918  -0.188  0.00  0.00     0.003 A 
ATOM      6  C4  PXY d   1      -1.100  -1.067   0.780  0.00  0.00    -0.082 A 
ATOM      7  C5  PXY d   1      -2.408  -1.086   1.113  0.00  0.00     0.003 A 
ATOM      8  C6  PXY d   1      -3.261  -1.972   0.460  0.00  0.00     0.003 A 
ENDROOT
TORSDOF 0
ENDMDL
