MODEL 1
REMARK minimizedAffinity 14.2206106
REMARK minimizedRMSD -1
REMARK  0 active torsions:
REMARK  status: ('A' for Active; 'I' for Inactive)
ROOT
ATOM      1  C4' PXY d   1      -3.896   5.669  -4.525  0.00  0.00     0.077 C 
ATOM      2  C1' PXY d   1       1.382   3.803  -5.964  0.00  0.00     0.077 C 
ATOM      3  C1  PXY d   1       0.002   4.305  -5.588  0.00  0.00    -0.082 A 
ATOM      4  C2  PXY d   1      -0.798   3.538  -4.865  0.00  0.00     0.003 A 
ATOM      5  C3  PXY d   1      -2.061   3.963  -4.544  0.00  0.00     0.003 A 
ATOM      6  C4  PXY d   1      -2.491   5.207  -4.920  0.00  0.00    -0.082 A 
ATOM      7  C5  PXY d   1      -1.676   6.000  -5.648  0.00  0.00     0.003 A 
ATOM      8  C6  PXY d   1      -0.413   5.533  -6.000  0.00  0.00     0.003 A 
ENDROOT
TORSDOF 0
ENDMDL
