MODEL 1
REMARK minimizedAffinity 2.01669669
REMARK minimizedRMSD -1
REMARK  0 active torsions:
REMARK  status: ('A' for Active; 'I' for Inactive)
ROOT
ATOM      1  C4' PXY d   1      -5.983   5.598  -3.362  0.00  0.00     0.077 C 
ATOM      2  C1' PXY d   1      -0.825   5.659  -5.970  0.00  0.00     0.077 C 
ATOM      3  C1  PXY d   1      -2.182   5.652  -5.295  0.00  0.00    -0.082 A 
ATOM      4  C2  PXY d   1      -2.277   5.310  -4.020  0.00  0.00     0.003 A 
ATOM      5  C3  PXY d   1      -3.500   5.267  -3.402  0.00  0.00     0.003 A 
ATOM      6  C4  PXY d   1      -4.632   5.629  -4.082  0.00  0.00    -0.082 A 
ATOM      7  C5  PXY d   1      -4.543   5.988  -5.380  0.00  0.00     0.003 A 
ATOM      8  C6  PXY d   1      -3.297   5.986  -6.000  0.00  0.00     0.003 A 
ENDROOT
TORSDOF 0
ENDMDL
