MODEL 1
REMARK minimizedAffinity 1.60222161
REMARK minimizedRMSD -1
REMARK  0 active torsions:
REMARK  status: ('A' for Active; 'I' for Inactive)
ROOT
ATOM      1  C4' PXY d   1      -5.889   5.997  -4.893  0.00  0.00     0.077 C 
ATOM      2  C1' PXY d   1      -5.962   2.798  -0.079  0.00  0.00     0.077 C 
ATOM      3  C1  PXY d   1      -5.937   3.627  -1.348  0.00  0.00    -0.082 A 
ATOM      4  C2  PXY d   1      -5.989   4.947  -1.268  0.00  0.00     0.003 A 
ATOM      5  C3  PXY d   1      -5.999   5.711  -2.406  0.00  0.00     0.003 A 
ATOM      6  C4  PXY d   1      -5.902   5.120  -3.638  0.00  0.00    -0.082 A 
ATOM      7  C5  PXY d   1      -5.838   3.775  -3.727  0.00  0.00     0.003 A 
ATOM      8  C6  PXY d   1      -5.870   3.015  -2.561  0.00  0.00     0.003 A 
ENDROOT
TORSDOF 0
ENDMDL
