MODEL 1
REMARK minimizedAffinity 8.9441061
REMARK minimizedRMSD -1
REMARK  0 active torsions:
REMARK  status: ('A' for Active; 'I' for Inactive)
ROOT
ATOM      1  C4' PXY d   1      -5.751   5.994  -4.720  0.00  0.00     0.077 C 
ATOM      2  C1' PXY d   1      -6.000   2.795   0.088  0.00  0.00     0.077 C 
ATOM      3  C1  PXY d   1      -5.941   3.643  -1.167  0.00  0.00    -0.082 A 
ATOM      4  C2  PXY d   1      -5.824   3.058  -2.348  0.00  0.00     0.003 A 
ATOM      5  C3  PXY d   1      -5.737   3.812  -3.490  0.00  0.00     0.003 A 
ATOM      6  C4  PXY d   1      -5.824   5.177  -3.428  0.00  0.00    -0.082 A 
ATOM      7  C5  PXY d   1      -5.954   5.781  -2.228  0.00  0.00     0.003 A 
ATOM      8  C6  PXY d   1      -5.999   5.000  -1.076  0.00  0.00     0.003 A 
ENDROOT
TORSDOF 0
ENDMDL
