MODEL 1
REMARK minimizedAffinity 8.49690342
REMARK minimizedRMSD -1
REMARK  0 active torsions:
REMARK  status: ('A' for Active; 'I' for Inactive)
ROOT
ATOM      1  C4' PXY d   1      -0.171   5.501  -5.996  0.00  0.00     0.077 C 
ATOM      2  C1' PXY d   1       5.340   3.755  -5.981  0.00  0.00     0.077 C 
ATOM      3  C1  PXY d   1       3.898   4.224  -5.979  0.00  0.00    -0.082 A 
ATOM      4  C2  PXY d   1       2.920   3.333  -5.969  0.00  0.00     0.003 A 
ATOM      5  C3  PXY d   1       1.611   3.739  -6.000  0.00  0.00     0.003 A 
ATOM      6  C4  PXY d   1       1.299   5.073  -5.988  0.00  0.00    -0.082 A 
ATOM      7  C5  PXY d   1       2.291   5.988  -5.988  0.00  0.00     0.003 A 
ATOM      8  C6  PXY d   1       3.614   5.554  -5.998  0.00  0.00     0.003 A 
ENDROOT
TORSDOF 0
ENDMDL
