MODEL 1
REMARK minimizedAffinity 9.38737488
REMARK minimizedRMSD -1
REMARK  0 active torsions:
REMARK  status: ('A' for Active; 'I' for Inactive)
ROOT
ATOM      1  C4' PXY d   1      -3.050   5.877  -4.519  0.00  0.00     0.077 C 
ATOM      2  C1' PXY d   1       2.011   3.507  -5.997  0.00  0.00     0.077 C 
ATOM      3  C1  PXY d   1       0.689   4.141  -5.610  0.00  0.00    -0.082 A 
ATOM      4  C2  PXY d   1      -0.186   3.447  -4.900  0.00  0.00     0.003 A 
ATOM      5  C3  PXY d   1      -1.400   3.993  -4.570  0.00  0.00     0.003 A 
ATOM      6  C4  PXY d   1      -1.699   5.281  -4.924  0.00  0.00    -0.082 A 
ATOM      7  C5  PXY d   1      -0.807   5.999  -5.639  0.00  0.00     0.003 A 
ATOM      8  C6  PXY d   1       0.402   5.412  -6.000  0.00  0.00     0.003 A 
ENDROOT
TORSDOF 0
ENDMDL
