MODEL 1
REMARK minimizedAffinity 16.1798439
REMARK minimizedRMSD -1
REMARK  0 active torsions:
REMARK  status: ('A' for Active; 'I' for Inactive)
ROOT
ATOM      1  C4' PXY d   1       3.805   2.850  -5.992  0.00  0.00     0.077 C 
ATOM      2  C1' PXY d   1      -1.411   5.343  -5.979  0.00  0.00     0.077 C 
ATOM      3  C1  PXY d   1      -0.048   4.678  -5.978  0.00  0.00    -0.082 A 
ATOM      4  C2  PXY d   1       1.044   5.425  -5.968  0.00  0.00     0.003 A 
ATOM      5  C3  PXY d   1       2.284   4.841  -5.998  0.00  0.00     0.003 A 
ATOM      6  C4  PXY d   1       2.408   3.477  -5.985  0.00  0.00    -0.082 A 
ATOM      7  C5  PXY d   1       1.299   2.708  -5.984  0.00  0.00     0.003 A 
ATOM      8  C6  PXY d   1       0.049   3.321  -5.995  0.00  0.00     0.003 A 
ENDROOT
TORSDOF 0
ENDMDL
