MODEL 1
REMARK minimizedAffinity 6.54884481
REMARK minimizedRMSD -1
REMARK  0 active torsions:
REMARK  status: ('A' for Active; 'I' for Inactive)
ROOT
ATOM      1  C4' PXY d   1      -0.576   1.228   1.193  0.00  0.00     0.077 C 
ATOM      2  C1' PXY d   1       1.963  -0.389  -3.742  0.00  0.00     0.077 C 
ATOM      3  C1  PXY d   1       1.307   0.043  -2.445  0.00  0.00    -0.082 A 
ATOM      4  C2  PXY d   1       0.458  -0.770  -1.839  0.00  0.00     0.003 A 
ATOM      5  C3  PXY d   1      -0.169  -0.382  -0.683  0.00  0.00     0.003 A 
ATOM      6  C4  PXY d   1       0.117   0.829  -0.113  0.00  0.00    -0.082 A 
ATOM      7  C5  PXY d   1       0.991   1.661  -0.720  0.00  0.00     0.003 A 
ATOM      8  C6  PXY d   1       1.585   1.265  -1.914  0.00  0.00     0.003 A 
ENDROOT
TORSDOF 0
ENDMDL
