MODEL 1
REMARK minimizedAffinity 6.51928949
REMARK minimizedRMSD -1
REMARK  0 active torsions:
REMARK  status: ('A' for Active; 'I' for Inactive)
ROOT
ATOM      1  C4' PXY d   1      -3.074   0.678   2.761  0.00  0.00     0.077 C 
ATOM      2  C1' PXY d   1       1.524  -1.710   0.198  0.00  0.00     0.077 C 
ATOM      3  C1  PXY d   1       0.324  -1.072   0.871  0.00  0.00    -0.082 A 
ATOM      4  C2  PXY d   1      -0.558  -1.836   1.496  0.00  0.00     0.003 A 
ATOM      5  C3  PXY d   1      -1.665  -1.279   2.082  0.00  0.00     0.003 A 
ATOM      6  C4  PXY d   1      -1.844   0.079   2.076  0.00  0.00    -0.082 A 
ATOM      7  C5  PXY d   1      -0.942   0.865   1.450  0.00  0.00     0.003 A 
ATOM      8  C6  PXY d   1       0.153   0.277   0.825  0.00  0.00     0.003 A 
ENDROOT
TORSDOF 0
ENDMDL
