MODEL 1
REMARK minimizedAffinity 8.05007839
REMARK minimizedRMSD -1
REMARK  0 active torsions:
REMARK  status: ('A' for Active; 'I' for Inactive)
ROOT
ATOM      1  C4' PXY d   1       0.409   0.214   1.491  0.00  0.00     0.077 C 
ATOM      2  C1' PXY d   1       3.459  -2.707  -2.457  0.00  0.00     0.077 C 
ATOM      3  C1  PXY d   1       2.656  -1.931  -1.431  0.00  0.00    -0.082 A 
ATOM      4  C2  PXY d   1       2.905  -2.100  -0.142  0.00  0.00     0.003 A 
ATOM      5  C3  PXY d   1       2.168  -1.431   0.800  0.00  0.00     0.003 A 
ATOM      6  C4  PXY d   1       1.201  -0.540   0.419  0.00  0.00    -0.082 A 
ATOM      7  C5  PXY d   1       0.948  -0.355  -0.894  0.00  0.00     0.003 A 
ATOM      8  C6  PXY d   1       1.680  -1.074  -1.834  0.00  0.00     0.003 A 
ENDROOT
TORSDOF 0
ENDMDL
