MODEL 1
REMARK minimizedAffinity -1.64602888
REMARK minimizedRMSD -1
REMARK  0 active torsions:
REMARK  status: ('A' for Active; 'I' for Inactive)
ROOT
ATOM      1  C   UNL d   1      -0.333   3.226  -1.488  0.00  0.00     0.078 C 
ATOM      2  C1  UNL d   1      -0.067   2.198  -0.429  0.00  0.00    -0.077 A 
ATOM      3  C2  UNL d   1       0.051   0.841  -0.755  0.00  0.00    -0.001 A 
ATOM      4  C3  UNL d   1       0.289  -0.106   0.242  0.00  0.00     0.003 A 
ATOM      5  C4  UNL d   1       0.409   0.293   1.571  0.00  0.00    -0.005 A 
ATOM      6  C5  UNL d   1       0.290   1.640   1.906  0.00  0.00     0.003 A 
ATOM      7  C6  UNL d   1       0.053   2.589   0.910  0.00  0.00    -0.001 A 
ENDROOT
TORSDOF 0
ENDMDL
