MODEL 1
REMARK minimizedAffinity -5.46824646
REMARK minimizedRMSD -1
REMARK  0 active torsions:
REMARK  status: ('A' for Active; 'I' for Inactive)
ROOT
ATOM      1  C   UNL d   1      -0.817   3.320  -1.320  0.00  0.00     0.078 C 
ATOM      2  C1  UNL d   1      -0.409   2.230  -0.375  0.00  0.00    -0.077 A 
ATOM      3  C2  UNL d   1      -0.446   2.425   1.011  0.00  0.00    -0.001 A 
ATOM      4  C3  UNL d   1      -0.054   1.404   1.878  0.00  0.00     0.003 A 
ATOM      5  C4  UNL d   1       0.379   0.182   1.370  0.00  0.00    -0.005 A 
ATOM      6  C5  UNL d   1       0.421  -0.021  -0.008  0.00  0.00     0.003 A 
ATOM      7  C6  UNL d   1       0.029   0.998  -0.877  0.00  0.00    -0.001 A 
ENDROOT
TORSDOF 0
ENDMDL
