MODEL 1
REMARK minimizedAffinity -4.46065331
REMARK minimizedRMSD -1
REMARK  0 active torsions:
REMARK  status: ('A' for Active; 'I' for Inactive)
ROOT
ATOM      1  C   UNL d   1      -0.104  -0.598  -1.128  0.00  0.00     0.078 C 
ATOM      2  C1  UNL d   1      -0.482   0.162   0.108  0.00  0.00    -0.077 A 
ATOM      3  C2  UNL d   1      -0.274   1.544   0.196  0.00  0.00    -0.001 A 
ATOM      4  C3  UNL d   1      -0.621   2.237   1.357  0.00  0.00     0.003 A 
ATOM      5  C4  UNL d   1      -1.178   1.557   2.438  0.00  0.00    -0.005 A 
ATOM      6  C5  UNL d   1      -1.387   0.182   2.360  0.00  0.00     0.003 A 
ATOM      7  C6  UNL d   1      -1.040  -0.513   1.200  0.00  0.00    -0.001 A 
ENDROOT
TORSDOF 0
ENDMDL
