MODEL 1
REMARK minimizedAffinity -4.68968439
REMARK minimizedRMSD -1
REMARK  0 active torsions:
REMARK  status: ('A' for Active; 'I' for Inactive)
ROOT
ATOM      1  C   UNL d   1       0.310   3.100  -0.811  0.00  0.00     0.078 C 
ATOM      2  C1  UNL d   1       0.256   1.869   0.044  0.00  0.00    -0.077 A 
ATOM      3  C2  UNL d   1       0.291   0.592  -0.528  0.00  0.00    -0.001 A 
ATOM      4  C3  UNL d   1       0.230  -0.545   0.279  0.00  0.00     0.003 A 
ATOM      5  C4  UNL d   1       0.132  -0.416   1.663  0.00  0.00    -0.005 A 
ATOM      6  C5  UNL d   1       0.094   0.851   2.241  0.00  0.00     0.003 A 
ATOM      7  C6  UNL d   1       0.155   1.989   1.435  0.00  0.00    -0.001 A 
ENDROOT
TORSDOF 0
ENDMDL
