MODEL 1
REMARK minimizedAffinity -3.94423866
REMARK minimizedRMSD -1
REMARK  0 active torsions:
REMARK  status: ('A' for Active; 'I' for Inactive)
ROOT
ATOM      1  C   UNL d   1      -0.003   2.257   1.864  0.00  0.00     0.078 C 
ATOM      2  C1  UNL d   1       0.271   1.376   0.682  0.00  0.00    -0.077 A 
ATOM      3  C2  UNL d   1       0.728   0.064   0.850  0.00  0.00    -0.001 A 
ATOM      4  C3  UNL d   1       0.988  -0.741  -0.260  0.00  0.00     0.003 A 
ATOM      5  C4  UNL d   1       0.794  -0.243  -1.546  0.00  0.00    -0.005 A 
ATOM      6  C5  UNL d   1       0.341   1.063  -1.724  0.00  0.00     0.003 A 
ATOM      7  C6  UNL d   1       0.081   1.869  -0.615  0.00  0.00    -0.001 A 
ENDROOT
TORSDOF 0
ENDMDL
