MODEL 1
REMARK minimizedAffinity -0.596834719
REMARK minimizedRMSD -1
REMARK  0 active torsions:
REMARK  status: ('A' for Active; 'I' for Inactive)
ROOT
ATOM      1  C   UNL d   1       0.507  -0.405  -1.285  0.00  0.00     0.078 C 
ATOM      2  C1  UNL d   1       0.274  -0.046   0.152  0.00  0.00    -0.077 A 
ATOM      3  C2  UNL d   1       0.034   1.280   0.534  0.00  0.00    -0.001 A 
ATOM      4  C3  UNL d   1      -0.172   1.601   1.877  0.00  0.00     0.003 A 
ATOM      5  C4  UNL d   1      -0.140   0.602   2.848  0.00  0.00    -0.005 A 
ATOM      6  C5  UNL d   1       0.100  -0.720   2.477  0.00  0.00     0.003 A 
ATOM      7  C6  UNL d   1       0.307  -1.042   1.135  0.00  0.00    -0.001 A 
ENDROOT
TORSDOF 0
ENDMDL
