MODEL 1
REMARK minimizedAffinity -4.50967693
REMARK minimizedRMSD -1
REMARK  0 active torsions:
REMARK  status: ('A' for Active; 'I' for Inactive)
ROOT
ATOM      1  C   UNL d   1       0.037  -0.034   0.567  0.00  0.00     0.078 C 
ATOM      2  C1  UNL d   1       0.011  -1.067  -0.520  0.00  0.00    -0.077 A 
ATOM      3  C2  UNL d   1      -0.845  -2.173  -0.443  0.00  0.00    -0.001 A 
ATOM      4  C3  UNL d   1      -0.852  -3.132  -1.458  0.00  0.00     0.003 A 
ATOM      5  C4  UNL d   1      -0.004  -2.995  -2.555  0.00  0.00    -0.005 A 
ATOM      6  C5  UNL d   1       0.852  -1.899  -2.639  0.00  0.00     0.003 A 
ATOM      7  C6  UNL d   1       0.860  -0.939  -1.626  0.00  0.00    -0.001 A 
ENDROOT
TORSDOF 0
ENDMDL
