MODEL 1
REMARK minimizedAffinity -3.03469777
REMARK minimizedRMSD -1
REMARK  0 active torsions:
REMARK  status: ('A' for Active; 'I' for Inactive)
ROOT
ATOM      1  C   UNL d   1       0.615   1.438  -0.287  0.00  0.00     0.172 C 
ATOM      2  N   UNL d   1       0.442   0.041  -0.606  0.00  0.00    -0.070 N 
ATOM      3  C1  UNL d   1       1.297  -0.970  -0.255  0.00  0.00    -0.004 A 
ATOM      4  C2  UNL d   1       0.779  -2.150  -0.744  0.00  0.00    -0.047 A 
ATOM      5  C3  UNL d   1      -0.428  -1.837  -1.413  0.00  0.00    -0.047 A 
ATOM      6  C4  UNL d   1      -0.613  -0.475  -1.312  0.00  0.00    -0.004 A 
ENDROOT
TORSDOF 0
ENDMDL
