MODEL 1
REMARK minimizedAffinity -0.710642576
REMARK minimizedRMSD -1
REMARK  0 active torsions:
REMARK  status: ('A' for Active; 'I' for Inactive)
ROOT
ATOM      1  C   UNL d   1       3.513   0.086  -0.972  0.00  0.00     0.172 C 
ATOM      2  N   UNL d   1       2.194  -0.465  -0.773  0.00  0.00    -0.070 N 
ATOM      3  C1  UNL d   1       1.883  -1.798  -0.736  0.00  0.00    -0.004 A 
ATOM      4  C2  UNL d   1       0.525  -1.909  -0.526  0.00  0.00    -0.047 A 
ATOM      5  C3  UNL d   1       0.002  -0.597  -0.435  0.00  0.00    -0.047 A 
ATOM      6  C4  UNL d   1       1.057   0.277  -0.591  0.00  0.00    -0.004 A 
ENDROOT
TORSDOF 0
ENDMDL
