MODEL 1
REMARK minimizedAffinity 0.0807987228
REMARK minimizedRMSD -1
REMARK  0 active torsions:
REMARK  status: ('A' for Active; 'I' for Inactive)
ROOT
ATOM      1  C   UNL d   1       4.444   0.379  -1.334  0.00  0.00     0.172 C 
ATOM      2  N   UNL d   1       3.323  -0.501  -1.102  0.00  0.00    -0.070 N 
ATOM      3  C1  UNL d   1       2.042  -0.105  -0.823  0.00  0.00    -0.004 A 
ATOM      4  C2  UNL d   1       1.274  -1.239  -0.670  0.00  0.00    -0.047 A 
ATOM      5  C3  UNL d   1       2.122  -2.355  -0.863  0.00  0.00    -0.047 A 
ATOM      6  C4  UNL d   1       3.385  -1.869  -1.129  0.00  0.00    -0.004 A 
ENDROOT
TORSDOF 0
ENDMDL
