MODEL 1
REMARK minimizedAffinity -3.02056146
REMARK minimizedRMSD -1
REMARK  0 active torsions:
REMARK  status: ('A' for Active; 'I' for Inactive)
ROOT
ATOM      1  C   UNL d   1       1.438   0.187  -0.747  0.00  0.00     0.172 C 
ATOM      2  N   UNL d   1       1.040  -1.149  -1.124  0.00  0.00    -0.070 N 
ATOM      3  C1  UNL d   1       1.848  -2.254  -1.120  0.00  0.00    -0.004 A 
ATOM      4  C2  UNL d   1       1.097  -3.329  -1.542  0.00  0.00    -0.047 A 
ATOM      5  C3  UNL d   1      -0.209  -2.854  -1.812  0.00  0.00    -0.047 A 
ATOM      6  C4  UNL d   1      -0.216  -1.501  -1.544  0.00  0.00    -0.004 A 
ENDROOT
TORSDOF 0
ENDMDL
