MODEL 1
REMARK minimizedAffinity -1.45443857
REMARK minimizedRMSD -1
REMARK  0 active torsions:
REMARK  status: ('A' for Active; 'I' for Inactive)
ROOT
ATOM      1  C   UNL d   1      -0.448   5.560   2.667  0.00  0.00     0.172 C 
ATOM      2  N   UNL d   1      -1.524   4.598   2.630  0.00  0.00    -0.070 N 
ATOM      3  C1  UNL d   1      -1.525   3.377   3.251  0.00  0.00    -0.004 A 
ATOM      4  C2  UNL d   1      -2.728   2.764   2.975  0.00  0.00    -0.047 A 
ATOM      5  C3  UNL d   1      -3.476   3.646   2.159  0.00  0.00    -0.047 A 
ATOM      6  C4  UNL d   1      -2.707   4.774   1.962  0.00  0.00    -0.004 A 
ENDROOT
TORSDOF 0
ENDMDL
