MODEL 1
REMARK minimizedAffinity 1.46844554
REMARK minimizedRMSD -1
REMARK  0 active torsions:
REMARK  status: ('A' for Active; 'I' for Inactive)
ROOT
ATOM      1  C   UNL d   1       0.767   0.515   0.009  0.00  0.00     0.172 C 
ATOM      2  N   UNL d   1       0.427  -0.667  -0.748  0.00  0.00    -0.070 N 
ATOM      3  C1  UNL d   1      -0.664  -0.805  -1.565  0.00  0.00    -0.004 A 
ATOM      4  C2  UNL d   1      -0.630  -2.074  -2.102  0.00  0.00    -0.047 A 
ATOM      5  C3  UNL d   1       0.520  -2.721  -1.591  0.00  0.00    -0.047 A 
ATOM      6  C4  UNL d   1       1.156  -1.827  -0.755  0.00  0.00    -0.004 A 
ENDROOT
TORSDOF 0
ENDMDL
