MODEL 1
REMARK minimizedAffinity 0.728356123
REMARK minimizedRMSD -1
REMARK  0 active torsions:
REMARK  status: ('A' for Active; 'I' for Inactive)
ROOT
ATOM      1  C   UNL d   1       1.897  -1.903  -0.994  0.00  0.00     0.172 C 
ATOM      2  N   UNL d   1       2.970  -1.145  -1.594  0.00  0.00    -0.070 N 
ATOM      3  C1  UNL d   1       3.647  -1.486  -2.735  0.00  0.00    -0.004 A 
ATOM      4  C2  UNL d   1       4.589  -0.509  -2.974  0.00  0.00    -0.047 A 
ATOM      5  C3  UNL d   1       4.476   0.451  -1.940  0.00  0.00    -0.047 A 
ATOM      6  C4  UNL d   1       3.465   0.033  -1.100  0.00  0.00    -0.004 A 
ENDROOT
TORSDOF 0
ENDMDL
