MODEL 1
REMARK minimizedAffinity -2.75896955
REMARK minimizedRMSD -1
REMARK  0 active torsions:
REMARK  status: ('A' for Active; 'I' for Inactive)
ROOT
ATOM      1  C   UNL d   1      -0.677  -1.264  -2.353  0.00  0.00     0.172 C 
ATOM      2  N   UNL d   1       0.457  -1.105  -1.474  0.00  0.00    -0.070 N 
ATOM      3  C1  UNL d   1       1.260  -2.116  -1.016  0.00  0.00    -0.004 A 
ATOM      4  C2  UNL d   1       2.224  -1.556  -0.207  0.00  0.00    -0.047 A 
ATOM      5  C3  UNL d   1       1.993  -0.160  -0.176  0.00  0.00    -0.047 A 
ATOM      6  C4  UNL d   1       0.893   0.091  -0.969  0.00  0.00    -0.004 A 
ENDROOT
TORSDOF 0
ENDMDL
