MODEL 1
REMARK minimizedAffinity 0.700616956
REMARK minimizedRMSD -1
REMARK  0 active torsions:
REMARK  status: ('A' for Active; 'I' for Inactive)
ROOT
ATOM      1  C   UNL d   1       3.438  -1.131  -0.721  0.00  0.00     0.172 C 
ATOM      2  N   UNL d   1       2.044  -0.753  -0.730  0.00  0.00    -0.070 N 
ATOM      3  C1  UNL d   1       1.005  -1.542  -1.147  0.00  0.00    -0.004 A 
ATOM      4  C2  UNL d   1      -0.159  -0.819  -0.999  0.00  0.00    -0.047 A 
ATOM      5  C3  UNL d   1       0.192   0.448  -0.477  0.00  0.00    -0.047 A 
ATOM      6  C4  UNL d   1       1.562   0.462  -0.320  0.00  0.00    -0.004 A 
ENDROOT
TORSDOF 0
ENDMDL
