MODEL 1
REMARK minimizedAffinity 11.7144623
REMARK minimizedRMSD -1
REMARK  0 active torsions:
REMARK  status: ('A' for Active; 'I' for Inactive)
ROOT
ATOM      1  C1  BNZ d   1       3.858  -1.919  -0.038  0.00  0.00     0.000 A 
ATOM      2  C2  BNZ d   1       4.858  -2.222   0.848  0.00  0.00     0.000 A 
ATOM      3  C3  BNZ d   1       5.744  -3.229   0.586  0.00  0.00     0.000 A 
ATOM      4  C4  BNZ d   1       5.605  -3.958  -0.541  0.00  0.00     0.000 A 
ATOM      5  C5  BNZ d   1       4.597  -3.671  -1.439  0.00  0.00     0.000 A 
ATOM      6  C6  BNZ d   1       3.730  -2.631  -1.191  0.00  0.00     0.000 A 
ENDROOT
TORSDOF 0
ENDMDL
