MODEL 1
REMARK minimizedAffinity 3.41304469
REMARK minimizedRMSD -1
REMARK  0 active torsions:
REMARK  status: ('A' for Active; 'I' for Inactive)
ROOT
ATOM      1  C1  BNZ d   1       3.649  -3.919  -1.162  0.00  0.00     0.000 A 
ATOM      2  C2  BNZ d   1       3.102  -4.571  -2.236  0.00  0.00     0.000 A 
ATOM      3  C3  BNZ d   1       1.915  -5.237  -2.120  0.00  0.00     0.000 A 
ATOM      4  C4  BNZ d   1       1.296  -5.286  -0.923  0.00  0.00     0.000 A 
ATOM      5  C5  BNZ d   1       1.839  -4.642   0.172  0.00  0.00     0.000 A 
ATOM      6  C6  BNZ d   1       3.015  -3.940   0.042  0.00  0.00     0.000 A 
ENDROOT
TORSDOF 0
ENDMDL
