MODEL 1
REMARK minimizedAffinity 3.29112506
REMARK minimizedRMSD -1
REMARK  0 active torsions:
REMARK  status: ('A' for Active; 'I' for Inactive)
ROOT
ATOM      1  C1  BNZ d   1      -4.382   4.474  -4.090  0.00  0.00     0.000 A 
ATOM      2  C2  BNZ d   1      -4.657   4.151  -2.788  0.00  0.00     0.000 A 
ATOM      3  C3  BNZ d   1      -4.340   2.917  -2.291  0.00  0.00     0.000 A 
ATOM      4  C4  BNZ d   1      -3.786   1.997  -3.106  0.00  0.00     0.000 A 
ATOM      5  C5  BNZ d   1      -3.511   2.304  -4.423  0.00  0.00     0.000 A 
ATOM      6  C6  BNZ d   1      -3.796   3.559  -4.910  0.00  0.00     0.000 A 
ENDROOT
TORSDOF 0
ENDMDL
