MODEL 1
REMARK minimizedAffinity 10.3888664
REMARK minimizedRMSD -1
REMARK  0 active torsions:
REMARK  status: ('A' for Active; 'I' for Inactive)
ROOT
ATOM      1  C1  BNZ d   1       1.079  -1.451   4.180  0.00  0.00     0.000 A 
ATOM      2  C2  BNZ d   1       1.487  -2.317   5.159  0.00  0.00     0.000 A 
ATOM      3  C3  BNZ d   1       2.233  -3.420   4.851  0.00  0.00     0.000 A 
ATOM      4  C4  BNZ d   1       2.535  -3.678   3.562  0.00  0.00     0.000 A 
ATOM      5  C5  BNZ d   1       2.122  -2.820   2.563  0.00  0.00     0.000 A 
ATOM      6  C6  BNZ d   1       1.405  -1.689   2.880  0.00  0.00     0.000 A 
ENDROOT
TORSDOF 0
ENDMDL
