MODEL 1
REMARK minimizedAffinity 3.65248799
REMARK minimizedRMSD -1
REMARK  0 active torsions:
REMARK  status: ('A' for Active; 'I' for Inactive)
ROOT
ATOM      1  C1  BNZ d   1      -3.367   2.620  -4.272  0.00  0.00     0.000 A 
ATOM      2  C2  BNZ d   1      -3.288   3.645  -5.176  0.00  0.00     0.000 A 
ATOM      3  C3  BNZ d   1      -3.814   4.873  -4.890  0.00  0.00     0.000 A 
ATOM      4  C4  BNZ d   1      -4.454   5.064  -3.718  0.00  0.00     0.000 A 
ATOM      5  C5  BNZ d   1      -4.551   4.038  -2.800  0.00  0.00     0.000 A 
ATOM      6  C6  BNZ d   1      -3.985   2.814  -3.075  0.00  0.00     0.000 A 
ENDROOT
TORSDOF 0
ENDMDL
