MODEL 1
REMARK minimizedAffinity 6.28335619
REMARK minimizedRMSD -1
REMARK  0 active torsions:
REMARK  status: ('A' for Active; 'I' for Inactive)
ROOT
ATOM      1  C1  BNZ d   1      -3.757   2.380  -1.972  0.00  0.00     0.000 A 
ATOM      2  C2  BNZ d   1      -4.387   3.561  -1.682  0.00  0.00     0.000 A 
ATOM      3  C3  BNZ d   1      -4.490   4.549  -2.621  0.00  0.00     0.000 A 
ATOM      4  C4  BNZ d   1      -3.928   4.372  -3.834  0.00  0.00     0.000 A 
ATOM      5  C5  BNZ d   1      -3.281   3.191  -4.139  0.00  0.00     0.000 A 
ATOM      6  C6  BNZ d   1      -3.213   2.183  -3.204  0.00  0.00     0.000 A 
ENDROOT
TORSDOF 0
ENDMDL
