MODEL 1
REMARK minimizedAffinity 11.9475603
REMARK minimizedRMSD -1
REMARK  0 active torsions:
REMARK  status: ('A' for Active; 'I' for Inactive)
ROOT
ATOM      1  C1  BNZ d   1       5.971  -2.995   0.387  0.00  0.00     0.000 A 
ATOM      2  C2  BNZ d   1       4.823  -2.256   0.494  0.00  0.00     0.000 A 
ATOM      3  C3  BNZ d   1       3.687  -2.629  -0.169  0.00  0.00     0.000 A 
ATOM      4  C4  BNZ d   1       3.711  -3.715  -0.967  0.00  0.00     0.000 A 
ATOM      5  C5  BNZ d   1       4.863  -4.465  -1.093  0.00  0.00     0.000 A 
ATOM      6  C6  BNZ d   1       5.994  -4.109  -0.394  0.00  0.00     0.000 A 
ENDROOT
TORSDOF 0
ENDMDL
