MODEL 1
REMARK minimizedAffinity 2.66269708
REMARK minimizedRMSD -1
REMARK  0 active torsions:
REMARK  status: ('A' for Active; 'I' for Inactive)
ROOT
ATOM      1  C1  BNZ d   1       1.518  -2.245   5.998  0.00  0.00     0.000 A 
ATOM      2  C2  BNZ d   1       1.133  -1.565   4.874  0.00  0.00     0.000 A 
ATOM      3  C3  BNZ d   1       1.485  -2.011   3.631  0.00  0.00     0.000 A 
ATOM      4  C4  BNZ d   1       2.255  -3.112   3.515  0.00  0.00     0.000 A 
ATOM      5  C5  BNZ d   1       2.659  -3.803   4.640  0.00  0.00     0.000 A 
ATOM      6  C6  BNZ d   1       2.270  -3.373   5.888  0.00  0.00     0.000 A 
ENDROOT
TORSDOF 0
ENDMDL
