MODEL 1
REMARK minimizedAffinity 7.65353012
REMARK minimizedRMSD -1
REMARK  0 active torsions:
REMARK  status: ('A' for Active; 'I' for Inactive)
ROOT
ATOM      1  C1  BNZ d   1       4.844  -3.564   0.375  0.00  0.00     0.000 A 
ATOM      2  C2  BNZ d   1       5.999  -4.128  -0.096  0.00  0.00     0.000 A 
ATOM      3  C3  BNZ d   1       5.997  -4.880  -1.238  0.00  0.00     0.000 A 
ATOM      4  C4  BNZ d   1       4.834  -5.098  -1.885  0.00  0.00     0.000 A 
ATOM      5  C5  BNZ d   1       3.659  -4.544  -1.418  0.00  0.00     0.000 A 
ATOM      6  C6  BNZ d   1       3.672  -3.756  -0.290  0.00  0.00     0.000 A 
ENDROOT
TORSDOF 0
ENDMDL
