MODEL 1
REMARK minimizedAffinity 1.12405956
REMARK minimizedRMSD -1
REMARK  0 active torsions:
REMARK  status: ('A' for Active; 'I' for Inactive)
ROOT
ATOM      1  C1  BNZ d   1      -3.399   3.925  -4.800  0.00  0.00     0.000 A 
ATOM      2  C2  BNZ d   1      -3.860   5.200  -4.611  0.00  0.00     0.000 A 
ATOM      3  C3  BNZ d   1      -4.590   5.524  -3.501  0.00  0.00     0.000 A 
ATOM      4  C4  BNZ d   1      -4.892   4.564  -2.603  0.00  0.00     0.000 A 
ATOM      5  C5  BNZ d   1      -4.444   3.271  -2.785  0.00  0.00     0.000 A 
ATOM      6  C6  BNZ d   1      -3.676   2.958  -3.883  0.00  0.00     0.000 A 
ENDROOT
TORSDOF 0
ENDMDL
