MODEL 1
REMARK minimizedAffinity 12.3499098
REMARK minimizedRMSD -1
REMARK  0 active torsions:
REMARK  status: ('A' for Active; 'I' for Inactive)
ROOT
ATOM      1  C1  BNZ d   1       0.889  -1.634   4.818  0.00  0.00     0.000 A 
ATOM      2  C2  BNZ d   1       1.249  -2.238   5.992  0.00  0.00     0.000 A 
ATOM      3  C3  BNZ d   1       2.128  -3.285   6.000  0.00  0.00     0.000 A 
ATOM      4  C4  BNZ d   1       2.613  -3.752   4.831  0.00  0.00     0.000 A 
ATOM      5  C5  BNZ d   1       2.252  -3.159   3.638  0.00  0.00     0.000 A 
ATOM      6  C6  BNZ d   1       1.398  -2.081   3.637  0.00  0.00     0.000 A 
ENDROOT
TORSDOF 0
ENDMDL
