MODEL 1
REMARK minimizedAffinity -1.60508943
REMARK minimizedRMSD -1
REMARK  0 active torsions:
REMARK  status: ('A' for Active; 'I' for Inactive)
ROOT
ATOM      1  C1  BNZ d   1      -4.566   4.352  -2.525  0.00  0.00     0.000 A 
ATOM      2  C2  BNZ d   1      -4.328   3.006  -2.603  0.00  0.00     0.000 A 
ATOM      3  C3  BNZ d   1      -3.753   2.460  -3.716  0.00  0.00     0.000 A 
ATOM      4  C4  BNZ d   1      -3.454   3.253  -4.765  0.00  0.00     0.000 A 
ATOM      5  C5  BNZ d   1      -3.696   4.611  -4.705  0.00  0.00     0.000 A 
ATOM      6  C6  BNZ d   1      -4.239   5.163  -3.568  0.00  0.00     0.000 A 
ENDROOT
TORSDOF 0
ENDMDL
