MODEL 1
REMARK minimizedAffinity 5.55521059
REMARK minimizedRMSD -1
REMARK  1 active torsions:
REMARK  status: ('A' for Active; 'I' for Inactive)
REMARK    1  A    between atoms: C3_4  and  O_7 
ROOT
ATOM      1  C   UNL d   1      -1.482  -0.516   1.629  0.00  0.00    -0.033 A 
ATOM      2  C1  UNL d   1      -2.733   0.019   1.320  0.00  0.00     0.039 A 
ATOM      3  C2  UNL d   1      -2.965   1.388   1.466  0.00  0.00    -0.080 A 
ATOM      4  C3  UNL d   1      -1.937   2.210   1.921  0.00  0.00     0.150 A 
ATOM      5  C4  UNL d   1      -0.687   1.684   2.228  0.00  0.00    -0.007 A 
ATOM      6  C5  UNL d   1      -0.458   0.316   2.082  0.00  0.00     0.039 A 
ENDROOT
BRANCH   4   7
ATOM      7  O   UNL d   1      -2.117   3.551   2.084  0.00  0.00    -0.526 OA
ATOM      8  H5  UNL d   1      -3.038   3.768   1.862  0.00  0.00     0.418 HD
ENDBRANCH   4   7
TORSDOF 1
ENDMDL
