MODEL 1
REMARK minimizedAffinity 2.3489778
REMARK minimizedRMSD -1
REMARK  1 active torsions:
REMARK  status: ('A' for Active; 'I' for Inactive)
REMARK    1  A    between atoms: C3_4  and  O_7 
ROOT
ATOM      1  C   UNL d   1      -4.941  -2.570   0.941  0.00  0.00    -0.033 A 
ATOM      2  C1  UNL d   1      -6.000  -3.293   0.389  0.00  0.00     0.039 A 
ATOM      3  C2  UNL d   1      -5.748  -4.452  -0.347  0.00  0.00    -0.080 A 
ATOM      4  C3  UNL d   1      -4.434  -4.878  -0.523  0.00  0.00     0.150 A 
ATOM      5  C4  UNL d   1      -3.374  -4.165   0.027  0.00  0.00    -0.007 A 
ATOM      6  C5  UNL d   1      -3.628  -3.007   0.762  0.00  0.00     0.039 A 
ENDROOT
BRANCH   4   7
ATOM      7  O   UNL d   1      -4.138  -6.000  -1.238  0.00  0.00    -0.526 OA
ATOM      8  H5  UNL d   1      -4.967  -6.373  -1.583  0.00  0.00     0.418 HD
ENDBRANCH   4   7
TORSDOF 1
ENDMDL
