MODEL 1
REMARK minimizedAffinity 6.52539444
REMARK minimizedRMSD -1
REMARK  1 active torsions:
REMARK  status: ('A' for Active; 'I' for Inactive)
REMARK    1  A    between atoms: C3_4  and  O_7 
ROOT
ATOM      1  C   UNL d   1      -5.449  -5.999   0.457  0.00  0.00    -0.033 A 
ATOM      2  C1  UNL d   1      -6.000  -4.846   1.019  0.00  0.00     0.039 A 
ATOM      3  C2  UNL d   1      -5.867  -3.618   0.368  0.00  0.00    -0.080 A 
ATOM      4  C3  UNL d   1      -5.182  -3.557  -0.843  0.00  0.00     0.150 A 
ATOM      5  C4  UNL d   1      -4.634  -4.702  -1.410  0.00  0.00    -0.007 A 
ATOM      6  C5  UNL d   1      -4.767  -5.928  -0.758  0.00  0.00     0.039 A 
ENDROOT
BRANCH   4   7
ATOM      7  O   UNL d   1      -5.022  -2.380  -1.513  0.00  0.00    -0.526 OA
ATOM      8  H5  UNL d   1      -5.428  -1.670  -0.988  0.00  0.00     0.418 HD
ENDBRANCH   4   7
TORSDOF 1
ENDMDL
