MODEL 1
REMARK minimizedAffinity -4.69448376
REMARK minimizedRMSD -1
REMARK  1 active torsions:
REMARK  status: ('A' for Active; 'I' for Inactive)
REMARK    1  A    between atoms: C3_4  and  O_7 
ROOT
ATOM      1  C   UNL d   1       0.507  -1.111  -3.051  0.00  0.00    -0.033 A 
ATOM      2  C1  UNL d   1       0.762   0.061  -2.337  0.00  0.00     0.039 A 
ATOM      3  C2  UNL d   1      -0.260   0.671  -1.606  0.00  0.00    -0.080 A 
ATOM      4  C3  UNL d   1      -1.528   0.098  -1.596  0.00  0.00     0.150 A 
ATOM      5  C4  UNL d   1      -1.788  -1.072  -2.301  0.00  0.00    -0.007 A 
ATOM      6  C5  UNL d   1      -0.767  -1.679  -3.032  0.00  0.00     0.039 A 
ENDROOT
BRANCH   4   7
ATOM      7  O   UNL d   1      -2.558   0.659  -0.900  0.00  0.00    -0.526 OA
ATOM      8  H5  UNL d   1      -2.239   1.478  -0.486  0.00  0.00     0.418 HD
ENDBRANCH   4   7
TORSDOF 1
ENDMDL
