MODEL 1
REMARK minimizedAffinity -5.02374887
REMARK minimizedRMSD -1
REMARK  1 active torsions:
REMARK  status: ('A' for Active; 'I' for Inactive)
REMARK    1  A    between atoms: C3_4  and  O_7 
ROOT
ATOM      1  C   UNL d   1       0.571   0.269  -0.188  0.00  0.00    -0.033 A 
ATOM      2  C1  UNL d   1      -0.634  -0.429  -0.087  0.00  0.00     0.039 A 
ATOM      3  C2  UNL d   1      -1.040  -0.950   1.143  0.00  0.00    -0.080 A 
ATOM      4  C3  UNL d   1      -0.234  -0.765   2.263  0.00  0.00     0.150 A 
ATOM      5  C4  UNL d   1       0.965  -0.066   2.171  0.00  0.00    -0.007 A 
ATOM      6  C5  UNL d   1       1.370   0.452   0.941  0.00  0.00     0.039 A 
ENDROOT
BRANCH   4   7
ATOM      7  O   UNL d   1      -0.586  -1.259   3.484  0.00  0.00    -0.526 OA
ATOM      8  H5  UNL d   1      -1.424  -1.743   3.390  0.00  0.00     0.418 HD
ENDBRANCH   4   7
TORSDOF 1
ENDMDL
