MODEL 1
REMARK minimizedAffinity -1.95084012
REMARK minimizedRMSD -1
REMARK  1 active torsions:
REMARK  status: ('A' for Active; 'I' for Inactive)
REMARK    1  A    between atoms: C3_4  and  O_7 
ROOT
ATOM      1  C   UNL d   1       1.000  -0.647  -3.086  0.00  0.00    -0.033 A 
ATOM      2  C1  UNL d   1      -0.245  -1.261  -3.234  0.00  0.00     0.039 A 
ATOM      3  C2  UNL d   1      -1.321  -0.862  -2.438  0.00  0.00    -0.080 A 
ATOM      4  C3  UNL d   1      -1.139   0.151  -1.501  0.00  0.00     0.150 A 
ATOM      5  C4  UNL d   1       0.098   0.770  -1.350  0.00  0.00    -0.007 A 
ATOM      6  C5  UNL d   1       1.171   0.370  -2.145  0.00  0.00     0.039 A 
ENDROOT
BRANCH   4   7
ATOM      7  O   UNL d   1      -2.158   0.570  -0.698  0.00  0.00    -0.526 OA
ATOM      8  H5  UNL d   1      -2.945   0.034  -0.894  0.00  0.00     0.418 HD
ENDBRANCH   4   7
TORSDOF 1
ENDMDL
