MODEL 1
REMARK minimizedAffinity -1.29877877
REMARK minimizedRMSD -1
REMARK  1 active torsions:
REMARK  status: ('A' for Active; 'I' for Inactive)
REMARK    1  A    between atoms: C3_4  and  O_7 
ROOT
ATOM      1  C   UNL d   1       0.986  -2.147  -3.286  0.00  0.00    -0.033 A 
ATOM      2  C1  UNL d   1      -0.173  -2.038  -2.514  0.00  0.00     0.039 A 
ATOM      3  C2  UNL d   1      -0.270  -1.051  -1.532  0.00  0.00    -0.080 A 
ATOM      4  C3  UNL d   1       0.796  -0.178  -1.333  0.00  0.00     0.150 A 
ATOM      5  C4  UNL d   1       1.952  -0.278  -2.100  0.00  0.00    -0.007 A 
ATOM      6  C5  UNL d   1       2.048  -1.265  -3.080  0.00  0.00     0.039 A 
ENDROOT
BRANCH   4   7
ATOM      7  O   UNL d   1       0.749   0.799  -0.383  0.00  0.00    -0.526 OA
ATOM      8  H5  UNL d   1      -0.097   0.729   0.088  0.00  0.00     0.418 HD
ENDBRANCH   4   7
TORSDOF 1
ENDMDL
