MODEL 1
REMARK minimizedAffinity -2.29671574
REMARK minimizedRMSD -1
REMARK  1 active torsions:
REMARK  status: ('A' for Active; 'I' for Inactive)
REMARK    1  A    between atoms: C3_4  and  O_7 
ROOT
ATOM      1  C   UNL d   1      -3.190  -5.998  -1.162  0.00  0.00    -0.033 A 
ATOM      2  C1  UNL d   1      -3.351  -4.834  -0.408  0.00  0.00     0.039 A 
ATOM      3  C2  UNL d   1      -2.664  -3.671  -0.760  0.00  0.00    -0.080 A 
ATOM      4  C3  UNL d   1      -1.822  -3.684  -1.868  0.00  0.00     0.150 A 
ATOM      5  C4  UNL d   1      -1.660  -4.838  -2.627  0.00  0.00    -0.007 A 
ATOM      6  C5  UNL d   1      -2.345  -5.999  -2.273  0.00  0.00     0.039 A 
ENDROOT
BRANCH   4   7
ATOM      7  O   UNL d   1      -1.128  -2.574  -2.249  0.00  0.00    -0.526 OA
ATOM      8  H5  UNL d   1      -1.316  -1.861  -1.615  0.00  0.00     0.418 HD
ENDBRANCH   4   7
TORSDOF 1
ENDMDL
