MODEL 1
REMARK minimizedAffinity -3.94889188
REMARK minimizedRMSD -1
REMARK  1 active torsions:
REMARK  status: ('A' for Active; 'I' for Inactive)
REMARK    1  A    between atoms: C3_4  and  O_7 
ROOT
ATOM      1  C   UNL d   1      -0.848  -3.398  -3.314  0.00  0.00    -0.033 A 
ATOM      2  C1  UNL d   1      -0.157  -2.255  -3.721  0.00  0.00     0.039 A 
ATOM      3  C2  UNL d   1      -0.477  -1.011  -3.173  0.00  0.00    -0.080 A 
ATOM      4  C3  UNL d   1      -1.487  -0.924  -2.219  0.00  0.00     0.150 A 
ATOM      5  C4  UNL d   1      -2.176  -2.059  -1.805  0.00  0.00    -0.007 A 
ATOM      6  C5  UNL d   1      -1.857  -3.300  -2.354  0.00  0.00     0.039 A 
ENDROOT
BRANCH   4   7
ATOM      7  O   UNL d   1      -1.837   0.268  -1.659  0.00  0.00    -0.526 OA
ATOM      8  H5  UNL d   1      -1.296   0.968  -2.061  0.00  0.00     0.418 HD
ENDBRANCH   4   7
TORSDOF 1
ENDMDL
