MODEL 1
REMARK minimizedAffinity -4.11030626
REMARK minimizedRMSD -1
REMARK  1 active torsions:
REMARK  status: ('A' for Active; 'I' for Inactive)
REMARK    1  A    between atoms: C3_4  and  O_7 
ROOT
ATOM      1  C   UNL d   1      -1.604  -1.180   0.072  0.00  0.00    -0.033 A 
ATOM      2  C1  UNL d   1      -1.130  -0.903   1.356  0.00  0.00     0.039 A 
ATOM      3  C2  UNL d   1       0.060  -0.194   1.525  0.00  0.00    -0.080 A 
ATOM      4  C3  UNL d   1       0.766   0.234   0.403  0.00  0.00     0.150 A 
ATOM      5  C4  UNL d   1       0.298  -0.036  -0.879  0.00  0.00    -0.007 A 
ATOM      6  C5  UNL d   1      -0.891  -0.745  -1.045  0.00  0.00     0.039 A 
ENDROOT
BRANCH   4   7
ATOM      7  O   UNL d   1       1.935   0.925   0.518  0.00  0.00    -0.526 OA
ATOM      8  H5  UNL d   1       2.150   1.012   1.462  0.00  0.00     0.418 HD
ENDBRANCH   4   7
TORSDOF 1
ENDMDL
