MODEL 1
REMARK minimizedAffinity -4.30950546
REMARK minimizedRMSD -1
REMARK  1 active torsions:
REMARK  status: ('A' for Active; 'I' for Inactive)
REMARK    1  A    between atoms: C3_4  and  O_7 
ROOT
ATOM      1  C   UNL d   1      -1.491  -1.038  -1.405  0.00  0.00    -0.033 A 
ATOM      2  C1  UNL d   1      -1.762  -2.094  -2.277  0.00  0.00     0.039 A 
ATOM      3  C2  UNL d   1      -2.949  -2.107  -3.012  0.00  0.00    -0.080 A 
ATOM      4  C3  UNL d   1      -3.854  -1.059  -2.868  0.00  0.00     0.150 A 
ATOM      5  C4  UNL d   1      -3.588  -0.002  -2.004  0.00  0.00    -0.007 A 
ATOM      6  C5  UNL d   1      -2.403   0.009  -1.269  0.00  0.00     0.039 A 
ENDROOT
BRANCH   4   7
ATOM      7  O   UNL d   1      -5.027  -1.030  -3.561  0.00  0.00    -0.526 OA
ATOM      8  H5  UNL d   1      -5.088  -1.839  -4.096  0.00  0.00     0.418 HD
ENDBRANCH   4   7
TORSDOF 1
ENDMDL
