MODEL 1
REMARK minimizedAffinity -5.08918619
REMARK minimizedRMSD -1
REMARK  1 active torsions:
REMARK  status: ('A' for Active; 'I' for Inactive)
REMARK    1  A    between atoms: C3_4  and  O_7 
ROOT
ATOM      1  C   UNL d   1      -0.202   0.879  -0.321  0.00  0.00    -0.033 A 
ATOM      2  C1  UNL d   1      -1.503   0.450  -0.050  0.00  0.00     0.039 A 
ATOM      3  C2  UNL d   1      -1.844   0.015   1.233  0.00  0.00    -0.080 A 
ATOM      4  C3  UNL d   1      -0.876   0.015   2.234  0.00  0.00     0.150 A 
ATOM      5  C4  UNL d   1       0.421   0.444   1.972  0.00  0.00    -0.007 A 
ATOM      6  C5  UNL d   1       0.759   0.877   0.690  0.00  0.00     0.039 A 
ENDROOT
BRANCH   4   7
ATOM      7  O   UNL d   1      -1.160  -0.405   3.499  0.00  0.00    -0.526 OA
ATOM      8  H5  UNL d   1      -2.086  -0.700   3.525  0.00  0.00     0.418 HD
ENDBRANCH   4   7
TORSDOF 1
ENDMDL
