MODEL 1
REMARK minimizedAffinity -5.09583712
REMARK minimizedRMSD -1
REMARK  1 active torsions:
REMARK  status: ('A' for Active; 'I' for Inactive)
REMARK    1  A    between atoms: C3_4  and  O_7 
ROOT
ATOM      1  C   UNL d   1      -0.649   0.532  -0.757  0.00  0.00    -0.033 A 
ATOM      2  C1  UNL d   1      -1.824   0.147  -0.110  0.00  0.00     0.039 A 
ATOM      3  C2  UNL d   1      -1.796  -0.207   1.241  0.00  0.00    -0.080 A 
ATOM      4  C3  UNL d   1      -0.588  -0.171   1.931  0.00  0.00     0.150 A 
ATOM      5  C4  UNL d   1       0.586   0.216   1.294  0.00  0.00    -0.007 A 
ATOM      6  C5  UNL d   1       0.556   0.568  -0.055  0.00  0.00     0.039 A 
ENDROOT
BRANCH   4   7
ATOM      7  O   UNL d   1      -0.510  -0.512   3.249  0.00  0.00    -0.526 OA
ATOM      8  H5  UNL d   1      -1.393  -0.785   3.549  0.00  0.00     0.418 HD
ENDBRANCH   4   7
TORSDOF 1
ENDMDL
