MODEL 1
REMARK minimizedAffinity 14.3268719
REMARK minimizedRMSD -1
REMARK  0 active torsions:
REMARK  status: ('A' for Active; 'I' for Inactive)
ROOT
ATOM      1  C   UNL d   1      -0.991  -2.817   0.898  0.00  0.00     0.124 A 
ATOM      2  C1  UNL d   1      -0.522  -3.875   0.131  0.00  0.00     0.062 A 
ATOM      3  C2  UNL d   1      -0.880  -3.981  -1.210  0.00  0.00     0.162 A 
ATOM      4  C3  UNL d   1      -1.711  -3.025  -1.794  0.00  0.00    -0.034 A 
ATOM      5  C4  UNL d   1      -2.179  -1.964  -1.016  0.00  0.00     0.162 A 
ATOM      6  C5  UNL d   1      -1.818  -1.863   0.323  0.00  0.00     0.062 A 
ATOM      7  F   UNL d   1      -2.272  -0.840   1.062  0.00  0.00    -0.097 F 
ATOM      8  F1  UNL d   1      -2.980  -1.027  -1.546  0.00  0.00    -0.096 F 
ATOM      9  I   UNL d   1      -2.248  -3.179  -3.798  0.00  0.00    -0.060 I 
ATOM     10  F2  UNL d   1      -0.412  -5.014  -1.927  0.00  0.00    -0.096 F 
ATOM     11  F3  UNL d   1       0.277  -4.799   0.684  0.00  0.00    -0.097 F 
ATOM     12  F4  UNL d   1      -0.645  -2.719   2.188  0.00  0.00    -0.092 F 
ENDROOT
TORSDOF 0
ENDMDL
