MODEL 1
REMARK minimizedAffinity 9.05591869
REMARK minimizedRMSD -1
REMARK  0 active torsions:
REMARK  status: ('A' for Active; 'I' for Inactive)
ROOT
ATOM      1  C   UNL d   1       4.599   1.487  -2.639  0.00  0.00     0.124 A 
ATOM      2  C1  UNL d   1       5.109   1.053  -3.855  0.00  0.00     0.062 A 
ATOM      3  C2  UNL d   1       5.510   1.977  -4.816  0.00  0.00     0.162 A 
ATOM      4  C3  UNL d   1       5.402   3.344  -4.565  0.00  0.00    -0.034 A 
ATOM      5  C4  UNL d   1       4.887   3.773  -3.340  0.00  0.00     0.162 A 
ATOM      6  C5  UNL d   1       4.488   2.846  -2.383  0.00  0.00     0.062 A 
ATOM      7  F   UNL d   1       3.995   3.268  -1.209  0.00  0.00    -0.097 F 
ATOM      8  F1  UNL d   1       4.770   5.081  -3.066  0.00  0.00    -0.096 F 
ATOM      9  I   UNL d   1       5.999   4.729  -5.999  0.00  0.00    -0.060 I 
ATOM     10  F2  UNL d   1       5.999   1.529  -5.981  0.00  0.00    -0.096 F 
ATOM     11  F3  UNL d   1       5.217  -0.260  -4.105  0.00  0.00    -0.097 F 
ATOM     12  F4  UNL d   1       4.214   0.596  -1.716  0.00  0.00    -0.092 F 
ENDROOT
TORSDOF 0
ENDMDL
