MODEL 1
REMARK minimizedAffinity 13.5753069
REMARK minimizedRMSD -1
REMARK  0 active torsions:
REMARK  status: ('A' for Active; 'I' for Inactive)
ROOT
ATOM      1  C   UNL d   1       5.462   1.628  -2.409  0.00  0.00     0.124 A 
ATOM      2  C1  UNL d   1       5.444   2.987  -2.125  0.00  0.00     0.062 A 
ATOM      3  C2  UNL d   1       5.597   3.918  -3.148  0.00  0.00     0.162 A 
ATOM      4  C3  UNL d   1       5.769   3.493  -4.466  0.00  0.00    -0.034 A 
ATOM      5  C4  UNL d   1       5.787   2.125  -4.744  0.00  0.00     0.162 A 
ATOM      6  C5  UNL d   1       5.633   1.199  -3.718  0.00  0.00     0.062 A 
ATOM      7  F   UNL d   1       5.651  -0.113  -3.994  0.00  0.00    -0.097 F 
ATOM      8  F1  UNL d   1       5.950   1.683  -5.999  0.00  0.00    -0.096 F 
ATOM      9  I   UNL d   1       5.998   4.882  -5.999  0.00  0.00    -0.060 I 
ATOM     10  F2  UNL d   1       5.575   5.224  -2.845  0.00  0.00    -0.096 F 
ATOM     11  F3  UNL d   1       5.279   3.404  -0.862  0.00  0.00    -0.097 F 
ATOM     12  F4  UNL d   1       5.315   0.734  -1.422  0.00  0.00    -0.092 F 
ENDROOT
TORSDOF 0
ENDMDL
