MODEL 1
REMARK minimizedAffinity 18.0016785
REMARK minimizedRMSD -1
REMARK  0 active torsions:
REMARK  status: ('A' for Active; 'I' for Inactive)
ROOT
ATOM      1  C   UNL d   1       3.643   1.193   1.228  0.00  0.00     0.124 A 
ATOM      2  C1  UNL d   1       3.960   0.282   2.226  0.00  0.00     0.062 A 
ATOM      3  C2  UNL d   1       3.038  -0.010   3.226  0.00  0.00     0.162 A 
ATOM      4  C3  UNL d   1       1.788   0.610   3.233  0.00  0.00    -0.034 A 
ATOM      5  C4  UNL d   1       1.476   1.525   2.227  0.00  0.00     0.162 A 
ATOM      6  C5  UNL d   1       2.401   1.814   1.229  0.00  0.00     0.062 A 
ATOM      7  F   UNL d   1       2.093   2.694   0.266  0.00  0.00    -0.097 F 
ATOM      8  F1  UNL d   1       0.283   2.139   2.204  0.00  0.00    -0.096 F 
ATOM      9  I   UNL d   1       0.405   0.176   4.728  0.00  0.00    -0.060 I 
ATOM     10  F2  UNL d   1       3.371  -0.894   4.178  0.00  0.00    -0.096 F 
ATOM     11  F3  UNL d   1       5.159  -0.318   2.227  0.00  0.00    -0.097 F 
ATOM     12  F4  UNL d   1       4.533   1.473   0.267  0.00  0.00    -0.092 F 
ENDROOT
TORSDOF 0
ENDMDL
