MODEL 1
REMARK minimizedAffinity 12.2946253
REMARK minimizedRMSD -1
REMARK  0 active torsions:
REMARK  status: ('A' for Active; 'I' for Inactive)
ROOT
ATOM      1  C   UNL d   1      -0.718  -2.776  -0.045  0.00  0.00     0.124 A 
ATOM      2  C1  UNL d   1      -0.396  -3.992  -0.632  0.00  0.00     0.062 A 
ATOM      3  C2  UNL d   1      -0.767  -4.254  -1.948  0.00  0.00     0.162 A 
ATOM      4  C3  UNL d   1      -1.466  -3.299  -2.686  0.00  0.00    -0.034 A 
ATOM      5  C4  UNL d   1      -1.787  -2.079  -2.088  0.00  0.00     0.162 A 
ATOM      6  C5  UNL d   1      -1.414  -1.821  -0.773  0.00  0.00     0.062 A 
ATOM      7  F   UNL d   1      -1.726  -0.646  -0.208  0.00  0.00    -0.097 F 
ATOM      8  F1  UNL d   1      -2.458  -1.137  -2.769  0.00  0.00    -0.096 F 
ATOM      9  I   UNL d   1      -2.023  -3.687  -4.653  0.00  0.00    -0.060 I 
ATOM     10  F2  UNL d   1      -0.442  -5.437  -2.490  0.00  0.00    -0.096 F 
ATOM     11  F3  UNL d   1       0.275  -4.917   0.069  0.00  0.00    -0.097 F 
ATOM     12  F4  UNL d   1      -0.360  -2.526   1.221  0.00  0.00    -0.092 F 
ENDROOT
TORSDOF 0
ENDMDL
