MODEL 1
REMARK minimizedAffinity 10.2828665
REMARK minimizedRMSD -1
REMARK  0 active torsions:
REMARK  status: ('A' for Active; 'I' for Inactive)
ROOT
ATOM      1  C   UNL d   1       2.637   1.683   1.656  0.00  0.00     0.124 A 
ATOM      2  C1  UNL d   1       2.527   2.520   0.555  0.00  0.00     0.062 A 
ATOM      3  C2  UNL d   1       3.486   2.481  -0.453  0.00  0.00     0.162 A 
ATOM      4  C3  UNL d   1       4.564   1.600  -0.365  0.00  0.00    -0.034 A 
ATOM      5  C4  UNL d   1       4.669   0.762   0.746  0.00  0.00     0.162 A 
ATOM      6  C5  UNL d   1       3.708   0.805   1.751  0.00  0.00     0.062 A 
ATOM      7  F   UNL d   1       3.816  -0.005   2.815  0.00  0.00    -0.097 F 
ATOM      8  F1  UNL d   1       5.692  -0.097   0.863  0.00  0.00    -0.096 F 
ATOM      9  I   UNL d   1       6.000   1.539  -1.870  0.00  0.00    -0.060 I 
ATOM     10  F2  UNL d   1       3.354   3.301  -1.506  0.00  0.00    -0.096 F 
ATOM     11  F3  UNL d   1       1.494   3.370   0.462  0.00  0.00    -0.097 F 
ATOM     12  F4  UNL d   1       1.713   1.723   2.625  0.00  0.00    -0.092 F 
ENDROOT
TORSDOF 0
ENDMDL
