MODEL 1
REMARK minimizedAffinity 20.0763664
REMARK minimizedRMSD -1
REMARK  0 active torsions:
REMARK  status: ('A' for Active; 'I' for Inactive)
ROOT
ATOM      1  C   UNL d   1      -1.522  -1.678   3.440  0.00  0.00     0.124 A 
ATOM      2  C1  UNL d   1      -0.720  -0.949   4.307  0.00  0.00     0.062 A 
ATOM      3  C2  UNL d   1       0.459  -0.367   3.848  0.00  0.00     0.162 A 
ATOM      4  C3  UNL d   1       0.841  -0.511   2.514  0.00  0.00    -0.034 A 
ATOM      5  C4  UNL d   1       0.029  -1.246   1.649  0.00  0.00     0.162 A 
ATOM      6  C5  UNL d   1      -1.147  -1.826   2.112  0.00  0.00     0.062 A 
ATOM      7  F   UNL d   1      -1.921  -2.529   1.273  0.00  0.00    -0.097 F 
ATOM      8  F1  UNL d   1       0.368  -1.404   0.360  0.00  0.00    -0.096 F 
ATOM      9  I   UNL d   1       2.602   0.358   1.824  0.00  0.00    -0.060 I 
ATOM     10  F2  UNL d   1       1.215   0.332   4.708  0.00  0.00    -0.096 F 
ATOM     11  F3  UNL d   1      -1.079  -0.805   5.591  0.00  0.00    -0.097 F 
ATOM     12  F4  UNL d   1      -2.655  -2.237   3.885  0.00  0.00    -0.092 F 
ENDROOT
TORSDOF 0
ENDMDL
