MODEL 1
REMARK minimizedAffinity 15.4772177
REMARK minimizedRMSD -1
REMARK  0 active torsions:
REMARK  status: ('A' for Active; 'I' for Inactive)
ROOT
ATOM      1  C   UNL d   1      -0.497  -2.775  -0.301  0.00  0.00     0.124 A 
ATOM      2  C1  UNL d   1      -1.157  -1.807  -1.044  0.00  0.00     0.062 A 
ATOM      3  C2  UNL d   1      -1.649  -2.112  -2.310  0.00  0.00     0.162 A 
ATOM      4  C3  UNL d   1      -1.483  -3.391  -2.841  0.00  0.00    -0.034 A 
ATOM      5  C4  UNL d   1      -0.817  -4.359  -2.087  0.00  0.00     0.162 A 
ATOM      6  C5  UNL d   1      -0.327  -4.050  -0.823  0.00  0.00     0.062 A 
ATOM      7  F   UNL d   1       0.310  -4.987  -0.106  0.00  0.00    -0.097 F 
ATOM      8  F1  UNL d   1      -0.640  -5.599  -2.567  0.00  0.00    -0.096 F 
ATOM      9  I   UNL d   1      -2.217  -3.850  -4.734  0.00  0.00    -0.060 I 
ATOM     10  F2  UNL d   1      -2.283  -1.157  -3.007  0.00  0.00    -0.096 F 
ATOM     11  F3  UNL d   1      -1.322  -0.575  -0.543  0.00  0.00    -0.097 F 
ATOM     12  F4  UNL d   1      -0.024  -2.480   0.917  0.00  0.00    -0.092 F 
ENDROOT
TORSDOF 0
ENDMDL
