MODEL 1
REMARK minimizedAffinity 17.7133656
REMARK minimizedRMSD -1
REMARK  0 active torsions:
REMARK  status: ('A' for Active; 'I' for Inactive)
ROOT
ATOM      1  C   UNL d   1      -0.480  -2.442   1.484  0.00  0.00     0.124 A 
ATOM      2  C1  UNL d   1      -0.158  -3.787   1.371  0.00  0.00     0.062 A 
ATOM      3  C2  UNL d   1      -0.654  -4.705   2.292  0.00  0.00     0.162 A 
ATOM      4  C3  UNL d   1      -1.477  -4.282   3.335  0.00  0.00    -0.034 A 
ATOM      5  C4  UNL d   1      -1.795  -2.927   3.443  0.00  0.00     0.162 A 
ATOM      6  C5  UNL d   1      -1.298  -2.013   2.520  0.00  0.00     0.062 A 
ATOM      7  F   UNL d   1      -1.610  -0.713   2.632  0.00  0.00    -0.097 F 
ATOM      8  F1  UNL d   1      -2.584  -2.485   4.434  0.00  0.00    -0.096 F 
ATOM      9  I   UNL d   1      -2.219  -5.652   4.715  0.00  0.00    -0.060 I 
ATOM     10  F2  UNL d   1      -0.326  -5.999   2.158  0.00  0.00    -0.096 F 
ATOM     11  F3  UNL d   1       0.632  -4.204   0.371  0.00  0.00    -0.097 F 
ATOM     12  F4  UNL d   1      -0.002  -1.560   0.597  0.00  0.00    -0.092 F 
ENDROOT
TORSDOF 0
ENDMDL
