MODEL 1
REMARK minimizedAffinity 21.7789593
REMARK minimizedRMSD -1
REMARK  0 active torsions:
REMARK  status: ('A' for Active; 'I' for Inactive)
ROOT
ATOM      1  C   UNL d   1      -1.490  -2.613  -1.021  0.00  0.00     0.124 A 
ATOM      2  C1  UNL d   1      -1.002  -3.732  -1.682  0.00  0.00     0.062 A 
ATOM      3  C2  UNL d   1      -1.273  -3.920  -3.034  0.00  0.00     0.162 A 
ATOM      4  C3  UNL d   1      -2.034  -2.985  -3.736  0.00  0.00    -0.034 A 
ATOM      5  C4  UNL d   1      -2.522  -1.862  -3.064  0.00  0.00     0.162 A 
ATOM      6  C5  UNL d   1      -2.249  -1.679  -1.713  0.00  0.00     0.062 A 
ATOM      7  F   UNL d   1      -2.720  -0.597  -1.076  0.00  0.00    -0.097 F 
ATOM      8  F1  UNL d   1      -3.257  -0.944  -3.709  0.00  0.00    -0.096 F 
ATOM      9  I   UNL d   1      -2.441  -3.262  -5.758  0.00  0.00    -0.060 I 
ATOM     10  F2  UNL d   1      -0.789  -5.010  -3.647  0.00  0.00    -0.096 F 
ATOM     11  F3  UNL d   1      -0.270  -4.636  -1.015  0.00  0.00    -0.097 F 
ATOM     12  F4  UNL d   1      -1.229  -2.435   0.281  0.00  0.00    -0.092 F 
ENDROOT
TORSDOF 0
ENDMDL
