MODEL 1
REMARK minimizedAffinity 19.0546341
REMARK minimizedRMSD -1
REMARK  0 active torsions:
REMARK  status: ('A' for Active; 'I' for Inactive)
ROOT
ATOM      1  C   UNL d   1      -0.745  -2.870  -0.828  0.00  0.00     0.124 A 
ATOM      2  C1  UNL d   1      -0.216  -3.400   0.341  0.00  0.00     0.062 A 
ATOM      3  C2  UNL d   1      -0.738  -3.029   1.577  0.00  0.00     0.162 A 
ATOM      4  C3  UNL d   1      -1.796  -2.123   1.650  0.00  0.00    -0.034 A 
ATOM      5  C4  UNL d   1      -2.323  -1.594   0.470  0.00  0.00     0.162 A 
ATOM      6  C5  UNL d   1      -1.797  -1.968  -0.763  0.00  0.00     0.062 A 
ATOM      7  F   UNL d   1      -2.309  -1.456  -1.891  0.00  0.00    -0.097 F 
ATOM      8  F1  UNL d   1      -3.340  -0.721   0.504  0.00  0.00    -0.096 F 
ATOM      9  I   UNL d   1      -2.580  -1.565   3.495  0.00  0.00    -0.060 I 
ATOM     10  F2  UNL d   1      -0.207  -3.556   2.690  0.00  0.00    -0.096 F 
ATOM     11  F3  UNL d   1       0.802  -4.271   0.280  0.00  0.00    -0.097 F 
ATOM     12  F4  UNL d   1      -0.240  -3.229  -2.016  0.00  0.00    -0.092 F 
ENDROOT
TORSDOF 0
ENDMDL
