MODEL 1
REMARK minimizedAffinity 19.9490376
REMARK minimizedRMSD -1
REMARK  0 active torsions:
REMARK  status: ('A' for Active; 'I' for Inactive)
ROOT
ATOM      1  C   UNL d   1      -0.944  -2.523  -1.465  0.00  0.00     0.124 A 
ATOM      2  C1  UNL d   1      -0.797  -3.797  -1.995  0.00  0.00     0.062 A 
ATOM      3  C2  UNL d   1      -1.232  -4.071  -3.289  0.00  0.00     0.162 A 
ATOM      4  C3  UNL d   1      -1.817  -3.069  -4.062  0.00  0.00    -0.034 A 
ATOM      5  C4  UNL d   1      -1.962  -1.790  -3.522  0.00  0.00     0.162 A 
ATOM      6  C5  UNL d   1      -1.526  -1.520  -2.229  0.00  0.00     0.062 A 
ATOM      7  F   UNL d   1      -1.668  -0.289  -1.718  0.00  0.00    -0.097 F 
ATOM      8  F1  UNL d   1      -2.520  -0.802  -4.238  0.00  0.00    -0.096 F 
ATOM      9  I   UNL d   1      -2.468  -3.475  -5.997  0.00  0.00    -0.060 I 
ATOM     10  F2  UNL d   1      -1.078  -5.312  -3.775  0.00  0.00    -0.096 F 
ATOM     11  F3  UNL d   1      -0.236  -4.767  -1.259  0.00  0.00    -0.097 F 
ATOM     12  F4  UNL d   1      -0.526  -2.262  -0.220  0.00  0.00    -0.092 F 
ENDROOT
TORSDOF 0
ENDMDL
