MODEL 1
REMARK minimizedAffinity 23.5763416
REMARK minimizedRMSD -1
REMARK  0 active torsions:
REMARK  status: ('A' for Active; 'I' for Inactive)
ROOT
ATOM      1  C   UNL d   1      -0.619   3.706   2.093  0.00  0.00     0.124 A 
ATOM      2  C1  UNL d   1      -1.838   3.131   2.422  0.00  0.00     0.062 A 
ATOM      3  C2  UNL d   1      -1.914   1.775   2.726  0.00  0.00     0.162 A 
ATOM      4  C3  UNL d   1      -0.765   0.984   2.704  0.00  0.00    -0.034 A 
ATOM      5  C4  UNL d   1       0.458   1.569   2.371  0.00  0.00     0.162 A 
ATOM      6  C5  UNL d   1       0.528   2.925   2.068  0.00  0.00     0.062 A 
ATOM      7  F   UNL d   1       1.707   3.478   1.750  0.00  0.00    -0.097 F 
ATOM      8  F1  UNL d   1       1.582   0.837   2.341  0.00  0.00    -0.096 F 
ATOM      9  I   UNL d   1      -0.874  -1.044   3.159  0.00  0.00    -0.060 I 
ATOM     10  F2  UNL d   1      -3.106   1.247   3.041  0.00  0.00    -0.096 F 
ATOM     11  F3  UNL d   1      -2.948   3.884   2.446  0.00  0.00    -0.097 F 
ATOM     12  F4  UNL d   1      -0.549   5.011   1.799  0.00  0.00    -0.092 F 
ENDROOT
TORSDOF 0
ENDMDL
