MODEL 1
REMARK minimizedAffinity 14.0123234
REMARK minimizedRMSD -1
REMARK  0 active torsions:
REMARK  status: ('A' for Active; 'I' for Inactive)
ROOT
ATOM      1  C   UNL d   1      -0.002   4.420  -1.073  0.00  0.00     0.124 A 
ATOM      2  C1  UNL d   1       1.329   4.160  -1.368  0.00  0.00     0.062 A 
ATOM      3  C2  UNL d   1       2.329   4.520  -0.470  0.00  0.00     0.162 A 
ATOM      4  C3  UNL d   1       2.002   5.143   0.735  0.00  0.00    -0.034 A 
ATOM      5  C4  UNL d   1       0.661   5.402   1.024  0.00  0.00     0.162 A 
ATOM      6  C5  UNL d   1      -0.335   5.040   0.123  0.00  0.00     0.062 A 
ATOM      7  F   UNL d   1      -1.620   5.292   0.410  0.00  0.00    -0.097 F 
ATOM      8  F1  UNL d   1       0.311   6.000   2.173  0.00  0.00    -0.096 F 
ATOM      9  I   UNL d   1       3.494   5.683   2.081  0.00  0.00    -0.060 I 
ATOM     10  F2  UNL d   1       3.607   4.257  -0.781  0.00  0.00    -0.096 F 
ATOM     11  F3  UNL d   1       1.653   3.561  -2.524  0.00  0.00    -0.097 F 
ATOM     12  F4  UNL d   1      -0.962   4.073  -1.940  0.00  0.00    -0.092 F 
ENDROOT
TORSDOF 0
ENDMDL
