MODEL 1
REMARK minimizedAffinity 17.4527092
REMARK minimizedRMSD -1
REMARK  0 active torsions:
REMARK  status: ('A' for Active; 'I' for Inactive)
ROOT
ATOM      1  C   UNL d   1      -1.245  -2.827  -1.404  0.00  0.00     0.124 A 
ATOM      2  C1  UNL d   1      -1.771  -1.799  -2.173  0.00  0.00     0.062 A 
ATOM      3  C2  UNL d   1      -2.167  -2.038  -3.486  0.00  0.00     0.162 A 
ATOM      4  C3  UNL d   1      -2.040  -3.313  -4.038  0.00  0.00    -0.034 A 
ATOM      5  C4  UNL d   1      -1.509  -4.342  -3.258  0.00  0.00     0.162 A 
ATOM      6  C5  UNL d   1      -1.115  -4.098  -1.947  0.00  0.00     0.062 A 
ATOM      7  F   UNL d   1      -0.607  -5.093  -1.205  0.00  0.00    -0.097 F 
ATOM      8  F1  UNL d   1      -1.374  -5.580  -3.757  0.00  0.00    -0.096 F 
ATOM      9  I   UNL d   1      -2.631  -3.675  -6.000  0.00  0.00    -0.060 I 
ATOM     10  F2  UNL d   1      -2.671  -1.025  -4.206  0.00  0.00    -0.096 F 
ATOM     11  F3  UNL d   1      -1.896  -0.570  -1.651  0.00  0.00    -0.097 F 
ATOM     12  F4  UNL d   1      -0.863  -2.594  -0.141  0.00  0.00    -0.092 F 
ENDROOT
TORSDOF 0
ENDMDL
