MODEL 1
REMARK minimizedAffinity 15.6312704
REMARK minimizedRMSD -1
REMARK  0 active torsions:
REMARK  status: ('A' for Active; 'I' for Inactive)
ROOT
ATOM      1  C   UNL d   1      -0.805  -2.645  -1.425  0.00  0.00     0.124 A 
ATOM      2  C1  UNL d   1      -0.803  -3.918  -1.976  0.00  0.00     0.062 A 
ATOM      3  C2  UNL d   1      -1.243  -4.116  -3.282  0.00  0.00     0.162 A 
ATOM      4  C3  UNL d   1      -1.687  -3.037  -4.046  0.00  0.00    -0.034 A 
ATOM      5  C4  UNL d   1      -1.687  -1.759  -3.484  0.00  0.00     0.162 A 
ATOM      6  C5  UNL d   1      -1.246  -1.567  -2.179  0.00  0.00     0.062 A 
ATOM      7  F   UNL d   1      -1.249  -0.335  -1.648  0.00  0.00    -0.097 F 
ATOM      8  F1  UNL d   1      -2.107  -0.700  -4.191  0.00  0.00    -0.096 F 
ATOM      9  I   UNL d   1      -2.345  -3.329  -5.999  0.00  0.00    -0.060 I 
ATOM     10  F2  UNL d   1      -1.230  -5.358  -3.789  0.00  0.00    -0.096 F 
ATOM     11  F3  UNL d   1      -0.378  -4.962  -1.249  0.00  0.00    -0.097 F 
ATOM     12  F4  UNL d   1      -0.382  -2.457  -0.168  0.00  0.00    -0.092 F 
ENDROOT
TORSDOF 0
ENDMDL
