MODEL 1
REMARK minimizedAffinity 3.92734051
REMARK minimizedRMSD -1
REMARK  0 active torsions:
REMARK  status: ('A' for Active; 'I' for Inactive)
ROOT
ATOM      1  C   UNL d   1       4.532   5.712   4.125  0.00  0.00     0.020 A 
ATOM      2  C1  UNL d   1       5.074   4.428   4.159  0.00  0.00     0.020 A 
ATOM      3  C2  UNL d   1       4.355   3.382   4.742  0.00  0.00     0.034 A 
ATOM      4  C3  UNL d   1       3.091   3.619   5.294  0.00  0.00     0.017 A 
ATOM      5  C4  UNL d   1       2.548   4.908   5.260  0.00  0.00     0.017 A 
ATOM      6  C5  UNL d   1       3.272   5.952   4.675  0.00  0.00     0.034 A 
ATOM      7 Cl   UNL d   1       0.994   5.277   5.921  0.00  0.00    -0.070 Cl
ATOM      8 Cl1  UNL d   1       2.259   2.279   5.999  0.00  0.00    -0.070 Cl
ENDROOT
TORSDOF 0
ENDMDL
