MODEL 1
REMARK minimizedAffinity 6.00381422
REMARK minimizedRMSD -1
REMARK  0 active torsions:
REMARK  status: ('A' for Active; 'I' for Inactive)
ROOT
ATOM      1  C   UNL d   1       4.486   2.564  -0.412  0.00  0.00     0.020 A 
ATOM      2  C1  UNL d   1       3.558   1.897   0.387  0.00  0.00     0.020 A 
ATOM      3  C2  UNL d   1       3.128   0.616   0.037  0.00  0.00     0.034 A 
ATOM      4  C3  UNL d   1       3.625  -0.003  -1.116  0.00  0.00     0.017 A 
ATOM      5  C4  UNL d   1       4.556   0.667  -1.918  0.00  0.00     0.017 A 
ATOM      6  C5  UNL d   1       4.984   1.950  -1.562  0.00  0.00     0.034 A 
ATOM      7 Cl   UNL d   1       5.215  -0.031  -3.355  0.00  0.00    -0.070 Cl
ATOM      8 Cl1  UNL d   1       3.048  -1.588  -1.489  0.00  0.00    -0.070 Cl
ENDROOT
TORSDOF 0
ENDMDL
