MODEL 1
REMARK minimizedAffinity 6.89899111
REMARK minimizedRMSD -1
REMARK  0 active torsions:
REMARK  status: ('A' for Active; 'I' for Inactive)
ROOT
ATOM      1  C   UNL d   1       4.707   1.561   5.679  0.00  0.00     0.020 A 
ATOM      2  C1  UNL d   1       3.382   1.193   5.912  0.00  0.00     0.020 A 
ATOM      3  C2  UNL d   1       2.390   2.172   5.999  0.00  0.00     0.034 A 
ATOM      4  C3  UNL d   1       2.722   3.524   5.853  0.00  0.00     0.017 A 
ATOM      5  C4  UNL d   1       4.052   3.893   5.619  0.00  0.00     0.017 A 
ATOM      6  C5  UNL d   1       5.041   2.908   5.533  0.00  0.00     0.034 A 
ATOM      7 Cl   UNL d   1       4.538   5.540   5.428  0.00  0.00    -0.070 Cl
ATOM      8 Cl1  UNL d   1       1.445   4.682   5.971  0.00  0.00    -0.070 Cl
ENDROOT
TORSDOF 0
ENDMDL
