MODEL 1
REMARK minimizedAffinity 7.31192827
REMARK minimizedRMSD -1
REMARK  0 active torsions:
REMARK  status: ('A' for Active; 'I' for Inactive)
ROOT
ATOM      1  C   UNL d   1       5.456   3.458  -0.002  0.00  0.00     0.020 A 
ATOM      2  C1  UNL d   1       4.170   3.496  -0.538  0.00  0.00     0.020 A 
ATOM      3  C2  UNL d   1       3.426   2.319  -0.653  0.00  0.00     0.034 A 
ATOM      4  C3  UNL d   1       3.969   1.100  -0.231  0.00  0.00     0.017 A 
ATOM      5  C4  UNL d   1       5.260   1.063   0.307  0.00  0.00     0.017 A 
ATOM      6  C5  UNL d   1       6.000   2.244   0.420  0.00  0.00     0.034 A 
ATOM      7 Cl   UNL d   1       5.997  -0.404   0.850  0.00  0.00    -0.070 Cl
ATOM      8 Cl1  UNL d   1       2.993  -0.316  -0.403  0.00  0.00    -0.070 Cl
ENDROOT
TORSDOF 0
ENDMDL
