MODEL 1
REMARK minimizedAffinity -0.628271043
REMARK minimizedRMSD -1
REMARK  0 active torsions:
REMARK  status: ('A' for Active; 'I' for Inactive)
ROOT
ATOM      1  C   UNL d   1       5.873   3.120  -0.505  0.00  0.00     0.020 A 
ATOM      2  C1  UNL d   1       5.231   2.816   0.695  0.00  0.00     0.020 A 
ATOM      3  C2  UNL d   1       4.312   1.766   0.748  0.00  0.00     0.034 A 
ATOM      4  C3  UNL d   1       4.031   1.017  -0.401  0.00  0.00     0.017 A 
ATOM      5  C4  UNL d   1       4.676   1.323  -1.605  0.00  0.00     0.017 A 
ATOM      6  C5  UNL d   1       5.596   2.376  -1.652  0.00  0.00     0.034 A 
ATOM      7 Cl   UNL d   1       4.382   0.444  -3.063  0.00  0.00    -0.070 Cl
ATOM      8 Cl1  UNL d   1       2.884  -0.267  -0.262  0.00  0.00    -0.070 Cl
ENDROOT
TORSDOF 0
ENDMDL
