MODEL 1
REMARK minimizedAffinity 7.9272337
REMARK minimizedRMSD -1
REMARK  0 active torsions:
REMARK  status: ('A' for Active; 'I' for Inactive)
ROOT
ATOM      1  C   UNL d   1      -3.890   0.569  -5.400  0.00  0.00     0.020 A 
ATOM      2  C1  UNL d   1      -5.211   0.634  -4.960  0.00  0.00     0.020 A 
ATOM      3  C2  UNL d   1      -5.515   0.374  -3.622  0.00  0.00     0.034 A 
ATOM      4  C3  UNL d   1      -4.496   0.048  -2.720  0.00  0.00     0.017 A 
ATOM      5  C4  UNL d   1      -3.170  -0.017  -3.163  0.00  0.00     0.017 A 
ATOM      6  C5  UNL d   1      -2.872   0.244  -4.503  0.00  0.00     0.034 A 
ATOM      7 Cl   UNL d   1      -1.859  -0.414  -2.108  0.00  0.00    -0.070 Cl
ATOM      8 Cl1  UNL d   1      -4.944  -0.261  -1.080  0.00  0.00    -0.070 Cl
ENDROOT
TORSDOF 0
ENDMDL
