MODEL 1
REMARK minimizedAffinity -0.118409775
REMARK minimizedRMSD -1
REMARK  0 active torsions:
REMARK  status: ('A' for Active; 'I' for Inactive)
ROOT
ATOM      1  C   UNL d   1       5.112   1.954   1.259  0.00  0.00     0.020 A 
ATOM      2  C1  UNL d   1       5.172   2.711   0.090  0.00  0.00     0.020 A 
ATOM      3  C2  UNL d   1       4.656   2.199  -1.102  0.00  0.00     0.034 A 
ATOM      4  C3  UNL d   1       4.078   0.924  -1.128  0.00  0.00     0.017 A 
ATOM      5  C4  UNL d   1       4.017   0.165   0.046  0.00  0.00     0.017 A 
ATOM      6  C5  UNL d   1       4.535   0.683   1.237  0.00  0.00     0.034 A 
ATOM      7 Cl   UNL d   1       3.318  -1.416   0.092  0.00  0.00    -0.070 Cl
ATOM      8 Cl1  UNL d   1       3.459   0.354  -2.637  0.00  0.00    -0.070 Cl
ENDROOT
TORSDOF 0
ENDMDL
