MODEL 1
REMARK minimizedAffinity 6.7036705
REMARK minimizedRMSD -1
REMARK  0 active torsions:
REMARK  status: ('A' for Active; 'I' for Inactive)
ROOT
ATOM      1  C   UNL d   1       5.443   3.237   0.373  0.00  0.00     0.020 A 
ATOM      2  C1  UNL d   1       4.131   3.379  -0.078  0.00  0.00     0.020 A 
ATOM      3  C2  UNL d   1       3.375   2.248  -0.393  0.00  0.00     0.034 A 
ATOM      4  C3  UNL d   1       3.930   0.970  -0.257  0.00  0.00     0.017 A 
ATOM      5  C4  UNL d   1       5.247   0.829   0.196  0.00  0.00     0.017 A 
ATOM      6  C5  UNL d   1       5.999   1.965   0.509  0.00  0.00     0.034 A 
ATOM      7 Cl   UNL d   1       6.000  -0.715   0.389  0.00  0.00    -0.070 Cl
ATOM      8 Cl1  UNL d   1       2.937  -0.384  -0.663  0.00  0.00    -0.070 Cl
ENDROOT
TORSDOF 0
ENDMDL
