MODEL 1
REMARK minimizedAffinity 7.28063154
REMARK minimizedRMSD -1
REMARK  0 active torsions:
REMARK  status: ('A' for Active; 'I' for Inactive)
ROOT
ATOM      1  C   UNL d   1       1.318   5.503   5.988  0.00  0.00     0.020 A 
ATOM      2  C1  UNL d   1       2.667   5.856   5.986  0.00  0.00     0.020 A 
ATOM      3  C2  UNL d   1       3.649   4.863   5.988  0.00  0.00     0.034 A 
ATOM      4  C3  UNL d   1       3.284   3.512   5.993  0.00  0.00     0.017 A 
ATOM      5  C4  UNL d   1       1.930   3.158   5.995  0.00  0.00     0.017 A 
ATOM      6  C5  UNL d   1       0.950   4.157   5.992  0.00  0.00     0.034 A 
ATOM      7 Cl   UNL d   1       1.402   1.513   6.000  0.00  0.00    -0.070 Cl
ATOM      8 Cl1  UNL d   1       4.551   2.338   5.995  0.00  0.00    -0.070 Cl
ENDROOT
TORSDOF 0
ENDMDL
