MODEL 1
REMARK minimizedAffinity -5.24823475
REMARK minimizedRMSD -1
REMARK  0 active torsions:
REMARK  status: ('A' for Active; 'I' for Inactive)
ROOT
ATOM      1  C   UNL d   1      -0.984   2.685   1.435  0.00  0.00     0.020 A 
ATOM      2  C1  UNL d   1      -1.350   2.506   0.102  0.00  0.00     0.020 A 
ATOM      3  C2  UNL d   1      -0.950   1.357  -0.584  0.00  0.00     0.034 A 
ATOM      4  C3  UNL d   1      -0.182   0.382   0.063  0.00  0.00     0.017 A 
ATOM      5  C4  UNL d   1       0.185   0.563   1.402  0.00  0.00     0.017 A 
ATOM      6  C5  UNL d   1      -0.218   1.715   2.084  0.00  0.00     0.034 A 
ATOM      7 Cl   UNL d   1       1.132  -0.596   2.268  0.00  0.00    -0.070 Cl
ATOM      8 Cl1  UNL d   1       0.277  -1.014  -0.846  0.00  0.00    -0.070 Cl
ENDROOT
TORSDOF 0
ENDMDL
