MODEL 1
REMARK minimizedAffinity -3.14922929
REMARK minimizedRMSD -1
REMARK  0 active torsions:
REMARK  status: ('A' for Active; 'I' for Inactive)
ROOT
ATOM      1  C   UNL d   1      -0.285   0.799   2.285  0.00  0.00     0.020 A 
ATOM      2  C1  UNL d   1       0.212  -0.430   1.855  0.00  0.00     0.020 A 
ATOM      3  C2  UNL d   1       0.530  -0.622   0.509  0.00  0.00     0.034 A 
ATOM      4  C3  UNL d   1       0.352   0.417  -0.412  0.00  0.00     0.017 A 
ATOM      5  C4  UNL d   1      -0.147   1.651   0.021  0.00  0.00     0.017 A 
ATOM      6  C5  UNL d   1      -0.464   1.838   1.370  0.00  0.00     0.034 A 
ATOM      7 Cl   UNL d   1      -0.393   2.980  -1.056  0.00  0.00    -0.070 Cl
ATOM      8 Cl1  UNL d   1       0.767   0.109  -2.061  0.00  0.00    -0.070 Cl
ENDROOT
TORSDOF 0
ENDMDL
