MODEL 1
REMARK minimizedAffinity -4.88396883
REMARK minimizedRMSD -1
REMARK  0 active torsions:
REMARK  status: ('A' for Active; 'I' for Inactive)
ROOT
ATOM      1  C   UNL d   1      -0.686   3.175   1.518  0.00  0.00     0.020 A 
ATOM      2  C1  UNL d   1      -1.245   3.163   0.241  0.00  0.00     0.020 A 
ATOM      3  C2  UNL d   1      -0.998   2.090  -0.619  0.00  0.00     0.034 A 
ATOM      4  C3  UNL d   1      -0.189   1.026  -0.202  0.00  0.00     0.017 A 
ATOM      5  C4  UNL d   1       0.372   1.040   1.080  0.00  0.00     0.017 A 
ATOM      6  C5  UNL d   1       0.121   2.117   1.937  0.00  0.00     0.034 A 
ATOM      7 Cl   UNL d   1       1.380  -0.236   1.665  0.00  0.00    -0.070 Cl
ATOM      8 Cl1  UNL d   1       0.074  -0.267  -1.317  0.00  0.00    -0.070 Cl
ENDROOT
TORSDOF 0
ENDMDL
