MODEL 1
REMARK minimizedAffinity -4.0356741
REMARK minimizedRMSD -1
REMARK  0 active torsions:
REMARK  status: ('A' for Active; 'I' for Inactive)
ROOT
ATOM      1  C   UNL d   1      -1.090   4.231   0.756  0.00  0.00     0.020 A 
ATOM      2  C1  UNL d   1      -1.070   4.502  -0.611  0.00  0.00     0.020 A 
ATOM      3  C2  UNL d   1      -0.708   3.503  -1.516  0.00  0.00     0.034 A 
ATOM      4  C3  UNL d   1      -0.364   2.227  -1.055  0.00  0.00     0.017 A 
ATOM      5  C4  UNL d   1      -0.385   1.955   0.318  0.00  0.00     0.017 A 
ATOM      6  C5  UNL d   1      -0.748   2.960   1.220  0.00  0.00     0.034 A 
ATOM      7 Cl   UNL d   1       0.026   0.405   0.962  0.00  0.00    -0.070 Cl
ATOM      8 Cl1  UNL d   1       0.073   1.038  -2.231  0.00  0.00    -0.070 Cl
ENDROOT
TORSDOF 0
ENDMDL
