MODEL 1
REMARK minimizedAffinity -0.197661266
REMARK minimizedRMSD -1
REMARK  0 active torsions:
REMARK  status: ('A' for Active; 'I' for Inactive)
ROOT
ATOM      1  C   UNL d   1       0.582  -1.226   0.543  0.00  0.00     0.020 A 
ATOM      2  C1  UNL d   1       0.316  -1.291  -0.824  0.00  0.00     0.020 A 
ATOM      3  C2  UNL d   1      -0.086  -0.144  -1.511  0.00  0.00     0.034 A 
ATOM      4  C3  UNL d   1      -0.223   1.072  -0.833  0.00  0.00     0.017 A 
ATOM      5  C4  UNL d   1       0.045   1.136   0.540  0.00  0.00     0.017 A 
ATOM      6  C5  UNL d   1       0.447  -0.015   1.223  0.00  0.00     0.034 A 
ATOM      7 Cl   UNL d   1      -0.102   2.601   1.446  0.00  0.00    -0.070 Cl
ATOM      8 Cl1  UNL d   1      -0.724   2.451  -1.746  0.00  0.00    -0.070 Cl
ENDROOT
TORSDOF 0
ENDMDL
