MODEL 1
REMARK minimizedAffinity -0.989830852
REMARK minimizedRMSD -1
REMARK  0 active torsions:
REMARK  status: ('A' for Active; 'I' for Inactive)
ROOT
ATOM      1  C   UNL d   1      -0.246   0.613  -1.488  0.00  0.00     0.020 A 
ATOM      2  C1  UNL d   1       0.395  -0.599  -1.232  0.00  0.00     0.020 A 
ATOM      3  C2  UNL d   1       0.860  -0.884   0.054  0.00  0.00     0.034 A 
ATOM      4  C3  UNL d   1       0.687   0.044   1.087  0.00  0.00     0.017 A 
ATOM      5  C4  UNL d   1       0.044   1.260   0.828  0.00  0.00     0.017 A 
ATOM      6  C5  UNL d   1      -0.420   1.540  -0.461  0.00  0.00     0.034 A 
ATOM      7 Cl   UNL d   1      -0.207   2.455   2.052  0.00  0.00    -0.070 Cl
ATOM      8 Cl1  UNL d   1       1.288  -0.374   2.652  0.00  0.00    -0.070 Cl
ENDROOT
TORSDOF 0
ENDMDL
