MODEL 1
REMARK minimizedAffinity 2.30900192
REMARK minimizedRMSD -1
REMARK  0 active torsions:
REMARK  status: ('A' for Active; 'I' for Inactive)
ROOT
ATOM      1  C   UNL d   1       0.638   0.126  -1.217  0.00  0.00     0.020 A 
ATOM      2  C1  UNL d   1       1.534  -0.712  -0.555  0.00  0.00     0.020 A 
ATOM      3  C2  UNL d   1       1.294  -2.087  -0.501  0.00  0.00     0.034 A 
ATOM      4  C3  UNL d   1       0.156  -2.627  -1.110  0.00  0.00     0.017 A 
ATOM      5  C4  UNL d   1      -0.743  -1.784  -1.775  0.00  0.00     0.017 A 
ATOM      6  C5  UNL d   1      -0.498  -0.409  -1.826  0.00  0.00     0.034 A 
ATOM      7 Cl   UNL d   1      -2.169  -2.377  -2.550  0.00  0.00    -0.070 Cl
ATOM      8 Cl1  UNL d   1      -0.078  -4.336  -1.005  0.00  0.00    -0.070 Cl
ENDROOT
TORSDOF 0
ENDMDL
