MODEL 1
REMARK minimizedAffinity -4.56544876
REMARK minimizedRMSD -1
REMARK  0 active torsions:
REMARK  status: ('A' for Active; 'I' for Inactive)
ROOT
ATOM      1  C   UNL d   1      -1.605   2.873   0.891  0.00  0.00     0.020 A 
ATOM      2  C1  UNL d   1      -1.175   2.032   1.916  0.00  0.00     0.020 A 
ATOM      3  C2  UNL d   1      -0.298   0.982   1.636  0.00  0.00     0.034 A 
ATOM      4  C3  UNL d   1       0.152   0.771   0.327  0.00  0.00     0.017 A 
ATOM      5  C4  UNL d   1      -0.281   1.615  -0.701  0.00  0.00     0.017 A 
ATOM      6  C5  UNL d   1      -1.159   2.665  -0.415  0.00  0.00     0.034 A 
ATOM      7 Cl   UNL d   1       0.230   1.417  -2.341  0.00  0.00    -0.070 Cl
ATOM      8 Cl1  UNL d   1       1.236  -0.547   0.053  0.00  0.00    -0.070 Cl
ENDROOT
TORSDOF 0
ENDMDL
