MODEL 1
REMARK minimizedAffinity 0.645527244
REMARK minimizedRMSD -1
REMARK  0 active torsions:
REMARK  status: ('A' for Active; 'I' for Inactive)
ROOT
ATOM      1  C   UNL d   1      -2.106  -3.276  -3.300  0.00  0.00     0.020 A 
ATOM      2  C1  UNL d   1      -1.318  -4.305  -3.813  0.00  0.00     0.020 A 
ATOM      3  C2  UNL d   1      -0.374  -4.933  -2.998  0.00  0.00     0.034 A 
ATOM      4  C3  UNL d   1      -0.216  -4.534  -1.666  0.00  0.00     0.017 A 
ATOM      5  C4  UNL d   1      -1.008  -3.501  -1.152  0.00  0.00     0.017 A 
ATOM      6  C5  UNL d   1      -1.952  -2.875  -1.972  0.00  0.00     0.034 A 
ATOM      7 Cl   UNL d   1      -0.871  -2.953   0.482  0.00  0.00    -0.070 Cl
ATOM      8 Cl1  UNL d   1       0.971  -5.356  -0.716  0.00  0.00    -0.070 Cl
ENDROOT
TORSDOF 0
ENDMDL
