MODEL 1
REMARK minimizedAffinity 4.92098999
REMARK minimizedRMSD -1
REMARK  1 active torsions:
REMARK  status: ('A' for Active; 'I' for Inactive)
REMARK    1  A    between atoms: C1_2  and  C2_3 
ROOT
ATOM      1  C2  UNL d   1      -2.543  -1.724   0.001  0.00  0.00    -0.081 A 
ATOM      2  C3  UNL d   1      -3.075  -0.767  -0.872  0.00  0.00     0.006 A 
ATOM      3  C4  UNL d   1      -2.620   0.553  -0.839  0.00  0.00     0.002 A 
ATOM      4  C5  UNL d   1      -1.621   0.936   0.062  0.00  0.00    -0.080 A 
ATOM      5  C6  UNL d   1      -1.101   2.343   0.087  0.00  0.00     0.076 C 
ATOM      6  C7  UNL d   1      -1.102  -0.015   0.947  0.00  0.00     0.002 A 
ATOM      7  C8  UNL d   1      -1.557  -1.335   0.914  0.00  0.00     0.006 A 
ENDROOT
BRANCH   1   8
ATOM      8  C1  UNL d   1      -2.986  -3.163  -0.076  0.00  0.00     0.054 C 
ATOM      9  C   UNL d   1      -2.017  -3.996  -0.901  0.00  0.00     0.018 C 
ENDBRANCH   1   8
TORSDOF 1
ENDMDL
