MODEL 1
REMARK minimizedAffinity 7.27692652
REMARK minimizedRMSD -1
REMARK  1 active torsions:
REMARK  status: ('A' for Active; 'I' for Inactive)
REMARK    1  A    between atoms: C1_2  and  C2_3 
ROOT
ATOM      1  C2  UNL d   1       1.588  -2.116   3.680  0.00  0.00    -0.081 A 
ATOM      2  C3  UNL d   1       2.268  -3.255   3.233  0.00  0.00     0.006 A 
ATOM      3  C4  UNL d   1       2.775  -3.312   1.933  0.00  0.00     0.002 A 
ATOM      4  C5  UNL d   1       2.617  -2.230   1.061  0.00  0.00    -0.080 A 
ATOM      5  C6  UNL d   1       3.183  -2.266  -0.327  0.00  0.00     0.076 C 
ATOM      6  C7  UNL d   1       1.922  -1.098   1.502  0.00  0.00     0.002 A 
ATOM      7  C8  UNL d   1       1.415  -1.041   2.802  0.00  0.00     0.006 A 
ENDROOT
BRANCH   1   8
ATOM      8  C1  UNL d   1       1.096  -2.025   5.102  0.00  0.00     0.054 C 
ATOM      9  C   UNL d   1       1.812  -3.025   6.000  0.00  0.00     0.018 C 
ENDBRANCH   1   8
TORSDOF 1
ENDMDL
