MODEL 1
REMARK minimizedAffinity 8.34367752
REMARK minimizedRMSD -1
REMARK  1 active torsions:
REMARK  status: ('A' for Active; 'I' for Inactive)
REMARK    1  A    between atoms: C1_2  and  C2_3 
ROOT
ATOM      1  C2  UNL d   1       1.255  -1.161   2.647  0.00  0.00    -0.081 A 
ATOM      2  C3  UNL d   1       0.963  -0.762   3.957  0.00  0.00     0.006 A 
ATOM      3  C4  UNL d   1       1.472  -1.475   5.045  0.00  0.00     0.002 A 
ATOM      4  C5  UNL d   1       2.288  -2.593   4.841  0.00  0.00    -0.080 A 
ATOM      5  C6  UNL d   1       2.866  -3.350   6.000  0.00  0.00     0.076 C 
ATOM      6  C7  UNL d   1       2.565  -3.003   3.532  0.00  0.00     0.002 A 
ATOM      7  C8  UNL d   1       2.055  -2.291   2.444  0.00  0.00     0.006 A 
ENDROOT
BRANCH   1   8
ATOM      8  C1  UNL d   1       0.760  -0.357   1.472  0.00  0.00     0.054 C 
ATOM      9  C   UNL d   1      -0.642  -0.783   1.060  0.00  0.00     0.018 C 
ENDBRANCH   1   8
TORSDOF 1
ENDMDL
