MODEL 1
REMARK minimizedAffinity 16.2740269
REMARK minimizedRMSD -1
REMARK  1 active torsions:
REMARK  status: ('A' for Active; 'I' for Inactive)
REMARK    1  A    between atoms: C1_2  and  C2_3 
ROOT
ATOM      1  C2  UNL d   1       0.240   0.265   1.757  0.00  0.00    -0.081 A 
ATOM      2  C3  UNL d   1       0.491   1.606   1.441  0.00  0.00     0.006 A 
ATOM      3  C4  UNL d   1      -0.474   2.370   0.781  0.00  0.00     0.002 A 
ATOM      4  C5  UNL d   1      -1.708   1.809   0.433  0.00  0.00    -0.080 A 
ATOM      5  C6  UNL d   1      -2.764   2.627  -0.250  0.00  0.00     0.076 C 
ATOM      6  C7  UNL d   1      -1.951   0.465   0.733  0.00  0.00     0.002 A 
ATOM      7  C8  UNL d   1      -0.987  -0.300   1.392  0.00  0.00     0.006 A 
ENDROOT
BRANCH   1   8
ATOM      8  C1  UNL d   1       1.253  -0.543   2.527  0.00  0.00     0.054 C 
ATOM      9  C   UNL d   1       0.988  -0.482   4.025  0.00  0.00     0.018 C 
ENDBRANCH   1   8
TORSDOF 1
ENDMDL
