MODEL 1
REMARK minimizedAffinity 3.90514064
REMARK minimizedRMSD -1
REMARK  1 active torsions:
REMARK  status: ('A' for Active; 'I' for Inactive)
REMARK    1  A    between atoms: C1_2  and  C2_3 
ROOT
ATOM      1  C2  UNL d   1       2.136  -3.569   2.950  0.00  0.00    -0.081 A 
ATOM      2  C3  UNL d   1       1.587  -2.803   3.986  0.00  0.00     0.006 A 
ATOM      3  C4  UNL d   1       1.106  -1.516   3.737  0.00  0.00     0.002 A 
ATOM      4  C5  UNL d   1       1.158  -0.976   2.447  0.00  0.00    -0.080 A 
ATOM      5  C6  UNL d   1       0.617   0.393   2.159  0.00  0.00     0.076 C 
ATOM      6  C7  UNL d   1       1.722  -1.735   1.416  0.00  0.00     0.002 A 
ATOM      7  C8  UNL d   1       2.204  -3.022   1.665  0.00  0.00     0.006 A 
ENDROOT
BRANCH   1   8
ATOM      8  C1  UNL d   1       2.596  -4.982   3.203  0.00  0.00     0.054 C 
ATOM      9  C   UNL d   1       1.473  -5.981   2.963  0.00  0.00     0.018 C 
ENDBRANCH   1   8
TORSDOF 1
ENDMDL
