MODEL 1
REMARK minimizedAffinity 9.34057617
REMARK minimizedRMSD -1
REMARK  0 active torsions:
REMARK  status: ('A' for Active; 'I' for Inactive)
ROOT
ATOM      1  C   UNL d   1       5.384  -2.588  -0.354  0.00  0.00    -0.002 A 
ATOM      2  C1  UNL d   1       5.399  -3.897  -0.813  0.00  0.00     0.010 A 
ATOM      3  C2  UNL d   1       4.205  -4.592  -1.017  0.00  0.00     0.041 A 
ATOM      4  C3  UNL d   1       2.984  -3.941  -0.752  0.00  0.00    -0.075 A 
ATOM      5  S   UNL d   1       1.398  -4.594  -0.930  0.00  0.00     0.015 SA
ATOM      6  C4  UNL d   1       0.664  -3.150  -0.402  0.00  0.00     0.022 A 
ATOM      7  C5  UNL d   1       1.591  -2.183  -0.093  0.00  0.00     0.026 A 
ATOM      8  C6  UNL d   1       2.943  -2.623  -0.290  0.00  0.00    -0.082 A 
ATOM      9  C7  UNL d   1       4.171  -1.946  -0.092  0.00  0.00     0.045 A 
ENDROOT
TORSDOF 0
ENDMDL
