MODEL 1
REMARK minimizedAffinity 16.676569
REMARK minimizedRMSD -1
REMARK  0 active torsions:
REMARK  status: ('A' for Active; 'I' for Inactive)
ROOT
ATOM      1  C   UNL d   1      -2.186   5.994  -1.806  0.00  0.00    -0.002 A 
ATOM      2  C1  UNL d   1      -2.397   4.830  -2.533  0.00  0.00     0.010 A 
ATOM      3  C2  UNL d   1      -1.758   3.642  -2.172  0.00  0.00     0.041 A 
ATOM      4  C3  UNL d   1      -0.896   3.643  -1.058  0.00  0.00    -0.075 A 
ATOM      5  S   UNL d   1      -0.006   2.306  -0.431  0.00  0.00     0.015 SA
ATOM      6  C4  UNL d   1       0.674   3.248   0.816  0.00  0.00     0.022 A 
ATOM      7  C5  UNL d   1       0.244   4.553   0.770  0.00  0.00     0.026 A 
ATOM      8  C6  UNL d   1      -0.668   4.802  -0.310  0.00  0.00    -0.082 A 
ATOM      9  C7  UNL d   1      -1.331   5.991  -0.701  0.00  0.00     0.045 A 
ENDROOT
TORSDOF 0
ENDMDL
