MODEL 1
REMARK minimizedAffinity 0.844764054
REMARK minimizedRMSD -1
REMARK  0 active torsions:
REMARK  status: ('A' for Active; 'I' for Inactive)
ROOT
ATOM      1  O1  BZF d   1      -0.695   1.431   0.987  0.00  0.00    -0.204 OA
ATOM      2  C2  BZF d   1      -0.092   0.932  -0.152  0.00  0.00     0.174 A 
ATOM      3  C3  BZF d   1      -0.954   0.169  -0.855  0.00  0.00    -0.012 A 
ATOM      4  C3A BZF d   1      -2.199   0.268  -0.156  0.00  0.00    -0.107 A 
ATOM      5  C4  BZF d   1      -3.441  -0.255  -0.374  0.00  0.00     0.055 A 
ATOM      6  C5  BZF d   1      -4.424  -0.026   0.537  0.00  0.00    -0.016 A 
ATOM      7  C6  BZF d   1      -4.197   0.717   1.677  0.00  0.00     0.022 A 
ATOM      8  C7  BZF d   1      -2.983   1.261   1.934  0.00  0.00     0.029 A 
ATOM      9  C7A BZF d   1      -1.997   1.058   0.999  0.00  0.00     0.058 A 
ENDROOT
TORSDOF 0
ENDMDL
