MODEL 1
REMARK minimizedAffinity 3.54001307
REMARK minimizedRMSD -1
REMARK  0 active torsions:
REMARK  status: ('A' for Active; 'I' for Inactive)
ROOT
ATOM      1  O1  BZF d   1       0.093  -3.149   2.497  0.00  0.00    -0.204 OA
ATOM      2  C2  BZF d   1       0.438  -2.807   3.790  0.00  0.00     0.174 A 
ATOM      3  C3  BZF d   1       1.620  -2.159   3.814  0.00  0.00    -0.012 A 
ATOM      4  C3A BZF d   1       1.996  -2.011   2.441  0.00  0.00    -0.107 A 
ATOM      5  C4  BZF d   1       3.066  -1.435   1.818  0.00  0.00     0.055 A 
ATOM      6  C5  BZF d   1       3.169  -1.525   0.466  0.00  0.00    -0.016 A 
ATOM      7  C6  BZF d   1       2.226  -2.187  -0.292  0.00  0.00     0.022 A 
ATOM      8  C7  BZF d   1       1.145  -2.770   0.281  0.00  0.00     0.029 A 
ATOM      9  C7A BZF d   1       1.020  -2.652   1.644  0.00  0.00     0.058 A 
ENDROOT
TORSDOF 0
ENDMDL
