MODEL 1
REMARK minimizedAffinity -0.287780404
REMARK minimizedRMSD -1
REMARK  0 active torsions:
REMARK  status: ('A' for Active; 'I' for Inactive)
ROOT
ATOM      1  O1  BZF d   1       0.059   0.975  -0.457  0.00  0.00    -0.204 OA
ATOM      2  C2  BZF d   1       0.735   1.907   0.306  0.00  0.00     0.174 A 
ATOM      3  C3  BZF d   1       1.824   1.357   0.880  0.00  0.00    -0.012 A 
ATOM      4  C3A BZF d   1       1.881   0.019   0.375  0.00  0.00    -0.107 A 
ATOM      5  C4  BZF d   1       2.745  -1.020   0.566  0.00  0.00     0.055 A 
ATOM      6  C5  BZF d   1       2.476  -2.218  -0.017  0.00  0.00    -0.016 A 
ATOM      7  C6  BZF d   1       1.351  -2.413  -0.791  0.00  0.00     0.022 A 
ATOM      8  C7  BZF d   1       0.467  -1.410  -1.013  0.00  0.00     0.029 A 
ATOM      9  C7A BZF d   1       0.753  -0.189  -0.452  0.00  0.00     0.058 A 
ENDROOT
TORSDOF 0
ENDMDL
