MODEL 1
REMARK minimizedAffinity 10.1713877
REMARK minimizedRMSD -1
REMARK  0 active torsions:
REMARK  status: ('A' for Active; 'I' for Inactive)
ROOT
ATOM      1  O1  BZF d   1       2.281  -2.882  -0.123  0.00  0.00    -0.204 OA
ATOM      2  C2  BZF d   1       2.283  -1.594  -0.622  0.00  0.00     0.174 A 
ATOM      3  C3  BZF d   1       1.131  -1.333  -1.273  0.00  0.00    -0.012 A 
ATOM      4  C3A BZF d   1       0.324  -2.501  -1.095  0.00  0.00    -0.107 A 
ATOM      5  C4  BZF d   1      -0.936  -2.842  -1.496  0.00  0.00     0.055 A 
ATOM      6  C5  BZF d   1      -1.402  -4.088  -1.221  0.00  0.00    -0.016 A 
ATOM      7  C6  BZF d   1      -0.635  -5.019  -0.552  0.00  0.00     0.022 A 
ATOM      8  C7  BZF d   1       0.619  -4.726  -0.130  0.00  0.00     0.029 A 
ATOM      9  C7A BZF d   1       1.081  -3.456  -0.378  0.00  0.00     0.058 A 
ENDROOT
TORSDOF 0
ENDMDL
