MODEL 1
REMARK minimizedAffinity 10.8484373
REMARK minimizedRMSD -1
REMARK  0 active torsions:
REMARK  status: ('A' for Active; 'I' for Inactive)
ROOT
ATOM      1  O1  BZF d   1      -2.957   1.181   3.283  0.00  0.00    -0.204 OA
ATOM      2  C2  BZF d   1      -3.913   2.065   2.821  0.00  0.00     0.174 A 
ATOM      3  C3  BZF d   1      -3.334   3.164   2.296  0.00  0.00    -0.012 A 
ATOM      4  C3A BZF d   1      -1.927   2.913   2.355  0.00  0.00    -0.107 A 
ATOM      5  C4  BZF d   1      -0.829   3.628   1.970  0.00  0.00     0.055 A 
ATOM      6  C5  BZF d   1       0.408   3.132   2.235  0.00  0.00    -0.016 A 
ATOM      7  C6  BZF d   1       0.584   1.929   2.888  0.00  0.00     0.022 A 
ATOM      8  C7  BZF d   1      -0.475   1.182   3.285  0.00  0.00     0.029 A 
ATOM      9  C7A BZF d   1      -1.727   1.665   2.989  0.00  0.00     0.058 A 
ENDROOT
TORSDOF 0
ENDMDL
