MODEL 1
REMARK minimizedAffinity -0.267026931
REMARK minimizedRMSD -1
REMARK  0 active torsions:
REMARK  status: ('A' for Active; 'I' for Inactive)
ROOT
ATOM      1  O1  BZF d   1       3.821   4.977   5.957  0.00  0.00    -0.204 OA
ATOM      2  C2  BZF d   1       5.106   5.457   5.796  0.00  0.00     0.174 A 
ATOM      3  C3  BZF d   1       5.721   4.841   4.767  0.00  0.00    -0.012 A 
ATOM      4  C3A BZF d   1       4.729   3.983   4.194  0.00  0.00    -0.107 A 
ATOM      5  C4  BZF d   1       4.731   3.123   3.133  0.00  0.00     0.055 A 
ATOM      6  C5  BZF d   1       3.620   2.380   2.884  0.00  0.00    -0.016 A 
ATOM      7  C6  BZF d   1       2.495   2.468   3.677  0.00  0.00     0.022 A 
ATOM      8  C7  BZF d   1       2.445   3.311   4.737  0.00  0.00     0.029 A 
ATOM      9  C7A BZF d   1       3.553   4.087   4.972  0.00  0.00     0.058 A 
ENDROOT
TORSDOF 0
ENDMDL
