MODEL 1
REMARK minimizedAffinity 5.6530447
REMARK minimizedRMSD -1
REMARK  0 active torsions:
REMARK  status: ('A' for Active; 'I' for Inactive)
ROOT
ATOM      1  O1  BZF d   1       0.128   1.583  -0.426  0.00  0.00    -0.204 OA
ATOM      2  C2  BZF d   1       0.961   2.499   0.186  0.00  0.00     0.174 A 
ATOM      3  C3  BZF d   1       2.083   1.900   0.633  0.00  0.00    -0.012 A 
ATOM      4  C3A BZF d   1       1.985   0.541   0.196  0.00  0.00    -0.107 A 
ATOM      5  C4  BZF d   1       2.802  -0.546   0.320  0.00  0.00     0.055 A 
ATOM      6  C5  BZF d   1       2.380  -1.747  -0.157  0.00  0.00    -0.016 A 
ATOM      7  C6  BZF d   1       1.147  -1.897  -0.757  0.00  0.00     0.022 A 
ATOM      8  C7  BZF d   1       0.304  -0.846  -0.907  0.00  0.00     0.029 A 
ATOM      9  C7A BZF d   1       0.742   0.375  -0.456  0.00  0.00     0.058 A 
ENDROOT
TORSDOF 0
ENDMDL
