MODEL 1
REMARK minimizedAffinity 2.97289181
REMARK minimizedRMSD -1
REMARK  0 active torsions:
REMARK  status: ('A' for Active; 'I' for Inactive)
ROOT
ATOM      1  O1  BZF d   1       0.739  -3.977  -0.600  0.00  0.00    -0.204 OA
ATOM      2  C2  BZF d   1      -0.441  -3.669  -1.249  0.00  0.00     0.174 A 
ATOM      3  C3  BZF d   1      -0.574  -2.335  -1.393  0.00  0.00    -0.012 A 
ATOM      4  C3A BZF d   1       0.639  -1.778  -0.879  0.00  0.00    -0.107 A 
ATOM      5  C4  BZF d   1       1.111  -0.502  -0.763  0.00  0.00     0.055 A 
ATOM      6  C5  BZF d   1       2.305  -0.292  -0.149  0.00  0.00    -0.016 A 
ATOM      7  C6  BZF d   1       3.050  -1.333   0.364  0.00  0.00     0.022 A 
ATOM      8  C7  BZF d   1       2.626  -2.617   0.268  0.00  0.00     0.029 A 
ATOM      9  C7A BZF d   1       1.435  -2.835  -0.381  0.00  0.00     0.058 A 
ENDROOT
TORSDOF 0
ENDMDL
