MODEL 1
REMARK minimizedAffinity 5.63241959
REMARK minimizedRMSD -1
REMARK  0 active torsions:
REMARK  status: ('A' for Active; 'I' for Inactive)
ROOT
ATOM      1  O1  BZF d   1       1.151   0.999  -0.552  0.00  0.00    -0.204 OA
ATOM      2  C2  BZF d   1       1.413   1.992   0.372  0.00  0.00     0.174 A 
ATOM      3  C3  BZF d   1       2.216   1.532   1.353  0.00  0.00    -0.012 A 
ATOM      4  C3A BZF d   1       2.545   0.193   0.973  0.00  0.00    -0.107 A 
ATOM      5  C4  BZF d   1       3.323  -0.779   1.536  0.00  0.00     0.055 A 
ATOM      6  C5  BZF d   1       3.377  -2.004   0.950  0.00  0.00    -0.016 A 
ATOM      7  C6  BZF d   1       2.664  -2.293  -0.195  0.00  0.00     0.022 A 
ATOM      8  C7  BZF d   1       1.883  -1.360  -0.793  0.00  0.00     0.029 A 
ATOM      9  C7A BZF d   1       1.852  -0.111  -0.221  0.00  0.00     0.058 A 
ENDROOT
TORSDOF 0
ENDMDL
