MODEL 1
REMARK minimizedAffinity 0.777239144
REMARK minimizedRMSD -1
REMARK  0 active torsions:
REMARK  status: ('A' for Active; 'I' for Inactive)
ROOT
ATOM      1  O1  BZF d   1       0.694   2.070  -0.918  0.00  0.00    -0.204 OA
ATOM      2  C2  BZF d   1       0.907   0.731  -0.659  0.00  0.00     0.174 A 
ATOM      3  C3  BZF d   1       0.927   0.498   0.670  0.00  0.00    -0.012 A 
ATOM      4  C3A BZF d   1       0.620   1.756   1.277  0.00  0.00    -0.107 A 
ATOM      5  C4  BZF d   1       0.477   2.164   2.572  0.00  0.00     0.055 A 
ATOM      6  C5  BZF d   1       0.248   3.478   2.830  0.00  0.00    -0.016 A 
ATOM      7  C6  BZF d   1       0.161   4.412   1.818  0.00  0.00     0.022 A 
ATOM      8  C7  BZF d   1       0.291   4.055   0.517  0.00  0.00     0.029 A 
ATOM      9  C7A BZF d   1       0.490   2.722   0.252  0.00  0.00     0.058 A 
ENDROOT
TORSDOF 0
ENDMDL
