MODEL 1
REMARK minimizedAffinity 1.91019142
REMARK minimizedRMSD -1
REMARK  0 active torsions:
REMARK  status: ('A' for Active; 'I' for Inactive)
ROOT
ATOM      1  O1  BZF d   1      -0.786   0.222   0.020  0.00  0.00    -0.204 OA
ATOM      2  C2  BZF d   1      -1.328  -1.034  -0.168  0.00  0.00     0.174 A 
ATOM      3  C3  BZF d   1      -0.406  -1.884  -0.664  0.00  0.00    -0.012 A 
ATOM      4  C3A BZF d   1       0.812  -1.134  -0.707  0.00  0.00    -0.107 A 
ATOM      5  C4  BZF d   1       2.087  -1.436  -1.092  0.00  0.00     0.055 A 
ATOM      6  C5  BZF d   1       3.029  -0.457  -1.081  0.00  0.00    -0.016 A 
ATOM      7  C6  BZF d   1       2.731   0.834  -0.697  0.00  0.00     0.022 A 
ATOM      8  C7  BZF d   1       1.481   1.180  -0.303  0.00  0.00     0.029 A 
ATOM      9  C7A BZF d   1       0.534   0.185  -0.281  0.00  0.00     0.058 A 
ENDROOT
TORSDOF 0
ENDMDL
