MODEL 1
REMARK minimizedAffinity 0.277507514
REMARK minimizedRMSD -1
REMARK  0 active torsions:
REMARK  status: ('A' for Active; 'I' for Inactive)
ROOT
ATOM      1  O1  BZF d   1       2.683  -2.183  -0.567  0.00  0.00    -0.204 OA
ATOM      2  C2  BZF d   1       3.491  -1.114  -0.231  0.00  0.00     0.174 A 
ATOM      3  C3  BZF d   1       2.819   0.049  -0.348  0.00  0.00    -0.012 A 
ATOM      4  C3A BZF d   1       1.482  -0.323  -0.696  0.00  0.00    -0.107 A 
ATOM      5  C4  BZF d   1       0.341   0.390  -0.934  0.00  0.00     0.055 A 
ATOM      6  C5  BZF d   1      -0.781  -0.271  -1.323  0.00  0.00    -0.016 A 
ATOM      7  C6  BZF d   1      -0.797  -1.640  -1.489  0.00  0.00     0.022 A 
ATOM      8  C7  BZF d   1       0.309  -2.390  -1.260  0.00  0.00     0.029 A 
ATOM      9  C7A BZF d   1       1.435  -1.729  -0.835  0.00  0.00     0.058 A 
ENDROOT
TORSDOF 0
ENDMDL
