MODEL 1
REMARK minimizedAffinity 14.1085777
REMARK minimizedRMSD -1
REMARK  0 active torsions:
REMARK  status: ('A' for Active; 'I' for Inactive)
ROOT
ATOM      1  O1  BZF d   1       1.793  -2.837  -0.729  0.00  0.00    -0.204 OA
ATOM      2  C2  BZF d   1       2.286  -2.062   0.302  0.00  0.00     0.174 A 
ATOM      3  C3  BZF d   1       1.563  -0.932   0.439  0.00  0.00    -0.012 A 
ATOM      4  C3A BZF d   1       0.498  -1.049  -0.510  0.00  0.00    -0.107 A 
ATOM      5  C4  BZF d   1      -0.559  -0.250  -0.838  0.00  0.00     0.055 A 
ATOM      6  C5  BZF d   1      -1.374  -0.620  -1.860  0.00  0.00    -0.016 A 
ATOM      7  C6  BZF d   1      -1.159  -1.778  -2.578  0.00  0.00     0.022 A 
ATOM      8  C7  BZF d   1      -0.127  -2.606  -2.285  0.00  0.00     0.029 A 
ATOM      9  C7A BZF d   1       0.680  -2.251  -1.232  0.00  0.00     0.058 A 
ENDROOT
TORSDOF 0
ENDMDL
