MODEL 1
REMARK minimizedAffinity -0.208754122
REMARK minimizedRMSD -1
REMARK  0 active torsions:
REMARK  status: ('A' for Active; 'I' for Inactive)
ROOT
ATOM      1  C   UNL d   1      -1.725   0.178   0.209  0.00  0.00     0.172 C 
ATOM      2  N   UNL d   1      -0.310   0.441   0.322  0.00  0.00    -0.070 N 
ATOM      3  C1  UNL d   1       0.306   1.630   0.038  0.00  0.00    -0.004 A 
ATOM      4  C2  UNL d   1       1.655   1.474   0.273  0.00  0.00    -0.047 A 
ATOM      5  C3  UNL d   1       1.857   0.143   0.712  0.00  0.00    -0.047 A 
ATOM      6  C4  UNL d   1       0.624  -0.473   0.733  0.00  0.00    -0.004 A 
ENDROOT
TORSDOF 0
ENDMDL
