MODEL 1
REMARK minimizedAffinity -3.28841424
REMARK minimizedRMSD -1
REMARK  0 active torsions:
REMARK  status: ('A' for Active; 'I' for Inactive)
ROOT
ATOM      1  C   UNL d   1       2.537  -0.817   1.103  0.00  0.00     0.172 C 
ATOM      2  N   UNL d   1       1.521   0.057   0.566  0.00  0.00    -0.070 N 
ATOM      3  C1  UNL d   1       0.314  -0.340   0.057  0.00  0.00    -0.004 A 
ATOM      4  C2  UNL d   1      -0.364   0.789  -0.350  0.00  0.00    -0.047 A 
ATOM      5  C3  UNL d   1       0.465   1.903  -0.077  0.00  0.00    -0.047 A 
ATOM      6  C4  UNL d   1       1.626   1.421   0.490  0.00  0.00    -0.004 A 
ENDROOT
TORSDOF 0
ENDMDL
