MODEL 1
REMARK minimizedAffinity -3.11870146
REMARK minimizedRMSD -1
REMARK  0 active torsions:
REMARK  status: ('A' for Active; 'I' for Inactive)
ROOT
ATOM      1  C   UNL d   1      -4.142   1.811   2.192  0.00  0.00     0.172 C 
ATOM      2  N   UNL d   1      -4.268   0.926   1.058  0.00  0.00    -0.070 N 
ATOM      3  C1  UNL d   1      -5.369   0.170   0.754  0.00  0.00    -0.004 A 
ATOM      4  C2  UNL d   1      -5.093  -0.532  -0.399  0.00  0.00    -0.047 A 
ATOM      5  C3  UNL d   1      -3.782  -0.186  -0.803  0.00  0.00    -0.047 A 
ATOM      6  C4  UNL d   1      -3.294   0.719   0.117  0.00  0.00    -0.004 A 
ENDROOT
TORSDOF 0
ENDMDL
