MODEL 1
REMARK minimizedAffinity -2.25062156
REMARK minimizedRMSD -1
REMARK  0 active torsions:
REMARK  status: ('A' for Active; 'I' for Inactive)
ROOT
ATOM      1  C   UNL d   1      -5.798  -0.457  -0.189  0.00  0.00     0.172 C 
ATOM      2  N   UNL d   1      -4.847   0.133   0.724  0.00  0.00    -0.070 N 
ATOM      3  C1  UNL d   1      -3.551  -0.271   0.899  0.00  0.00    -0.004 A 
ATOM      4  C2  UNL d   1      -2.980   0.543   1.853  0.00  0.00    -0.047 A 
ATOM      5  C3  UNL d   1      -3.968   1.468   2.267  0.00  0.00    -0.047 A 
ATOM      6  C4  UNL d   1      -5.114   1.192   1.552  0.00  0.00    -0.004 A 
ENDROOT
TORSDOF 0
ENDMDL
