MODEL 1
REMARK minimizedAffinity 2.5568831
REMARK minimizedRMSD -1
REMARK  0 active torsions:
REMARK  status: ('A' for Active; 'I' for Inactive)
ROOT
ATOM      1  C   UNL d   1      -1.547   0.747  -2.241  0.00  0.00     0.172 C 
ATOM      2  N   UNL d   1      -0.662   0.552  -1.117  0.00  0.00    -0.070 N 
ATOM      3  C1  UNL d   1      -0.448  -0.632  -0.464  0.00  0.00    -0.004 A 
ATOM      4  C2  UNL d   1       0.461  -0.400   0.545  0.00  0.00    -0.047 A 
ATOM      5  C3  UNL d   1       0.805   0.972   0.498  0.00  0.00    -0.047 A 
ATOM      6  C4  UNL d   1       0.095   1.538  -0.540  0.00  0.00    -0.004 A 
ENDROOT
TORSDOF 0
ENDMDL
