MODEL 1
REMARK minimizedAffinity -3.42650819
REMARK minimizedRMSD -1
REMARK  0 active torsions:
REMARK  status: ('A' for Active; 'I' for Inactive)
ROOT
ATOM      1  C   UNL d   1      -0.429   0.686  -0.374  0.00  0.00     0.172 C 
ATOM      2  N   UNL d   1       0.758   0.776   0.444  0.00  0.00    -0.070 N 
ATOM      3  C1  UNL d   1       1.718   1.748   0.353  0.00  0.00    -0.004 A 
ATOM      4  C2  UNL d   1       2.681   1.480   1.302  0.00  0.00    -0.047 A 
ATOM      5  C3  UNL d   1       2.286   0.305   1.986  0.00  0.00    -0.047 A 
ATOM      6  C4  UNL d   1       1.093  -0.109   1.434  0.00  0.00    -0.004 A 
ENDROOT
TORSDOF 0
ENDMDL
