MODEL 1
REMARK minimizedAffinity -3.42458344
REMARK minimizedRMSD -1
REMARK  0 active torsions:
REMARK  status: ('A' for Active; 'I' for Inactive)
ROOT
ATOM      1  C   UNL d   1      -2.690   1.023   0.946  0.00  0.00     0.172 C 
ATOM      2  N   UNL d   1      -1.297   1.102   0.573  0.00  0.00    -0.070 N 
ATOM      3  C1  UNL d   1      -0.723   2.105  -0.161  0.00  0.00    -0.004 A 
ATOM      4  C2  UNL d   1       0.617   1.813  -0.300  0.00  0.00    -0.047 A 
ATOM      5  C3  UNL d   1       0.856   0.591   0.374  0.00  0.00    -0.047 A 
ATOM      6  C4  UNL d   1      -0.346   0.173   0.905  0.00  0.00    -0.004 A 
ENDROOT
TORSDOF 0
ENDMDL
