MODEL 1
REMARK minimizedAffinity 7.44119215
REMARK minimizedRMSD -1
REMARK  0 active torsions:
REMARK  status: ('A' for Active; 'I' for Inactive)
ROOT
ATOM      1  C1  BNZ d   1       5.989   4.859   4.892  0.00  0.00     0.000 A 
ATOM      2  C2  BNZ d   1       5.999   5.987   4.115  0.00  0.00     0.000 A 
ATOM      3  C3  BNZ d   1       5.406   5.994   2.883  0.00  0.00     0.000 A 
ATOM      4  C4  BNZ d   1       4.840   4.863   2.414  0.00  0.00     0.000 A 
ATOM      5  C5  BNZ d   1       4.830   3.716   3.181  0.00  0.00     0.000 A 
ATOM      6  C6  BNZ d   1       5.394   3.724   4.436  0.00  0.00     0.000 A 
ENDROOT
TORSDOF 0
ENDMDL
