MODEL 1
REMARK minimizedAffinity 7.711905
REMARK minimizedRMSD -1
REMARK  0 active torsions:
REMARK  status: ('A' for Active; 'I' for Inactive)
ROOT
ATOM      1  C1  BNZ d   1       3.579  -5.019   5.950  0.00  0.00     0.000 A 
ATOM      2  C2  BNZ d   1       4.786  -5.667   5.973  0.00  0.00     0.000 A 
ATOM      3  C3  BNZ d   1       5.957  -4.963   6.000  0.00  0.00     0.000 A 
ATOM      4  C4  BNZ d   1       5.923  -3.616   5.962  0.00  0.00     0.000 A 
ATOM      5  C5  BNZ d   1       4.714  -2.948   5.929  0.00  0.00     0.000 A 
ATOM      6  C6  BNZ d   1       3.536  -3.659   5.942  0.00  0.00     0.000 A 
ENDROOT
TORSDOF 0
ENDMDL
