MODEL 1
REMARK minimizedAffinity 6.65307951
REMARK minimizedRMSD -1
REMARK  0 active torsions:
REMARK  status: ('A' for Active; 'I' for Inactive)
ROOT
ATOM      1  C1  BNZ d   1       0.934  -0.324  -3.730  0.00  0.00     0.000 A 
ATOM      2  C2  BNZ d   1       2.304  -0.327  -3.733  0.00  0.00     0.000 A 
ATOM      3  C3  BNZ d   1       3.001  -0.632  -4.868  0.00  0.00     0.000 A 
ATOM      4  C4  BNZ d   1       2.329  -0.972  -5.987  0.00  0.00     0.000 A 
ATOM      5  C5  BNZ d   1       0.948  -0.983  -5.998  0.00  0.00     0.000 A 
ATOM      6  C6  BNZ d   1       0.250  -0.637  -4.864  0.00  0.00     0.000 A 
ENDROOT
TORSDOF 0
ENDMDL
