MODEL 1
REMARK minimizedAffinity -0.283689827
REMARK minimizedRMSD -1
REMARK  0 active torsions:
REMARK  status: ('A' for Active; 'I' for Inactive)
ROOT
ATOM      1  C1  BNZ d   1       1.796   1.274   2.958  0.00  0.00     0.000 A 
ATOM      2  C2  BNZ d   1       2.457   0.165   3.414  0.00  0.00     0.000 A 
ATOM      3  C3  BNZ d   1       1.776  -0.980   3.718  0.00  0.00     0.000 A 
ATOM      4  C4  BNZ d   1       0.432  -1.003   3.604  0.00  0.00     0.000 A 
ATOM      5  C5  BNZ d   1      -0.250   0.111   3.154  0.00  0.00     0.000 A 
ATOM      6  C6  BNZ d   1       0.443   1.249   2.812  0.00  0.00     0.000 A 
ENDROOT
TORSDOF 0
ENDMDL
