MODEL 1
REMARK minimizedAffinity 5.36887026
REMARK minimizedRMSD -1
REMARK  0 active torsions:
REMARK  status: ('A' for Active; 'I' for Inactive)
ROOT
ATOM      1  C1  BNZ d   1       1.488  -1.065   3.672  0.00  0.00     0.000 A 
ATOM      2  C2  BNZ d   1       0.229  -1.548   3.434  0.00  0.00     0.000 A 
ATOM      3  C3  BNZ d   1      -0.784  -0.708   3.062  0.00  0.00     0.000 A 
ATOM      4  C4  BNZ d   1      -0.547   0.616   2.968  0.00  0.00     0.000 A 
ATOM      5  C5  BNZ d   1       0.715   1.119   3.213  0.00  0.00     0.000 A 
ATOM      6  C6  BNZ d   1       1.741   0.267   3.549  0.00  0.00     0.000 A 
ENDROOT
TORSDOF 0
ENDMDL
