MODEL 1
REMARK minimizedAffinity -1.79373896
REMARK minimizedRMSD -1
REMARK  0 active torsions:
REMARK  status: ('A' for Active; 'I' for Inactive)
ROOT
ATOM      1  C   UNL d   1       2.677   3.676   0.134  0.00  0.00     0.172 C 
ATOM      2  N   UNL d   1       1.406   3.721   0.819  0.00  0.00    -0.070 N 
ATOM      3  C1  UNL d   1       0.262   3.083   0.420  0.00  0.00    -0.004 A 
ATOM      4  C2  UNL d   1      -0.725   3.374   1.338  0.00  0.00    -0.047 A 
ATOM      5  C3  UNL d   1      -0.153   4.216   2.321  0.00  0.00    -0.047 A 
ATOM      6  C4  UNL d   1       1.167   4.415   1.975  0.00  0.00    -0.004 A 
ENDROOT
TORSDOF 0
ENDMDL
