MODEL 1
REMARK minimizedAffinity -3.67554235
REMARK minimizedRMSD -1
REMARK  0 active torsions:
REMARK  status: ('A' for Active; 'I' for Inactive)
ROOT
ATOM      1  C   UNL d   1       0.423   0.601  -0.034  0.00  0.00     0.172 C 
ATOM      2  N   UNL d   1      -0.014  -0.764   0.146  0.00  0.00    -0.070 N 
ATOM      3  C1  UNL d   1      -1.270  -1.156   0.526  0.00  0.00    -0.004 A 
ATOM      4  C2  UNL d   1      -1.283  -2.533   0.583  0.00  0.00    -0.047 A 
ATOM      5  C3  UNL d   1       0.011  -2.984   0.225  0.00  0.00    -0.047 A 
ATOM      6  C4  UNL d   1       0.776  -1.868  -0.040  0.00  0.00    -0.004 A 
ENDROOT
TORSDOF 0
ENDMDL
