MODEL 1
REMARK minimizedAffinity -2.97599912
REMARK minimizedRMSD -1
REMARK  0 active torsions:
REMARK  status: ('A' for Active; 'I' for Inactive)
ROOT
ATOM      1  C   UNL d   1       0.652  -1.329  -2.080  0.00  0.00     0.172 C 
ATOM      2  N   UNL d   1       0.537  -0.424  -0.961  0.00  0.00    -0.070 N 
ATOM      3  C1  UNL d   1       0.359  -0.790   0.347  0.00  0.00    -0.004 A 
ATOM      4  C2  UNL d   1       0.299   0.361   1.103  0.00  0.00    -0.047 A 
ATOM      5  C3  UNL d   1       0.445   1.456   0.219  0.00  0.00    -0.047 A 
ATOM      6  C4  UNL d   1       0.591   0.942  -1.052  0.00  0.00    -0.004 A 
ENDROOT
TORSDOF 0
ENDMDL
