MODEL 1
REMARK minimizedAffinity -1.93443942
REMARK minimizedRMSD -1
REMARK  0 active torsions:
REMARK  status: ('A' for Active; 'I' for Inactive)
ROOT
ATOM      1  C   UNL d   1       0.300  -0.551  -2.080  0.00  0.00     0.172 C 
ATOM      2  N   UNL d   1      -0.294  -0.716  -0.774  0.00  0.00    -0.070 N 
ATOM      3  C1  UNL d   1      -0.399   0.257   0.183  0.00  0.00    -0.004 A 
ATOM      4  C2  UNL d   1      -1.024  -0.296   1.280  0.00  0.00    -0.047 A 
ATOM      5  C3  UNL d   1      -1.304  -1.648   0.971  0.00  0.00    -0.047 A 
ATOM      6  C4  UNL d   1      -0.841  -1.882  -0.307  0.00  0.00    -0.004 A 
ENDROOT
TORSDOF 0
ENDMDL
