MODEL 1
REMARK minimizedAffinity -3.69185567
REMARK minimizedRMSD -1
REMARK  0 active torsions:
REMARK  status: ('A' for Active; 'I' for Inactive)
ROOT
ATOM      1  C   UNL d   1       0.678   0.274   0.350  0.00  0.00     0.172 C 
ATOM      2  N   UNL d   1      -0.068  -0.950   0.523  0.00  0.00    -0.070 N 
ATOM      3  C1  UNL d   1       0.166  -2.127  -0.135  0.00  0.00    -0.004 A 
ATOM      4  C2  UNL d   1      -0.758  -3.049   0.308  0.00  0.00    -0.047 A 
ATOM      5  C3  UNL d   1      -1.575  -2.404   1.266  0.00  0.00    -0.047 A 
ATOM      6  C4  UNL d   1      -1.126  -1.105   1.379  0.00  0.00    -0.004 A 
ENDROOT
TORSDOF 0
ENDMDL
