MODEL 1
REMARK minimizedAffinity -3.2318275
REMARK minimizedRMSD -1
REMARK  0 active torsions:
REMARK  status: ('A' for Active; 'I' for Inactive)
ROOT
ATOM      1  C   UNL d   1      -3.230  -2.687   1.244  0.00  0.00     0.172 C 
ATOM      2  N   UNL d   1      -1.828  -2.352   1.173  0.00  0.00    -0.070 N 
ATOM      3  C1  UNL d   1      -0.838  -3.159   0.678  0.00  0.00    -0.004 A 
ATOM      4  C2  UNL d   1       0.355  -2.478   0.786  0.00  0.00    -0.047 A 
ATOM      5  C3  UNL d   1       0.073  -1.218   1.366  0.00  0.00    -0.047 A 
ATOM      6  C4  UNL d   1      -1.286  -1.167   1.595  0.00  0.00    -0.004 A 
ENDROOT
TORSDOF 0
ENDMDL
