MODEL 1
REMARK minimizedAffinity -3.73932123
REMARK minimizedRMSD -1
REMARK  0 active torsions:
REMARK  status: ('A' for Active; 'I' for Inactive)
ROOT
ATOM      1  C   UNL d   1      -1.090   0.576   0.068  0.00  0.00     0.172 C 
ATOM      2  N   UNL d   1      -0.528  -0.741   0.257  0.00  0.00    -0.070 N 
ATOM      3  C1  UNL d   1      -1.188  -1.824   0.774  0.00  0.00    -0.004 A 
ATOM      4  C2  UNL d   1      -0.310  -2.886   0.790  0.00  0.00    -0.047 A 
ATOM      5  C3  UNL d   1       0.921  -2.425   0.265  0.00  0.00    -0.047 A 
ATOM      6  C4  UNL d   1       0.758  -1.094  -0.057  0.00  0.00    -0.004 A 
ENDROOT
TORSDOF 0
ENDMDL
