MODEL 1
REMARK minimizedAffinity -3.04375935
REMARK minimizedRMSD -1
REMARK  0 active torsions:
REMARK  status: ('A' for Active; 'I' for Inactive)
ROOT
ATOM      1  C   UNL d   1      -0.106  -3.344   0.099  0.00  0.00     0.172 C 
ATOM      2  N   UNL d   1      -0.296  -1.950   0.425  0.00  0.00    -0.070 N 
ATOM      3  C1  UNL d   1      -1.257  -1.450   1.263  0.00  0.00    -0.004 A 
ATOM      4  C2  UNL d   1      -1.104  -0.081   1.310  0.00  0.00    -0.047 A 
ATOM      5  C3  UNL d   1      -0.015   0.253   0.471  0.00  0.00    -0.047 A 
ATOM      6  C4  UNL d   1       0.466  -0.923  -0.065  0.00  0.00    -0.004 A 
ENDROOT
TORSDOF 0
ENDMDL
