MODEL 1
REMARK minimizedAffinity -3.3806119
REMARK minimizedRMSD -1
REMARK  0 active torsions:
REMARK  status: ('A' for Active; 'I' for Inactive)
ROOT
ATOM      1  C   UNL d   1       0.343   0.430   0.122  0.00  0.00     0.172 C 
ATOM      2  N   UNL d   1      -0.071  -0.932   0.365  0.00  0.00    -0.070 N 
ATOM      3  C1  UNL d   1      -1.251  -1.317   0.943  0.00  0.00    -0.004 A 
ATOM      4  C2  UNL d   1      -1.266  -2.694   0.995  0.00  0.00    -0.047 A 
ATOM      5  C3  UNL d   1      -0.053  -3.153   0.429  0.00  0.00    -0.047 A 
ATOM      6  C4  UNL d   1       0.669  -2.041   0.048  0.00  0.00    -0.004 A 
ENDROOT
TORSDOF 0
ENDMDL
