MODEL 1
REMARK minimizedAffinity -2.81063676
REMARK minimizedRMSD -1
REMARK  0 active torsions:
REMARK  status: ('A' for Active; 'I' for Inactive)
ROOT
ATOM      1  C   UNL d   1       0.385  -2.615  -0.003  0.00  0.00     0.172 C 
ATOM      2  N   UNL d   1       0.128  -1.252  -0.405  0.00  0.00    -0.070 N 
ATOM      3  C1  UNL d   1      -0.342  -0.255   0.408  0.00  0.00    -0.004 A 
ATOM      4  C2  UNL d   1      -0.451   0.891  -0.350  0.00  0.00    -0.047 A 
ATOM      5  C3  UNL d   1      -0.033   0.571  -1.664  0.00  0.00    -0.047 A 
ATOM      6  C4  UNL d   1       0.320  -0.761  -1.670  0.00  0.00    -0.004 A 
ENDROOT
TORSDOF 0
ENDMDL
