MODEL 1
REMARK minimizedAffinity -2.19254088
REMARK minimizedRMSD -1
REMARK  0 active torsions:
REMARK  status: ('A' for Active; 'I' for Inactive)
ROOT
ATOM      1  C   UNL d   1      -0.173   0.325  -0.085  0.00  0.00     0.172 C 
ATOM      2  N   UNL d   1      -0.786  -0.930   0.284  0.00  0.00    -0.070 N 
ATOM      3  C1  UNL d   1      -0.842  -2.052  -0.499  0.00  0.00    -0.004 A 
ATOM      4  C2  UNL d   1      -1.506  -3.029   0.211  0.00  0.00    -0.047 A 
ATOM      5  C3  UNL d   1      -1.862  -2.475   1.463  0.00  0.00    -0.047 A 
ATOM      6  C4  UNL d   1      -1.404  -1.174   1.482  0.00  0.00    -0.004 A 
ENDROOT
TORSDOF 0
ENDMDL
