MODEL 1
REMARK minimizedAffinity -3.52449226
REMARK minimizedRMSD -1
REMARK  0 active torsions:
REMARK  status: ('A' for Active; 'I' for Inactive)
ROOT
ATOM      1  C   UNL d   1       0.283  -1.684  -2.512  0.00  0.00     0.172 C 
ATOM      2  N   UNL d   1      -0.309  -1.656  -1.195  0.00  0.00    -0.070 N 
ATOM      3  C1  UNL d   1      -0.852  -2.730  -0.541  0.00  0.00    -0.004 A 
ATOM      4  C2  UNL d   1      -1.307  -2.292   0.684  0.00  0.00    -0.047 A 
ATOM      5  C3  UNL d   1      -1.028  -0.907   0.769  0.00  0.00    -0.047 A 
ATOM      6  C4  UNL d   1      -0.410  -0.540  -0.408  0.00  0.00    -0.004 A 
ENDROOT
TORSDOF 0
ENDMDL
