MODEL 1
REMARK minimizedAffinity -3.52093768
REMARK minimizedRMSD -1
REMARK  0 active torsions:
REMARK  status: ('A' for Active; 'I' for Inactive)
ROOT
ATOM      1  C   UNL d   1       0.148   0.571  -0.393  0.00  0.00     0.172 C 
ATOM      2  N   UNL d   1       0.056  -0.787   0.092  0.00  0.00    -0.070 N 
ATOM      3  C1  UNL d   1       0.923  -1.803  -0.211  0.00  0.00    -0.004 A 
ATOM      4  C2  UNL d   1       0.492  -2.935   0.446  0.00  0.00    -0.047 A 
ATOM      5  C3  UNL d   1      -0.675  -2.587   1.169  0.00  0.00    -0.047 A 
ATOM      6  C4  UNL d   1      -0.921  -1.251   0.931  0.00  0.00    -0.004 A 
ENDROOT
TORSDOF 0
ENDMDL
