MODEL 1
REMARK minimizedAffinity -3.42033029
REMARK minimizedRMSD -1
REMARK  0 active torsions:
REMARK  status: ('A' for Active; 'I' for Inactive)
ROOT
ATOM      1  C   UNL d   1      -0.026   0.497  -1.055  0.00  0.00     0.172 C 
ATOM      2  N   UNL d   1      -0.095  -0.597  -0.116  0.00  0.00    -0.070 N 
ATOM      3  C1  UNL d   1       0.842  -1.585   0.029  0.00  0.00    -0.004 A 
ATOM      4  C2  UNL d   1       0.409  -2.434   1.025  0.00  0.00    -0.047 A 
ATOM      5  C3  UNL d   1      -0.830  -1.939   1.495  0.00  0.00    -0.047 A 
ATOM      6  C4  UNL d   1      -1.119  -0.801   0.771  0.00  0.00    -0.004 A 
ENDROOT
TORSDOF 0
ENDMDL
