MODEL 1
REMARK minimizedAffinity 17.336895
REMARK minimizedRMSD -1
REMARK  0 active torsions:
REMARK  status: ('A' for Active; 'I' for Inactive)
ROOT
ATOM      1  C   UNL d   1      -5.999  -2.149  -4.508  0.00  0.00     0.077 C 
ATOM      2  C1  UNL d   1      -5.178  -3.131  -3.725  0.00  0.00    -0.074 A 
ATOM      3  C2  UNL d   1      -5.776  -4.226  -3.094  0.00  0.00    -0.005 A 
ATOM      4  C3  UNL d   1      -4.998  -5.136  -2.378  0.00  0.00     0.006 A 
ATOM      5  C4  UNL d   1      -3.616  -4.959  -2.286  0.00  0.00    -0.005 A 
ATOM      6  C5  UNL d   1      -3.001  -3.870  -2.911  0.00  0.00    -0.074 A 
ATOM      7  C6  UNL d   1      -1.517  -3.671  -2.830  0.00  0.00     0.077 C 
ATOM      8  C7  UNL d   1      -3.789  -2.965  -3.635  0.00  0.00    -0.001 A 
ENDROOT
TORSDOF 0
ENDMDL
