MODEL 1
REMARK minimizedAffinity 16.1130676
REMARK minimizedRMSD -1
REMARK  0 active torsions:
REMARK  status: ('A' for Active; 'I' for Inactive)
ROOT
ATOM      1  C   UNL d   1      -2.283  -6.000   1.519  0.00  0.00     0.077 C 
ATOM      2  C1  UNL d   1      -1.874  -4.568   1.336  0.00  0.00    -0.074 A 
ATOM      3  C2  UNL d   1      -1.111  -3.909   2.306  0.00  0.00    -0.005 A 
ATOM      4  C3  UNL d   1      -0.730  -2.581   2.117  0.00  0.00     0.006 A 
ATOM      5  C4  UNL d   1      -1.107  -1.899   0.959  0.00  0.00    -0.005 A 
ATOM      6  C5  UNL d   1      -1.868  -2.542  -0.022  0.00  0.00    -0.074 A 
ATOM      7  C6  UNL d   1      -2.273  -1.827  -1.276  0.00  0.00     0.077 C 
ATOM      8  C7  UNL d   1      -2.242  -3.879   0.172  0.00  0.00    -0.001 A 
ENDROOT
TORSDOF 0
ENDMDL
