MODEL 1
REMARK minimizedAffinity 17.8144855
REMARK minimizedRMSD -1
REMARK  0 active torsions:
REMARK  status: ('A' for Active; 'I' for Inactive)
ROOT
ATOM      1  C   UNL d   1       1.495   0.938   1.433  0.00  0.00     0.077 C 
ATOM      2  C1  UNL d   1       0.591   0.067   2.253  0.00  0.00    -0.074 A 
ATOM      3  C2  UNL d   1       0.501   0.228   3.640  0.00  0.00    -0.005 A 
ATOM      4  C3  UNL d   1      -0.351  -0.583   4.388  0.00  0.00     0.006 A 
ATOM      5  C4  UNL d   1      -1.120  -1.564   3.760  0.00  0.00    -0.005 A 
ATOM      6  C5  UNL d   1      -1.043  -1.740   2.374  0.00  0.00    -0.074 A 
ATOM      7  C6  UNL d   1      -1.870  -2.782   1.681  0.00  0.00     0.077 C 
ATOM      8  C7  UNL d   1      -0.190  -0.915   1.628  0.00  0.00    -0.001 A 
ENDROOT
TORSDOF 0
ENDMDL
