MODEL 1
REMARK minimizedAffinity 4.78650045
REMARK minimizedRMSD -1
REMARK  0 active torsions:
REMARK  status: ('A' for Active; 'I' for Inactive)
ROOT
ATOM      1  C   UNL d   1       1.249   1.941   1.764  0.00  0.00     0.077 C 
ATOM      2  C1  UNL d   1       0.570   0.724   2.319  0.00  0.00    -0.074 A 
ATOM      3  C2  UNL d   1       0.631   0.427   3.684  0.00  0.00    -0.005 A 
ATOM      4  C3  UNL d   1      -0.013  -0.703   4.188  0.00  0.00     0.006 A 
ATOM      5  C4  UNL d   1      -0.725  -1.546   3.332  0.00  0.00    -0.005 A 
ATOM      6  C5  UNL d   1      -0.798  -1.264   1.965  0.00  0.00    -0.074 A 
ATOM      7  C6  UNL d   1      -1.567  -2.153   1.033  0.00  0.00     0.077 C 
ATOM      8  C7  UNL d   1      -0.154  -0.122   1.468  0.00  0.00    -0.001 A 
ENDROOT
TORSDOF 0
ENDMDL
