MODEL 1
REMARK minimizedAffinity 13.4873819
REMARK minimizedRMSD -1
REMARK  0 active torsions:
REMARK  status: ('A' for Active; 'I' for Inactive)
ROOT
ATOM      1  C   UNL d   1       3.124   2.860  -2.642  0.00  0.00     0.077 C 
ATOM      2  C1  UNL d   1       3.041   3.958  -3.660  0.00  0.00    -0.074 A 
ATOM      3  C2  UNL d   1       4.169   4.712  -3.997  0.00  0.00    -0.005 A 
ATOM      4  C3  UNL d   1       4.079   5.724  -4.954  0.00  0.00     0.006 A 
ATOM      5  C4  UNL d   1       2.861   5.990  -5.581  0.00  0.00    -0.005 A 
ATOM      6  C5  UNL d   1       1.723   5.246  -5.258  0.00  0.00    -0.074 A 
ATOM      7  C6  UNL d   1       0.409   5.513  -5.930  0.00  0.00     0.077 C 
ATOM      8  C7  UNL d   1       1.823   4.226  -4.301  0.00  0.00    -0.001 A 
ENDROOT
TORSDOF 0
ENDMDL
