MODEL 1
REMARK minimizedAffinity 7.69854879
REMARK minimizedRMSD -1
REMARK  0 active torsions:
REMARK  status: ('A' for Active; 'I' for Inactive)
ROOT
ATOM      1  C   UNL d   1      -1.127  -2.440  -4.786  0.00  0.00     0.077 C 
ATOM      2  C1  UNL d   1      -1.733  -2.485  -3.415  0.00  0.00    -0.074 A 
ATOM      3  C2  UNL d   1      -2.993  -3.053  -3.205  0.00  0.00    -0.005 A 
ATOM      4  C3  UNL d   1      -3.540  -3.096  -1.922  0.00  0.00     0.006 A 
ATOM      5  C4  UNL d   1      -2.834  -2.572  -0.839  0.00  0.00    -0.005 A 
ATOM      6  C5  UNL d   1      -1.572  -2.000  -1.030  0.00  0.00    -0.074 A 
ATOM      7  C6  UNL d   1      -0.795  -1.441   0.124  0.00  0.00     0.077 C 
ATOM      8  C7  UNL d   1      -1.026  -1.967  -2.321  0.00  0.00    -0.001 A 
ENDROOT
TORSDOF 0
ENDMDL
