MODEL 1
REMARK minimizedAffinity 9.14773178
REMARK minimizedRMSD -1
REMARK  0 active torsions:
REMARK  status: ('A' for Active; 'I' for Inactive)
ROOT
ATOM      1  C   UNL d   1       0.563  -1.372   4.140  0.00  0.00     0.077 C 
ATOM      2  C1  UNL d   1       1.505  -1.035   3.023  0.00  0.00    -0.074 A 
ATOM      3  C2  UNL d   1       1.056  -0.362   1.882  0.00  0.00    -0.005 A 
ATOM      4  C3  UNL d   1       1.946  -0.047   0.855  0.00  0.00     0.006 A 
ATOM      5  C4  UNL d   1       3.292  -0.401   0.959  0.00  0.00    -0.005 A 
ATOM      6  C5  UNL d   1       3.759  -1.074   2.092  0.00  0.00    -0.074 A 
ATOM      7  C6  UNL d   1       5.204  -1.453   2.223  0.00  0.00     0.077 C 
ATOM      8  C7  UNL d   1       2.860  -1.381   3.122  0.00  0.00    -0.001 A 
ENDROOT
TORSDOF 0
ENDMDL
