MODEL 1
REMARK minimizedAffinity 10.1256609
REMARK minimizedRMSD -1
REMARK  0 active torsions:
REMARK  status: ('A' for Active; 'I' for Inactive)
ROOT
ATOM      1  C   UNL d   1      -2.686  -2.293  -1.871  0.00  0.00     0.077 C 
ATOM      2  C1  UNL d   1      -3.332  -3.582  -1.457  0.00  0.00    -0.074 A 
ATOM      3  C2  UNL d   1      -4.259  -4.220  -2.287  0.00  0.00    -0.005 A 
ATOM      4  C3  UNL d   1      -4.845  -5.423  -1.894  0.00  0.00     0.006 A 
ATOM      5  C4  UNL d   1      -4.509  -6.000  -0.668  0.00  0.00    -0.005 A 
ATOM      6  C5  UNL d   1      -3.583  -5.377   0.175  0.00  0.00    -0.074 A 
ATOM      7  C6  UNL d   1      -3.204  -5.988   1.491  0.00  0.00     0.077 C 
ATOM      8  C7  UNL d   1      -2.994  -4.172  -0.231  0.00  0.00    -0.001 A 
ENDROOT
TORSDOF 0
ENDMDL
