MODEL 1
REMARK minimizedAffinity 10.68503
REMARK minimizedRMSD -1
REMARK  0 active torsions:
REMARK  status: ('A' for Active; 'I' for Inactive)
ROOT
ATOM      1  C   UNL d   1      -1.200  -2.123   1.167  0.00  0.00     0.077 C 
ATOM      2  C1  UNL d   1      -1.553  -2.341  -0.274  0.00  0.00    -0.074 A 
ATOM      3  C2  UNL d   1      -2.876  -2.235  -0.715  0.00  0.00    -0.005 A 
ATOM      4  C3  UNL d   1      -3.187  -2.431  -2.061  0.00  0.00     0.006 A 
ATOM      5  C4  UNL d   1      -2.179  -2.735  -2.978  0.00  0.00    -0.005 A 
ATOM      6  C5  UNL d   1      -0.851  -2.845  -2.555  0.00  0.00    -0.074 A 
ATOM      7  C6  UNL d   1       0.245  -3.161  -3.529  0.00  0.00     0.077 C 
ATOM      8  C7  UNL d   1      -0.545  -2.639  -1.203  0.00  0.00    -0.001 A 
ENDROOT
TORSDOF 0
ENDMDL
