MODEL 1
REMARK minimizedAffinity 6.90287733
REMARK minimizedRMSD -1
REMARK  0 active torsions:
REMARK  status: ('A' for Active; 'I' for Inactive)
ROOT
ATOM      1  C   UNL d   1       4.124   2.173  -3.026  0.00  0.00     0.077 C 
ATOM      2  C1  UNL d   1       4.432   0.897  -3.751  0.00  0.00    -0.074 A 
ATOM      3  C2  UNL d   1       5.727   0.619  -4.199  0.00  0.00    -0.005 A 
ATOM      4  C3  UNL d   1       6.000  -0.577  -4.864  0.00  0.00     0.006 A 
ATOM      5  C4  UNL d   1       4.982  -1.506  -5.086  0.00  0.00    -0.005 A 
ATOM      6  C5  UNL d   1       3.681  -1.245  -4.644  0.00  0.00    -0.074 A 
ATOM      7  C6  UNL d   1       2.578  -2.237  -4.865  0.00  0.00     0.077 C 
ATOM      8  C7  UNL d   1       3.416  -0.045  -3.971  0.00  0.00    -0.001 A 
ENDROOT
TORSDOF 0
ENDMDL
