MODEL 1
REMARK minimizedAffinity 4.33551025
REMARK minimizedRMSD -1
REMARK  0 active torsions:
REMARK  status: ('A' for Active; 'I' for Inactive)
ROOT
ATOM      1  C   UNL d   1       0.482   0.710   3.105  0.00  0.00     0.077 C 
ATOM      2  C1  UNL d   1       1.733   0.964   2.318  0.00  0.00    -0.074 A 
ATOM      3  C2  UNL d   1       1.854   2.096   1.505  0.00  0.00    -0.005 A 
ATOM      4  C3  UNL d   1       3.027   2.323   0.786  0.00  0.00     0.006 A 
ATOM      5  C4  UNL d   1       4.090   1.423   0.873  0.00  0.00    -0.005 A 
ATOM      6  C5  UNL d   1       3.988   0.287   1.681  0.00  0.00    -0.074 A 
ATOM      7  C6  UNL d   1       5.124  -0.685   1.793  0.00  0.00     0.077 C 
ATOM      8  C7  UNL d   1       2.808   0.069   2.406  0.00  0.00    -0.001 A 
ENDROOT
TORSDOF 0
ENDMDL
