MODEL 1
REMARK minimizedAffinity 13.9590483
REMARK minimizedRMSD -1
REMARK  0 active torsions:
REMARK  status: ('A' for Active; 'I' for Inactive)
ROOT
ATOM      1  C   UNL d   1      -1.183  -2.235  -5.996  0.00  0.00     0.077 C 
ATOM      2  C1  UNL d   1      -1.538  -2.899  -4.699  0.00  0.00    -0.074 A 
ATOM      3  C2  UNL d   1      -1.035  -4.164  -4.377  0.00  0.00    -0.005 A 
ATOM      4  C3  UNL d   1      -1.366  -4.764  -3.163  0.00  0.00     0.006 A 
ATOM      5  C4  UNL d   1      -2.204  -4.108  -2.260  0.00  0.00    -0.005 A 
ATOM      6  C5  UNL d   1      -2.717  -2.843  -2.564  0.00  0.00    -0.074 A 
ATOM      7  C6  UNL d   1      -3.610  -2.120  -1.601  0.00  0.00     0.077 C 
ATOM      8  C7  UNL d   1      -2.373  -2.243  -3.784  0.00  0.00    -0.001 A 
ENDROOT
TORSDOF 0
ENDMDL
