MODEL 1
REMARK minimizedAffinity 5.43087769
REMARK minimizedRMSD -1
REMARK  0 active torsions:
REMARK  status: ('A' for Active; 'I' for Inactive)
ROOT
ATOM      1  C   UNL d   1       2.275   2.255   1.464  0.00  0.00     0.077 C 
ATOM      2  C1  UNL d   1       3.538   1.579   1.019  0.00  0.00    -0.074 A 
ATOM      3  C2  UNL d   1       4.093   0.533   1.763  0.00  0.00    -0.005 A 
ATOM      4  C3  UNL d   1       5.263  -0.093   1.331  0.00  0.00     0.006 A 
ATOM      5  C4  UNL d   1       5.888   0.320   0.154  0.00  0.00    -0.005 A 
ATOM      6  C5  UNL d   1       5.346   1.363  -0.604  0.00  0.00    -0.074 A 
ATOM      7  C6  UNL d   1       6.000   1.813  -1.877  0.00  0.00     0.077 C 
ATOM      8  C7  UNL d   1       4.167   1.983  -0.167  0.00  0.00    -0.001 A 
ENDROOT
TORSDOF 0
ENDMDL
