MODEL 1
REMARK minimizedAffinity 16.3538017
REMARK minimizedRMSD -1
REMARK  0 active torsions:
REMARK  status: ('A' for Active; 'I' for Inactive)
ROOT
ATOM      1  C   UNL d   1       3.495   0.298   1.490  0.00  0.00     0.077 C 
ATOM      2  C1  UNL d   1       2.281   0.881   2.150  0.00  0.00    -0.074 A 
ATOM      3  C2  UNL d   1       1.856   0.427   3.403  0.00  0.00    -0.005 A 
ATOM      4  C3  UNL d   1       0.731   0.986   4.009  0.00  0.00     0.006 A 
ATOM      5  C4  UNL d   1       0.020   2.003   3.369  0.00  0.00    -0.005 A 
ATOM      6  C5  UNL d   1       0.431   2.470   2.117  0.00  0.00    -0.074 A 
ATOM      7  C6  UNL d   1      -0.315   3.569   1.420  0.00  0.00     0.077 C 
ATOM      8  C7  UNL d   1       1.567   1.909   1.518  0.00  0.00    -0.001 A 
ENDROOT
TORSDOF 0
ENDMDL
