MODEL 1
REMARK minimizedAffinity 13.5330515
REMARK minimizedRMSD -1
REMARK  0 active torsions:
REMARK  status: ('A' for Active; 'I' for Inactive)
ROOT
ATOM      1  C   UNL d   1       4.467  -0.879   1.553  0.00  0.00     0.077 C 
ATOM      2  C1  UNL d   1       3.615   0.176   0.911  0.00  0.00    -0.074 A 
ATOM      3  C2  UNL d   1       2.364   0.508   1.439  0.00  0.00    -0.005 A 
ATOM      4  C3  UNL d   1       1.587   1.498   0.837  0.00  0.00     0.006 A 
ATOM      5  C4  UNL d   1       2.053   2.165  -0.297  0.00  0.00    -0.005 A 
ATOM      6  C5  UNL d   1       3.303   1.846  -0.838  0.00  0.00    -0.074 A 
ATOM      7  C6  UNL d   1       3.823   2.560  -2.051  0.00  0.00     0.077 C 
ATOM      8  C7  UNL d   1       4.080   0.855  -0.224  0.00  0.00    -0.001 A 
ENDROOT
TORSDOF 0
ENDMDL
