MODEL 1
REMARK minimizedAffinity 15.7093334
REMARK minimizedRMSD -1
REMARK  0 active torsions:
REMARK  status: ('A' for Active; 'I' for Inactive)
ROOT
ATOM      1  C   UNL d   1       0.642  -0.065   4.347  0.00  0.00     0.077 C 
ATOM      2  C1  UNL d   1       1.166   0.515   3.068  0.00  0.00    -0.074 A 
ATOM      3  C2  UNL d   1       0.762   1.782   2.634  0.00  0.00    -0.005 A 
ATOM      4  C3  UNL d   1       1.265   2.313   1.447  0.00  0.00     0.006 A 
ATOM      5  C4  UNL d   1       2.177   1.584   0.682  0.00  0.00    -0.005 A 
ATOM      6  C5  UNL d   1       2.594   0.316   1.100  0.00  0.00    -0.074 A 
ATOM      7  C6  UNL d   1       3.580  -0.477   0.295  0.00  0.00     0.077 C 
ATOM      8  C7  UNL d   1       2.088  -0.208   2.298  0.00  0.00    -0.001 A 
ENDROOT
TORSDOF 0
ENDMDL
