MODEL 1
REMARK minimizedAffinity 15.0972481
REMARK minimizedRMSD -1
REMARK  0 active torsions:
REMARK  status: ('A' for Active; 'I' for Inactive)
ROOT
ATOM      1  C   UNL d   1      -2.226  -2.306   0.728  0.00  0.00     0.077 C 
ATOM      2  C1  UNL d   1      -2.496  -2.553  -0.727  0.00  0.00    -0.074 A 
ATOM      3  C2  UNL d   1      -1.501  -2.345  -1.688  0.00  0.00    -0.005 A 
ATOM      4  C3  UNL d   1      -1.763  -2.587  -3.036  0.00  0.00     0.006 A 
ATOM      5  C4  UNL d   1      -3.021  -3.039  -3.437  0.00  0.00    -0.005 A 
ATOM      6  C5  UNL d   1      -4.028  -3.253  -2.491  0.00  0.00    -0.074 A 
ATOM      7  C6  UNL d   1      -5.383  -3.748  -2.903  0.00  0.00     0.077 C 
ATOM      8  C7  UNL d   1      -3.755  -3.014  -1.137  0.00  0.00    -0.001 A 
ENDROOT
TORSDOF 0
ENDMDL
