MODEL 1
REMARK minimizedAffinity 15.0176506
REMARK minimizedRMSD -1
REMARK  0 active torsions:
REMARK  status: ('A' for Active; 'I' for Inactive)
ROOT
ATOM      1  C   UNL d   1       2.291   2.671  -0.963  0.00  0.00     0.077 C 
ATOM      2  C1  UNL d   1       2.854   2.254  -2.289  0.00  0.00    -0.074 A 
ATOM      3  C2  UNL d   1       2.155   2.499  -3.476  0.00  0.00    -0.005 A 
ATOM      4  C3  UNL d   1       2.696   2.113  -4.703  0.00  0.00     0.006 A 
ATOM      5  C4  UNL d   1       3.938   1.479  -4.755  0.00  0.00    -0.005 A 
ATOM      6  C5  UNL d   1       4.651   1.227  -3.579  0.00  0.00    -0.074 A 
ATOM      7  C6  UNL d   1       5.992   0.555  -3.619  0.00  0.00     0.077 C 
ATOM      8  C7  UNL d   1       4.105   1.623  -2.351  0.00  0.00    -0.001 A 
ENDROOT
TORSDOF 0
ENDMDL
