MODEL 1
REMARK minimizedAffinity -0.775914073
REMARK minimizedRMSD -1
REMARK  0 active torsions:
REMARK  status: ('A' for Active; 'I' for Inactive)
ROOT
ATOM      1  C   UNL d   1       2.312   6.000  -3.822  0.00  0.00     0.077 C 
ATOM      2  C1  UNL d   1       3.243   4.875  -4.162  0.00  0.00    -0.074 A 
ATOM      3  C2  UNL d   1       3.569   4.588  -5.492  0.00  0.00    -0.005 A 
ATOM      4  C3  UNL d   1       4.444   3.544  -5.792  0.00  0.00     0.006 A 
ATOM      5  C4  UNL d   1       5.001   2.777  -4.768  0.00  0.00    -0.005 A 
ATOM      6  C5  UNL d   1       4.688   3.050  -3.433  0.00  0.00    -0.074 A 
ATOM      7  C6  UNL d   1       5.286   2.242  -2.319  0.00  0.00     0.077 C 
ATOM      8  C7  UNL d   1       3.814   4.105  -3.138  0.00  0.00    -0.001 A 
ENDROOT
TORSDOF 0
ENDMDL
