MODEL 1
REMARK minimizedAffinity 9.15938187
REMARK minimizedRMSD -1
REMARK  1 active torsions:
REMARK  status: ('A' for Active; 'I' for Inactive)
REMARK    1  A    between atoms: C1_2  and  C2_3 
ROOT
ATOM      1  C2  UNL d   1       0.899   4.038   1.218  0.00  0.00    -0.076 A 
ATOM      2  C3  UNL d   1       0.410   3.453   0.037  0.00  0.00     0.004 A 
ATOM      3  C4  UNL d   1       0.119   2.091  -0.022  0.00  0.00    -0.003 A 
ATOM      4  C5  UNL d   1       0.312   1.292   1.100  0.00  0.00     0.000 A 
ATOM      5  C6  UNL d   1       0.780   1.859   2.285  0.00  0.00     0.000 A 
ATOM      6  C7  UNL d   1       1.062   3.233   2.366  0.00  0.00    -0.073 A 
ATOM      7  C8  UNL d   1       1.570   3.790   3.668  0.00  0.00     0.078 C 
ENDROOT
BRANCH   1   8
ATOM      8  C1  UNL d   1       1.222   5.515   1.215  0.00  0.00     0.053 C 
ATOM      9  C   UNL d   1       1.758   5.991  -0.127  0.00  0.00     0.018 C 
ENDBRANCH   1   8
TORSDOF 1
ENDMDL
