MODEL 1
REMARK minimizedAffinity 3.33993626
REMARK minimizedRMSD -1
REMARK  1 active torsions:
REMARK  status: ('A' for Active; 'I' for Inactive)
REMARK    1  A    between atoms: C1_2  and  C2_3 
ROOT
ATOM      1  C2  UNL d   1      -4.628   2.762  -4.676  0.00  0.00    -0.076 A 
ATOM      2  C3  UNL d   1      -3.559   2.171  -3.981  0.00  0.00     0.004 A 
ATOM      3  C4  UNL d   1      -2.326   2.812  -3.882  0.00  0.00    -0.003 A 
ATOM      4  C5  UNL d   1      -2.142   4.056  -4.476  0.00  0.00     0.000 A 
ATOM      5  C6  UNL d   1      -3.197   4.665  -5.155  0.00  0.00     0.000 A 
ATOM      6  C7  UNL d   1      -4.452   4.039  -5.250  0.00  0.00    -0.073 A 
ATOM      7  C8  UNL d   1      -5.552   4.739  -5.999  0.00  0.00     0.078 C 
ENDROOT
BRANCH   1   8
ATOM      8  C1  UNL d   1      -5.935   2.007  -4.773  0.00  0.00     0.053 C 
ATOM      9  C   UNL d   1      -5.999   1.109  -6.000  0.00  0.00     0.018 C 
ENDBRANCH   1   8
TORSDOF 1
ENDMDL
