MODEL 1
REMARK minimizedAffinity 7.32253456
REMARK minimizedRMSD -1
REMARK  1 active torsions:
REMARK  status: ('A' for Active; 'I' for Inactive)
REMARK    1  A    between atoms: C1_2  and  C2_3 
ROOT
ATOM      1  C2  UNL d   1      -3.771   4.108  -4.665  0.00  0.00    -0.076 A 
ATOM      2  C3  UNL d   1      -4.355   3.143  -3.826  0.00  0.00     0.004 A 
ATOM      3  C4  UNL d   1      -3.663   2.635  -2.727  0.00  0.00    -0.003 A 
ATOM      4  C5  UNL d   1      -2.377   3.085  -2.449  0.00  0.00     0.000 A 
ATOM      5  C6  UNL d   1      -1.790   4.055  -3.260  0.00  0.00     0.000 A 
ATOM      6  C7  UNL d   1      -2.479   4.589  -4.362  0.00  0.00    -0.073 A 
ATOM      7  C8  UNL d   1      -1.795   5.629  -5.207  0.00  0.00     0.078 C 
ENDROOT
BRANCH   1   8
ATOM      8  C1  UNL d   1      -4.558   4.602  -5.858  0.00  0.00     0.053 C 
ATOM      9  C   UNL d   1      -5.992   4.093  -5.861  0.00  0.00     0.018 C 
ENDBRANCH   1   8
TORSDOF 1
ENDMDL
