MODEL 1
REMARK minimizedAffinity 3.57494378
REMARK minimizedRMSD -1
REMARK  1 active torsions:
REMARK  status: ('A' for Active; 'I' for Inactive)
REMARK    1  A    between atoms: C1_2  and  C2_3 
ROOT
ATOM      1  C2  UNL d   1       0.357   2.065   2.191  0.00  0.00    -0.076 A 
ATOM      2  C3  UNL d   1       0.476   1.069   3.175  0.00  0.00     0.004 A 
ATOM      3  C4  UNL d   1       0.544  -0.279   2.827  0.00  0.00    -0.003 A 
ATOM      4  C5  UNL d   1       0.494  -0.653   1.489  0.00  0.00     0.000 A 
ATOM      5  C6  UNL d   1       0.394   0.323   0.498  0.00  0.00     0.000 A 
ATOM      6  C7  UNL d   1       0.341   1.687   0.831  0.00  0.00    -0.073 A 
ATOM      7  C8  UNL d   1       0.227   2.697  -0.278  0.00  0.00     0.078 C 
ENDROOT
BRANCH   1   8
ATOM      8  C1  UNL d   1       0.260   3.509   2.629  0.00  0.00     0.053 C 
ATOM      9  C   UNL d   1       1.376   3.904   3.583  0.00  0.00     0.018 C 
ENDBRANCH   1   8
TORSDOF 1
ENDMDL
