MODEL 1
REMARK minimizedAffinity 1.76081562
REMARK minimizedRMSD -1
REMARK  1 active torsions:
REMARK  status: ('A' for Active; 'I' for Inactive)
REMARK    1  A    between atoms: C1_2  and  C2_3 
ROOT
ATOM      1  C2  UNL d   1      -3.008   4.055  -5.274  0.00  0.00    -0.076 A 
ATOM      2  C3  UNL d   1      -4.135   4.479  -5.999  0.00  0.00     0.004 A 
ATOM      3  C4  UNL d   1      -5.399   3.956  -5.732  0.00  0.00    -0.003 A 
ATOM      4  C5  UNL d   1      -5.557   3.001  -4.734  0.00  0.00     0.000 A 
ATOM      5  C6  UNL d   1      -4.453   2.581  -3.992  0.00  0.00     0.000 A 
ATOM      6  C7  UNL d   1      -3.174   3.110  -4.238  0.00  0.00    -0.073 A 
ATOM      7  C8  UNL d   1      -2.018   2.617  -3.412  0.00  0.00     0.078 C 
ENDROOT
BRANCH   1   8
ATOM      8  C1  UNL d   1      -1.658   4.637  -5.627  0.00  0.00     0.053 C 
ATOM      9  C   UNL d   1      -1.427   5.999  -4.991  0.00  0.00     0.018 C 
ENDBRANCH   1   8
TORSDOF 1
ENDMDL
