MODEL 1
REMARK minimizedAffinity 0.857247531
REMARK minimizedRMSD -1
REMARK  1 active torsions:
REMARK  status: ('A' for Active; 'I' for Inactive)
REMARK    1  A    between atoms: C1_2  and  C2_3 
ROOT
ATOM      1  C2  UNL d   1       0.361  -0.546   2.333  0.00  0.00    -0.076 A 
ATOM      2  C3  UNL d   1      -0.420  -0.913   3.442  0.00  0.00     0.004 A 
ATOM      3  C4  UNL d   1       0.117  -1.681   4.475  0.00  0.00    -0.003 A 
ATOM      4  C5  UNL d   1       1.443  -2.093   4.414  0.00  0.00     0.000 A 
ATOM      5  C6  UNL d   1       2.237  -1.723   3.329  0.00  0.00     0.000 A 
ATOM      6  C7  UNL d   1       1.716  -0.936   2.288  0.00  0.00    -0.073 A 
ATOM      7  C8  UNL d   1       2.616  -0.571   1.139  0.00  0.00     0.078 C 
ENDROOT
BRANCH   1   8
ATOM      8  C1  UNL d   1      -0.284   0.265   1.231  0.00  0.00     0.053 C 
ATOM      9  C   UNL d   1       0.001   1.753   1.359  0.00  0.00     0.018 C 
ENDBRANCH   1   8
TORSDOF 1
ENDMDL
