MODEL 1
REMARK minimizedAffinity 0.371529847
REMARK minimizedRMSD -1
REMARK  1 active torsions:
REMARK  status: ('A' for Active; 'I' for Inactive)
REMARK    1  A    between atoms: C1_2  and  C2_3 
ROOT
ATOM      1  C2  UNL d   1      -3.293   3.946  -5.063  0.00  0.00    -0.076 A 
ATOM      2  C3  UNL d   1      -4.149   4.801  -5.779  0.00  0.00     0.004 A 
ATOM      3  C4  UNL d   1      -5.483   4.460  -5.998  0.00  0.00    -0.003 A 
ATOM      4  C5  UNL d   1      -5.982   3.260  -5.504  0.00  0.00     0.000 A 
ATOM      5  C6  UNL d   1      -5.151   2.408  -4.776  0.00  0.00     0.000 A 
ATOM      6  C7  UNL d   1      -3.808   2.744  -4.533  0.00  0.00    -0.073 A 
ATOM      7  C8  UNL d   1      -2.955   1.786  -3.747  0.00  0.00     0.078 C 
ENDROOT
BRANCH   1   8
ATOM      8  C1  UNL d   1      -1.849   4.356  -4.880  0.00  0.00     0.053 C 
ATOM      9  C   UNL d   1      -1.504   5.630  -5.637  0.00  0.00     0.018 C 
ENDBRANCH   1   8
TORSDOF 1
ENDMDL
