MODEL 1
REMARK minimizedAffinity 3.50035858
REMARK minimizedRMSD -1
REMARK  1 active torsions:
REMARK  status: ('A' for Active; 'I' for Inactive)
REMARK    1  A    between atoms: C1_2  and  C2_3 
ROOT
ATOM      1  C2  UNL d   1       0.392   1.595   1.853  0.00  0.00    -0.076 A 
ATOM      2  C3  UNL d   1       0.832   0.701   2.845  0.00  0.00     0.004 A 
ATOM      3  C4  UNL d   1       0.857  -0.673   2.612  0.00  0.00    -0.003 A 
ATOM      4  C5  UNL d   1       0.442  -1.175   1.383  0.00  0.00     0.000 A 
ATOM      5  C6  UNL d   1       0.019  -0.301   0.382  0.00  0.00     0.000 A 
ATOM      6  C7  UNL d   1       0.003   1.088   0.595  0.00  0.00    -0.073 A 
ATOM      7  C8  UNL d   1      -0.469   1.983  -0.517  0.00  0.00     0.078 C 
ENDROOT
BRANCH   1   8
ATOM      8  C1  UNL d   1       0.361   3.073   2.173  0.00  0.00     0.053 C 
ATOM      9  C   UNL d   1       1.552   3.513   3.010  0.00  0.00     0.018 C 
ENDBRANCH   1   8
TORSDOF 1
ENDMDL
