MODEL 1
REMARK minimizedAffinity 6.8587389
REMARK minimizedRMSD -1
REMARK  1 active torsions:
REMARK  status: ('A' for Active; 'I' for Inactive)
REMARK    1  A    between atoms: C1_2  and  C2_3 
ROOT
ATOM      1  C2  UNL d   1       0.869   3.977   1.248  0.00  0.00    -0.076 A 
ATOM      2  C3  UNL d   1       0.445   3.354   0.061  0.00  0.00     0.004 A 
ATOM      3  C4  UNL d   1       0.237   1.977   0.009  0.00  0.00    -0.003 A 
ATOM      4  C5  UNL d   1       0.450   1.200   1.142  0.00  0.00     0.000 A 
ATOM      5  C6  UNL d   1       0.854   1.804   2.333  0.00  0.00     0.000 A 
ATOM      6  C7  UNL d   1       1.052   3.193   2.407  0.00  0.00    -0.073 A 
ATOM      7  C8  UNL d   1       1.493   3.791   3.715  0.00  0.00     0.078 C 
ENDROOT
BRANCH   1   8
ATOM      8  C1  UNL d   1       1.104   5.471   1.237  0.00  0.00     0.053 C 
ATOM      9  C   UNL d   1       1.462   5.995  -0.145  0.00  0.00     0.018 C 
ENDBRANCH   1   8
TORSDOF 1
ENDMDL
