MODEL 1
REMARK minimizedAffinity 5.79498863
REMARK minimizedRMSD -1
REMARK  1 active torsions:
REMARK  status: ('A' for Active; 'I' for Inactive)
REMARK    1  A    between atoms: C1_2  and  C2_3 
ROOT
ATOM      1  C2  UNL d   1      -3.834   3.818  -4.403  0.00  0.00    -0.076 A 
ATOM      2  C3  UNL d   1      -3.730   2.490  -3.953  0.00  0.00     0.004 A 
ATOM      3  C4  UNL d   1      -4.512   1.481  -4.511  0.00  0.00    -0.003 A 
ATOM      4  C5  UNL d   1      -5.410   1.782  -5.529  0.00  0.00     0.000 A 
ATOM      5  C6  UNL d   1      -5.514   3.091  -5.999  0.00  0.00     0.000 A 
ATOM      6  C7  UNL d   1      -4.722   4.118  -5.458  0.00  0.00    -0.073 A 
ATOM      7  C8  UNL d   1      -4.879   5.512  -6.000  0.00  0.00     0.078 C 
ENDROOT
BRANCH   1   8
ATOM      8  C1  UNL d   1      -2.980   4.876  -3.741  0.00  0.00     0.053 C 
ATOM      9  C   UNL d   1      -1.605   4.998  -4.379  0.00  0.00     0.018 C 
ENDBRANCH   1   8
TORSDOF 1
ENDMDL
