MODEL 1
REMARK minimizedAffinity -0.468758225
REMARK minimizedRMSD -1
REMARK  1 active torsions:
REMARK  status: ('A' for Active; 'I' for Inactive)
REMARK    1  A    between atoms: C1_2  and  C2_3 
ROOT
ATOM      1  C2  UNL d   1      -4.264   3.604  -4.323  0.00  0.00    -0.076 A 
ATOM      2  C3  UNL d   1      -2.952   3.621  -3.820  0.00  0.00     0.004 A 
ATOM      3  C4  UNL d   1      -1.970   4.422  -4.401  0.00  0.00    -0.003 A 
ATOM      4  C5  UNL d   1      -2.286   5.220  -5.495  0.00  0.00     0.000 A 
ATOM      5  C6  UNL d   1      -3.587   5.229  -5.997  0.00  0.00     0.000 A 
ATOM      6  C7  UNL d   1      -4.592   4.439  -5.412  0.00  0.00    -0.073 A 
ATOM      7  C8  UNL d   1      -5.976   4.483  -5.998  0.00  0.00     0.078 C 
ENDROOT
BRANCH   1   8
ATOM      8  C1  UNL d   1      -5.279   2.694  -3.669  0.00  0.00     0.053 C 
ATOM      9  C   UNL d   1      -6.000   1.807  -4.673  0.00  0.00     0.018 C 
ENDBRANCH   1   8
TORSDOF 1
ENDMDL
