MODEL 1
REMARK minimizedAffinity 3.18011212
REMARK minimizedRMSD -1
REMARK  1 active torsions:
REMARK  status: ('A' for Active; 'I' for Inactive)
REMARK    1  A    between atoms: C1_2  and  C2_3 
ROOT
ATOM      1  C2  UNL d   1      -3.836   3.152  -4.958  0.00  0.00    -0.076 A 
ATOM      2  C3  UNL d   1      -3.771   1.777  -4.675  0.00  0.00     0.004 A 
ATOM      3  C4  UNL d   1      -4.808   0.920  -5.040  0.00  0.00    -0.003 A 
ATOM      4  C5  UNL d   1      -5.927   1.424  -5.694  0.00  0.00     0.000 A 
ATOM      5  C6  UNL d   1      -6.000   2.783  -5.998  0.00  0.00     0.000 A 
ATOM      6  C7  UNL d   1      -4.956   3.658  -5.652  0.00  0.00    -0.073 A 
ATOM      7  C8  UNL d   1      -5.090   5.116  -5.999  0.00  0.00     0.078 C 
ENDROOT
BRANCH   1   8
ATOM      8  C1  UNL d   1      -2.694   4.038  -4.513  0.00  0.00     0.053 C 
ATOM      9  C   UNL d   1      -1.888   4.580  -5.684  0.00  0.00     0.018 C 
ENDBRANCH   1   8
TORSDOF 1
ENDMDL
