MODEL 1
REMARK minimizedAffinity -2.37349892
REMARK minimizedRMSD -1
REMARK  1 active torsions:
REMARK  status: ('A' for Active; 'I' for Inactive)
REMARK    1  A    between atoms: C1_2  and  C2_3 
ROOT
ATOM      1  C2  UNL d   1      -3.426   3.931  -4.416  0.00  0.00    -0.076 A 
ATOM      2  C3  UNL d   1      -2.130   3.671  -3.939  0.00  0.00     0.004 A 
ATOM      3  C4  UNL d   1      -1.021   4.311  -4.489  0.00  0.00    -0.003 A 
ATOM      4  C5  UNL d   1      -1.190   5.223  -5.526  0.00  0.00     0.000 A 
ATOM      5  C6  UNL d   1      -2.471   5.506  -6.000  0.00  0.00     0.000 A 
ATOM      6  C7  UNL d   1      -3.601   4.881  -5.445  0.00  0.00    -0.073 A 
ATOM      7  C8  UNL d   1      -4.958   5.220  -5.999  0.00  0.00     0.078 C 
ENDROOT
BRANCH   1   8
ATOM      8  C1  UNL d   1      -4.589   3.186  -3.799  0.00  0.00     0.053 C 
ATOM      9  C   UNL d   1      -4.878   1.870  -4.504  0.00  0.00     0.018 C 
ENDBRANCH   1   8
TORSDOF 1
ENDMDL
