MODEL 1
REMARK minimizedAffinity 1.11992264
REMARK minimizedRMSD -1
REMARK  1 active torsions:
REMARK  status: ('A' for Active; 'I' for Inactive)
REMARK    1  A    between atoms: C1_2  and  C2_3 
ROOT
ATOM      1  C2  UNL d   1       0.312   0.410   2.307  0.00  0.00    -0.076 A 
ATOM      2  C3  UNL d   1      -0.059   1.645   2.868  0.00  0.00     0.004 A 
ATOM      3  C4  UNL d   1      -0.063   2.809   2.101  0.00  0.00    -0.003 A 
ATOM      4  C5  UNL d   1       0.303   2.756   0.760  0.00  0.00     0.000 A 
ATOM      5  C6  UNL d   1       0.656   1.537   0.183  0.00  0.00     0.000 A 
ATOM      6  C7  UNL d   1       0.650   0.352   0.938  0.00  0.00    -0.073 A 
ATOM      7  C8  UNL d   1       1.046  -0.934   0.267  0.00  0.00     0.078 C 
ENDROOT
BRANCH   1   8
ATOM      8  C1  UNL d   1       0.323  -0.814   3.195  0.00  0.00     0.053 C 
ATOM      9  C   UNL d   1       1.726  -1.196   3.643  0.00  0.00     0.018 C 
ENDBRANCH   1   8
TORSDOF 1
ENDMDL
