MODEL 1
REMARK minimizedAffinity 1.54597497
REMARK minimizedRMSD -1
REMARK  1 active torsions:
REMARK  status: ('A' for Active; 'I' for Inactive)
REMARK    1  A    between atoms: C1_2  and  C2_3 
ROOT
ATOM      1  C2  UNL d   1      -4.379   3.584  -5.046  0.00  0.00    -0.076 A 
ATOM      2  C3  UNL d   1      -3.623   4.348  -5.952  0.00  0.00     0.004 A 
ATOM      3  C4  UNL d   1      -2.300   4.688  -5.674  0.00  0.00    -0.003 A 
ATOM      4  C5  UNL d   1      -1.711   4.268  -4.486  0.00  0.00     0.000 A 
ATOM      5  C6  UNL d   1      -2.441   3.495  -3.584  0.00  0.00     0.000 A 
ATOM      6  C7  UNL d   1      -3.770   3.130  -3.856  0.00  0.00    -0.073 A 
ATOM      7  C8  UNL d   1      -4.512   2.299  -2.845  0.00  0.00     0.078 C 
ENDROOT
BRANCH   1   8
ATOM      8  C1  UNL d   1      -5.818   3.269  -5.388  0.00  0.00     0.053 C 
ATOM      9  C   UNL d   1      -6.000   1.843  -5.885  0.00  0.00     0.018 C 
ENDBRANCH   1   8
TORSDOF 1
ENDMDL
