MODEL 1
REMARK minimizedAffinity 0.381944776
REMARK minimizedRMSD -1
REMARK  1 active torsions:
REMARK  status: ('A' for Active; 'I' for Inactive)
REMARK    1  A    between atoms: C1_2  and  C2_3 
ROOT
ATOM      1  C2  UNL d   1      -4.374   4.086  -5.379  0.00  0.00    -0.076 A 
ATOM      2  C3  UNL d   1      -3.227   4.745  -5.854  0.00  0.00     0.004 A 
ATOM      3  C4  UNL d   1      -1.972   4.488  -5.305  0.00  0.00    -0.003 A 
ATOM      4  C5  UNL d   1      -1.843   3.565  -4.273  0.00  0.00     0.000 A 
ATOM      5  C6  UNL d   1      -2.967   2.888  -3.801  0.00  0.00     0.000 A 
ATOM      6  C7  UNL d   1      -4.237   3.125  -4.354  0.00  0.00    -0.073 A 
ATOM      7  C8  UNL d   1      -5.417   2.371  -3.803  0.00  0.00     0.078 C 
ENDROOT
BRANCH   1   8
ATOM      8  C1  UNL d   1      -5.713   4.426  -5.994  0.00  0.00     0.053 C 
ATOM      9  C   UNL d   1      -5.988   5.922  -5.998  0.00  0.00     0.018 C 
ENDBRANCH   1   8
TORSDOF 1
ENDMDL
