MODEL 1
REMARK minimizedAffinity -2.45649171
REMARK minimizedRMSD -1
REMARK  2 active torsions:
REMARK  status: ('A' for Active; 'I' for Inactive)
REMARK    1  A    between atoms: C1_2  and  C2_3 
REMARK    2  A    between atoms: C2_3  and  C3_4 
ROOT
ATOM      1  C3  UNL d   1       1.285   0.194  -2.566  0.00  0.00    -0.075 A 
ATOM      2  C4  UNL d   1       1.533   1.355  -1.819  0.00  0.00     0.002 A 
ATOM      3  C5  UNL d   1       1.058   1.472  -0.513  0.00  0.00     0.002 A 
ATOM      4  C6  UNL d   1       0.322   0.437   0.059  0.00  0.00    -0.004 A 
ATOM      5  C7  UNL d   1       0.055  -0.714  -0.679  0.00  0.00     0.002 A 
ATOM      6  C8  UNL d   1       0.533  -0.836  -1.985  0.00  0.00     0.002 A 
ENDROOT
BRANCH   1   7
ATOM      7  C2  UNL d   1       1.821   0.050  -3.970  0.00  0.00     0.056 C 
BRANCH   7   8
ATOM      8  C1  UNL d   1       0.897   0.618  -5.053  0.00  0.00     0.007 C 
ATOM      9  C   UNL d   1       1.602   1.579  -6.000  0.00  0.00     0.009 C 
ENDBRANCH   7   8
ENDBRANCH   1   7
TORSDOF 2
ENDMDL
