MODEL 1
REMARK minimizedAffinity -3.70940375
REMARK minimizedRMSD -1
REMARK  2 active torsions:
REMARK  status: ('A' for Active; 'I' for Inactive)
REMARK    1  A    between atoms: C1_2  and  C2_3 
REMARK    2  A    between atoms: C2_3  and  C3_4 
ROOT
ATOM      1  C3  UNL d   1      -0.419   0.126  -0.446  0.00  0.00    -0.075 A 
ATOM      2  C4  UNL d   1      -0.417  -1.227  -0.078  0.00  0.00     0.002 A 
ATOM      3  C5  UNL d   1       0.624  -2.068  -0.475  0.00  0.00     0.002 A 
ATOM      4  C6  UNL d   1       1.667  -1.570  -1.252  0.00  0.00    -0.004 A 
ATOM      5  C7  UNL d   1       1.667  -0.231  -1.637  0.00  0.00     0.002 A 
ATOM      6  C8  UNL d   1       0.630   0.613  -1.237  0.00  0.00     0.002 A 
ENDROOT
BRANCH   1   7
ATOM      7  C2  UNL d   1      -1.526   1.048   0.006  0.00  0.00     0.056 C 
BRANCH   7   8
ATOM      8  C1  UNL d   1      -2.082   0.721   1.396  0.00  0.00     0.007 C 
ATOM      9  C   UNL d   1      -2.008   1.895   2.363  0.00  0.00     0.009 C 
ENDBRANCH   7   8
ENDBRANCH   1   7
TORSDOF 2
ENDMDL
