MODEL 1
REMARK minimizedAffinity -3.28679419
REMARK minimizedRMSD -1
REMARK  2 active torsions:
REMARK  status: ('A' for Active; 'I' for Inactive)
REMARK    1  A    between atoms: C1_2  and  C2_3 
REMARK    2  A    between atoms: C2_3  and  C3_4 
ROOT
ATOM      1  C3  UNL d   1      -2.433   0.179   2.734  0.00  0.00    -0.075 A 
ATOM      2  C4  UNL d   1      -2.265  -0.076   1.365  0.00  0.00     0.002 A 
ATOM      3  C5  UNL d   1      -1.762   0.911   0.517  0.00  0.00     0.002 A 
ATOM      4  C6  UNL d   1      -1.430   2.166   1.023  0.00  0.00    -0.004 A 
ATOM      5  C7  UNL d   1      -1.608   2.436   2.378  0.00  0.00     0.002 A 
ATOM      6  C8  UNL d   1      -2.107   1.449   3.230  0.00  0.00     0.002 A 
ENDROOT
BRANCH   1   7
ATOM      7  C2  UNL d   1      -2.949  -0.894   3.662  0.00  0.00     0.056 C 
BRANCH   7   8
ATOM      8  C1  UNL d   1      -3.440  -2.156   2.944  0.00  0.00     0.007 C 
ATOM      9  C   UNL d   1      -4.493  -2.923   3.733  0.00  0.00     0.009 C 
ENDBRANCH   7   8
ENDBRANCH   1   7
TORSDOF 2
ENDMDL
