MODEL 1
REMARK minimizedAffinity -5.34002733
REMARK minimizedRMSD -1
REMARK  2 active torsions:
REMARK  status: ('A' for Active; 'I' for Inactive)
REMARK    1  A    between atoms: C1_2  and  C2_3 
REMARK    2  A    between atoms: C2_3  and  C3_4 
ROOT
ATOM      1  C3  UNL d   1      -0.140  -0.404   0.207  0.00  0.00    -0.075 A 
ATOM      2  C4  UNL d   1       0.450   0.168  -0.929  0.00  0.00     0.002 A 
ATOM      3  C5  UNL d   1       1.476  -0.494  -1.604  0.00  0.00     0.002 A 
ATOM      4  C6  UNL d   1       1.931  -1.728  -1.146  0.00  0.00    -0.004 A 
ATOM      5  C7  UNL d   1       1.363  -2.298  -0.009  0.00  0.00     0.002 A 
ATOM      6  C8  UNL d   1       0.334  -1.640   0.665  0.00  0.00     0.002 A 
ENDROOT
BRANCH   1   7
ATOM      7  C2  UNL d   1      -1.271   0.294   0.924  0.00  0.00     0.056 C 
BRANCH   7   8
ATOM      8  C1  UNL d   1      -1.370  -0.049   2.415  0.00  0.00     0.007 C 
ATOM      9  C   UNL d   1      -1.139   1.151   3.323  0.00  0.00     0.009 C 
ENDBRANCH   7   8
ENDBRANCH   1   7
TORSDOF 2
ENDMDL
