MODEL 1
REMARK minimizedAffinity -3.90091658
REMARK minimizedRMSD -1
REMARK  2 active torsions:
REMARK  status: ('A' for Active; 'I' for Inactive)
REMARK    1  A    between atoms: C1_2  and  C2_3 
REMARK    2  A    between atoms: C2_3  and  C3_4 
ROOT
ATOM      1  C3  UNL d   1       0.686   0.074  -0.392  0.00  0.00    -0.075 A 
ATOM      2  C4  UNL d   1       1.855   0.820  -0.600  0.00  0.00     0.002 A 
ATOM      3  C5  UNL d   1       2.980   0.229  -1.176  0.00  0.00     0.002 A 
ATOM      4  C6  UNL d   1       2.954  -1.116  -1.541  0.00  0.00    -0.004 A 
ATOM      5  C7  UNL d   1       1.803  -1.871  -1.324  0.00  0.00     0.002 A 
ATOM      6  C8  UNL d   1       0.675  -1.280  -0.751  0.00  0.00     0.002 A 
ENDROOT
BRANCH   1   7
ATOM      7  C2  UNL d   1      -0.544   0.716   0.204  0.00  0.00     0.056 C 
BRANCH   7   8
ATOM      8  C1  UNL d   1      -1.472  -0.267   0.928  0.00  0.00     0.007 C 
ATOM      9  C   UNL d   1      -2.201   0.357   2.110  0.00  0.00     0.009 C 
ENDBRANCH   7   8
ENDBRANCH   1   7
TORSDOF 2
ENDMDL
