MODEL 1
REMARK minimizedAffinity -5.59696913
REMARK minimizedRMSD -1
REMARK  2 active torsions:
REMARK  status: ('A' for Active; 'I' for Inactive)
REMARK    1  A    between atoms: C1_2  and  C2_3 
REMARK    2  A    between atoms: C2_3  and  C3_4 
ROOT
ATOM      1  C3  UNL d   1       0.368   0.231  -0.667  0.00  0.00    -0.075 A 
ATOM      2  C4  UNL d   1       1.042   1.272  -1.322  0.00  0.00     0.002 A 
ATOM      3  C5  UNL d   1       2.224   1.022  -2.021  0.00  0.00     0.002 A 
ATOM      4  C6  UNL d   1       2.750  -0.267  -2.066  0.00  0.00    -0.004 A 
ATOM      5  C7  UNL d   1       2.097  -1.306  -1.405  0.00  0.00     0.002 A 
ATOM      6  C8  UNL d   1       0.913  -1.059  -0.709  0.00  0.00     0.002 A 
ENDROOT
BRANCH   1   7
ATOM      7  C2  UNL d   1      -0.927   0.490   0.066  0.00  0.00     0.056 C 
BRANCH   7   8
ATOM      8  C1  UNL d   1      -1.250  -0.548   1.146  0.00  0.00     0.007 C 
ATOM      9  C   UNL d   1      -2.128   0.001   2.263  0.00  0.00     0.009 C 
ENDBRANCH   7   8
ENDBRANCH   1   7
TORSDOF 2
ENDMDL
