MODEL 1
REMARK minimizedAffinity -4.41701937
REMARK minimizedRMSD -1
REMARK  2 active torsions:
REMARK  status: ('A' for Active; 'I' for Inactive)
REMARK    1  A    between atoms: C1_2  and  C2_3 
REMARK    2  A    between atoms: C2_3  and  C3_4 
ROOT
ATOM      1  C3  UNL d   1      -2.317  -0.644   2.602  0.00  0.00    -0.075 A 
ATOM      2  C4  UNL d   1      -1.418  -0.979   1.578  0.00  0.00     0.002 A 
ATOM      3  C5  UNL d   1      -0.912   0.007   0.731  0.00  0.00     0.002 A 
ATOM      4  C6  UNL d   1      -1.304   1.335   0.888  0.00  0.00    -0.004 A 
ATOM      5  C7  UNL d   1      -2.209   1.675   1.891  0.00  0.00     0.002 A 
ATOM      6  C8  UNL d   1      -2.714   0.692   2.743  0.00  0.00     0.002 A 
ENDROOT
BRANCH   1   7
ATOM      7  C2  UNL d   1      -2.846  -1.702   3.541  0.00  0.00     0.056 C 
BRANCH   7   8
ATOM      8  C1  UNL d   1      -3.959  -2.568   2.941  0.00  0.00     0.007 C 
ATOM      9  C   UNL d   1      -4.199  -3.858   3.715  0.00  0.00     0.009 C 
ENDBRANCH   7   8
ENDBRANCH   1   7
TORSDOF 2
ENDMDL
