MODEL 1
REMARK minimizedAffinity 5.75348711
REMARK minimizedRMSD -1
REMARK  2 active torsions:
REMARK  status: ('A' for Active; 'I' for Inactive)
REMARK    1  A    between atoms: C1_2  and  C2_3 
REMARK    2  A    between atoms: C2_3  and  C3_4 
ROOT
ATOM      1  C3  UNL d   1      -3.049  -1.616   3.275  0.00  0.00    -0.075 A 
ATOM      2  C4  UNL d   1      -2.129  -1.013   4.146  0.00  0.00     0.002 A 
ATOM      3  C5  UNL d   1      -1.236  -0.050   3.676  0.00  0.00     0.002 A 
ATOM      4  C6  UNL d   1      -1.243   0.316   2.332  0.00  0.00    -0.004 A 
ATOM      5  C7  UNL d   1      -2.141  -0.288   1.455  0.00  0.00     0.002 A 
ATOM      6  C8  UNL d   1      -3.039  -1.250   1.922  0.00  0.00     0.002 A 
ENDROOT
BRANCH   1   7
ATOM      7  C2  UNL d   1      -4.037  -2.638   3.782  0.00  0.00     0.056 C 
BRANCH   7   8
ATOM      8  C1  UNL d   1      -5.250  -2.841   2.867  0.00  0.00     0.007 C 
ATOM      9  C   UNL d   1      -5.946  -4.178   3.080  0.00  0.00     0.009 C 
ENDBRANCH   7   8
ENDBRANCH   1   7
TORSDOF 2
ENDMDL
