MODEL 1
REMARK minimizedAffinity -2.10068893
REMARK minimizedRMSD -1
REMARK  2 active torsions:
REMARK  status: ('A' for Active; 'I' for Inactive)
REMARK    1  A    between atoms: C1_2  and  C2_3 
REMARK    2  A    between atoms: C2_3  and  C3_4 
ROOT
ATOM      1  C3  UNL d   1      -1.604  -0.108   1.676  0.00  0.00    -0.075 A 
ATOM      2  C4  UNL d   1      -1.704  -1.425   2.146  0.00  0.00     0.002 A 
ATOM      3  C5  UNL d   1      -2.270  -1.691   3.393  0.00  0.00     0.002 A 
ATOM      4  C6  UNL d   1      -2.733  -0.646   4.189  0.00  0.00    -0.004 A 
ATOM      5  C7  UNL d   1      -2.623   0.668   3.739  0.00  0.00     0.002 A 
ATOM      6  C8  UNL d   1      -2.061   0.937   2.490  0.00  0.00     0.002 A 
ENDROOT
BRANCH   1   7
ATOM      7  C2  UNL d   1      -1.019   0.185   0.315  0.00  0.00     0.056 C 
BRANCH   7   8
ATOM      8  C1  UNL d   1       0.049  -0.818  -0.134  0.00  0.00     0.007 C 
ATOM      9  C   UNL d   1       1.333  -0.154  -0.613  0.00  0.00     0.009 C 
ENDBRANCH   7   8
ENDBRANCH   1   7
TORSDOF 2
ENDMDL
