MODEL 1
REMARK minimizedAffinity -5.9737339
REMARK minimizedRMSD -1
REMARK  2 active torsions:
REMARK  status: ('A' for Active; 'I' for Inactive)
REMARK    1  A    between atoms: C1_2  and  C2_3 
REMARK    2  A    between atoms: C2_3  and  C3_4 
ROOT
ATOM      1  C3  UNL d   1      -2.784   0.152   3.357  0.00  0.00    -0.075 A 
ATOM      2  C4  UNL d   1      -2.248  -1.142   3.420  0.00  0.00     0.002 A 
ATOM      3  C5  UNL d   1      -3.050  -2.225   3.782  0.00  0.00     0.002 A 
ATOM      4  C6  UNL d   1      -4.393  -2.026   4.095  0.00  0.00    -0.004 A 
ATOM      5  C7  UNL d   1      -4.932  -0.742   4.052  0.00  0.00     0.002 A 
ATOM      6  C8  UNL d   1      -4.133   0.342   3.686  0.00  0.00     0.002 A 
ENDROOT
BRANCH   1   7
ATOM      7  C2  UNL d   1      -1.928   1.323   2.937  0.00  0.00     0.056 C 
BRANCH   7   8
ATOM      8  C1  UNL d   1      -2.138   1.758   1.482  0.00  0.00     0.007 C 
ATOM      9  C   UNL d   1      -1.742   0.689   0.473  0.00  0.00     0.009 C 
ENDBRANCH   7   8
ENDBRANCH   1   7
TORSDOF 2
ENDMDL
