MODEL 1
REMARK minimizedAffinity 0.649580657
REMARK minimizedRMSD -1
REMARK  2 active torsions:
REMARK  status: ('A' for Active; 'I' for Inactive)
REMARK    1  A    between atoms: C1_2  and  C2_3 
REMARK    2  A    between atoms: C2_3  and  C3_4 
ROOT
ATOM      1  C3  UNL d   1      -0.516  -0.531  -0.480  0.00  0.00    -0.075 A 
ATOM      2  C4  UNL d   1      -0.295   0.288  -1.597  0.00  0.00     0.002 A 
ATOM      3  C5  UNL d   1       0.751   0.017  -2.479  0.00  0.00     0.002 A 
ATOM      4  C6  UNL d   1       1.595  -1.068  -2.250  0.00  0.00    -0.004 A 
ATOM      5  C7  UNL d   1       1.395  -1.879  -1.135  0.00  0.00     0.002 A 
ATOM      6  C8  UNL d   1       0.345  -1.612  -0.254  0.00  0.00     0.002 A 
ENDROOT
BRANCH   1   7
ATOM      7  C2  UNL d   1      -1.665  -0.259   0.461  0.00  0.00     0.056 C 
BRANCH   7   8
ATOM      8  C1  UNL d   1      -1.400  -0.688   1.908  0.00  0.00     0.007 C 
ATOM      9  C   UNL d   1      -2.672  -0.845   2.731  0.00  0.00     0.009 C 
ENDBRANCH   7   8
ENDBRANCH   1   7
TORSDOF 2
ENDMDL
