MODEL 1
REMARK minimizedAffinity -5.27868795
REMARK minimizedRMSD -1
REMARK  2 active torsions:
REMARK  status: ('A' for Active; 'I' for Inactive)
REMARK    1  A    between atoms: C1_2  and  C2_3 
REMARK    2  A    between atoms: C2_3  and  C3_4 
ROOT
ATOM      1  C3  UNL d   1      -0.122   0.242  -0.445  0.00  0.00    -0.075 A 
ATOM      2  C4  UNL d   1       0.008  -1.154  -0.490  0.00  0.00     0.002 A 
ATOM      3  C5  UNL d   1       1.173  -1.741  -0.983  0.00  0.00     0.002 A 
ATOM      4  C6  UNL d   1       2.217  -0.943  -1.446  0.00  0.00    -0.004 A 
ATOM      5  C7  UNL d   1       2.092   0.445  -1.421  0.00  0.00     0.002 A 
ATOM      6  C8  UNL d   1       0.929   1.035  -0.924  0.00  0.00     0.002 A 
ENDROOT
BRANCH   1   7
ATOM      7  C2  UNL d   1      -1.369   0.884   0.114  0.00  0.00     0.056 C 
BRANCH   7   8
ATOM      8  C1  UNL d   1      -1.889   0.224   1.396  0.00  0.00     0.007 C 
ATOM      9  C   UNL d   1      -2.002   1.192   2.566  0.00  0.00     0.009 C 
ENDBRANCH   7   8
ENDBRANCH   1   7
TORSDOF 2
ENDMDL
