MODEL 1
REMARK minimizedAffinity 1.45515287
REMARK minimizedRMSD -1
REMARK  0 active torsions:
REMARK  status: ('A' for Active; 'I' for Inactive)
ROOT
ATOM      1  C2' OXE d   1       1.888   4.442  -5.094  0.00  0.00     0.078 C 
ATOM      2  C1' OXE d   1       4.407   5.289  -5.996  0.00  0.00     0.078 C 
ATOM      3  C1  OXE d   1       4.205   3.814  -5.757  0.00  0.00    -0.078 A 
ATOM      4  C2  OXE d   1       2.984   3.414  -5.271  0.00  0.00    -0.078 A 
ATOM      5  C3  OXE d   1       2.727   2.058  -5.085  0.00  0.00     0.003 A 
ATOM      6  C4  OXE d   1       3.749   1.115  -5.241  0.00  0.00    -0.002 A 
ATOM      7  C5  OXE d   1       5.013   1.506  -5.697  0.00  0.00    -0.002 A 
ATOM      8  C6  OXE d   1       5.244   2.843  -6.000  0.00  0.00     0.003 A 
ENDROOT
TORSDOF 0
ENDMDL
