MODEL 1
REMARK minimizedAffinity 0.229492441
REMARK minimizedRMSD -1
REMARK  0 active torsions:
REMARK  status: ('A' for Active; 'I' for Inactive)
ROOT
ATOM      1  C2' OXE d   1       3.780   1.447  -4.894  0.00  0.00     0.078 C 
ATOM      2  C1' OXE d   1       5.837   3.005  -6.000  0.00  0.00     0.078 C 
ATOM      3  C1  OXE d   1       4.513   3.676  -5.732  0.00  0.00    -0.078 A 
ATOM      4  C2  OXE d   1       3.498   2.895  -5.234  0.00  0.00    -0.078 A 
ATOM      5  C3  OXE d   1       2.273   3.475  -4.918  0.00  0.00     0.003 A 
ATOM      6  C4  OXE d   1       2.016   4.812  -5.245  0.00  0.00    -0.002 A 
ATOM      7  C5  OXE d   1       3.024   5.616  -5.790  0.00  0.00    -0.002 A 
ATOM      8  C6  OXE d   1       4.288   5.075  -5.999  0.00  0.00     0.003 A 
ENDROOT
TORSDOF 0
ENDMDL
