MODEL 1
REMARK minimizedAffinity -2.28586268
REMARK minimizedRMSD -1
REMARK  0 active torsions:
REMARK  status: ('A' for Active; 'I' for Inactive)
ROOT
ATOM      1  C2' OXE d   1       5.658   3.751  -6.000  0.00  0.00     0.078 C 
ATOM      2  C1' OXE d   1       3.844   1.799  -5.116  0.00  0.00     0.078 C 
ATOM      3  C1  OXE d   1       3.321   3.196  -5.340  0.00  0.00    -0.078 A 
ATOM      4  C2  OXE d   1       4.225   4.155  -5.727  0.00  0.00    -0.078 A 
ATOM      5  C3  OXE d   1       3.785   5.447  -6.000  0.00  0.00     0.003 A 
ATOM      6  C4  OXE d   1       2.460   5.816  -5.736  0.00  0.00    -0.002 A 
ATOM      7  C5  OXE d   1       1.532   4.863  -5.303  0.00  0.00    -0.002 A 
ATOM      8  C6  OXE d   1       1.935   3.542  -5.141  0.00  0.00     0.003 A 
ENDROOT
TORSDOF 0
ENDMDL
