MODEL 1
REMARK minimizedAffinity -0.747426152
REMARK minimizedRMSD -1
REMARK  0 active torsions:
REMARK  status: ('A' for Active; 'I' for Inactive)
ROOT
ATOM      1  C2' OXE d   1       3.738   1.642  -4.876  0.00  0.00     0.078 C 
ATOM      2  C1' OXE d   1       5.240   3.879  -5.663  0.00  0.00     0.078 C 
ATOM      3  C1  OXE d   1       3.738   4.013  -5.640  0.00  0.00    -0.078 A 
ATOM      4  C2  OXE d   1       3.009   2.899  -5.299  0.00  0.00    -0.078 A 
ATOM      5  C3  OXE d   1       1.623   2.984  -5.209  0.00  0.00     0.003 A 
ATOM      6  C4  OXE d   1       0.956   4.147  -5.611  0.00  0.00    -0.002 A 
ATOM      7  C5  OXE d   1       1.678   5.281  -6.000  0.00  0.00    -0.002 A 
ATOM      8  C6  OXE d   1       3.068   5.244  -5.979  0.00  0.00     0.003 A 
ENDROOT
TORSDOF 0
ENDMDL
