MODEL 1
REMARK minimizedAffinity -1.01206851
REMARK minimizedRMSD -1
REMARK  0 active torsions:
REMARK  status: ('A' for Active; 'I' for Inactive)
ROOT
ATOM      1  C2' OXE d   1       5.998   3.845  -5.988  0.00  0.00     0.078 C 
ATOM      2  C1' OXE d   1       4.112   1.902  -5.246  0.00  0.00     0.078 C 
ATOM      3  C1  OXE d   1       3.627   3.318  -5.435  0.00  0.00    -0.078 A 
ATOM      4  C2  OXE d   1       4.565   4.271  -5.752  0.00  0.00    -0.078 A 
ATOM      5  C3  OXE d   1       4.162   5.582  -5.992  0.00  0.00     0.003 A 
ATOM      6  C4  OXE d   1       2.836   5.969  -5.762  0.00  0.00    -0.002 A 
ATOM      7  C5  OXE d   1       1.872   5.021  -5.400  0.00  0.00    -0.002 A 
ATOM      8  C6  OXE d   1       2.242   3.687  -5.274  0.00  0.00     0.003 A 
ENDROOT
TORSDOF 0
ENDMDL
