MODEL 1
REMARK minimizedAffinity -4.61730862
REMARK minimizedRMSD -1
REMARK  0 active torsions:
REMARK  status: ('A' for Active; 'I' for Inactive)
ROOT
ATOM      1  C2' OXE d   1       4.124   2.249  -4.497  0.00  0.00     0.078 C 
ATOM      2  C1' OXE d   1       5.185   4.369  -6.000  0.00  0.00     0.078 C 
ATOM      3  C1  OXE d   1       3.727   4.435  -5.623  0.00  0.00    -0.078 A 
ATOM      4  C2  OXE d   1       3.205   3.371  -4.927  0.00  0.00    -0.078 A 
ATOM      5  C3  OXE d   1       1.878   3.407  -4.507  0.00  0.00     0.003 A 
ATOM      6  C4  OXE d   1       1.032   4.444  -4.917  0.00  0.00    -0.002 A 
ATOM      7  C5  OXE d   1       1.534   5.518  -5.660  0.00  0.00    -0.002 A 
ATOM      8  C6  OXE d   1       2.886   5.550  -5.984  0.00  0.00     0.003 A 
ENDROOT
TORSDOF 0
ENDMDL
