MODEL 1
REMARK minimizedAffinity 0.516980171
REMARK minimizedRMSD -1
REMARK  0 active torsions:
REMARK  status: ('A' for Active; 'I' for Inactive)
ROOT
ATOM      1  C2' OXE d   1       3.985   1.543  -5.265  0.00  0.00     0.078 C 
ATOM      2  C1' OXE d   1       5.430   3.835  -6.000  0.00  0.00     0.078 C 
ATOM      3  C1  OXE d   1       3.938   3.970  -5.827  0.00  0.00    -0.078 A 
ATOM      4  C2  OXE d   1       3.233   2.833  -5.513  0.00  0.00    -0.078 A 
ATOM      5  C3  OXE d   1       1.861   2.912  -5.288  0.00  0.00     0.003 A 
ATOM      6  C4  OXE d   1       1.171   4.106  -5.529  0.00  0.00    -0.002 A 
ATOM      7  C5  OXE d   1       1.865   5.267  -5.889  0.00  0.00    -0.002 A 
ATOM      8  C6  OXE d   1       3.251   5.225  -6.000  0.00  0.00     0.003 A 
ENDROOT
TORSDOF 0
ENDMDL
