MODEL 1
REMARK minimizedAffinity -2.79092646
REMARK minimizedRMSD -1
REMARK  0 active torsions:
REMARK  status: ('A' for Active; 'I' for Inactive)
ROOT
ATOM      1  C2' OXE d   1       5.442   4.378  -5.988  0.00  0.00     0.078 C 
ATOM      2  C1' OXE d   1       4.124   2.074  -5.075  0.00  0.00     0.078 C 
ATOM      3  C1  OXE d   1       3.295   3.311  -5.312  0.00  0.00    -0.078 A 
ATOM      4  C2  OXE d   1       3.956   4.448  -5.713  0.00  0.00    -0.078 A 
ATOM      5  C3  OXE d   1       3.231   5.602  -5.998  0.00  0.00     0.003 A 
ATOM      6  C4  OXE d   1       1.858   5.660  -5.732  0.00  0.00    -0.002 A 
ATOM      7  C5  OXE d   1       1.172   4.526  -5.285  0.00  0.00    -0.002 A 
ATOM      8  C6  OXE d   1       1.867   3.334  -5.111  0.00  0.00     0.003 A 
ENDROOT
TORSDOF 0
ENDMDL
