MODEL 1
REMARK minimizedAffinity -1.11785889
REMARK minimizedRMSD -1
REMARK  0 active torsions:
REMARK  status: ('A' for Active; 'I' for Inactive)
ROOT
ATOM      1  C2' OXE d   1       4.501   2.473  -4.464  0.00  0.00     0.078 C 
ATOM      2  C1' OXE d   1       5.345   4.668  -5.997  0.00  0.00     0.078 C 
ATOM      3  C1  OXE d   1       3.886   4.591  -5.622  0.00  0.00    -0.078 A 
ATOM      4  C2  OXE d   1       3.473   3.490  -4.912  0.00  0.00    -0.078 A 
ATOM      5  C3  OXE d   1       2.149   3.396  -4.493  0.00  0.00     0.003 A 
ATOM      6  C4  OXE d   1       1.202   4.336  -4.920  0.00  0.00    -0.002 A 
ATOM      7  C5  OXE d   1       1.595   5.444  -5.677  0.00  0.00    -0.002 A 
ATOM      8  C6  OXE d   1       2.937   5.609  -6.000  0.00  0.00     0.003 A 
ENDROOT
TORSDOF 0
ENDMDL
