MODEL 1
REMARK minimizedAffinity 7.341681
REMARK minimizedRMSD -1
REMARK  0 active torsions:
REMARK  status: ('A' for Active; 'I' for Inactive)
ROOT
ATOM      1  C2' OXE d   1       3.397   1.085  -5.949  0.00  0.00     0.078 C 
ATOM      2  C1' OXE d   1       5.276   3.170  -6.000  0.00  0.00     0.078 C 
ATOM      3  C1  OXE d   1       3.814   3.541  -5.977  0.00  0.00    -0.078 A 
ATOM      4  C2  OXE d   1       2.901   2.515  -6.000  0.00  0.00    -0.078 A 
ATOM      5  C3  OXE d   1       1.541   2.800  -5.925  0.00  0.00     0.003 A 
ATOM      6  C4  OXE d   1       1.090   4.124  -5.982  0.00  0.00    -0.002 A 
ATOM      7  C5  OXE d   1       2.003   5.185  -5.999  0.00  0.00    -0.002 A 
ATOM      8  C6  OXE d   1       3.365   4.912  -5.954  0.00  0.00     0.003 A 
ENDROOT
TORSDOF 0
ENDMDL
