MODEL 1
REMARK minimizedAffinity -2.58364749
REMARK minimizedRMSD -1
REMARK  0 active torsions:
REMARK  status: ('A' for Active; 'I' for Inactive)
ROOT
ATOM      1  C2' OXE d   1       4.130   2.065  -4.845  0.00  0.00     0.078 C 
ATOM      2  C1' OXE d   1       5.440   4.263  -5.999  0.00  0.00     0.078 C 
ATOM      3  C1  OXE d   1       3.964   4.391  -5.720  0.00  0.00    -0.078 A 
ATOM      4  C2  OXE d   1       3.321   3.294  -5.198  0.00  0.00    -0.078 A 
ATOM      5  C3  OXE d   1       1.971   3.377  -4.871  0.00  0.00     0.003 A 
ATOM      6  C4  OXE d   1       1.228   4.514  -5.210  0.00  0.00    -0.002 A 
ATOM      7  C5  OXE d   1       1.855   5.628  -5.779  0.00  0.00    -0.002 A 
ATOM      8  C6  OXE d   1       3.227   5.599  -6.000  0.00  0.00     0.003 A 
ENDROOT
TORSDOF 0
ENDMDL
