MODEL 1
REMARK minimizedAffinity -2.62556314
REMARK minimizedRMSD -1
REMARK  0 active torsions:
REMARK  status: ('A' for Active; 'I' for Inactive)
ROOT
ATOM      1  C2' OXE d   1       4.140   1.871  -4.872  0.00  0.00     0.078 C 
ATOM      2  C1' OXE d   1       5.327   4.160  -5.981  0.00  0.00     0.078 C 
ATOM      3  C1  OXE d   1       3.841   4.193  -5.722  0.00  0.00    -0.078 A 
ATOM      4  C2  OXE d   1       3.261   3.052  -5.222  0.00  0.00    -0.078 A 
ATOM      5  C3  OXE d   1       1.904   3.047  -4.913  0.00  0.00     0.003 A 
ATOM      6  C4  OXE d   1       1.096   4.141  -5.249  0.00  0.00    -0.002 A 
ATOM      7  C5  OXE d   1       1.661   5.298  -5.796  0.00  0.00    -0.002 A 
ATOM      8  C6  OXE d   1       3.035   5.356  -5.998  0.00  0.00     0.003 A 
ENDROOT
TORSDOF 0
ENDMDL
