MODEL 1
REMARK minimizedAffinity -1.0905968
REMARK minimizedRMSD -1
REMARK  0 active torsions:
REMARK  status: ('A' for Active; 'I' for Inactive)
ROOT
ATOM      1  C2' OXE d   1       3.950   2.431  -5.931  0.00  0.00     0.078 C 
ATOM      2  C1' OXE d   1       4.972   5.045  -5.999  0.00  0.00     0.078 C 
ATOM      3  C1  OXE d   1       3.473   4.876  -5.972  0.00  0.00    -0.078 A 
ATOM      4  C2  OXE d   1       2.981   3.592  -5.986  0.00  0.00    -0.078 A 
ATOM      5  C3  OXE d   1       1.608   3.380  -5.907  0.00  0.00     0.003 A 
ATOM      6  C4  OXE d   1       0.719   4.460  -5.968  0.00  0.00    -0.002 A 
ATOM      7  C5  OXE d   1       1.198   5.773  -5.995  0.00  0.00    -0.002 A 
ATOM      8  C6  OXE d   1       2.570   5.999  -5.954  0.00  0.00     0.003 A 
ENDROOT
TORSDOF 0
ENDMDL
