MODEL 1
REMARK minimizedAffinity -1.88033652
REMARK minimizedRMSD -1
REMARK  0 active torsions:
REMARK  status: ('A' for Active; 'I' for Inactive)
ROOT
ATOM      1  C2' OXE d   1       2.334   5.023  -5.881  0.00  0.00     0.078 C 
ATOM      2  C1' OXE d   1       5.056   5.708  -5.857  0.00  0.00     0.078 C 
ATOM      3  C1  OXE d   1       4.700   4.244  -5.922  0.00  0.00    -0.078 A 
ATOM      4  C2  OXE d   1       3.366   3.916  -5.886  0.00  0.00    -0.078 A 
ATOM      5  C3  OXE d   1       2.980   2.583  -5.999  0.00  0.00     0.003 A 
ATOM      6  C4  OXE d   1       3.941   1.564  -5.994  0.00  0.00    -0.002 A 
ATOM      7  C5  OXE d   1       5.305   1.875  -5.991  0.00  0.00    -0.002 A 
ATOM      8  C6  OXE d   1       5.700   3.208  -5.998  0.00  0.00     0.003 A 
ENDROOT
TORSDOF 0
ENDMDL
