MODEL 1
REMARK minimizedAffinity -3.02097726
REMARK minimizedRMSD -1
REMARK  0 active torsions:
REMARK  status: ('A' for Active; 'I' for Inactive)
ROOT
ATOM      1  C2' OXE d   1       5.995   1.632  -5.954  0.00  0.00     0.078 C 
ATOM      2  C1' OXE d   1       3.204   1.330  -5.999  0.00  0.00     0.078 C 
ATOM      3  C1  OXE d   1       3.763   2.634  -5.485  0.00  0.00    -0.078 A 
ATOM      4  C2  OXE d   1       5.130   2.755  -5.423  0.00  0.00    -0.078 A 
ATOM      5  C3  OXE d   1       5.697   3.956  -5.008  0.00  0.00     0.003 A 
ATOM      6  C4  OXE d   1       4.891   4.986  -4.510  0.00  0.00    -0.002 A 
ATOM      7  C5  OXE d   1       3.497   4.868  -4.527  0.00  0.00    -0.002 A 
ATOM      8  C6  OXE d   1       2.917   3.718  -5.050  0.00  0.00     0.003 A 
ENDROOT
TORSDOF 0
ENDMDL
