MODEL 1
REMARK minimizedAffinity 9.17106247
REMARK minimizedRMSD -1
REMARK  0 active torsions:
REMARK  status: ('A' for Active; 'I' for Inactive)
ROOT
ATOM      1  C2' OXE d   1      -0.724  -5.998  -5.988  0.00  0.00     0.078 C 
ATOM      2  C1' OXE d   1       1.489  -4.272  -5.945  0.00  0.00     0.078 C 
ATOM      3  C1  OXE d   1       0.114  -3.653  -5.931  0.00  0.00    -0.078 A 
ATOM      4  C2  OXE d   1      -0.963  -4.504  -5.999  0.00  0.00    -0.078 A 
ATOM      5  C3  OXE d   1      -2.254  -3.988  -5.934  0.00  0.00     0.003 A 
ATOM      6  C4  OXE d   1      -2.466  -2.604  -5.955  0.00  0.00    -0.002 A 
ATOM      7  C5  OXE d   1      -1.383  -1.719  -5.925  0.00  0.00    -0.002 A 
ATOM      8  C6  OXE d   1      -0.090  -2.227  -5.870  0.00  0.00     0.003 A 
ENDROOT
TORSDOF 0
ENDMDL
