MODEL 1
REMARK minimizedAffinity 1.09465265
REMARK minimizedRMSD -1
REMARK  0 active torsions:
REMARK  status: ('A' for Active; 'I' for Inactive)
ROOT
ATOM      1  C2' OXE d   1       5.581  -0.175   1.985  0.00  0.00     0.078 C 
ATOM      2  C1' OXE d   1       2.851   0.194   1.444  0.00  0.00     0.078 C 
ATOM      3  C1  OXE d   1       3.760   1.391   1.325  0.00  0.00    -0.078 A 
ATOM      4  C2  OXE d   1       5.086   1.212   1.637  0.00  0.00    -0.078 A 
ATOM      5  C3  OXE d   1       5.978   2.271   1.491  0.00  0.00     0.003 A 
ATOM      6  C4  OXE d   1       5.511   3.553   1.178  0.00  0.00    -0.002 A 
ATOM      7  C5  OXE d   1       4.157   3.766   0.895  0.00  0.00    -0.002 A 
ATOM      8  C6  OXE d   1       3.278   2.690   0.922  0.00  0.00     0.003 A 
ENDROOT
TORSDOF 0
ENDMDL
