MODEL 1
REMARK minimizedAffinity -1.79407406
REMARK minimizedRMSD -1
REMARK  0 active torsions:
REMARK  status: ('A' for Active; 'I' for Inactive)
ROOT
ATOM      1  C2' OXE d   1       3.570   1.947  -5.885  0.00  0.00     0.078 C 
ATOM      2  C1' OXE d   1       1.757   4.090  -5.879  0.00  0.00     0.078 C 
ATOM      3  C1  OXE d   1       3.230   4.414  -5.929  0.00  0.00    -0.078 A 
ATOM      4  C2  OXE d   1       4.110   3.360  -5.885  0.00  0.00    -0.078 A 
ATOM      5  C3  OXE d   1       5.478   3.600  -5.984  0.00  0.00     0.003 A 
ATOM      6  C4  OXE d   1       5.970   4.911  -5.973  0.00  0.00    -0.002 A 
ATOM      7  C5  OXE d   1       5.092   5.999  -5.978  0.00  0.00    -0.002 A 
ATOM      8  C6  OXE d   1       3.721   5.768  -6.000  0.00  0.00     0.003 A 
ENDROOT
TORSDOF 0
ENDMDL
