MODEL 1
REMARK minimizedAffinity -3.57464027
REMARK minimizedRMSD -1
REMARK  0 active torsions:
REMARK  status: ('A' for Active; 'I' for Inactive)
ROOT
ATOM      1  C2' OXE d   1       1.093   3.627  -5.999  0.00  0.00     0.078 C 
ATOM      2  C1' OXE d   1       2.340   5.966  -5.077  0.00  0.00     0.078 C 
ATOM      3  C1  OXE d   1       3.205   4.753  -5.310  0.00  0.00    -0.078 A 
ATOM      4  C2  OXE d   1       2.579   3.599  -5.717  0.00  0.00    -0.078 A 
ATOM      5  C3  OXE d   1       3.338   2.466  -6.000  0.00  0.00     0.003 A 
ATOM      6  C4  OXE d   1       4.711   2.446  -5.727  0.00  0.00    -0.002 A 
ATOM      7  C5  OXE d   1       5.361   3.599  -5.274  0.00  0.00    -0.002 A 
ATOM      8  C6  OXE d   1       4.632   4.770  -5.102  0.00  0.00     0.003 A 
ENDROOT
TORSDOF 0
ENDMDL
