MODEL 1
REMARK minimizedAffinity -1.64871836
REMARK minimizedRMSD -1
REMARK  0 active torsions:
REMARK  status: ('A' for Active; 'I' for Inactive)
ROOT
ATOM      1  O1  BZF d   1      -0.493  -4.012   0.922  0.00  0.00    -0.204 OA
ATOM      2  C2  BZF d   1       0.589  -4.840   1.150  0.00  0.00     0.174 A 
ATOM      3  C3  BZF d   1       1.699  -4.350   0.562  0.00  0.00    -0.012 A 
ATOM      4  C3A BZF d   1       1.306  -3.093   0.004  0.00  0.00    -0.107 A 
ATOM      5  C4  BZF d   1       1.971  -2.125  -0.693  0.00  0.00     0.055 A 
ATOM      6  C5  BZF d   1       1.280  -1.052  -1.158  0.00  0.00    -0.016 A 
ATOM      7  C6  BZF d   1      -0.077  -0.917  -0.950  0.00  0.00     0.022 A 
ATOM      8  C7  BZF d   1      -0.780  -1.848  -0.260  0.00  0.00     0.029 A 
ATOM      9  C7A BZF d   1      -0.078  -2.918   0.240  0.00  0.00     0.058 A 
ENDROOT
TORSDOF 0
ENDMDL
