MODEL 1
REMARK minimizedAffinity -3.36054516
REMARK minimizedRMSD -1
REMARK  0 active torsions:
REMARK  status: ('A' for Active; 'I' for Inactive)
ROOT
ATOM      1  O1  BZF d   1      -0.333  -4.474   0.573  0.00  0.00    -0.204 OA
ATOM      2  C2  BZF d   1       0.821  -5.223   0.700  0.00  0.00     0.174 A 
ATOM      3  C3  BZF d   1       1.902  -4.499   0.347  0.00  0.00    -0.012 A 
ATOM      4  C3A BZF d   1       1.402  -3.189   0.065  0.00  0.00    -0.107 A 
ATOM      5  C4  BZF d   1       1.994  -2.021  -0.322  0.00  0.00     0.055 A 
ATOM      6  C5  BZF d   1       1.214  -0.939  -0.584  0.00  0.00    -0.016 A 
ATOM      7  C6  BZF d   1      -0.160  -0.992  -0.476  0.00  0.00     0.022 A 
ATOM      8  C7  BZF d   1      -0.793  -2.127  -0.091  0.00  0.00     0.029 A 
ATOM      9  C7A BZF d   1      -0.005  -3.212   0.207  0.00  0.00     0.058 A 
ENDROOT
TORSDOF 0
ENDMDL
