MODEL 1
REMARK minimizedAffinity 3.0835588
REMARK minimizedRMSD -1
REMARK  0 active torsions:
REMARK  status: ('A' for Active; 'I' for Inactive)
ROOT
ATOM      1  O1  BZF d   1      -0.160  -1.762  -3.944  0.00  0.00    -0.204 OA
ATOM      2  C2  BZF d   1      -0.317  -0.563  -4.613  0.00  0.00     0.174 A 
ATOM      3  C3  BZF d   1       0.022   0.475  -3.821  0.00  0.00    -0.012 A 
ATOM      4  C3A BZF d   1       0.503  -0.117  -2.610  0.00  0.00    -0.107 A 
ATOM      5  C4  BZF d   1       0.999   0.397  -1.446  0.00  0.00     0.055 A 
ATOM      6  C5  BZF d   1       1.311  -0.449  -0.430  0.00  0.00    -0.016 A 
ATOM      7  C6  BZF d   1       1.135  -1.813  -0.541  0.00  0.00     0.022 A 
ATOM      8  C7  BZF d   1       0.650  -2.370  -1.678  0.00  0.00     0.029 A 
ATOM      9  C7A BZF d   1       0.365  -1.520  -2.718  0.00  0.00     0.058 A 
ENDROOT
TORSDOF 0
ENDMDL
