MODEL 1
REMARK minimizedAffinity 2.81971169
REMARK minimizedRMSD -1
REMARK  0 active torsions:
REMARK  status: ('A' for Active; 'I' for Inactive)
ROOT
ATOM      1  O1  BZF d   1       2.252  -2.903  -1.684  0.00  0.00    -0.204 OA
ATOM      2  C2  BZF d   1       2.718  -2.735  -0.394  0.00  0.00     0.174 A 
ATOM      3  C3  BZF d   1       2.363  -1.527   0.089  0.00  0.00    -0.012 A 
ATOM      4  C3A BZF d   1       1.551  -0.937  -0.931  0.00  0.00    -0.107 A 
ATOM      5  C4  BZF d   1       0.889   0.253  -1.033  0.00  0.00     0.055 A 
ATOM      6  C5  BZF d   1       0.246   0.554  -2.192  0.00  0.00    -0.016 A 
ATOM      7  C6  BZF d   1       0.250  -0.308  -3.269  0.00  0.00     0.022 A 
ATOM      8  C7  BZF d   1       0.888  -1.502  -3.213  0.00  0.00     0.029 A 
ATOM      9  C7A BZF d   1       1.511  -1.824  -2.032  0.00  0.00     0.058 A 
ENDROOT
TORSDOF 0
ENDMDL
