MODEL 1
REMARK minimizedAffinity -5.1718955
REMARK minimizedRMSD -1
REMARK  0 active torsions:
REMARK  status: ('A' for Active; 'I' for Inactive)
ROOT
ATOM      1  O1  BZF d   1       3.157  -2.260  -1.006  0.00  0.00    -0.204 OA
ATOM      2  C2  BZF d   1       3.322  -1.088  -1.719  0.00  0.00     0.174 A 
ATOM      3  C3  BZF d   1       2.157  -0.416  -1.812  0.00  0.00    -0.012 A 
ATOM      4  C3A BZF d   1       1.223  -1.172  -1.035  0.00  0.00    -0.107 A 
ATOM      5  C4  BZF d   1      -0.097  -1.006  -0.730  0.00  0.00     0.055 A 
ATOM      6  C5  BZF d   1      -0.734  -1.964  -0.007  0.00  0.00    -0.016 A 
ATOM      7  C6  BZF d   1      -0.084  -3.102   0.423  0.00  0.00     0.022 A 
ATOM      8  C7  BZF d   1       1.228  -3.309   0.150  0.00  0.00     0.029 A 
ATOM      9  C7A BZF d   1       1.882  -2.327  -0.552  0.00  0.00     0.058 A 
ENDROOT
TORSDOF 0
ENDMDL
