MODEL 1
REMARK minimizedAffinity -2.28579688
REMARK minimizedRMSD -1
REMARK  0 active torsions:
REMARK  status: ('A' for Active; 'I' for Inactive)
ROOT
ATOM      1  O1  BZF d   1      -0.369  -3.964   1.148  0.00  0.00    -0.204 OA
ATOM      2  C2  BZF d   1       0.626  -4.915   1.258  0.00  0.00     0.174 A 
ATOM      3  C3  BZF d   1       1.702  -4.570   0.522  0.00  0.00    -0.012 A 
ATOM      4  C3A BZF d   1       1.393  -3.279  -0.013  0.00  0.00    -0.107 A 
ATOM      5  C4  BZF d   1       2.074  -2.406  -0.812  0.00  0.00     0.055 A 
ATOM      6  C5  BZF d   1       1.462  -1.261  -1.212  0.00  0.00    -0.016 A 
ATOM      7  C6  BZF d   1       0.169  -0.960  -0.837  0.00  0.00     0.022 A 
ATOM      8  C7  BZF d   1      -0.545  -1.792  -0.041  0.00  0.00     0.029 A 
ATOM      9  C7A BZF d   1       0.082  -2.935   0.392  0.00  0.00     0.058 A 
ENDROOT
TORSDOF 0
ENDMDL
