MODEL 1
REMARK minimizedAffinity 10.319768
REMARK minimizedRMSD -1
REMARK  0 active torsions:
REMARK  status: ('A' for Active; 'I' for Inactive)
ROOT
ATOM      1  O1  BZF d   1       3.051  -3.601   0.616  0.00  0.00    -0.204 OA
ATOM      2  C2  BZF d   1       2.781  -2.340   0.122  0.00  0.00     0.174 A 
ATOM      3  C3  BZF d   1       1.468  -2.205  -0.156  0.00  0.00    -0.012 A 
ATOM      4  C3A BZF d   1       0.866  -3.430   0.273  0.00  0.00    -0.107 A 
ATOM      5  C4  BZF d   1      -0.419  -3.895   0.275  0.00  0.00     0.055 A 
ATOM      6  C5  BZF d   1      -0.661  -5.164   0.695  0.00  0.00    -0.016 A 
ATOM      7  C6  BZF d   1       0.355  -5.997   1.114  0.00  0.00     0.022 A 
ATOM      8  C7  BZF d   1       1.645  -5.579   1.135  0.00  0.00     0.029 A 
ATOM      9  C7A BZF d   1       1.889  -4.286   0.742  0.00  0.00     0.058 A 
ENDROOT
TORSDOF 0
ENDMDL
