MODEL 1
REMARK minimizedAffinity -6.25922108
REMARK minimizedRMSD -1
REMARK  0 active torsions:
REMARK  status: ('A' for Active; 'I' for Inactive)
ROOT
ATOM      1  O1  BZF d   1      -0.359  -4.101   0.434  0.00  0.00    -0.204 OA
ATOM      2  C2  BZF d   1       0.746  -4.921   0.558  0.00  0.00     0.174 A 
ATOM      3  C3  BZF d   1       1.873  -4.257   0.230  0.00  0.00    -0.012 A 
ATOM      4  C3A BZF d   1       1.457  -2.914  -0.032  0.00  0.00    -0.107 A 
ATOM      5  C4  BZF d   1       2.123  -1.777  -0.390  0.00  0.00     0.055 A 
ATOM      6  C5  BZF d   1       1.413  -0.646  -0.639  0.00  0.00    -0.016 A 
ATOM      7  C6  BZF d   1       0.037  -0.617  -0.546  0.00  0.00     0.022 A 
ATOM      8  C7  BZF d   1      -0.668  -1.718  -0.189  0.00  0.00     0.029 A 
ATOM      9  C7A BZF d   1       0.050  -2.854   0.096  0.00  0.00     0.058 A 
ENDROOT
TORSDOF 0
ENDMDL
