MODEL 1
REMARK minimizedAffinity 5.5515399
REMARK minimizedRMSD -1
REMARK  0 active torsions:
REMARK  status: ('A' for Active; 'I' for Inactive)
ROOT
ATOM      1  O1  BZF d   1       2.781  -2.530  -0.455  0.00  0.00    -0.204 OA
ATOM      2  C2  BZF d   1       2.364  -3.653   0.233  0.00  0.00     0.174 A 
ATOM      3  C3  BZF d   1       1.029  -3.629   0.422  0.00  0.00    -0.012 A 
ATOM      4  C3A BZF d   1       0.572  -2.462  -0.268  0.00  0.00    -0.107 A 
ATOM      5  C4  BZF d   1      -0.661  -1.906  -0.458  0.00  0.00     0.055 A 
ATOM      6  C5  BZF d   1      -0.757  -0.722  -1.118  0.00  0.00    -0.016 A 
ATOM      7  C6  BZF d   1       0.357  -0.064  -1.594  0.00  0.00     0.022 A 
ATOM      8  C7  BZF d   1       1.601  -0.578  -1.433  0.00  0.00     0.029 A 
ATOM      9  C7A BZF d   1       1.699  -1.791  -0.797  0.00  0.00     0.058 A 
ENDROOT
TORSDOF 0
ENDMDL
