MODEL 1
REMARK minimizedAffinity -2.70482516
REMARK minimizedRMSD -1
REMARK  0 active torsions:
REMARK  status: ('A' for Active; 'I' for Inactive)
ROOT
ATOM      1  O1  BZF d   1       1.637  -3.759   0.637  0.00  0.00    -0.204 OA
ATOM      2  C2  BZF d   1       0.595  -4.666   0.653  0.00  0.00     0.174 A 
ATOM      3  C3  BZF d   1      -0.547  -4.090   0.226  0.00  0.00    -0.012 A 
ATOM      4  C3A BZF d   1      -0.177  -2.764  -0.163  0.00  0.00    -0.107 A 
ATOM      5  C4  BZF d   1      -0.872  -1.709  -0.683  0.00  0.00     0.055 A 
ATOM      6  C5  BZF d   1      -0.229  -0.529  -0.882  0.00  0.00    -0.016 A 
ATOM      7  C6  BZF d   1       1.104  -0.365  -0.567  0.00  0.00     0.022 A 
ATOM      8  C7  BZF d   1       1.836  -1.384  -0.053  0.00  0.00     0.029 A 
ATOM      9  C7A BZF d   1       1.198  -2.588   0.118  0.00  0.00     0.058 A 
ENDROOT
TORSDOF 0
ENDMDL
