MODEL 1
REMARK minimizedAffinity -2.88092017
REMARK minimizedRMSD -1
REMARK  0 active torsions:
REMARK  status: ('A' for Active; 'I' for Inactive)
ROOT
ATOM      1  O1  BZF d   1      -0.255  -4.346   1.015  0.00  0.00    -0.204 OA
ATOM      2  C2  BZF d   1       0.690  -5.331   1.228  0.00  0.00     0.174 A 
ATOM      3  C3  BZF d   1       1.886  -4.965   0.724  0.00  0.00    -0.012 A 
ATOM      4  C3A BZF d   1       1.698  -3.630   0.242  0.00  0.00    -0.107 A 
ATOM      5  C4  BZF d   1       2.525  -2.722  -0.354  0.00  0.00     0.055 A 
ATOM      6  C5  BZF d   1       2.012  -1.534  -0.769  0.00  0.00    -0.016 A 
ATOM      7  C6  BZF d   1       0.678  -1.224  -0.608  0.00  0.00     0.022 A 
ATOM      8  C7  BZF d   1      -0.181  -2.091  -0.018  0.00  0.00     0.029 A 
ATOM      9  C7A BZF d   1       0.341  -3.279   0.432  0.00  0.00     0.058 A 
ENDROOT
TORSDOF 0
ENDMDL
