MODEL 1
REMARK minimizedAffinity -1.99706244
REMARK minimizedRMSD -1
REMARK  0 active torsions:
REMARK  status: ('A' for Active; 'I' for Inactive)
ROOT
ATOM      1  O1  BZF d   1      -3.064  -1.124   4.961  0.00  0.00    -0.204 OA
ATOM      2  C2  BZF d   1      -2.417   0.096   4.950  0.00  0.00     0.174 A 
ATOM      3  C3  BZF d   1      -2.986   0.932   4.059  0.00  0.00    -0.012 A 
ATOM      4  C3A BZF d   1      -4.114   0.220   3.542  0.00  0.00    -0.107 A 
ATOM      5  C4  BZF d   1      -5.083   0.530   2.631  0.00  0.00     0.055 A 
ATOM      6  C5  BZF d   1      -6.000  -0.416   2.294  0.00  0.00    -0.016 A 
ATOM      7  C6  BZF d   1      -5.973  -1.681   2.844  0.00  0.00     0.022 A 
ATOM      8  C7  BZF d   1      -5.034  -2.033   3.755  0.00  0.00     0.029 A 
ATOM      9  C7A BZF d   1      -4.126  -1.070   4.122  0.00  0.00     0.058 A 
ENDROOT
TORSDOF 0
ENDMDL
