MODEL 1
REMARK minimizedAffinity 2.06491637
REMARK minimizedRMSD -1
REMARK  0 active torsions:
REMARK  status: ('A' for Active; 'I' for Inactive)
ROOT
ATOM      1  O1  BZF d   1       2.835  -3.003   0.008  0.00  0.00    -0.204 OA
ATOM      2  C2  BZF d   1       2.274  -4.040   0.729  0.00  0.00     0.174 A 
ATOM      3  C3  BZF d   1       0.941  -3.872   0.851  0.00  0.00    -0.012 A 
ATOM      4  C3A BZF d   1       0.638  -2.702   0.085  0.00  0.00    -0.107 A 
ATOM      5  C4  BZF d   1      -0.521  -2.035  -0.192  0.00  0.00     0.055 A 
ATOM      6  C5  BZF d   1      -0.465  -0.884  -0.911  0.00  0.00    -0.016 A 
ATOM      7  C6  BZF d   1       0.731  -0.368  -1.364  0.00  0.00     0.022 A 
ATOM      8  C7  BZF d   1       1.907  -0.996  -1.119  0.00  0.00     0.029 A 
ATOM      9  C7A BZF d   1       1.850  -2.177  -0.421  0.00  0.00     0.058 A 
ENDROOT
TORSDOF 0
ENDMDL
