MODEL 1
REMARK minimizedAffinity -0.41661796
REMARK minimizedRMSD -1
REMARK  0 active torsions:
REMARK  status: ('A' for Active; 'I' for Inactive)
ROOT
ATOM      1  O1  BZF d   1      -3.139   2.817   1.161  0.00  0.00    -0.204 OA
ATOM      2  C2  BZF d   1      -3.575   2.881  -0.148  0.00  0.00     0.174 A 
ATOM      3  C3  BZF d   1      -4.264   1.770  -0.478  0.00  0.00    -0.012 A 
ATOM      4  C3A BZF d   1      -4.337   1.001   0.727  0.00  0.00    -0.107 A 
ATOM      5  C4  BZF d   1      -4.909  -0.198   1.042  0.00  0.00     0.055 A 
ATOM      6  C5  BZF d   1      -4.736  -0.704   2.291  0.00  0.00    -0.016 A 
ATOM      7  C6  BZF d   1      -3.995  -0.041   3.247  0.00  0.00     0.022 A 
ATOM      8  C7  BZF d   1      -3.412   1.154   2.983  0.00  0.00     0.029 A 
ATOM      9  C7A BZF d   1      -3.613   1.683   1.732  0.00  0.00     0.058 A 
ENDROOT
TORSDOF 0
ENDMDL
