MODEL 1
REMARK minimizedAffinity 3.41126847
REMARK minimizedRMSD -1
REMARK  0 active torsions:
REMARK  status: ('A' for Active; 'I' for Inactive)
ROOT
ATOM      1  O1  BZF d   1       1.674  -5.555   1.759  0.00  0.00    -0.204 OA
ATOM      2  C2  BZF d   1       0.626  -5.996   0.974  0.00  0.00     0.174 A 
ATOM      3  C3  BZF d   1       0.365  -5.117  -0.014  0.00  0.00    -0.012 A 
ATOM      4  C3A BZF d   1       1.368  -4.104   0.109  0.00  0.00    -0.107 A 
ATOM      5  C4  BZF d   1       1.646  -2.968  -0.596  0.00  0.00     0.055 A 
ATOM      6  C5  BZF d   1       2.652  -2.158  -0.173  0.00  0.00    -0.016 A 
ATOM      7  C6  BZF d   1       3.395  -2.449   0.952  0.00  0.00     0.022 A 
ATOM      8  C7  BZF d   1       3.159  -3.567   1.681  0.00  0.00     0.029 A 
ATOM      9  C7A BZF d   1       2.165  -4.405   1.237  0.00  0.00     0.058 A 
ENDROOT
TORSDOF 0
ENDMDL
