MODEL 1
REMARK minimizedAffinity -5.51550865
REMARK minimizedRMSD -1
REMARK  0 active torsions:
REMARK  status: ('A' for Active; 'I' for Inactive)
ROOT
ATOM      1  O1  BZF d   1       2.412  -4.080   0.254  0.00  0.00    -0.204 OA
ATOM      2  C2  BZF d   1       1.469  -5.004   0.660  0.00  0.00     0.174 A 
ATOM      3  C3  BZF d   1       0.247  -4.439   0.735  0.00  0.00    -0.012 A 
ATOM      4  C3A BZF d   1       0.421  -3.100   0.263  0.00  0.00    -0.107 A 
ATOM      5  C4  BZF d   1      -0.432  -2.049   0.086  0.00  0.00     0.055 A 
ATOM      6  C5  BZF d   1       0.069  -0.854  -0.324  0.00  0.00    -0.016 A 
ATOM      7  C6  BZF d   1       1.416  -0.673  -0.559  0.00  0.00     0.022 A 
ATOM      8  C7  BZF d   1       2.301  -1.688  -0.402  0.00  0.00     0.029 A 
ATOM      9  C7A BZF d   1       1.793  -2.906  -0.021  0.00  0.00     0.058 A 
ENDROOT
TORSDOF 0
ENDMDL
