MODEL 1
REMARK minimizedAffinity -4.33912325
REMARK minimizedRMSD -1
REMARK  0 active torsions:
REMARK  status: ('A' for Active; 'I' for Inactive)
ROOT
ATOM      1  O1  BZF d   1       1.639  -2.799   1.144  0.00  0.00    -0.204 OA
ATOM      2  C2  BZF d   1       0.611  -3.695   1.366  0.00  0.00     0.174 A 
ATOM      3  C3  BZF d   1      -0.495  -3.333   0.684  0.00  0.00    -0.012 A 
ATOM      4  C3A BZF d   1      -0.107  -2.187  -0.080  0.00  0.00    -0.107 A 
ATOM      5  C4  BZF d   1      -0.764  -1.384  -0.968  0.00  0.00     0.055 A 
ATOM      6  C5  BZF d   1      -0.121  -0.303  -1.483  0.00  0.00    -0.016 A 
ATOM      7  C6  BZF d   1       1.176   0.007  -1.129  0.00  0.00     0.022 A 
ATOM      8  C7  BZF d   1       1.870  -0.763  -0.256  0.00  0.00     0.029 A 
ATOM      9  C7A BZF d   1       1.234  -1.874   0.241  0.00  0.00     0.058 A 
ENDROOT
TORSDOF 0
ENDMDL
