MODEL 1
REMARK minimizedAffinity 14.6253843
REMARK minimizedRMSD -1
REMARK  1 active torsions:
REMARK  status: ('A' for Active; 'I' for Inactive)
REMARK    1  A    between atoms: C1_2  and  C2_3 
ROOT
ATOM      1  C2  UNL d   1       3.861   4.911  -2.725  0.00  0.00    -0.076 A 
ATOM      2  C3  UNL d   1       3.061   5.987  -2.302  0.00  0.00     0.004 A 
ATOM      3  C4  UNL d   1       1.687   5.996  -2.539  0.00  0.00    -0.003 A 
ATOM      4  C5  UNL d   1       1.092   4.930  -3.204  0.00  0.00     0.000 A 
ATOM      5  C6  UNL d   1       1.867   3.846  -3.615  0.00  0.00     0.000 A 
ATOM      6  C7  UNL d   1       3.251   3.813  -3.369  0.00  0.00    -0.073 A 
ATOM      7  C8  UNL d   1       4.040   2.623  -3.840  0.00  0.00     0.078 C 
ENDROOT
BRANCH   1   8
ATOM      8  C1  UNL d   1       5.349   4.969  -2.464  0.00  0.00     0.053 C 
ATOM      9  C   UNL d   1       5.713   4.506  -1.061  0.00  0.00     0.018 C 
ENDBRANCH   1   8
TORSDOF 1
ENDMDL
