MODEL 1
REMARK minimizedAffinity 12.3964357
REMARK minimizedRMSD -1
REMARK  1 active torsions:
REMARK  status: ('A' for Active; 'I' for Inactive)
REMARK    1  A    between atoms: C1_2  and  C2_3 
ROOT
ATOM      1  C2  UNL d   1      -2.804  -2.303   1.895  0.00  0.00    -0.076 A 
ATOM      2  C3  UNL d   1      -3.148  -1.124   2.579  0.00  0.00     0.004 A 
ATOM      3  C4  UNL d   1      -2.364   0.023   2.471  0.00  0.00    -0.003 A 
ATOM      4  C5  UNL d   1      -1.223   0.010   1.676  0.00  0.00     0.000 A 
ATOM      5  C6  UNL d   1      -0.876  -1.146   0.976  0.00  0.00     0.000 A 
ATOM      6  C7  UNL d   1      -1.665  -2.306   1.062  0.00  0.00    -0.073 A 
ATOM      7  C8  UNL d   1      -1.241  -3.526   0.291  0.00  0.00     0.078 C 
ENDROOT
BRANCH   1   8
ATOM      8  C1  UNL d   1      -3.678  -3.524   2.073  0.00  0.00     0.053 C 
ATOM      9  C   UNL d   1      -5.161  -3.193   2.016  0.00  0.00     0.018 C 
ENDBRANCH   1   8
TORSDOF 1
ENDMDL
