MODEL 1
REMARK minimizedAffinity 12.4771891
REMARK minimizedRMSD -1
REMARK  1 active torsions:
REMARK  status: ('A' for Active; 'I' for Inactive)
REMARK    1  A    between atoms: C1_2  and  C2_3 
ROOT
ATOM      1  C2  UNL d   1       5.146   3.494  -1.963  0.00  0.00    -0.076 A 
ATOM      2  C3  UNL d   1       5.394   4.476  -2.938  0.00  0.00     0.004 A 
ATOM      3  C4  UNL d   1       4.654   4.518  -4.118  0.00  0.00    -0.003 A 
ATOM      4  C5  UNL d   1       3.652   3.580  -4.342  0.00  0.00     0.000 A 
ATOM      5  C6  UNL d   1       3.381   2.610  -3.378  0.00  0.00     0.000 A 
ATOM      6  C7  UNL d   1       4.107   2.563  -2.175  0.00  0.00    -0.073 A 
ATOM      7  C8  UNL d   1       3.776   1.492  -1.173  0.00  0.00     0.078 C 
ENDROOT
BRANCH   1   8
ATOM      8  C1  UNL d   1       6.000   3.481  -0.715  0.00  0.00     0.053 C 
ATOM      9  C   UNL d   1       6.000   4.821   0.005  0.00  0.00     0.018 C 
ENDBRANCH   1   8
TORSDOF 1
ENDMDL
