MODEL 1
REMARK minimizedAffinity 10.5536957
REMARK minimizedRMSD -1
REMARK  1 active torsions:
REMARK  status: ('A' for Active; 'I' for Inactive)
REMARK    1  A    between atoms: C1_2  and  C2_3 
ROOT
ATOM      1  C2  UNL d   1       4.971   4.525  -2.779  0.00  0.00    -0.076 A 
ATOM      2  C3  UNL d   1       5.889   5.143  -3.646  0.00  0.00     0.004 A 
ATOM      3  C4  UNL d   1       6.000   4.743  -4.977  0.00  0.00    -0.003 A 
ATOM      4  C5  UNL d   1       5.194   3.720  -5.463  0.00  0.00     0.000 A 
ATOM      5  C6  UNL d   1       4.265   3.108  -4.622  0.00  0.00     0.000 A 
ATOM      6  C7  UNL d   1       4.130   3.510  -3.282  0.00  0.00    -0.073 A 
ATOM      7  C8  UNL d   1       3.116   2.811  -2.417  0.00  0.00     0.078 C 
ENDROOT
BRANCH   1   8
ATOM      8  C1  UNL d   1       4.915   4.982  -1.339  0.00  0.00     0.053 C 
ATOM      9  C   UNL d   1       5.995   6.000  -1.008  0.00  0.00     0.018 C 
ENDBRANCH   1   8
TORSDOF 1
ENDMDL
