MODEL 1
REMARK minimizedAffinity 17.8131695
REMARK minimizedRMSD -1
REMARK  1 active torsions:
REMARK  status: ('A' for Active; 'I' for Inactive)
REMARK    1  A    between atoms: C1_2  and  C2_3 
ROOT
ATOM      1  C2  UNL d   1       1.572  -0.218   1.009  0.00  0.00    -0.076 A 
ATOM      2  C3  UNL d   1       0.211   0.057   0.784  0.00  0.00     0.004 A 
ATOM      3  C4  UNL d   1      -0.781  -0.805   1.248  0.00  0.00    -0.003 A 
ATOM      4  C5  UNL d   1      -0.429  -1.956   1.945  0.00  0.00     0.000 A 
ATOM      5  C6  UNL d   1       0.914  -2.235   2.192  0.00  0.00     0.000 A 
ATOM      6  C7  UNL d   1       1.927  -1.368   1.745  0.00  0.00    -0.073 A 
ATOM      7  C8  UNL d   1       3.360  -1.722   2.035  0.00  0.00     0.078 C 
ENDROOT
BRANCH   1   8
ATOM      8  C1  UNL d   1       2.605   0.740   0.459  0.00  0.00     0.053 C 
ATOM      9  C   UNL d   1       2.631   0.758  -1.062  0.00  0.00     0.018 C 
ENDBRANCH   1   8
TORSDOF 1
ENDMDL
