MODEL 1
REMARK minimizedAffinity 13.6295433
REMARK minimizedRMSD -1
REMARK  1 active torsions:
REMARK  status: ('A' for Active; 'I' for Inactive)
REMARK    1  A    between atoms: C1_2  and  C2_3 
ROOT
ATOM      1  C2  UNL d   1      -3.016  -1.932   1.945  0.00  0.00    -0.076 A 
ATOM      2  C3  UNL d   1      -3.079  -0.776   2.742  0.00  0.00     0.004 A 
ATOM      3  C4  UNL d   1      -1.969   0.052   2.894  0.00  0.00    -0.003 A 
ATOM      4  C5  UNL d   1      -0.777  -0.262   2.251  0.00  0.00     0.000 A 
ATOM      5  C6  UNL d   1      -0.701  -1.396   1.443  0.00  0.00     0.000 A 
ATOM      6  C7  UNL d   1      -1.816  -2.233   1.266  0.00  0.00    -0.073 A 
ATOM      7  C8  UNL d   1      -1.677  -3.446   0.388  0.00  0.00     0.078 C 
ENDROOT
BRANCH   1   8
ATOM      8  C1  UNL d   1      -4.245  -2.807   1.840  0.00  0.00     0.053 C 
ATOM      9  C   UNL d   1      -4.103  -4.107   2.617  0.00  0.00     0.018 C 
ENDBRANCH   1   8
TORSDOF 1
ENDMDL
