MODEL 1
REMARK minimizedAffinity 11.1674471
REMARK minimizedRMSD -1
REMARK  1 active torsions:
REMARK  status: ('A' for Active; 'I' for Inactive)
REMARK    1  A    between atoms: C1_2  and  C2_3 
ROOT
ATOM      1  C2  UNL d   1      -3.769   0.677   2.117  0.00  0.00    -0.076 A 
ATOM      2  C3  UNL d   1      -3.205  -0.403   1.418  0.00  0.00     0.004 A 
ATOM      3  C4  UNL d   1      -2.003  -0.976   1.831  0.00  0.00    -0.003 A 
ATOM      4  C5  UNL d   1      -1.347  -0.478   2.951  0.00  0.00     0.000 A 
ATOM      5  C6  UNL d   1      -1.902   0.582   3.667  0.00  0.00     0.000 A 
ATOM      6  C7  UNL d   1      -3.121   1.160   3.274  0.00  0.00    -0.073 A 
ATOM      7  C8  UNL d   1      -3.670   2.305   4.080  0.00  0.00     0.078 C 
ENDROOT
BRANCH   1   8
ATOM      8  C1  UNL d   1      -5.061   1.275   1.606  0.00  0.00     0.053 C 
ATOM      9  C   UNL d   1      -5.350   0.892   0.163  0.00  0.00     0.018 C 
ENDBRANCH   1   8
TORSDOF 1
ENDMDL
