MODEL 1
REMARK minimizedAffinity 7.33921623
REMARK minimizedRMSD -1
REMARK  1 active torsions:
REMARK  status: ('A' for Active; 'I' for Inactive)
REMARK    1  A    between atoms: C1_2  and  C2_3 
ROOT
ATOM      1  C2  UNL d   1      -3.596   1.691   3.160  0.00  0.00    -0.076 A 
ATOM      2  C3  UNL d   1      -3.615   2.329   4.413  0.00  0.00     0.004 A 
ATOM      3  C4  UNL d   1      -4.805   2.813   4.954  0.00  0.00    -0.003 A 
ATOM      4  C5  UNL d   1      -5.995   2.668   4.251  0.00  0.00     0.000 A 
ATOM      5  C6  UNL d   1      -5.998   2.022   3.015  0.00  0.00     0.000 A 
ATOM      6  C7  UNL d   1      -4.810   1.513   2.463  0.00  0.00    -0.073 A 
ATOM      7  C8  UNL d   1      -4.871   0.831   1.124  0.00  0.00     0.078 C 
ENDROOT
BRANCH   1   8
ATOM      8  C1  UNL d   1      -2.272   1.210   2.612  0.00  0.00     0.053 C 
ATOM      9  C   UNL d   1      -1.526   0.317   3.591  0.00  0.00     0.018 C 
ENDBRANCH   1   8
TORSDOF 1
ENDMDL
