MODEL 1
REMARK minimizedAffinity 5.21544218
REMARK minimizedRMSD -1
REMARK  1 active torsions:
REMARK  status: ('A' for Active; 'I' for Inactive)
REMARK    1  A    between atoms: C1_2  and  C2_3 
ROOT
ATOM      1  C2  UNL d   1       2.998   1.850  -0.061  0.00  0.00    -0.076 A 
ATOM      2  C3  UNL d   1       3.515   2.524  -1.181  0.00  0.00     0.004 A 
ATOM      3  C4  UNL d   1       2.804   2.575  -2.379  0.00  0.00    -0.003 A 
ATOM      4  C5  UNL d   1       1.565   1.951  -2.476  0.00  0.00     0.000 A 
ATOM      5  C6  UNL d   1       1.029   1.293  -1.370  0.00  0.00     0.000 A 
ATOM      6  C7  UNL d   1       1.726   1.247  -0.150  0.00  0.00    -0.073 A 
ATOM      7  C8  UNL d   1       1.103   0.517   1.009  0.00  0.00     0.078 C 
ENDROOT
BRANCH   1   8
ATOM      8  C1  UNL d   1       3.826   1.806   1.204  0.00  0.00     0.053 C 
ATOM      9  C   UNL d   1       4.563   3.111   1.464  0.00  0.00     0.018 C 
ENDBRANCH   1   8
TORSDOF 1
ENDMDL
