MODEL 1
REMARK minimizedAffinity 3.73857141
REMARK minimizedRMSD -1
REMARK  1 active torsions:
REMARK  status: ('A' for Active; 'I' for Inactive)
REMARK    1  A    between atoms: C1_2  and  C2_3 
ROOT
ATOM      1  C2  UNL d   1       2.868  -3.455   0.058  0.00  0.00    -0.076 A 
ATOM      2  C3  UNL d   1       1.620  -4.085   0.203  0.00  0.00     0.004 A 
ATOM      3  C4  UNL d   1       0.520  -3.391   0.705  0.00  0.00    -0.003 A 
ATOM      4  C5  UNL d   1       0.651  -2.055   1.069  0.00  0.00     0.000 A 
ATOM      5  C6  UNL d   1       1.878  -1.410   0.916  0.00  0.00     0.000 A 
ATOM      6  C7  UNL d   1       2.992  -2.091   0.397  0.00  0.00    -0.073 A 
ATOM      7  C8  UNL d   1       4.293  -1.348   0.259  0.00  0.00     0.078 C 
ENDROOT
BRANCH   1   8
ATOM      8  C1  UNL d   1       4.032  -4.266  -0.466  0.00  0.00     0.053 C 
ATOM      9  C   UNL d   1       4.591  -5.223   0.576  0.00  0.00     0.018 C 
ENDBRANCH   1   8
TORSDOF 1
ENDMDL
