MODEL 1
REMARK minimizedAffinity 2.94211388
REMARK minimizedRMSD -1
REMARK  1 active torsions:
REMARK  status: ('A' for Active; 'I' for Inactive)
REMARK    1  A    between atoms: C1_2  and  C2_3 
ROOT
ATOM      1  C2  UNL d   1       2.843  -3.659   0.399  0.00  0.00    -0.076 A 
ATOM      2  C3  UNL d   1       1.633  -4.339   0.180  0.00  0.00     0.004 A 
ATOM      3  C4  UNL d   1       0.422  -3.809   0.623  0.00  0.00    -0.003 A 
ATOM      4  C5  UNL d   1       0.402  -2.590   1.291  0.00  0.00     0.000 A 
ATOM      5  C6  UNL d   1       1.592  -1.893   1.501  0.00  0.00     0.000 A 
ATOM      6  C7  UNL d   1       2.819  -2.406   1.047  0.00  0.00    -0.073 A 
ATOM      7  C8  UNL d   1       4.072  -1.615   1.306  0.00  0.00     0.078 C 
ENDROOT
BRANCH   1   8
ATOM      8  C1  UNL d   1       4.128  -4.296  -0.080  0.00  0.00     0.053 C 
ATOM      9  C   UNL d   1       4.415  -5.620   0.611  0.00  0.00     0.018 C 
ENDBRANCH   1   8
TORSDOF 1
ENDMDL
