MODEL 1
REMARK minimizedAffinity -3.80632067
REMARK minimizedRMSD -1
REMARK  1 active torsions:
REMARK  status: ('A' for Active; 'I' for Inactive)
REMARK    1  A    between atoms: C1_2  and  C2_3 
ROOT
ATOM      1  C2  UNL d   1      -5.314  -3.829   4.749  0.00  0.00    -0.076 A 
ATOM      2  C3  UNL d   1      -4.877  -3.169   3.588  0.00  0.00     0.004 A 
ATOM      3  C4  UNL d   1      -4.614  -3.876   2.416  0.00  0.00    -0.003 A 
ATOM      4  C5  UNL d   1      -4.785  -5.256   2.387  0.00  0.00     0.000 A 
ATOM      5  C6  UNL d   1      -5.235  -5.925   3.524  0.00  0.00     0.000 A 
ATOM      6  C7  UNL d   1      -5.520  -5.225   4.709  0.00  0.00    -0.073 A 
ATOM      7  C8  UNL d   1      -5.997  -5.998   5.908  0.00  0.00     0.078 C 
ENDROOT
BRANCH   1   8
ATOM      8  C1  UNL d   1      -5.558  -3.013   5.999  0.00  0.00     0.053 C 
ATOM      9  C   UNL d   1      -5.354  -1.523   5.770  0.00  0.00     0.018 C 
ENDBRANCH   1   8
TORSDOF 1
ENDMDL
