MODEL 1
REMARK minimizedAffinity -3.80537939
REMARK minimizedRMSD -1
REMARK  0 active torsions:
REMARK  status: ('A' for Active; 'I' for Inactive)
ROOT
ATOM      1  C1  BNZ d   1       0.433   1.066   0.194  0.00  0.00     0.000 A 
ATOM      2  C2  BNZ d   1       1.015  -0.125  -0.149  0.00  0.00     0.000 A 
ATOM      3  C3  BNZ d   1       1.957  -0.185  -1.138  0.00  0.00     0.000 A 
ATOM      4  C4  BNZ d   1       2.285   0.937  -1.810  0.00  0.00     0.000 A 
ATOM      5  C5  BNZ d   1       1.701   2.145  -1.482  0.00  0.00     0.000 A 
ATOM      6  C6  BNZ d   1       0.782   2.208  -0.459  0.00  0.00     0.000 A 
ENDROOT
TORSDOF 0
ENDMDL
