MODEL 1
REMARK minimizedAffinity -4.89053726
REMARK minimizedRMSD -1
REMARK  0 active torsions:
REMARK  status: ('A' for Active; 'I' for Inactive)
ROOT
ATOM      1  C1  BNZ d   1       1.279   3.393   0.586  0.00  0.00     0.000 A 
ATOM      2  C2  BNZ d   1       1.063   2.042   0.647  0.00  0.00     0.000 A 
ATOM      3  C3  BNZ d   1       0.970   1.296  -0.495  0.00  0.00     0.000 A 
ATOM      4  C4  BNZ d   1       1.054   1.906  -1.694  0.00  0.00     0.000 A 
ATOM      5  C5  BNZ d   1       1.262   3.269  -1.772  0.00  0.00     0.000 A 
ATOM      6  C6  BNZ d   1       1.394   4.011  -0.621  0.00  0.00     0.000 A 
ENDROOT
TORSDOF 0
ENDMDL
