MODEL 1
REMARK minimizedAffinity -5.50638294
REMARK minimizedRMSD -1
REMARK  0 active torsions:
REMARK  status: ('A' for Active; 'I' for Inactive)
ROOT
ATOM      1  C1  BNZ d   1       0.441   1.908   0.946  0.00  0.00     0.000 A 
ATOM      2  C2  BNZ d   1       0.628   0.878   0.064  0.00  0.00     0.000 A 
ATOM      3  C3  BNZ d   1       1.088   1.114  -1.201  0.00  0.00     0.000 A 
ATOM      4  C4  BNZ d   1       1.322   2.383  -1.595  0.00  0.00     0.000 A 
ATOM      5  C5  BNZ d   1       1.129   3.433  -0.721  0.00  0.00     0.000 A 
ATOM      6  C6  BNZ d   1       0.703   3.188   0.564  0.00  0.00     0.000 A 
ENDROOT
TORSDOF 0
ENDMDL
