MODEL 1
REMARK minimizedAffinity -3.97054386
REMARK minimizedRMSD -1
REMARK  0 active torsions:
REMARK  status: ('A' for Active; 'I' for Inactive)
ROOT
ATOM      1  C1  BNZ d   1       1.135  -0.182  -0.182  0.00  0.00     0.000 A 
ATOM      2  C2  BNZ d   1       1.037   0.928   0.614  0.00  0.00     0.000 A 
ATOM      3  C3  BNZ d   1       0.984   2.179   0.066  0.00  0.00     0.000 A 
ATOM      4  C4  BNZ d   1       1.069   2.321  -1.273  0.00  0.00     0.000 A 
ATOM      5  C5  BNZ d   1       1.178   1.212  -2.088  0.00  0.00     0.000 A 
ATOM      6  C6  BNZ d   1       1.192  -0.048  -1.535  0.00  0.00     0.000 A 
ENDROOT
TORSDOF 0
ENDMDL
