MODEL 1
REMARK minimizedAffinity -2.05814838
REMARK minimizedRMSD -1
REMARK  0 active torsions:
REMARK  status: ('A' for Active; 'I' for Inactive)
ROOT
ATOM      1  C1  BNZ d   1       1.346   0.153  -0.162  0.00  0.00     0.000 A 
ATOM      2  C2  BNZ d   1       1.040   0.390  -1.475  0.00  0.00     0.000 A 
ATOM      3  C3  BNZ d   1       0.857   1.666  -1.932  0.00  0.00     0.000 A 
ATOM      4  C4  BNZ d   1       0.940   2.697  -1.067  0.00  0.00     0.000 A 
ATOM      5  C5  BNZ d   1       1.238   2.473   0.262  0.00  0.00     0.000 A 
ATOM      6  C6  BNZ d   1       1.461   1.191   0.710  0.00  0.00     0.000 A 
ENDROOT
TORSDOF 0
ENDMDL
