MODEL 1
REMARK minimizedAffinity -2.73362398
REMARK minimizedRMSD -1
REMARK  0 active torsions:
REMARK  status: ('A' for Active; 'I' for Inactive)
ROOT
ATOM      1  C1  BNZ d   1       1.451   2.306  -1.939  0.00  0.00     0.000 A 
ATOM      2  C2  BNZ d   1       1.396   0.938  -1.922  0.00  0.00     0.000 A 
ATOM      3  C3  BNZ d   1       1.014   0.267  -0.794  0.00  0.00     0.000 A 
ATOM      4  C4  BNZ d   1       0.728   0.962   0.326  0.00  0.00     0.000 A 
ATOM      5  C5  BNZ d   1       0.789   2.341   0.328  0.00  0.00     0.000 A 
ATOM      6  C6  BNZ d   1       1.136   3.015  -0.821  0.00  0.00     0.000 A 
ENDROOT
TORSDOF 0
ENDMDL
