MODEL 1
REMARK minimizedAffinity -0.213450164
REMARK minimizedRMSD -1
REMARK  0 active torsions:
REMARK  status: ('A' for Active; 'I' for Inactive)
ROOT
ATOM      1  C1  BNZ d   1       1.434   1.668  -2.007  0.00  0.00     0.000 A 
ATOM      2  C2  BNZ d   1       1.008   0.437  -1.583  0.00  0.00     0.000 A 
ATOM      3  C3  BNZ d   1       0.879   0.162  -0.251  0.00  0.00     0.000 A 
ATOM      4  C4  BNZ d   1       1.213   1.103   0.656  0.00  0.00     0.000 A 
ATOM      5  C5  BNZ d   1       1.653   2.345   0.245  0.00  0.00     0.000 A 
ATOM      6  C6  BNZ d   1       1.745   2.632  -1.098  0.00  0.00     0.000 A 
ENDROOT
TORSDOF 0
ENDMDL
