MODEL 1
REMARK minimizedAffinity -3.48653102
REMARK minimizedRMSD -1
REMARK  0 active torsions:
REMARK  status: ('A' for Active; 'I' for Inactive)
ROOT
ATOM      1  C1  BNZ d   1       1.667   3.431  -1.608  0.00  0.00     0.000 A 
ATOM      2  C2  BNZ d   1       1.308   2.127  -1.821  0.00  0.00     0.000 A 
ATOM      3  C3  BNZ d   1       0.881   1.340  -0.787  0.00  0.00     0.000 A 
ATOM      4  C4  BNZ d   1       0.852   1.846   0.462  0.00  0.00     0.000 A 
ATOM      5  C5  BNZ d   1       1.220   3.157   0.695  0.00  0.00     0.000 A 
ATOM      6  C6  BNZ d   1       1.612   3.957  -0.354  0.00  0.00     0.000 A 
ENDROOT
TORSDOF 0
ENDMDL
