MODEL 1
REMARK minimizedAffinity -3.74422288
REMARK minimizedRMSD -1
REMARK  0 active torsions:
REMARK  status: ('A' for Active; 'I' for Inactive)
ROOT
ATOM      1  C1  BNZ d   1       1.114   0.598  -0.565  0.00  0.00     0.000 A 
ATOM      2  C2  BNZ d   1       1.199   0.960  -1.883  0.00  0.00     0.000 A 
ATOM      3  C3  BNZ d   1       1.342   2.271  -2.241  0.00  0.00     0.000 A 
ATOM      4  C4  BNZ d   1       1.361   3.221  -1.284  0.00  0.00     0.000 A 
ATOM      5  C5  BNZ d   1       1.267   2.873   0.049  0.00  0.00     0.000 A 
ATOM      6  C6  BNZ d   1       1.161   1.549   0.408  0.00  0.00     0.000 A 
ENDROOT
TORSDOF 0
ENDMDL
