MODEL 1
REMARK minimizedAffinity 1.26545775
REMARK minimizedRMSD -1
REMARK  0 active torsions:
REMARK  status: ('A' for Active; 'I' for Inactive)
ROOT
ATOM      1  C1  BNZ d   1       0.919  -0.015  -1.370  0.00  0.00     0.000 A 
ATOM      2  C2  BNZ d   1       0.939   1.138  -2.107  0.00  0.00     0.000 A 
ATOM      3  C3  BNZ d   1       1.380   2.311  -1.560  0.00  0.00     0.000 A 
ATOM      4  C4  BNZ d   1       1.762   2.337  -0.267  0.00  0.00     0.000 A 
ATOM      5  C5  BNZ d   1       1.739   1.184   0.492  0.00  0.00     0.000 A 
ATOM      6  C6  BNZ d   1       1.331  -0.002  -0.073  0.00  0.00     0.000 A 
ENDROOT
TORSDOF 0
ENDMDL
