MODEL 1
REMARK minimizedAffinity 1.29515958
REMARK minimizedRMSD -1
REMARK  0 active torsions:
REMARK  status: ('A' for Active; 'I' for Inactive)
ROOT
ATOM      1  C1  BNZ d   1       1.604   4.720   1.193  0.00  0.00     0.000 A 
ATOM      2  C2  BNZ d   1       1.567   3.420   1.624  0.00  0.00     0.000 A 
ATOM      3  C3  BNZ d   1       1.650   2.385   0.735  0.00  0.00     0.000 A 
ATOM      4  C4  BNZ d   1       1.730   2.650  -0.585  0.00  0.00     0.000 A 
ATOM      5  C5  BNZ d   1       1.760   3.955  -1.036  0.00  0.00     0.000 A 
ATOM      6  C6  BNZ d   1       1.715   4.994  -0.135  0.00  0.00     0.000 A 
ENDROOT
TORSDOF 0
ENDMDL
