MODEL 1
REMARK minimizedAffinity -2.98970079
REMARK minimizedRMSD -1
REMARK  0 active torsions:
REMARK  status: ('A' for Active; 'I' for Inactive)
ROOT
ATOM      1  C1  BNZ d   1       1.363   3.056  -2.045  0.00  0.00     0.000 A 
ATOM      2  C2  BNZ d   1       1.025   1.730  -1.990  0.00  0.00     0.000 A 
ATOM      3  C3  BNZ d   1       0.697   1.140  -0.801  0.00  0.00     0.000 A 
ATOM      4  C4  BNZ d   1       0.745   1.866   0.335  0.00  0.00     0.000 A 
ATOM      5  C5  BNZ d   1       1.092   3.201   0.297  0.00  0.00     0.000 A 
ATOM      6  C6  BNZ d   1       1.384   3.801  -0.907  0.00  0.00     0.000 A 
ENDROOT
TORSDOF 0
ENDMDL
