MODEL 1
REMARK minimizedAffinity 3.06566048
REMARK minimizedRMSD -1
REMARK  0 active torsions:
REMARK  status: ('A' for Active; 'I' for Inactive)
ROOT
ATOM      1  C1  BNZ d   1       2.096   1.497  -1.822  0.00  0.00     0.000 A 
ATOM      2  C2  BNZ d   1       2.117   2.859  -1.959  0.00  0.00     0.000 A 
ATOM      3  C3  BNZ d   1       0.954   3.570  -2.068  0.00  0.00     0.000 A 
ATOM      4  C4  BNZ d   1      -0.224   2.914  -2.081  0.00  0.00     0.000 A 
ATOM      5  C5  BNZ d   1      -0.261   1.540  -1.954  0.00  0.00     0.000 A 
ATOM      6  C6  BNZ d   1       0.909   0.832  -1.805  0.00  0.00     0.000 A 
ENDROOT
TORSDOF 0
ENDMDL
