MODEL 1
REMARK minimizedAffinity -2.9498086
REMARK minimizedRMSD -1
REMARK  0 active torsions:
REMARK  status: ('A' for Active; 'I' for Inactive)
ROOT
ATOM      1  C1  BNZ d   1       1.616   4.438  -1.737  0.00  0.00     0.000 A 
ATOM      2  C2  BNZ d   1       1.416   3.120  -2.050  0.00  0.00     0.000 A 
ATOM      3  C3  BNZ d   1       1.174   2.197  -1.070  0.00  0.00     0.000 A 
ATOM      4  C4  BNZ d   1       1.172   2.586   0.221  0.00  0.00     0.000 A 
ATOM      5  C5  BNZ d   1       1.381   3.910   0.553  0.00  0.00     0.000 A 
ATOM      6  C6  BNZ d   1       1.585   4.843  -0.438  0.00  0.00     0.000 A 
ENDROOT
TORSDOF 0
ENDMDL
