MODEL 1
REMARK minimizedAffinity -3.02481842
REMARK minimizedRMSD -1
REMARK  0 active torsions:
REMARK  status: ('A' for Active; 'I' for Inactive)
ROOT
ATOM      1  C1  BNZ d   1       1.576   3.387   0.907  0.00  0.00     0.000 A 
ATOM      2  C2  BNZ d   1       1.512   2.151   0.320  0.00  0.00     0.000 A 
ATOM      3  C3  BNZ d   1       1.593   2.017  -1.038  0.00  0.00     0.000 A 
ATOM      4  C4  BNZ d   1       1.697   3.119  -1.808  0.00  0.00     0.000 A 
ATOM      5  C5  BNZ d   1       1.753   4.372  -1.232  0.00  0.00     0.000 A 
ATOM      6  C6  BNZ d   1       1.710   4.501   0.138  0.00  0.00     0.000 A 
ENDROOT
TORSDOF 0
ENDMDL
