MODEL 1
REMARK minimizedAffinity -2.78974533
REMARK minimizedRMSD -1
REMARK  0 active torsions:
REMARK  status: ('A' for Active; 'I' for Inactive)
ROOT
ATOM      1  C1  BNZ d   1       1.569   3.641  -1.597  0.00  0.00     0.000 A 
ATOM      2  C2  BNZ d   1       1.380   2.286  -1.666  0.00  0.00     0.000 A 
ATOM      3  C3  BNZ d   1       1.039   1.570  -0.553  0.00  0.00     0.000 A 
ATOM      4  C4  BNZ d   1       0.926   2.202   0.634  0.00  0.00     0.000 A 
ATOM      5  C5  BNZ d   1       1.122   3.565   0.721  0.00  0.00     0.000 A 
ATOM      6  C6  BNZ d   1       1.428   4.289  -0.409  0.00  0.00     0.000 A 
ENDROOT
TORSDOF 0
ENDMDL
