MODEL 1
REMARK minimizedAffinity 1.75535917
REMARK minimizedRMSD -1
REMARK  1 active torsions:
REMARK  status: ('A' for Active; 'I' for Inactive)
REMARK    1  A    between atoms: C1_2  and  C2_3 
ROOT
ATOM      1  C2  UNL d   1      -1.806   3.774  -4.126  0.00  0.00    -0.077 A 
ATOM      2  C3  UNL d   1      -1.075   2.578  -4.135  0.00  0.00     0.002 A 
ATOM      3  C4  UNL d   1      -0.058   2.379  -5.071  0.00  0.00     0.002 A 
ATOM      4  C5  UNL d   1       0.240   3.374  -6.000  0.00  0.00    -0.004 A 
ATOM      5  C6  UNL d   1      -0.482   4.566  -6.000  0.00  0.00     0.002 A 
ATOM      6  C7  UNL d   1      -1.500   4.766  -5.066  0.00  0.00     0.002 A 
ENDROOT
BRANCH   1   7
ATOM      7  C1  UNL d   1      -2.870   4.010  -3.086  0.00  0.00     0.055 C 
ATOM      8  C   UNL d   1      -3.825   2.829  -2.993  0.00  0.00     0.019 C 
ENDBRANCH   1   7
TORSDOF 1
ENDMDL
