MODEL 1
REMARK minimizedAffinity 5.47553778
REMARK minimizedRMSD -1
REMARK  1 active torsions:
REMARK  status: ('A' for Active; 'I' for Inactive)
REMARK    1  A    between atoms: C1_2  and  C2_3 
ROOT
ATOM      1  C2  UNL d   1      -1.115   3.587  -4.379  0.00  0.00    -0.077 A 
ATOM      2  C3  UNL d   1      -0.636   4.575  -5.251  0.00  0.00     0.002 A 
ATOM      3  C4  UNL d   1       0.522   4.356  -6.000  0.00  0.00     0.002 A 
ATOM      4  C5  UNL d   1       1.207   3.148  -5.888  0.00  0.00    -0.004 A 
ATOM      5  C6  UNL d   1       0.740   2.160  -5.022  0.00  0.00     0.002 A 
ATOM      6  C7  UNL d   1      -0.416   2.378  -4.272  0.00  0.00     0.002 A 
ENDROOT
BRANCH   1   7
ATOM      7  C1  UNL d   1      -2.390   3.803  -3.608  0.00  0.00     0.055 C 
ATOM      8  C   UNL d   1      -3.035   2.480  -3.222  0.00  0.00     0.019 C 
ENDBRANCH   1   7
TORSDOF 1
ENDMDL
