MODEL 1
REMARK minimizedAffinity -3.4047842
REMARK minimizedRMSD -1
REMARK  1 active torsions:
REMARK  status: ('A' for Active; 'I' for Inactive)
REMARK    1  A    between atoms: C1_2  and  C2_3 
ROOT
ATOM      1  C2  UNL d   1      -2.922   3.280  -3.941  0.00  0.00    -0.077 A 
ATOM      2  C3  UNL d   1      -2.884   4.211  -4.989  0.00  0.00     0.002 A 
ATOM      3  C4  UNL d   1      -1.737   4.344  -5.775  0.00  0.00     0.002 A 
ATOM      4  C5  UNL d   1      -0.622   3.547  -5.523  0.00  0.00    -0.004 A 
ATOM      5  C6  UNL d   1      -0.649   2.620  -4.482  0.00  0.00     0.002 A 
ATOM      6  C7  UNL d   1      -1.794   2.486  -3.695  0.00  0.00     0.002 A 
ENDROOT
BRANCH   1   7
ATOM      7  C1  UNL d   1      -4.175   3.100  -3.125  0.00  0.00     0.055 C 
ATOM      8  C   UNL d   1      -3.853   2.635  -1.712  0.00  0.00     0.019 C 
ENDBRANCH   1   7
TORSDOF 1
ENDMDL
