MODEL 1
REMARK minimizedAffinity 8.52406025
REMARK minimizedRMSD -1
REMARK  1 active torsions:
REMARK  status: ('A' for Active; 'I' for Inactive)
REMARK    1  A    between atoms: C1_2  and  C2_3 
ROOT
ATOM      1  C2  UNL d   1       3.511  -4.028   0.450  0.00  0.00    -0.077 A 
ATOM      2  C3  UNL d   1       3.473  -2.744  -0.111  0.00  0.00     0.002 A 
ATOM      3  C4  UNL d   1       2.261  -2.061  -0.231  0.00  0.00     0.002 A 
ATOM      4  C5  UNL d   1       1.080  -2.653   0.211  0.00  0.00    -0.004 A 
ATOM      5  C6  UNL d   1       1.107  -3.930   0.769  0.00  0.00     0.002 A 
ATOM      6  C7  UNL d   1       2.317  -4.614   0.889  0.00  0.00     0.002 A 
ENDROOT
BRANCH   1   7
ATOM      7  C1  UNL d   1       4.824  -4.746   0.625  0.00  0.00     0.055 C 
ATOM      8  C   UNL d   1       5.998  -3.852   0.253  0.00  0.00     0.019 C 
ENDBRANCH   1   7
TORSDOF 1
ENDMDL
