MODEL 1
REMARK minimizedAffinity 8.17989254
REMARK minimizedRMSD -1
REMARK  1 active torsions:
REMARK  status: ('A' for Active; 'I' for Inactive)
REMARK    1  A    between atoms: C1_2  and  C2_3 
ROOT
ATOM      1  C2  UNL d   1      -1.452   3.370  -4.469  0.00  0.00    -0.077 A 
ATOM      2  C3  UNL d   1      -0.917   4.380  -5.280  0.00  0.00     0.002 A 
ATOM      3  C4  UNL d   1       0.259   4.159  -6.000  0.00  0.00     0.002 A 
ATOM      4  C5  UNL d   1       0.906   2.928  -5.919  0.00  0.00    -0.004 A 
ATOM      5  C6  UNL d   1       0.383   1.917  -5.114  0.00  0.00     0.002 A 
ATOM      6  C7  UNL d   1      -0.791   2.137  -4.392  0.00  0.00     0.002 A 
ENDROOT
BRANCH   1   7
ATOM      7  C1  UNL d   1      -2.746   3.589  -3.730  0.00  0.00     0.055 C 
ATOM      8  C   UNL d   1      -3.334   2.274  -3.240  0.00  0.00     0.019 C 
ENDBRANCH   1   7
TORSDOF 1
ENDMDL
