MODEL 1
REMARK minimizedAffinity 2.9705534
REMARK minimizedRMSD -1
REMARK  1 active torsions:
REMARK  status: ('A' for Active; 'I' for Inactive)
REMARK    1  A    between atoms: C1_2  and  C2_3 
ROOT
ATOM      1  C2  UNL d   1       0.900  -3.860   1.091  0.00  0.00    -0.077 A 
ATOM      2  C3  UNL d   1       1.588  -4.991   1.553  0.00  0.00     0.002 A 
ATOM      3  C4  UNL d   1       2.982  -5.043   1.496  0.00  0.00     0.002 A 
ATOM      4  C5  UNL d   1       3.700  -3.965   0.981  0.00  0.00    -0.004 A 
ATOM      5  C6  UNL d   1       3.025  -2.837   0.517  0.00  0.00     0.002 A 
ATOM      6  C7  UNL d   1       1.632  -2.784   0.573  0.00  0.00     0.002 A 
ENDROOT
BRANCH   1   7
ATOM      7  C1  UNL d   1      -0.600  -3.783   1.198  0.00  0.00     0.055 C 
ATOM      8  C   UNL d   1      -1.028  -3.028   2.447  0.00  0.00     0.019 C 
ENDBRANCH   1   7
TORSDOF 1
ENDMDL
