MODEL 1
REMARK minimizedAffinity -4.56688023
REMARK minimizedRMSD -1
REMARK  3 active torsions:
REMARK  status: ('A' for Active; 'I' for Inactive)
REMARK    1  A    between atoms: C3'_2  and  C2'_3 
REMARK    2  A    between atoms: C2'_3  and  C1'_4 
REMARK    3  A    between atoms: C1'_4  and  C1_5 
ROOT
ATOM      1  C1  N4B d   1       0.571   0.139   0.021  0.00  0.00    -0.075 A 
ATOM      2  C2  N4B d   1       0.736  -1.147  -0.538  0.00  0.00     0.002 A 
ATOM      3  C3  N4B d   1       1.628  -2.029   0.021  0.00  0.00     0.002 A 
ATOM      4  C4  N4B d   1       2.376  -1.643   1.123  0.00  0.00    -0.004 A 
ATOM      5  C5  N4B d   1       2.192  -0.408   1.673  0.00  0.00     0.002 A 
ATOM      6  C6  N4B d   1       1.296   0.487   1.124  0.00  0.00     0.002 A 
ENDROOT
BRANCH   1   7
ATOM      7  C1' N4B d   1      -0.329   1.168  -0.606  0.00  0.00     0.057 C 
BRANCH   7   8
ATOM      8  C2' N4B d   1      -1.777   0.700  -0.498  0.00  0.00     0.009 C 
BRANCH   8   9
ATOM      9  C3' N4B d   1      -2.439   1.190   0.779  0.00  0.00     0.004 C 
ATOM     10  C4' N4B d   1      -3.931   1.041   0.754  0.00  0.00     0.003 C 
ENDBRANCH   8   9
ENDBRANCH   7   8
ENDBRANCH   1   7
TORSDOF 3
ENDMDL
