MODEL 1
REMARK minimizedAffinity -5.41387606
REMARK minimizedRMSD -1
REMARK  3 active torsions:
REMARK  status: ('A' for Active; 'I' for Inactive)
REMARK    1  A    between atoms: C3'_2  and  C2'_3 
REMARK    2  A    between atoms: C2'_3  and  C1'_4 
REMARK    3  A    between atoms: C1'_4  and  C1_5 
ROOT
ATOM      1  C1  N4B d   1       0.069   0.113  -0.007  0.00  0.00    -0.075 A 
ATOM      2  C2  N4B d   1       1.070   0.953   0.528  0.00  0.00     0.002 A 
ATOM      3  C3  N4B d   1       2.281   0.425   0.901  0.00  0.00     0.002 A 
ATOM      4  C4  N4B d   1       2.507  -0.936   0.767  0.00  0.00    -0.004 A 
ATOM      5  C5  N4B d   1       1.544  -1.737   0.226  0.00  0.00     0.002 A 
ATOM      6  C6  N4B d   1       0.323  -1.219  -0.158  0.00  0.00     0.002 A 
ENDROOT
BRANCH   1   7
ATOM      7  C1' N4B d   1      -1.302   0.630  -0.350  0.00  0.00     0.057 C 
BRANCH   7   8
ATOM      8  C2' N4B d   1      -2.071   0.904   0.939  0.00  0.00     0.009 C 
BRANCH   8   9
ATOM      9  C3' N4B d   1      -3.562   1.055   0.691  0.00  0.00     0.004 C 
ATOM     10  C4' N4B d   1      -4.382   0.065   1.463  0.00  0.00     0.003 C 
ENDBRANCH   8   9
ENDBRANCH   7   8
ENDBRANCH   1   7
TORSDOF 3
ENDMDL
