MODEL 1
REMARK minimizedAffinity 18.8987732
REMARK minimizedRMSD -1
REMARK  2 active torsions:
REMARK  status: ('A' for Active; 'I' for Inactive)
REMARK    1  A    between atoms: C1_2  and  C2_3 
REMARK    2  A    between atoms: C2_3  and  C3_4 
ROOT
ATOM      1  C3  UNL d   1       4.480   3.192   4.804  0.00  0.00    -0.075 A 
ATOM      2  C4  UNL d   1       3.320   3.836   5.256  0.00  0.00     0.002 A 
ATOM      3  C5  UNL d   1       3.393   5.102   5.838  0.00  0.00     0.002 A 
ATOM      4  C6  UNL d   1       4.626   5.734   5.985  0.00  0.00    -0.004 A 
ATOM      5  C7  UNL d   1       5.787   5.096   5.554  0.00  0.00     0.002 A 
ATOM      6  C8  UNL d   1       5.716   3.831   4.968  0.00  0.00     0.002 A 
ENDROOT
BRANCH   1   7
ATOM      7  C2  UNL d   1       4.404   1.834   4.147  0.00  0.00     0.056 C 
BRANCH   7   8
ATOM      8  C1  UNL d   1       5.081   1.767   2.774  0.00  0.00     0.007 C 
ATOM      9  C   UNL d   1       4.206   2.299   1.646  0.00  0.00     0.009 C 
ENDBRANCH   7   8
ENDBRANCH   1   7
TORSDOF 2
ENDMDL
