MODEL 1
REMARK minimizedAffinity 10.299861
REMARK minimizedRMSD -1
REMARK  2 active torsions:
REMARK  status: ('A' for Active; 'I' for Inactive)
REMARK    1  A    between atoms: C1_2  and  C2_3 
REMARK    2  A    between atoms: C2_3  and  C3_4 
ROOT
ATOM      1  C3  UNL d   1      -0.750  -3.578   1.483  0.00  0.00    -0.075 A 
ATOM      2  C4  UNL d   1      -1.543  -2.914   2.430  0.00  0.00     0.002 A 
ATOM      3  C5  UNL d   1      -2.328  -1.823   2.056  0.00  0.00     0.002 A 
ATOM      4  C6  UNL d   1      -2.323  -1.377   0.736  0.00  0.00    -0.004 A 
ATOM      5  C7  UNL d   1      -1.525  -2.018  -0.209  0.00  0.00     0.002 A 
ATOM      6  C8  UNL d   1      -0.742  -3.113   0.161  0.00  0.00     0.002 A 
ENDROOT
BRANCH   1   7
ATOM      7  C2  UNL d   1       0.080  -4.777   1.875  0.00  0.00     0.056 C 
BRANCH   7   8
ATOM      8  C1  UNL d   1      -0.747  -6.000   2.287  0.00  0.00     0.007 C 
ATOM      9  C   UNL d   1      -1.125  -6.000   3.762  0.00  0.00     0.009 C 
ENDBRANCH   7   8
ENDBRANCH   1   7
TORSDOF 2
ENDMDL
