MODEL 1
REMARK minimizedAffinity 0.787089348
REMARK minimizedRMSD -1
REMARK  2 active torsions:
REMARK  status: ('A' for Active; 'I' for Inactive)
REMARK    1  A    between atoms: C1_2  and  C2_3 
REMARK    2  A    between atoms: C2_3  and  C3_4 
ROOT
ATOM      1  C3  UNL d   1      -1.512  -3.270   1.920  0.00  0.00    -0.075 A 
ATOM      2  C4  UNL d   1      -0.863  -4.364   1.329  0.00  0.00     0.002 A 
ATOM      3  C5  UNL d   1      -0.422  -4.296   0.007  0.00  0.00     0.002 A 
ATOM      4  C6  UNL d   1      -0.633  -3.141  -0.743  0.00  0.00    -0.004 A 
ATOM      5  C7  UNL d   1      -1.291  -2.054  -0.171  0.00  0.00     0.002 A 
ATOM      6  C8  UNL d   1      -1.729  -2.117   1.153  0.00  0.00     0.002 A 
ENDROOT
BRANCH   1   7
ATOM      7  C2  UNL d   1      -1.965  -3.326   3.359  0.00  0.00     0.056 C 
BRANCH   7   8
ATOM      8  C1  UNL d   1      -1.828  -1.996   4.108  0.00  0.00     0.007 C 
ATOM      9  C   UNL d   1      -0.914  -2.083   5.323  0.00  0.00     0.009 C 
ENDBRANCH   7   8
ENDBRANCH   1   7
TORSDOF 2
ENDMDL
