MODEL 1
REMARK minimizedAffinity 12.1257982
REMARK minimizedRMSD -1
REMARK  2 active torsions:
REMARK  status: ('A' for Active; 'I' for Inactive)
REMARK    1  A    between atoms: C1_2  and  C2_3 
REMARK    2  A    between atoms: C2_3  and  C3_4 
ROOT
ATOM      1  C3  UNL d   1       4.487   3.211   0.727  0.00  0.00    -0.075 A 
ATOM      2  C4  UNL d   1       4.508   4.607   0.859  0.00  0.00     0.002 A 
ATOM      3  C5  UNL d   1       5.257   5.390  -0.020  0.00  0.00     0.002 A 
ATOM      4  C6  UNL d   1       5.999   4.789  -1.034  0.00  0.00    -0.004 A 
ATOM      5  C7  UNL d   1       5.998   3.402  -1.164  0.00  0.00     0.002 A 
ATOM      6  C8  UNL d   1       5.247   2.616  -0.289  0.00  0.00     0.002 A 
ENDROOT
BRANCH   1   7
ATOM      7  C2  UNL d   1       3.655   2.359   1.657  0.00  0.00     0.056 C 
BRANCH   7   8
ATOM      8  C1  UNL d   1       4.364   1.989   2.964  0.00  0.00     0.007 C 
ATOM      9  C   UNL d   1       5.598   1.122   2.753  0.00  0.00     0.009 C 
ENDBRANCH   7   8
ENDBRANCH   1   7
TORSDOF 2
ENDMDL
