MODEL 1
REMARK minimizedAffinity 12.8952379
REMARK minimizedRMSD -1
REMARK  2 active torsions:
REMARK  status: ('A' for Active; 'I' for Inactive)
REMARK    1  A    between atoms: C1_2  and  C2_3 
REMARK    2  A    between atoms: C2_3  and  C3_4 
ROOT
ATOM      1  C3  UNL d   1       4.379   3.531   0.632  0.00  0.00    -0.075 A 
ATOM      2  C4  UNL d   1       4.231   4.564   1.570  0.00  0.00     0.002 A 
ATOM      3  C5  UNL d   1       4.951   5.751   1.435  0.00  0.00     0.002 A 
ATOM      4  C6  UNL d   1       5.833   5.918   0.369  0.00  0.00    -0.004 A 
ATOM      5  C7  UNL d   1       6.000   4.892  -0.559  0.00  0.00     0.002 A 
ATOM      6  C8  UNL d   1       5.278   3.705  -0.429  0.00  0.00     0.002 A 
ENDROOT
BRANCH   1   7
ATOM      7  C2  UNL d   1       3.581   2.255   0.756  0.00  0.00     0.056 C 
BRANCH   7   8
ATOM      8  C1  UNL d   1       2.454   2.122  -0.274  0.00  0.00     0.007 C 
ATOM      9  C   UNL d   1       2.490   0.804  -1.036  0.00  0.00     0.009 C 
ENDBRANCH   7   8
ENDBRANCH   1   7
TORSDOF 2
ENDMDL
