MODEL 1
REMARK minimizedAffinity 8.38223267
REMARK minimizedRMSD -1
REMARK  2 active torsions:
REMARK  status: ('A' for Active; 'I' for Inactive)
REMARK    1  A    between atoms: C1_2  and  C2_3 
REMARK    2  A    between atoms: C2_3  and  C3_4 
ROOT
ATOM      1  C3  UNL d   1      -4.145   5.411  -2.121  0.00  0.00    -0.075 A 
ATOM      2  C4  UNL d   1      -3.413   4.309  -1.656  0.00  0.00     0.002 A 
ATOM      3  C5  UNL d   1      -3.641   3.795  -0.380  0.00  0.00     0.002 A 
ATOM      4  C6  UNL d   1      -4.595   4.380   0.450  0.00  0.00    -0.004 A 
ATOM      5  C7  UNL d   1      -5.316   5.485   0.005  0.00  0.00     0.002 A 
ATOM      6  C8  UNL d   1      -5.093   6.000  -1.273  0.00  0.00     0.002 A 
ENDROOT
BRANCH   1   7
ATOM      7  C2  UNL d   1      -3.924   5.954  -3.512  0.00  0.00     0.056 C 
BRANCH   7   8
ATOM      8  C1  UNL d   1      -5.191   6.000  -4.373  0.00  0.00     0.007 C 
ATOM      9  C   UNL d   1      -4.963   5.526  -5.802  0.00  0.00     0.009 C 
ENDBRANCH   7   8
ENDBRANCH   1   7
TORSDOF 2
ENDMDL
