MODEL 1
REMARK minimizedAffinity 10.5680838
REMARK minimizedRMSD -1
REMARK  2 active torsions:
REMARK  status: ('A' for Active; 'I' for Inactive)
REMARK    1  A    between atoms: C1_2  and  C2_3 
REMARK    2  A    between atoms: C2_3  and  C3_4 
ROOT
ATOM      1  C3  UNL d   1      -4.056   3.836  -4.967  0.00  0.00    -0.075 A 
ATOM      2  C4  UNL d   1      -5.099   3.813  -5.904  0.00  0.00     0.002 A 
ATOM      3  C5  UNL d   1      -5.997   4.877  -5.990  0.00  0.00     0.002 A 
ATOM      4  C6  UNL d   1      -5.871   5.970  -5.136  0.00  0.00    -0.004 A 
ATOM      5  C7  UNL d   1      -4.848   5.996  -4.190  0.00  0.00     0.002 A 
ATOM      6  C8  UNL d   1      -3.946   4.935  -4.105  0.00  0.00     0.002 A 
ENDROOT
BRANCH   1   7
ATOM      7  C2  UNL d   1      -3.063   2.701  -4.888  0.00  0.00     0.056 C 
BRANCH   7   8
ATOM      8  C1  UNL d   1      -1.787   3.041  -4.112  0.00  0.00     0.007 C 
ATOM      9  C   UNL d   1      -0.610   2.142  -4.467  0.00  0.00     0.009 C 
ENDBRANCH   7   8
ENDBRANCH   1   7
TORSDOF 2
ENDMDL
