MODEL 1
REMARK minimizedAffinity 12.9730406
REMARK minimizedRMSD -1
REMARK  2 active torsions:
REMARK  status: ('A' for Active; 'I' for Inactive)
REMARK    1  A    between atoms: C1_2  and  C2_3 
REMARK    2  A    between atoms: C2_3  and  C3_4 
ROOT
ATOM      1  C3  UNL d   1       4.275   2.983   0.478  0.00  0.00    -0.075 A 
ATOM      2  C4  UNL d   1       3.204   2.604  -0.344  0.00  0.00     0.002 A 
ATOM      3  C5  UNL d   1       2.215   1.743   0.132  0.00  0.00     0.002 A 
ATOM      4  C6  UNL d   1       2.290   1.242   1.430  0.00  0.00    -0.004 A 
ATOM      5  C7  UNL d   1       3.358   1.599   2.250  0.00  0.00     0.002 A 
ATOM      6  C8  UNL d   1       4.346   2.464   1.778  0.00  0.00     0.002 A 
ENDROOT
BRANCH   1   7
ATOM      7  C2  UNL d   1       5.333   3.938  -0.022  0.00  0.00     0.056 C 
BRANCH   7   8
ATOM      8  C1  UNL d   1       4.914   5.412   0.024  0.00  0.00     0.007 C 
ATOM      9  C   UNL d   1       4.940   6.000   1.428  0.00  0.00     0.009 C 
ENDBRANCH   7   8
ENDBRANCH   1   7
TORSDOF 2
ENDMDL
