MODEL 1
REMARK minimizedAffinity 15.772583
REMARK minimizedRMSD -1
REMARK  2 active torsions:
REMARK  status: ('A' for Active; 'I' for Inactive)
REMARK    1  A    between atoms: C1_2  and  C2_3 
REMARK    2  A    between atoms: C2_3  and  C3_4 
ROOT
ATOM      1  C3  UNL d   1       2.696   1.444  -1.329  0.00  0.00    -0.075 A 
ATOM      2  C4  UNL d   1       1.432   0.869  -1.522  0.00  0.00     0.002 A 
ATOM      3  C5  UNL d   1       1.291  -0.299  -2.272  0.00  0.00     0.002 A 
ATOM      4  C6  UNL d   1       2.409  -0.899  -2.847  0.00  0.00    -0.004 A 
ATOM      5  C7  UNL d   1       3.668  -0.328  -2.676  0.00  0.00     0.002 A 
ATOM      6  C8  UNL d   1       3.812   0.838  -1.922  0.00  0.00     0.002 A 
ENDROOT
BRANCH   1   7
ATOM      7  C2  UNL d   1       2.859   2.691  -0.493  0.00  0.00     0.056 C 
BRANCH   7   8
ATOM      8  C1  UNL d   1       4.257   2.859   0.111  0.00  0.00     0.007 C 
ATOM      9  C   UNL d   1       4.765   4.293   0.058  0.00  0.00     0.009 C 
ENDBRANCH   7   8
ENDBRANCH   1   7
TORSDOF 2
ENDMDL
