MODEL 1
REMARK minimizedAffinity 5.27005291
REMARK minimizedRMSD -1
REMARK  2 active torsions:
REMARK  status: ('A' for Active; 'I' for Inactive)
REMARK    1  A    between atoms: C1_2  and  C2_3 
REMARK    2  A    between atoms: C2_3  and  C3_4 
ROOT
ATOM      1  C3  UNL d   1      -4.208   3.615  -5.016  0.00  0.00    -0.075 A 
ATOM      2  C4  UNL d   1      -5.272   3.739  -5.920  0.00  0.00     0.002 A 
ATOM      3  C5  UNL d   1      -6.000   4.927  -5.999  0.00  0.00     0.002 A 
ATOM      4  C6  UNL d   1      -5.680   6.000  -5.169  0.00  0.00    -0.004 A 
ATOM      5  C7  UNL d   1      -4.634   5.881  -4.256  0.00  0.00     0.002 A 
ATOM      6  C8  UNL d   1      -3.902   4.695  -4.178  0.00  0.00     0.002 A 
ENDROOT
BRANCH   1   7
ATOM      7  C2  UNL d   1      -3.397   2.342  -4.947  0.00  0.00     0.056 C 
BRANCH   7   8
ATOM      8  C1  UNL d   1      -2.457   2.266  -3.740  0.00  0.00     0.007 C 
ATOM      9  C   UNL d   1      -2.606   0.977  -2.943  0.00  0.00     0.009 C 
ENDBRANCH   7   8
ENDBRANCH   1   7
TORSDOF 2
ENDMDL
