MODEL 1
REMARK minimizedAffinity 1.08053172
REMARK minimizedRMSD -1
REMARK  0 active torsions:
REMARK  status: ('A' for Active; 'I' for Inactive)
ROOT
ATOM      1  C1  BNZ d   1      -3.279  -3.633  -5.973  0.00  0.00     0.000 A 
ATOM      2  C2  BNZ d   1      -4.648  -3.653  -6.000  0.00  0.00     0.000 A 
ATOM      3  C3  BNZ d   1      -5.331  -4.837  -5.988  0.00  0.00     0.000 A 
ATOM      4  C4  BNZ d   1      -4.645  -5.998  -5.990  0.00  0.00     0.000 A 
ATOM      5  C5  BNZ d   1      -3.265  -5.995  -5.972  0.00  0.00     0.000 A 
ATOM      6  C6  BNZ d   1      -2.581  -4.801  -5.945  0.00  0.00     0.000 A 
ENDROOT
TORSDOF 0
ENDMDL
