MODEL 1
REMARK minimizedAffinity 2.62265992
REMARK minimizedRMSD -1
REMARK  0 active torsions:
REMARK  status: ('A' for Active; 'I' for Inactive)
ROOT
ATOM      1  C1  BNZ d   1      -3.748   1.557   1.484  0.00  0.00     0.000 A 
ATOM      2  C2  BNZ d   1      -2.623   1.983   2.137  0.00  0.00     0.000 A 
ATOM      3  C3  BNZ d   1      -1.457   1.273   2.060  0.00  0.00     0.000 A 
ATOM      4  C4  BNZ d   1      -1.430   0.118   1.364  0.00  0.00     0.000 A 
ATOM      5  C5  BNZ d   1      -2.559  -0.330   0.708  0.00  0.00     0.000 A 
ATOM      6  C6  BNZ d   1      -3.719   0.408   0.755  0.00  0.00     0.000 A 
ENDROOT
TORSDOF 0
ENDMDL
