MODEL 1
REMARK minimizedAffinity -2.40645742
REMARK minimizedRMSD -1
REMARK  0 active torsions:
REMARK  status: ('A' for Active; 'I' for Inactive)
ROOT
ATOM      1  C1  BNZ d   1      -4.510   2.498   1.545  0.00  0.00     0.000 A 
ATOM      2  C2  BNZ d   1      -4.500   1.171   1.882  0.00  0.00     0.000 A 
ATOM      3  C3  BNZ d   1      -5.255   0.707   2.922  0.00  0.00     0.000 A 
ATOM      4  C4  BNZ d   1      -5.987   1.575   3.649  0.00  0.00     0.000 A 
ATOM      5  C5  BNZ d   1      -6.000   2.918   3.329  0.00  0.00     0.000 A 
ATOM      6  C6  BNZ d   1      -5.269   3.375   2.256  0.00  0.00     0.000 A 
ENDROOT
TORSDOF 0
ENDMDL
