MODEL 1
REMARK minimizedAffinity -1.21593475
REMARK minimizedRMSD -1
REMARK  0 active torsions:
REMARK  status: ('A' for Active; 'I' for Inactive)
ROOT
ATOM      1  C1  BNZ d   1      -1.693  -3.105  -5.997  0.00  0.00     0.000 A 
ATOM      2  C2  BNZ d   1      -0.735  -2.126  -5.995  0.00  0.00     0.000 A 
ATOM      3  C3  BNZ d   1      -1.085  -0.805  -5.971  0.00  0.00     0.000 A 
ATOM      4  C4  BNZ d   1      -2.390  -0.464  -5.988  0.00  0.00     0.000 A 
ATOM      5  C5  BNZ d   1      -3.367  -1.439  -5.998  0.00  0.00     0.000 A 
ATOM      6  C6  BNZ d   1      -3.011  -2.768  -5.984  0.00  0.00     0.000 A 
ENDROOT
TORSDOF 0
ENDMDL
