MODEL 1
REMARK minimizedAffinity 6.25520372
REMARK minimizedRMSD -1
REMARK  0 active torsions:
REMARK  status: ('A' for Active; 'I' for Inactive)
ROOT
ATOM      1  C1  BNZ d   1      -2.881  -0.359   3.798  0.00  0.00     0.000 A 
ATOM      2  C2  BNZ d   1      -2.584  -1.104   4.908  0.00  0.00     0.000 A 
ATOM      3  C3  BNZ d   1      -3.415  -1.105   5.993  0.00  0.00     0.000 A 
ATOM      4  C4  BNZ d   1      -4.520  -0.332   5.983  0.00  0.00     0.000 A 
ATOM      5  C5  BNZ d   1      -4.828   0.431   4.875  0.00  0.00     0.000 A 
ATOM      6  C6  BNZ d   1      -4.010   0.400   3.769  0.00  0.00     0.000 A 
ENDROOT
TORSDOF 0
ENDMDL
