MODEL 1
REMARK minimizedAffinity 1.6447736
REMARK minimizedRMSD -1
REMARK  0 active torsions:
REMARK  status: ('A' for Active; 'I' for Inactive)
ROOT
ATOM      1  C1  BNZ d   1      -2.876  -2.652  -5.969  0.00  0.00     0.000 A 
ATOM      2  C2  BNZ d   1      -4.209  -2.966  -5.965  0.00  0.00     0.000 A 
ATOM      3  C3  BNZ d   1      -5.160  -1.985  -6.000  0.00  0.00     0.000 A 
ATOM      4  C4  BNZ d   1      -4.778  -0.691  -5.999  0.00  0.00     0.000 A 
ATOM      5  C5  BNZ d   1      -3.438  -0.358  -5.994  0.00  0.00     0.000 A 
ATOM      6  C6  BNZ d   1      -2.483  -1.350  -5.998  0.00  0.00     0.000 A 
ENDROOT
TORSDOF 0
ENDMDL
