MODEL 1
REMARK minimizedAffinity 2.15739441
REMARK minimizedRMSD -1
REMARK  0 active torsions:
REMARK  status: ('A' for Active; 'I' for Inactive)
ROOT
ATOM      1  C1  BNZ d   1      -4.742  -3.795  -5.994  0.00  0.00     0.000 A 
ATOM      2  C2  BNZ d   1      -3.391  -4.022  -6.000  0.00  0.00     0.000 A 
ATOM      3  C3  BNZ d   1      -2.507  -2.980  -5.980  0.00  0.00     0.000 A 
ATOM      4  C4  BNZ d   1      -2.973  -1.714  -5.996  0.00  0.00     0.000 A 
ATOM      5  C5  BNZ d   1      -4.331  -1.470  -6.000  0.00  0.00     0.000 A 
ATOM      6  C6  BNZ d   1      -5.219  -2.521  -5.980  0.00  0.00     0.000 A 
ENDROOT
TORSDOF 0
ENDMDL
