MODEL 1
REMARK minimizedAffinity 0.379185289
REMARK minimizedRMSD -1
REMARK  0 active torsions:
REMARK  status: ('A' for Active; 'I' for Inactive)
ROOT
ATOM      1  C1  BNZ d   1       5.993  -3.964   5.996  0.00  0.00     0.000 A 
ATOM      2  C2  BNZ d   1       6.000  -3.214   4.850  0.00  0.00     0.000 A 
ATOM      3  C3  BNZ d   1       5.980  -3.813   3.622  0.00  0.00     0.000 A 
ATOM      4  C4  BNZ d   1       5.994  -5.159   3.540  0.00  0.00     0.000 A 
ATOM      5  C5  BNZ d   1       5.997  -5.929   4.686  0.00  0.00     0.000 A 
ATOM      6  C6  BNZ d   1       5.977  -5.323   5.921  0.00  0.00     0.000 A 
ENDROOT
TORSDOF 0
ENDMDL
