MODEL 1
REMARK minimizedAffinity 4.47467375
REMARK minimizedRMSD -1
REMARK  0 active torsions:
REMARK  status: ('A' for Active; 'I' for Inactive)
ROOT
ATOM      1  C1  BNZ d   1      -1.380   0.037  -5.244  0.00  0.00     0.000 A 
ATOM      2  C2  BNZ d   1      -2.643  -0.311  -5.642  0.00  0.00     0.000 A 
ATOM      3  C3  BNZ d   1      -2.934  -1.598  -6.000  0.00  0.00     0.000 A 
ATOM      4  C4  BNZ d   1      -1.954  -2.524  -5.997  0.00  0.00     0.000 A 
ATOM      5  C5  BNZ d   1      -0.674  -2.187  -5.608  0.00  0.00     0.000 A 
ATOM      6  C6  BNZ d   1      -0.394  -0.899  -5.211  0.00  0.00     0.000 A 
ENDROOT
TORSDOF 0
ENDMDL
