MODEL 1
REMARK minimizedAffinity 1.47949553
REMARK minimizedRMSD -1
REMARK  0 active torsions:
REMARK  status: ('A' for Active; 'I' for Inactive)
ROOT
ATOM      1  C1  BNZ d   1      -4.992   1.711   2.819  0.00  0.00     0.000 A 
ATOM      2  C2  BNZ d   1      -3.687   1.561   2.433  0.00  0.00     0.000 A 
ATOM      3  C3  BNZ d   1      -3.359   0.783   1.358  0.00  0.00     0.000 A 
ATOM      4  C4  BNZ d   1      -4.332   0.125   0.695  0.00  0.00     0.000 A 
ATOM      5  C5  BNZ d   1      -5.652   0.258   1.077  0.00  0.00     0.000 A 
ATOM      6  C6  BNZ d   1      -5.982   1.073   2.136  0.00  0.00     0.000 A 
ENDROOT
TORSDOF 0
ENDMDL
