MODEL 1
REMARK minimizedAffinity -0.243426129
REMARK minimizedRMSD -1
REMARK  0 active torsions:
REMARK  status: ('A' for Active; 'I' for Inactive)
ROOT
ATOM      1  C1  BNZ d   1      -3.563  -3.672  -5.985  0.00  0.00     0.000 A 
ATOM      2  C2  BNZ d   1      -2.688  -2.618  -6.000  0.00  0.00     0.000 A 
ATOM      3  C3  BNZ d   1      -3.144  -1.330  -5.982  0.00  0.00     0.000 A 
ATOM      4  C4  BNZ d   1      -4.472  -1.097  -5.990  0.00  0.00     0.000 A 
ATOM      5  C5  BNZ d   1      -5.367  -2.148  -5.984  0.00  0.00     0.000 A 
ATOM      6  C6  BNZ d   1      -4.904  -3.444  -5.962  0.00  0.00     0.000 A 
ENDROOT
TORSDOF 0
ENDMDL
