MODEL 1
REMARK minimizedAffinity 3.68762946
REMARK minimizedRMSD -1
REMARK  0 active torsions:
REMARK  status: ('A' for Active; 'I' for Inactive)
ROOT
ATOM      1  C1  BNZ d   1      -4.938   1.566   4.861  0.00  0.00     0.000 A 
ATOM      2  C2  BNZ d   1      -4.838   0.813   6.000  0.00  0.00     0.000 A 
ATOM      3  C3  BNZ d   1      -4.174  -0.382   5.993  0.00  0.00     0.000 A 
ATOM      4  C4  BNZ d   1      -3.646  -0.841   4.840  0.00  0.00     0.000 A 
ATOM      5  C5  BNZ d   1      -3.746  -0.097   3.681  0.00  0.00     0.000 A 
ATOM      6  C6  BNZ d   1      -4.382   1.123   3.700  0.00  0.00     0.000 A 
ENDROOT
TORSDOF 0
ENDMDL
