MODEL 1
REMARK minimizedAffinity 4.11132812
REMARK minimizedRMSD -1
REMARK  0 active torsions:
REMARK  status: ('A' for Active; 'I' for Inactive)
ROOT
ATOM      1  C1  BNZ d   1       3.017  -5.445   1.598  0.00  0.00     0.000 A 
ATOM      2  C2  BNZ d   1       1.862  -4.876   1.133  0.00  0.00     0.000 A 
ATOM      3  C3  BNZ d   1       0.737  -4.842   1.908  0.00  0.00     0.000 A 
ATOM      4  C4  BNZ d   1       0.756  -5.414   3.130  0.00  0.00     0.000 A 
ATOM      5  C5  BNZ d   1       1.910  -6.000   3.609  0.00  0.00     0.000 A 
ATOM      6  C6  BNZ d   1       3.052  -5.997   2.842  0.00  0.00     0.000 A 
ENDROOT
TORSDOF 0
ENDMDL
