MODEL 1
REMARK minimizedAffinity -1.37960088
REMARK minimizedRMSD -1
REMARK  0 active torsions:
REMARK  status: ('A' for Active; 'I' for Inactive)
ROOT
ATOM      1  C1  BNZ d   1      -3.709  -1.649  -5.996  0.00  0.00     0.000 A 
ATOM      2  C2  BNZ d   1      -5.078  -1.615  -6.000  0.00  0.00     0.000 A 
ATOM      3  C3  BNZ d   1      -5.807  -2.772  -5.978  0.00  0.00     0.000 A 
ATOM      4  C4  BNZ d   1      -5.166  -3.959  -5.994  0.00  0.00     0.000 A 
ATOM      5  C5  BNZ d   1      -3.787  -4.009  -6.000  0.00  0.00     0.000 A 
ATOM      6  C6  BNZ d   1      -3.057  -2.843  -5.982  0.00  0.00     0.000 A 
ENDROOT
TORSDOF 0
ENDMDL
