MODEL 1
REMARK minimizedAffinity -0.396094322
REMARK minimizedRMSD -1
REMARK  0 active torsions:
REMARK  status: ('A' for Active; 'I' for Inactive)
ROOT
ATOM      1  C1  BNZ d   1      -2.798  -1.377  -5.999  0.00  0.00     0.000 A 
ATOM      2  C2  BNZ d   1      -4.151  -1.589  -6.000  0.00  0.00     0.000 A 
ATOM      3  C3  BNZ d   1      -4.660  -2.858  -5.976  0.00  0.00     0.000 A 
ATOM      4  C4  BNZ d   1      -3.818  -3.911  -5.992  0.00  0.00     0.000 A 
ATOM      5  C5  BNZ d   1      -2.451  -3.713  -6.000  0.00  0.00     0.000 A 
ATOM      6  C6  BNZ d   1      -1.942  -2.435  -5.985  0.00  0.00     0.000 A 
ENDROOT
TORSDOF 0
ENDMDL
