MODEL 1
REMARK minimizedAffinity -1.95330083
REMARK minimizedRMSD -1
REMARK  0 active torsions:
REMARK  status: ('A' for Active; 'I' for Inactive)
ROOT
ATOM      1  C1  BNZ d   1      -4.031  -1.309  -6.000  0.00  0.00     0.000 A 
ATOM      2  C2  BNZ d   1      -3.095  -2.308  -5.994  0.00  0.00     0.000 A 
ATOM      3  C3  BNZ d   1      -3.473  -3.622  -5.999  0.00  0.00     0.000 A 
ATOM      4  C4  BNZ d   1      -4.785  -3.935  -5.969  0.00  0.00     0.000 A 
ATOM      5  C5  BNZ d   1      -5.741  -2.938  -5.965  0.00  0.00     0.000 A 
ATOM      6  C6  BNZ d   1      -5.357  -1.617  -6.000  0.00  0.00     0.000 A 
ENDROOT
TORSDOF 0
ENDMDL
