MODEL 1
REMARK minimizedAffinity 1.35934794
REMARK minimizedRMSD -1
REMARK  1 active torsions:
REMARK  status: ('A' for Active; 'I' for Inactive)
REMARK    1  A    between atoms: C1_2  and  C2_3 
ROOT
ATOM      1  C2  UNL d   1       0.537   0.266  -0.964  0.00  0.00    -0.073 A 
ATOM      2  C3  UNL d   1       1.271  -0.548  -0.093  0.00  0.00    -0.002 A 
ATOM      3  C4  UNL d   1       0.754  -0.889   1.157  0.00  0.00     0.004 A 
ATOM      4  C5  UNL d   1      -0.503  -0.426   1.547  0.00  0.00    -0.004 A 
ATOM      5  C6  UNL d   1      -1.257   0.378   0.686  0.00  0.00    -0.075 A 
ATOM      6  C7  UNL d   1      -2.610   0.886   1.091  0.00  0.00     0.076 C 
ATOM      7  C8  UNL d   1      -0.729   0.718  -0.567  0.00  0.00     0.001 A 
ENDROOT
BRANCH   1   8
ATOM      8  C1  UNL d   1       1.089   0.631  -2.318  0.00  0.00     0.053 C 
ATOM      9  C   UNL d   1       0.330  -0.051  -3.445  0.00  0.00     0.018 C 
ENDBRANCH   1   8
TORSDOF 1
ENDMDL
