MODEL 1
REMARK minimizedAffinity 3.06814742
REMARK minimizedRMSD -1
REMARK  1 active torsions:
REMARK  status: ('A' for Active; 'I' for Inactive)
REMARK    1  A    between atoms: C1_2  and  C2_3 
ROOT
ATOM      1  C2  UNL d   1       0.327   0.055  -0.052  0.00  0.00    -0.073 A 
ATOM      2  C3  UNL d   1      -0.402  -0.148  -1.230  0.00  0.00    -0.002 A 
ATOM      3  C4  UNL d   1      -1.775  -0.393  -1.176  0.00  0.00     0.004 A 
ATOM      4  C5  UNL d   1      -2.433  -0.430   0.053  0.00  0.00    -0.004 A 
ATOM      5  C6  UNL d   1      -1.725  -0.218   1.240  0.00  0.00    -0.075 A 
ATOM      6  C7  UNL d   1      -2.418  -0.257   2.570  0.00  0.00     0.076 C 
ATOM      7  C8  UNL d   1      -0.346   0.024   1.178  0.00  0.00     0.001 A 
ENDROOT
BRANCH   1   8
ATOM      8  C1  UNL d   1       1.808   0.326  -0.106  0.00  0.00     0.053 C 
ATOM      9  C   UNL d   1       2.592  -0.610   0.801  0.00  0.00     0.018 C 
ENDBRANCH   1   8
TORSDOF 1
ENDMDL
