MODEL 1
REMARK minimizedAffinity 1.33848655
REMARK minimizedRMSD -1
REMARK  1 active torsions:
REMARK  status: ('A' for Active; 'I' for Inactive)
REMARK    1  A    between atoms: C1_2  and  C2_3 
ROOT
ATOM      1  C2  UNL d   1      -0.306   0.225  -2.161  0.00  0.00    -0.073 A 
ATOM      2  C3  UNL d   1      -1.478   0.618  -1.505  0.00  0.00    -0.002 A 
ATOM      3  C4  UNL d   1      -1.538   0.624  -0.111  0.00  0.00     0.004 A 
ATOM      4  C5  UNL d   1      -0.426   0.246   0.641  0.00  0.00    -0.004 A 
ATOM      5  C6  UNL d   1       0.758  -0.139   0.005  0.00  0.00    -0.075 A 
ATOM      6  C7  UNL d   1       1.962  -0.551   0.799  0.00  0.00     0.076 C 
ATOM      7  C8  UNL d   1       0.810  -0.145  -1.396  0.00  0.00     0.001 A 
ENDROOT
BRANCH   1   8
ATOM      8  C1  UNL d   1      -0.235   0.222  -3.666  0.00  0.00     0.053 C 
ATOM      9  C   UNL d   1       0.789   1.217  -4.190  0.00  0.00     0.018 C 
ENDBRANCH   1   8
TORSDOF 1
ENDMDL
