MODEL 1
REMARK minimizedAffinity 1.20547795
REMARK minimizedRMSD -1
REMARK  1 active torsions:
REMARK  status: ('A' for Active; 'I' for Inactive)
REMARK    1  A    between atoms: C1_2  and  C2_3 
ROOT
ATOM      1  C2  UNL d   1       0.551   0.075  -1.615  0.00  0.00    -0.073 A 
ATOM      2  C3  UNL d   1       1.529   1.065  -1.757  0.00  0.00    -0.002 A 
ATOM      3  C4  UNL d   1       1.706   1.711  -2.981  0.00  0.00     0.004 A 
ATOM      4  C5  UNL d   1       0.902   1.379  -4.072  0.00  0.00    -0.004 A 
ATOM      5  C6  UNL d   1      -0.089   0.401  -3.946  0.00  0.00    -0.075 A 
ATOM      6  C7  UNL d   1      -0.960   0.031  -5.111  0.00  0.00     0.076 C 
ATOM      7  C8  UNL d   1      -0.258  -0.245  -2.714  0.00  0.00     0.001 A 
ENDROOT
BRANCH   1   8
ATOM      8  C1  UNL d   1       0.353  -0.621  -0.293  0.00  0.00     0.053 C 
ATOM      9  C   UNL d   1       1.673  -0.896   0.410  0.00  0.00     0.018 C 
ENDBRANCH   1   8
TORSDOF 1
ENDMDL
