MODEL 1
REMARK minimizedAffinity -2.83470559
REMARK minimizedRMSD -1
REMARK  1 active torsions:
REMARK  status: ('A' for Active; 'I' for Inactive)
REMARK    1  A    between atoms: C1_2  and  C2_3 
ROOT
ATOM      1  C2  UNL d   1      -2.417   0.093   0.553  0.00  0.00    -0.073 A 
ATOM      2  C3  UNL d   1      -2.156   0.307   1.911  0.00  0.00    -0.002 A 
ATOM      3  C4  UNL d   1      -0.846   0.269   2.392  0.00  0.00     0.004 A 
ATOM      4  C5  UNL d   1       0.215   0.025   1.520  0.00  0.00    -0.004 A 
ATOM      5  C6  UNL d   1      -0.025  -0.180   0.157  0.00  0.00    -0.075 A 
ATOM      6  C7  UNL d   1       1.105  -0.446  -0.794  0.00  0.00     0.076 C 
ATOM      7  C8  UNL d   1      -1.343  -0.143  -0.317  0.00  0.00     0.001 A 
ENDROOT
BRANCH   1   8
ATOM      8  C1  UNL d   1      -3.829   0.139   0.029  0.00  0.00     0.053 C 
ATOM      9  C   UNL d   1      -4.233  -1.168  -0.636  0.00  0.00     0.018 C 
ENDBRANCH   1   8
TORSDOF 1
ENDMDL
