MODEL 1
REMARK minimizedAffinity -4.46829128
REMARK minimizedRMSD -1
REMARK  1 active torsions:
REMARK  status: ('A' for Active; 'I' for Inactive)
REMARK    1  A    between atoms: C1_2  and  C2_3 
ROOT
ATOM      1  C2  UNL d   1       1.552  -0.207  -1.560  0.00  0.00    -0.073 A 
ATOM      2  C3  UNL d   1       2.705   0.355  -2.119  0.00  0.00    -0.002 A 
ATOM      3  C4  UNL d   1       2.734   0.709  -3.469  0.00  0.00     0.004 A 
ATOM      4  C5  UNL d   1       1.609   0.513  -4.270  0.00  0.00    -0.004 A 
ATOM      5  C6  UNL d   1       0.443  -0.035  -3.727  0.00  0.00    -0.075 A 
ATOM      6  C7  UNL d   1      -0.775  -0.254  -4.576  0.00  0.00     0.076 C 
ATOM      7  C8  UNL d   1       0.423  -0.391  -2.372  0.00  0.00     0.001 A 
ENDROOT
BRANCH   1   8
ATOM      8  C1  UNL d   1       1.514  -0.585  -0.102  0.00  0.00     0.053 C 
ATOM      9  C   UNL d   1       2.708  -0.033   0.661  0.00  0.00     0.018 C 
ENDBRANCH   1   8
TORSDOF 1
ENDMDL
