MODEL 1
REMARK minimizedAffinity -4.52611208
REMARK minimizedRMSD -1
REMARK  1 active torsions:
REMARK  status: ('A' for Active; 'I' for Inactive)
REMARK    1  A    between atoms: C1_2  and  C2_3 
ROOT
ATOM      1  C2  UNL d   1       0.326  -0.025  -0.013  0.00  0.00    -0.073 A 
ATOM      2  C3  UNL d   1      -1.043  -0.086  -0.297  0.00  0.00    -0.002 A 
ATOM      3  C4  UNL d   1      -1.980   0.279   0.671  0.00  0.00     0.004 A 
ATOM      4  C5  UNL d   1      -1.558   0.715   1.927  0.00  0.00    -0.004 A 
ATOM      5  C6  UNL d   1      -0.194   0.795   2.225  0.00  0.00    -0.075 A 
ATOM      6  C7  UNL d   1       0.275   1.259   3.572  0.00  0.00     0.076 C 
ATOM      7  C8  UNL d   1       0.740   0.423   1.249  0.00  0.00     0.001 A 
ENDROOT
BRANCH   1   8
ATOM      8  C1  UNL d   1       1.342  -0.412  -1.057  0.00  0.00     0.053 C 
ATOM      9  C   UNL d   1       0.738  -0.458  -2.451  0.00  0.00     0.018 C 
ENDBRANCH   1   8
TORSDOF 1
ENDMDL
