MODEL 1
REMARK minimizedAffinity -3.85580397
REMARK minimizedRMSD -1
REMARK  1 active torsions:
REMARK  status: ('A' for Active; 'I' for Inactive)
REMARK    1  A    between atoms: C1_2  and  C2_3 
ROOT
ATOM      1  C2  UNL d   1      -0.051   0.344  -0.179  0.00  0.00    -0.073 A 
ATOM      2  C3  UNL d   1      -1.158   0.766   0.567  0.00  0.00    -0.002 A 
ATOM      3  C4  UNL d   1      -1.059   0.917   1.951  0.00  0.00     0.004 A 
ATOM      4  C5  UNL d   1       0.146   0.654   2.602  0.00  0.00    -0.004 A 
ATOM      5  C6  UNL d   1       1.266   0.242   1.872  0.00  0.00    -0.075 A 
ATOM      6  C7  UNL d   1       2.570  -0.047   2.557  0.00  0.00     0.076 C 
ATOM      7  C8  UNL d   1       1.159   0.091   0.483  0.00  0.00     0.001 A 
ENDROOT
BRANCH   1   8
ATOM      8  C1  UNL d   1      -0.151   0.186  -1.674  0.00  0.00     0.053 C 
ATOM      9  C   UNL d   1       0.948   0.944  -2.402  0.00  0.00     0.018 C 
ENDBRANCH   1   8
TORSDOF 1
ENDMDL
