MODEL 1
REMARK minimizedAffinity -1.61188769
REMARK minimizedRMSD -1
REMARK  2 active torsions:
REMARK  status: ('A' for Active; 'I' for Inactive)
REMARK    1  A    between atoms: C2'_3  and  C1'_4 
REMARK    2  A    between atoms: C1'_4  and  C1_5 
ROOT
ATOM      1  C1  I4B d   1      -0.633  -0.072   0.584  0.00  0.00    -0.075 A 
ATOM      2  C2  I4B d   1      -0.615  -1.290  -0.050  0.00  0.00     0.003 A 
ATOM      3  C3  I4B d   1       0.150  -1.469  -1.228  0.00  0.00     0.002 A 
ATOM      4  C4  I4B d   1       0.836  -0.398  -1.762  0.00  0.00    -0.004 A 
ATOM      5  C5  I4B d   1       0.835   0.830  -1.106  0.00  0.00     0.002 A 
ATOM      6  C6  I4B d   1       0.106   0.991   0.081  0.00  0.00     0.003 A 
ENDROOT
BRANCH   1   7
ATOM      7  C1' I4B d   1      -1.478   0.091   1.807  0.00  0.00     0.060 C 
BRANCH   7   8
ATOM      8  C2' I4B d   1      -2.924   0.191   1.366  0.00  0.00    -0.013 C 
ATOM      9  C4' I4B d   1      -3.782  -0.823   2.076  0.00  0.00     0.013 C 
ATOM     10  C3' I4B d   1      -3.396   1.587   1.641  0.00  0.00     0.013 C 
ENDBRANCH   7   8
ENDBRANCH   1   7
TORSDOF 2
ENDMDL
