MODEL 1
REMARK minimizedAffinity -2.56271148
REMARK minimizedRMSD -1
REMARK  2 active torsions:
REMARK  status: ('A' for Active; 'I' for Inactive)
REMARK    1  A    between atoms: C2'_3  and  C1'_4 
REMARK    2  A    between atoms: C1'_4  and  C1_5 
ROOT
ATOM      1  C1  I4B d   1      -1.918  -0.395   0.889  0.00  0.00    -0.075 A 
ATOM      2  C2  I4B d   1      -2.442   0.865   0.742  0.00  0.00     0.003 A 
ATOM      3  C3  I4B d   1      -3.794   1.119   1.077  0.00  0.00     0.002 A 
ATOM      4  C4  I4B d   1      -4.594   0.080   1.506  0.00  0.00    -0.004 A 
ATOM      5  C5  I4B d   1      -4.055  -1.192   1.677  0.00  0.00     0.002 A 
ATOM      6  C6  I4B d   1      -2.706  -1.429   1.379  0.00  0.00     0.003 A 
ENDROOT
BRANCH   1   7
ATOM      7  C1' I4B d   1      -0.495  -0.635   0.494  0.00  0.00     0.060 C 
BRANCH   7   8
ATOM      8  C2' I4B d   1       0.129   0.704   0.161  0.00  0.00    -0.013 C 
ATOM      9  C4' I4B d   1       1.049   1.166   1.261  0.00  0.00     0.013 C 
ATOM     10  C3' I4B d   1       0.866   0.562  -1.137  0.00  0.00     0.013 C 
ENDBRANCH   7   8
ENDBRANCH   1   7
TORSDOF 2
ENDMDL
