MODEL 1
REMARK minimizedAffinity 1.67300904
REMARK minimizedRMSD -1
REMARK  2 active torsions:
REMARK  status: ('A' for Active; 'I' for Inactive)
REMARK    1  A    between atoms: C2'_3  and  C1'_4 
REMARK    2  A    between atoms: C1'_4  and  C1_5 
ROOT
ATOM      1  C1  I4B d   1      -0.875  -0.302   0.490  0.00  0.00    -0.075 A 
ATOM      2  C2  I4B d   1      -0.490   0.457  -0.587  0.00  0.00     0.003 A 
ATOM      3  C3  I4B d   1       0.287  -0.117  -1.622  0.00  0.00     0.002 A 
ATOM      4  C4  I4B d   1       0.697  -1.431  -1.516  0.00  0.00    -0.004 A 
ATOM      5  C5  I4B d   1       0.287  -2.205  -0.435  0.00  0.00     0.002 A 
ATOM      6  C6  I4B d   1      -0.514  -1.641   0.569  0.00  0.00     0.003 A 
ENDROOT
BRANCH   1   7
ATOM      7  C1' I4B d   1      -1.667   0.345   1.581  0.00  0.00     0.060 C 
BRANCH   7   8
ATOM      8  C2' I4B d   1      -3.040   0.672   1.030  0.00  0.00    -0.013 C 
ATOM      9  C4' I4B d   1      -3.920  -0.550   0.996  0.00  0.00     0.013 C 
ATOM     10  C3' I4B d   1      -3.639   1.747   1.887  0.00  0.00     0.013 C 
ENDBRANCH   7   8
ENDBRANCH   1   7
TORSDOF 2
ENDMDL
