MODEL 1
REMARK minimizedAffinity -3.65741253
REMARK minimizedRMSD -1
REMARK  2 active torsions:
REMARK  status: ('A' for Active; 'I' for Inactive)
REMARK    1  A    between atoms: C2'_3  and  C1'_4 
REMARK    2  A    between atoms: C1'_4  and  C1_5 
ROOT
ATOM      1  C1  I4B d   1      -1.203   0.966   3.094  0.00  0.00    -0.075 A 
ATOM      2  C2  I4B d   1      -0.724   0.077   2.165  0.00  0.00     0.003 A 
ATOM      3  C3  I4B d   1      -1.614  -0.570   1.273  0.00  0.00     0.002 A 
ATOM      4  C4  I4B d   1      -2.970  -0.338   1.378  0.00  0.00    -0.004 A 
ATOM      5  C5  I4B d   1      -3.451   0.581   2.306  0.00  0.00     0.002 A 
ATOM      6  C6  I4B d   1      -2.561   1.247   3.162  0.00  0.00     0.003 A 
ENDROOT
BRANCH   1   7
ATOM      7  C1' I4B d   1      -0.239   1.606   4.042  0.00  0.00     0.060 C 
BRANCH   7   8
ATOM      8  C2' I4B d   1       1.130   1.008   3.791  0.00  0.00    -0.013 C 
ATOM      9  C4' I4B d   1       2.137   2.074   3.447  0.00  0.00     0.013 C 
ATOM     10  C3' I4B d   1       1.539   0.254   5.021  0.00  0.00     0.013 C 
ENDBRANCH   7   8
ENDBRANCH   1   7
TORSDOF 2
ENDMDL
