MODEL 1
REMARK minimizedAffinity 1.12493992
REMARK minimizedRMSD -1
REMARK  2 active torsions:
REMARK  status: ('A' for Active; 'I' for Inactive)
REMARK    1  A    between atoms: C2'_3  and  C1'_4 
REMARK    2  A    between atoms: C1'_4  and  C1_5 
ROOT
ATOM      1  C1  I4B d   1      -2.076   0.285   0.561  0.00  0.00    -0.075 A 
ATOM      2  C2  I4B d   1      -2.862  -0.740   0.097  0.00  0.00     0.003 A 
ATOM      3  C3  I4B d   1      -4.261  -0.719   0.311  0.00  0.00     0.002 A 
ATOM      4  C4  I4B d   1      -4.823   0.314   1.032  0.00  0.00    -0.004 A 
ATOM      5  C5  I4B d   1      -4.029   1.365   1.482  0.00  0.00     0.002 A 
ATOM      6  C6  I4B d   1      -2.648   1.357   1.235  0.00  0.00     0.003 A 
ENDROOT
BRANCH   1   7
ATOM      7  C1' I4B d   1      -0.598   0.215   0.347  0.00  0.00     0.060 C 
BRANCH   7   8
ATOM      8  C2' I4B d   1      -0.334  -0.787  -0.759  0.00  0.00    -0.013 C 
ATOM      9  C4' I4B d   1       0.469  -0.169  -1.873  0.00  0.00     0.013 C 
ATOM     10  C3' I4B d   1       0.384  -1.959  -0.160  0.00  0.00     0.013 C 
ENDBRANCH   7   8
ENDBRANCH   1   7
TORSDOF 2
ENDMDL
