MODEL 1
REMARK minimizedAffinity -4.51859188
REMARK minimizedRMSD -1
REMARK  2 active torsions:
REMARK  status: ('A' for Active; 'I' for Inactive)
REMARK    1  A    between atoms: C2'_3  and  C1'_4 
REMARK    2  A    between atoms: C1'_4  and  C1_5 
ROOT
ATOM      1  C1  I4B d   1       1.264   1.034  -0.016  0.00  0.00    -0.075 A 
ATOM      2  C2  I4B d   1       0.201   0.177   0.120  0.00  0.00     0.003 A 
ATOM      3  C3  I4B d   1      -0.081  -0.775  -0.889  0.00  0.00     0.002 A 
ATOM      4  C4  I4B d   1       0.690  -0.801  -2.033  0.00  0.00    -0.004 A 
ATOM      5  C5  I4B d   1       1.782   0.053  -2.159  0.00  0.00     0.002 A 
ATOM      6  C6  I4B d   1       2.078   0.969  -1.139  0.00  0.00     0.003 A 
ENDROOT
BRANCH   1   7
ATOM      7  C1' I4B d   1       1.513   2.049   1.055  0.00  0.00     0.060 C 
BRANCH   7   8
ATOM      8  C2' I4B d   1       1.504   1.332   2.389  0.00  0.00    -0.013 C 
ATOM      9  C4' I4B d   1       2.799   1.540   3.129  0.00  0.00     0.013 C 
ATOM     10  C3' I4B d   1       0.339   1.845   3.182  0.00  0.00     0.013 C 
ENDBRANCH   7   8
ENDBRANCH   1   7
TORSDOF 2
ENDMDL
