MODEL 1
REMARK minimizedAffinity -1.38116693
REMARK minimizedRMSD -1
REMARK  2 active torsions:
REMARK  status: ('A' for Active; 'I' for Inactive)
REMARK    1  A    between atoms: C2'_3  and  C1'_4 
REMARK    2  A    between atoms: C1'_4  and  C1_5 
ROOT
ATOM      1  C1  I4B d   1       0.344   0.589   1.425  0.00  0.00    -0.075 A 
ATOM      2  C2  I4B d   1       0.833   1.140   0.267  0.00  0.00     0.003 A 
ATOM      3  C3  I4B d   1       0.839   0.389  -0.933  0.00  0.00     0.002 A 
ATOM      4  C4  I4B d   1       0.397  -0.918  -0.919  0.00  0.00    -0.004 A 
ATOM      5  C5  I4B d   1      -0.120  -1.468   0.250  0.00  0.00     0.002 A 
ATOM      6  C6  I4B d   1      -0.159  -0.706   1.427  0.00  0.00     0.003 A 
ENDROOT
BRANCH   1   7
ATOM      7  C1' I4B d   1       0.382   1.399   2.682  0.00  0.00     0.060 C 
BRANCH   7   8
ATOM      8  C2' I4B d   1       1.835   1.602   3.062  0.00  0.00    -0.013 C 
ATOM      9  C4' I4B d   1       2.173   3.066   3.160  0.00  0.00     0.013 C 
ATOM     10  C3' I4B d   1       2.075   0.902   4.366  0.00  0.00     0.013 C 
ENDBRANCH   7   8
ENDBRANCH   1   7
TORSDOF 2
ENDMDL
