MODEL 1
REMARK minimizedAffinity -0.573027194
REMARK minimizedRMSD -1
REMARK  2 active torsions:
REMARK  status: ('A' for Active; 'I' for Inactive)
REMARK    1  A    between atoms: C2'_3  and  C1'_4 
REMARK    2  A    between atoms: C1'_4  and  C1_5 
ROOT
ATOM      1  C1  I4B d   1       1.877   2.432   0.643  0.00  0.00    -0.075 A 
ATOM      2  C2  I4B d   1       1.204   1.236   0.593  0.00  0.00     0.003 A 
ATOM      3  C3  I4B d   1       0.150   1.050  -0.334  0.00  0.00     0.002 A 
ATOM      4  C4  I4B d   1      -0.230   2.095  -1.151  0.00  0.00    -0.004 A 
ATOM      5  C5  I4B d   1       0.468   3.299  -1.115  0.00  0.00     0.002 A 
ATOM      6  C6  I4B d   1       1.536   3.464  -0.221  0.00  0.00     0.003 A 
ENDROOT
BRANCH   1   7
ATOM      7  C1' I4B d   1       2.963   2.605   1.656  0.00  0.00     0.060 C 
BRANCH   7   8
ATOM      8  C2' I4B d   1       2.331   3.115   2.936  0.00  0.00    -0.013 C 
ATOM      9  C4' I4B d   1       1.958   1.978   3.850  0.00  0.00     0.013 C 
ATOM     10  C3' I4B d   1       3.307   4.043   3.596  0.00  0.00     0.013 C 
ENDBRANCH   7   8
ENDBRANCH   1   7
TORSDOF 2
ENDMDL
