MODEL 1
REMARK minimizedAffinity -1.12214649
REMARK minimizedRMSD -1
REMARK  2 active torsions:
REMARK  status: ('A' for Active; 'I' for Inactive)
REMARK    1  A    between atoms: C2'_3  and  C1'_4 
REMARK    2  A    between atoms: C1'_4  and  C1_5 
ROOT
ATOM      1  C1  I4B d   1      -4.989   2.844  -5.658  0.00  0.00    -0.075 A 
ATOM      2  C2  I4B d   1      -3.633   2.673  -5.534  0.00  0.00     0.003 A 
ATOM      3  C3  I4B d   1      -2.763   3.787  -5.623  0.00  0.00     0.002 A 
ATOM      4  C4  I4B d   1      -3.285   5.038  -5.884  0.00  0.00    -0.004 A 
ATOM      5  C5  I4B d   1      -4.662   5.212  -5.986  0.00  0.00     0.002 A 
ATOM      6  C6  I4B d   1      -5.521   4.110  -5.860  0.00  0.00     0.003 A 
ENDROOT
BRANCH   1   7
ATOM      7  C1' I4B d   1      -5.876   1.641  -5.593  0.00  0.00     0.060 C 
BRANCH   7   8
ATOM      8  C2' I4B d   1      -5.056   0.433  -6.000  0.00  0.00    -0.013 C 
ATOM      9  C4' I4B d   1      -3.887   0.231  -5.072  0.00  0.00     0.013 C 
ATOM     10  C3' I4B d   1      -5.960  -0.762  -6.000  0.00  0.00     0.013 C 
ENDBRANCH   7   8
ENDBRANCH   1   7
TORSDOF 2
ENDMDL
