MODEL 1
REMARK minimizedAffinity 7.00489616
REMARK minimizedRMSD -1
REMARK  1 active torsions:
REMARK  status: ('A' for Active; 'I' for Inactive)
REMARK    1  A    between atoms: C1_2  and  C2_3 
ROOT
ATOM      1  C2  UNL d   1       1.944  -3.171   1.684  0.00  0.00    -0.081 A 
ATOM      2  C3  UNL d   1       3.169  -2.546   1.946  0.00  0.00     0.006 A 
ATOM      3  C4  UNL d   1       4.372  -3.197   1.660  0.00  0.00     0.002 A 
ATOM      4  C5  UNL d   1       4.370  -4.479   1.100  0.00  0.00    -0.080 A 
ATOM      5  C6  UNL d   1       5.653  -5.176   0.759  0.00  0.00     0.076 C 
ATOM      6  C7  UNL d   1       3.146  -5.110   0.853  0.00  0.00     0.002 A 
ATOM      7  C8  UNL d   1       1.943  -4.461   1.140  0.00  0.00     0.006 A 
ENDROOT
BRANCH   1   8
ATOM      8  C1  UNL d   1       0.646  -2.447   1.931  0.00  0.00     0.054 C 
ATOM      9  C   UNL d   1       0.757  -1.502   3.120  0.00  0.00     0.018 C 
ENDBRANCH   1   8
TORSDOF 1
ENDMDL
