MODEL 1
REMARK minimizedAffinity 7.32819176
REMARK minimizedRMSD -1
REMARK  1 active torsions:
REMARK  status: ('A' for Active; 'I' for Inactive)
REMARK    1  A    between atoms: C1_2  and  C2_3 
ROOT
ATOM      1  C2  UNL d   1       0.315  -2.152   1.770  0.00  0.00    -0.081 A 
ATOM      2  C3  UNL d   1       1.442  -2.283   2.590  0.00  0.00     0.006 A 
ATOM      3  C4  UNL d   1       2.726  -2.231   2.043  0.00  0.00     0.002 A 
ATOM      4  C5  UNL d   1       2.904  -2.040   0.668  0.00  0.00    -0.080 A 
ATOM      5  C6  UNL d   1       4.278  -1.953   0.072  0.00  0.00     0.076 C 
ATOM      6  C7  UNL d   1       1.778  -1.928  -0.154  0.00  0.00     0.002 A 
ATOM      7  C8  UNL d   1       0.494  -1.980   0.393  0.00  0.00     0.006 A 
ENDROOT
BRANCH   1   8
ATOM      8  C1  UNL d   1      -1.070  -2.143   2.366  0.00  0.00     0.054 C 
ATOM      9  C   UNL d   1      -1.204  -1.070   3.437  0.00  0.00     0.018 C 
ENDBRANCH   1   8
TORSDOF 1
ENDMDL
