MODEL 1
REMARK minimizedAffinity 5.81869745
REMARK minimizedRMSD -1
REMARK  1 active torsions:
REMARK  status: ('A' for Active; 'I' for Inactive)
REMARK    1  A    between atoms: C1_2  and  C2_3 
ROOT
ATOM      1  C2  UNL d   1       5.938   1.693  -3.870  0.00  0.00    -0.081 A 
ATOM      2  C3  UNL d   1       5.927   0.487  -3.159  0.00  0.00     0.006 A 
ATOM      3  C4  UNL d   1       5.929  -0.735  -3.836  0.00  0.00     0.002 A 
ATOM      4  C5  UNL d   1       5.951  -0.771  -5.234  0.00  0.00    -0.080 A 
ATOM      5  C6  UNL d   1       5.985  -2.076  -5.973  0.00  0.00     0.076 C 
ATOM      6  C7  UNL d   1       5.944   0.434  -5.945  0.00  0.00     0.002 A 
ATOM      7  C8  UNL d   1       5.941   1.656  -5.269  0.00  0.00     0.006 A 
ENDROOT
BRANCH   1   8
ATOM      8  C1  UNL d   1       6.000   3.012  -3.142  0.00  0.00     0.054 C 
ATOM      9  C   UNL d   1       5.563   4.160  -4.040  0.00  0.00     0.018 C 
ENDBRANCH   1   8
TORSDOF 1
ENDMDL
