MODEL 1
REMARK minimizedAffinity 3.38860893
REMARK minimizedRMSD -1
REMARK  1 active torsions:
REMARK  status: ('A' for Active; 'I' for Inactive)
REMARK    1  A    between atoms: C1_2  and  C2_3 
ROOT
ATOM      1  C2  UNL d   1       0.860  -2.437   2.160  0.00  0.00    -0.081 A 
ATOM      2  C3  UNL d   1       0.795  -3.831   2.284  0.00  0.00     0.006 A 
ATOM      3  C4  UNL d   1       1.655  -4.648   1.546  0.00  0.00     0.002 A 
ATOM      4  C5  UNL d   1       2.598  -4.086   0.679  0.00  0.00    -0.080 A 
ATOM      5  C6  UNL d   1       3.547  -4.952  -0.096  0.00  0.00     0.076 C 
ATOM      6  C7  UNL d   1       2.651  -2.695   0.542  0.00  0.00     0.002 A 
ATOM      7  C8  UNL d   1       1.791  -1.877   1.278  0.00  0.00     0.006 A 
ENDROOT
BRANCH   1   8
ATOM      8  C1  UNL d   1      -0.022  -1.551   3.002  0.00  0.00     0.054 C 
ATOM      9  C   UNL d   1       0.783  -0.444   3.670  0.00  0.00     0.018 C 
ENDBRANCH   1   8
TORSDOF 1
ENDMDL
