MODEL 1
REMARK minimizedAffinity 7.74246883
REMARK minimizedRMSD -1
REMARK  1 active torsions:
REMARK  status: ('A' for Active; 'I' for Inactive)
REMARK    1  A    between atoms: C1_2  and  C2_3 
ROOT
ATOM      1  C2  UNL d   1      -4.057   2.784  -4.034  0.00  0.00    -0.081 A 
ATOM      2  C3  UNL d   1      -4.487   1.699  -4.808  0.00  0.00     0.006 A 
ATOM      3  C4  UNL d   1      -4.494   0.408  -4.275  0.00  0.00     0.002 A 
ATOM      4  C5  UNL d   1      -4.081   0.182  -2.957  0.00  0.00    -0.080 A 
ATOM      5  C6  UNL d   1      -4.112  -1.195  -2.363  0.00  0.00     0.076 C 
ATOM      6  C7  UNL d   1      -3.635   1.263  -2.190  0.00  0.00     0.002 A 
ATOM      7  C8  UNL d   1      -3.627   2.554  -2.723  0.00  0.00     0.006 A 
ENDROOT
BRANCH   1   8
ATOM      8  C1  UNL d   1      -4.109   4.187  -4.585  0.00  0.00     0.054 C 
ATOM      9  C   UNL d   1      -5.450   4.472  -5.246  0.00  0.00     0.018 C 
ENDBRANCH   1   8
TORSDOF 1
ENDMDL
