MODEL 1
REMARK minimizedAffinity -5.13589716
REMARK minimizedRMSD -1
REMARK  1 active torsions:
REMARK  status: ('A' for Active; 'I' for Inactive)
REMARK    1  A    between atoms: C1_2  and  C2_3 
ROOT
ATOM      1  C2  UNL d   1       0.159  -0.093   0.350  0.00  0.00    -0.073 A 
ATOM      2  C3  UNL d   1       0.286   1.298   0.433  0.00  0.00    -0.002 A 
ATOM      3  C4  UNL d   1       1.515   1.875   0.758  0.00  0.00     0.004 A 
ATOM      4  C5  UNL d   1       2.628   1.069   0.997  0.00  0.00    -0.004 A 
ATOM      5  C6  UNL d   1       2.523  -0.323   0.907  0.00  0.00    -0.075 A 
ATOM      6  C7  UNL d   1       3.710  -1.204   1.163  0.00  0.00     0.076 C 
ATOM      7  C8  UNL d   1       1.286  -0.895   0.583  0.00  0.00     0.001 A 
ENDROOT
BRANCH   1   8
ATOM      8  C1  UNL d   1      -1.164  -0.721  -0.007  0.00  0.00     0.053 C 
ATOM      9  C   UNL d   1      -1.865   0.028  -1.129  0.00  0.00     0.018 C 
ENDBRANCH   1   8
TORSDOF 1
ENDMDL
