MODEL 1
REMARK minimizedAffinity -5.43591213
REMARK minimizedRMSD -1
REMARK  1 active torsions:
REMARK  status: ('A' for Active; 'I' for Inactive)
REMARK    1  A    between atoms: C1_2  and  C2_3 
ROOT
ATOM      1  C2  UNL d   1       1.996  -1.404   1.036  0.00  0.00    -0.073 A 
ATOM      2  C3  UNL d   1       2.979  -0.413   0.942  0.00  0.00    -0.002 A 
ATOM      3  C4  UNL d   1       2.641   0.881   0.543  0.00  0.00     0.004 A 
ATOM      4  C5  UNL d   1       1.318   1.198   0.239  0.00  0.00    -0.004 A 
ATOM      5  C6  UNL d   1       0.318   0.225   0.338  0.00  0.00    -0.075 A 
ATOM      6  C7  UNL d   1      -1.110   0.550   0.013  0.00  0.00     0.076 C 
ATOM      7  C8  UNL d   1       0.666  -1.073   0.737  0.00  0.00     0.001 A 
ENDROOT
BRANCH   1   8
ATOM      8  C1  UNL d   1       2.355  -2.800   1.473  0.00  0.00     0.053 C 
ATOM      9  C   UNL d   1       1.126  -3.615   1.844  0.00  0.00     0.018 C 
ENDBRANCH   1   8
TORSDOF 1
ENDMDL
