MODEL 1
REMARK minimizedAffinity -5.48463297
REMARK minimizedRMSD -1
REMARK  1 active torsions:
REMARK  status: ('A' for Active; 'I' for Inactive)
REMARK    1  A    between atoms: C1_2  and  C2_3 
ROOT
ATOM      1  C2  UNL d   1      -0.309   0.021   0.241  0.00  0.00    -0.073 A 
ATOM      2  C3  UNL d   1      -0.121   1.407   0.286  0.00  0.00    -0.002 A 
ATOM      3  C4  UNL d   1       1.154   1.940   0.478  0.00  0.00     0.004 A 
ATOM      4  C5  UNL d   1       2.254   1.094   0.619  0.00  0.00    -0.004 A 
ATOM      5  C6  UNL d   1       2.089  -0.294   0.565  0.00  0.00    -0.075 A 
ATOM      6  C7  UNL d   1       3.262  -1.217   0.717  0.00  0.00     0.076 C 
ATOM      7  C8  UNL d   1       0.804  -0.821   0.375  0.00  0.00     0.001 A 
ENDROOT
BRANCH   1   8
ATOM      8  C1  UNL d   1      -1.683  -0.559   0.027  0.00  0.00     0.053 C 
ATOM      9  C   UNL d   1      -2.317  -0.065  -1.264  0.00  0.00     0.018 C 
ENDBRANCH   1   8
TORSDOF 1
ENDMDL
