MODEL 1
REMARK minimizedAffinity -4.48860741
REMARK minimizedRMSD -1
REMARK  1 active torsions:
REMARK  status: ('A' for Active; 'I' for Inactive)
REMARK    1  A    between atoms: C1_2  and  C2_3 
ROOT
ATOM      1  C2  UNL d   1       1.695  -0.665   1.364  0.00  0.00    -0.073 A 
ATOM      2  C3  UNL d   1       2.520   0.458   1.230  0.00  0.00    -0.002 A 
ATOM      3  C4  UNL d   1       2.082   1.573   0.514  0.00  0.00     0.004 A 
ATOM      4  C5  UNL d   1       0.814   1.580  -0.068  0.00  0.00    -0.004 A 
ATOM      5  C6  UNL d   1      -0.029   0.473   0.065  0.00  0.00    -0.075 A 
ATOM      6  C7  UNL d   1      -1.395   0.464  -0.557  0.00  0.00     0.076 C 
ATOM      7  C8  UNL d   1       0.419  -0.644   0.783  0.00  0.00     0.001 A 
ENDROOT
BRANCH   1   8
ATOM      8  C1  UNL d   1       2.161  -1.869   2.141  0.00  0.00     0.053 C 
ATOM      9  C   UNL d   1       1.074  -2.925   2.261  0.00  0.00     0.018 C 
ENDBRANCH   1   8
TORSDOF 1
ENDMDL
