MODEL 1
REMARK minimizedAffinity -6.38483763
REMARK minimizedRMSD -1
REMARK  1 active torsions:
REMARK  status: ('A' for Active; 'I' for Inactive)
REMARK    1  A    between atoms: C1_2  and  C2_3 
ROOT
ATOM      1  C2  UNL d   1      -0.228   0.148   0.376  0.00  0.00    -0.073 A 
ATOM      2  C3  UNL d   1       0.075   1.442  -0.062  0.00  0.00    -0.002 A 
ATOM      3  C4  UNL d   1       1.388   1.914  -0.010  0.00  0.00     0.004 A 
ATOM      4  C5  UNL d   1       2.409   1.097   0.474  0.00  0.00    -0.004 A 
ATOM      5  C6  UNL d   1       2.127  -0.203   0.906  0.00  0.00    -0.075 A 
ATOM      6  C7  UNL d   1       3.214  -1.095   1.431  0.00  0.00     0.076 C 
ATOM      7  C8  UNL d   1       0.806  -0.669   0.853  0.00  0.00     0.001 A 
ENDROOT
BRANCH   1   8
ATOM      8  C1  UNL d   1      -1.643  -0.368   0.316  0.00  0.00     0.053 C 
ATOM      9  C   UNL d   1      -2.333   0.011  -0.985  0.00  0.00     0.018 C 
ENDBRANCH   1   8
TORSDOF 1
ENDMDL
