MODEL 1
REMARK minimizedAffinity -5.10480356
REMARK minimizedRMSD -1
REMARK  1 active torsions:
REMARK  status: ('A' for Active; 'I' for Inactive)
REMARK    1  A    between atoms: C1_2  and  C2_3 
ROOT
ATOM      1  C2  UNL d   1       1.249   1.550   0.358  0.00  0.00    -0.073 A 
ATOM      2  C3  UNL d   1       2.473   0.894   0.180  0.00  0.00    -0.002 A 
ATOM      3  C4  UNL d   1       2.564  -0.487   0.353  0.00  0.00     0.004 A 
ATOM      4  C5  UNL d   1       1.434  -1.228   0.697  0.00  0.00    -0.004 A 
ATOM      5  C6  UNL d   1       0.199  -0.593   0.868  0.00  0.00    -0.075 A 
ATOM      6  C7  UNL d   1      -1.026  -1.375   1.241  0.00  0.00     0.076 C 
ATOM      7  C8  UNL d   1       0.116   0.795   0.695  0.00  0.00     0.001 A 
ENDROOT
BRANCH   1   8
ATOM      8  C1  UNL d   1       1.144   3.041   0.166  0.00  0.00     0.053 C 
ATOM      9  C   UNL d   1      -0.121   3.608   0.791  0.00  0.00     0.018 C 
ENDBRANCH   1   8
TORSDOF 1
ENDMDL
