MODEL 1
REMARK minimizedAffinity 16.8501949
REMARK minimizedRMSD -1
REMARK  0 active torsions:
REMARK  status: ('A' for Active; 'I' for Inactive)
ROOT
ATOM      1  C   UNL d   1       1.053   4.056   1.113  0.00  0.00    -0.002 A 
ATOM      2  C1  UNL d   1       1.728   3.065   1.811  0.00  0.00     0.010 A 
ATOM      3  C2  UNL d   1       1.972   1.822   1.223  0.00  0.00     0.041 A 
ATOM      4  C3  UNL d   1       1.523   1.591  -0.092  0.00  0.00    -0.075 A 
ATOM      5  S   UNL d   1       1.709   0.146  -1.014  0.00  0.00     0.015 SA
ATOM      6  C4  UNL d   1       0.897   0.811  -2.357  0.00  0.00     0.022 A 
ATOM      7  C5  UNL d   1       0.487   2.102  -2.125  0.00  0.00     0.026 A 
ATOM      8  C6  UNL d   1       0.841   2.573  -0.815  0.00  0.00    -0.082 A 
ATOM      9  C7  UNL d   1       0.609   3.823  -0.191  0.00  0.00     0.045 A 
ENDROOT
TORSDOF 0
ENDMDL
