MODEL 1
REMARK minimizedAffinity 1.14161384
REMARK minimizedRMSD -1
REMARK  0 active torsions:
REMARK  status: ('A' for Active; 'I' for Inactive)
ROOT
ATOM      1  C   UNL d   1       4.936   0.962  -4.505  0.00  0.00    -0.002 A 
ATOM      2  C1  UNL d   1       5.963   1.298  -3.635  0.00  0.00     0.010 A 
ATOM      3  C2  UNL d   1       6.000   2.558  -3.033  0.00  0.00     0.041 A 
ATOM      4  C3  UNL d   1       4.976   3.481  -3.321  0.00  0.00    -0.075 A 
ATOM      5  S   UNL d   1       4.814   5.081  -2.700  0.00  0.00     0.015 SA
ATOM      6  C4  UNL d   1       3.377   5.355  -3.574  0.00  0.00     0.022 A 
ATOM      7  C5  UNL d   1       3.015   4.263  -4.327  0.00  0.00     0.026 A 
ATOM      8  C6  UNL d   1       3.930   3.165  -4.194  0.00  0.00    -0.082 A 
ATOM      9  C7  UNL d   1       3.922   1.881  -4.789  0.00  0.00     0.045 A 
ENDROOT
TORSDOF 0
ENDMDL
