MODEL 1
REMARK minimizedAffinity -2.27383041
REMARK minimizedRMSD -1
REMARK  0 active torsions:
REMARK  status: ('A' for Active; 'I' for Inactive)
ROOT
ATOM      1  C   UNL d   1       5.562   0.010   4.456  0.00  0.00    -0.002 A 
ATOM      2  C1  UNL d   1       5.290  -0.140   3.104  0.00  0.00     0.010 A 
ATOM      3  C2  UNL d   1       5.257   0.970   2.258  0.00  0.00     0.041 A 
ATOM      4  C3  UNL d   1       5.506   2.247   2.799  0.00  0.00    -0.075 A 
ATOM      5  S   UNL d   1       5.519   3.749   1.954  0.00  0.00     0.015 SA
ATOM      6  C4  UNL d   1       5.887   4.627   3.368  0.00  0.00     0.022 A 
ATOM      7  C5  UNL d   1       6.000   3.809   4.467  0.00  0.00     0.026 A 
ATOM      8  C6  UNL d   1       5.783   2.424   4.158  0.00  0.00    -0.082 A 
ATOM      9  C7  UNL d   1       5.808   1.278   4.989  0.00  0.00     0.045 A 
ENDROOT
TORSDOF 0
ENDMDL
