MODEL 1
REMARK minimizedAffinity 2.0310235
REMARK minimizedRMSD -1
REMARK  0 active torsions:
REMARK  status: ('A' for Active; 'I' for Inactive)
ROOT
ATOM      1  C   UNL d   1       1.676   0.256  -4.037  0.00  0.00    -0.002 A 
ATOM      2  C1  UNL d   1       0.899   1.189  -3.365  0.00  0.00     0.010 A 
ATOM      3  C2  UNL d   1       0.375   0.900  -2.104  0.00  0.00     0.041 A 
ATOM      4  C3  UNL d   1       0.650  -0.353  -1.522  0.00  0.00    -0.075 A 
ATOM      5  S   UNL d   1       0.116  -0.926   0.014  0.00  0.00     0.015 SA
ATOM      6  C4  UNL d   1       0.908  -2.422  -0.185  0.00  0.00     0.022 A 
ATOM      7  C5  UNL d   1       1.568  -2.500  -1.388  0.00  0.00     0.026 A 
ATOM      8  C6  UNL d   1       1.431  -1.308  -2.178  0.00  0.00    -0.082 A 
ATOM      9  C7  UNL d   1       1.947  -0.986  -3.457  0.00  0.00     0.045 A 
ENDROOT
TORSDOF 0
ENDMDL
