MODEL 1
REMARK minimizedAffinity 3.07544374
REMARK minimizedRMSD -1
REMARK  0 active torsions:
REMARK  status: ('A' for Active; 'I' for Inactive)
ROOT
ATOM      1  C   UNL d   1      -0.434   1.794   2.348  0.00  0.00    -0.002 A 
ATOM      2  C1  UNL d   1       0.373   2.534   1.496  0.00  0.00     0.010 A 
ATOM      3  C2  UNL d   1       0.786   2.005   0.271  0.00  0.00     0.041 A 
ATOM      4  C3  UNL d   1       0.369   0.708  -0.087  0.00  0.00    -0.075 A 
ATOM      5  S   UNL d   1       0.750  -0.144  -1.536  0.00  0.00     0.015 SA
ATOM      6  C4  UNL d   1      -0.150  -1.510  -1.059  0.00  0.00     0.022 A 
ATOM      7  C5  UNL d   1      -0.734  -1.338   0.174  0.00  0.00     0.026 A 
ATOM      8  C6  UNL d   1      -0.445  -0.056   0.754  0.00  0.00    -0.082 A 
ATOM      9  C7  UNL d   1      -0.846   0.507   1.989  0.00  0.00     0.045 A 
ENDROOT
TORSDOF 0
ENDMDL
