MODEL 1
REMARK minimizedAffinity -2.76129484
REMARK minimizedRMSD -1
REMARK  0 active torsions:
REMARK  status: ('A' for Active; 'I' for Inactive)
ROOT
ATOM      1  C   UNL d   1       1.424  -2.248  -0.893  0.00  0.00    -0.002 A 
ATOM      2  C1  UNL d   1       0.377  -2.426   0.001  0.00  0.00     0.010 A 
ATOM      3  C2  UNL d   1      -0.623  -1.460   0.125  0.00  0.00     0.041 A 
ATOM      4  C3  UNL d   1      -0.555  -0.301  -0.673  0.00  0.00    -0.075 A 
ATOM      5  S   UNL d   1      -1.668   1.015  -0.692  0.00  0.00     0.015 SA
ATOM      6  C4  UNL d   1      -0.781   1.845  -1.888  0.00  0.00     0.022 A 
ATOM      7  C5  UNL d   1       0.340   1.149  -2.275  0.00  0.00     0.026 A 
ATOM      8  C6  UNL d   1       0.488  -0.100  -1.582  0.00  0.00    -0.082 A 
ATOM      9  C7  UNL d   1       1.488  -1.097  -1.684  0.00  0.00     0.045 A 
ENDROOT
TORSDOF 0
ENDMDL
