MODEL 1
REMARK minimizedAffinity -2.00585556
REMARK minimizedRMSD -1
REMARK  0 active torsions:
REMARK  status: ('A' for Active; 'I' for Inactive)
ROOT
ATOM      1  C   UNL d   1       1.424  -2.372  -1.792  0.00  0.00    -0.002 A 
ATOM      2  C1  UNL d   1       0.938  -2.754  -0.549  0.00  0.00     0.010 A 
ATOM      3  C2  UNL d   1       0.273  -1.836   0.266  0.00  0.00     0.041 A 
ATOM      4  C3  UNL d   1       0.102  -0.515  -0.193  0.00  0.00    -0.075 A 
ATOM      5  S   UNL d   1      -0.680   0.780   0.634  0.00  0.00     0.015 SA
ATOM      6  C4  UNL d   1      -0.389   1.870  -0.643  0.00  0.00     0.022 A 
ATOM      7  C5  UNL d   1       0.288   1.278  -1.683  0.00  0.00     0.026 A 
ATOM      8  C6  UNL d   1       0.582  -0.107  -1.441  0.00  0.00    -0.082 A 
ATOM      9  C7  UNL d   1       1.252  -1.060  -2.244  0.00  0.00     0.045 A 
ENDROOT
TORSDOF 0
ENDMDL
