MODEL 1
REMARK minimizedAffinity 1.4715004
REMARK minimizedRMSD -1
REMARK  0 active torsions:
REMARK  status: ('A' for Active; 'I' for Inactive)
ROOT
ATOM      1  C   UNL d   1       2.010  -0.450  -3.030  0.00  0.00    -0.002 A 
ATOM      2  C1  UNL d   1       1.195   0.673  -2.999  0.00  0.00     0.010 A 
ATOM      3  C2  UNL d   1       0.231   0.824  -2.001  0.00  0.00     0.041 A 
ATOM      4  C3  UNL d   1       0.099  -0.182  -1.023  0.00  0.00    -0.075 A 
ATOM      5  S   UNL d   1      -1.012  -0.211   0.295  0.00  0.00     0.015 SA
ATOM      6  C4  UNL d   1      -0.430  -1.714   0.849  0.00  0.00     0.022 A 
ATOM      7  C5  UNL d   1       0.586  -2.197   0.059  0.00  0.00     0.026 A 
ATOM      8  C6  UNL d   1       0.909  -1.321  -1.032  0.00  0.00    -0.082 A 
ATOM      9  C7  UNL d   1       1.877  -1.445  -2.058  0.00  0.00     0.045 A 
ENDROOT
TORSDOF 0
ENDMDL
