MODEL 1
REMARK minimizedAffinity -3.29737926
REMARK minimizedRMSD -1
REMARK  0 active torsions:
REMARK  status: ('A' for Active; 'I' for Inactive)
ROOT
ATOM      1  C   UNL d   1       5.006   2.256   2.276  0.00  0.00    -0.002 A 
ATOM      2  C1  UNL d   1       5.391   2.988   3.390  0.00  0.00     0.010 A 
ATOM      3  C2  UNL d   1       5.716   2.344   4.586  0.00  0.00     0.041 A 
ATOM      4  C3  UNL d   1       5.647   0.938   4.643  0.00  0.00    -0.075 A 
ATOM      5  S   UNL d   1       5.999  -0.066   5.999  0.00  0.00     0.015 SA
ATOM      6  C4  UNL d   1       5.647  -1.490   5.132  0.00  0.00     0.022 A 
ATOM      7  C5  UNL d   1       5.268  -1.224   3.837  0.00  0.00     0.026 A 
ATOM      8  C6  UNL d   1       5.262   0.179   3.534  0.00  0.00    -0.082 A 
ATOM      9  C7  UNL d   1       4.939   0.862   2.337  0.00  0.00     0.045 A 
ENDROOT
TORSDOF 0
ENDMDL
