MODEL 1
REMARK minimizedAffinity 6.22992182
REMARK minimizedRMSD -1
REMARK  3 active torsions:
REMARK  status: ('A' for Active; 'I' for Inactive)
REMARK    1  A    between atoms: C3'_2  and  C2'_3 
REMARK    2  A    between atoms: C2'_3  and  C1'_4 
REMARK    3  A    between atoms: C1'_4  and  C1_5 
ROOT
ATOM      1  C1  N4B d   1       1.748  -2.133  -0.073  0.00  0.00    -0.075 A 
ATOM      2  C2  N4B d   1       0.923  -2.129  -1.220  0.00  0.00     0.002 A 
ATOM      3  C3  N4B d   1       0.998  -1.090  -2.115  0.00  0.00     0.002 A 
ATOM      4  C4  N4B d   1       1.872  -0.041  -1.877  0.00  0.00    -0.004 A 
ATOM      5  C5  N4B d   1       2.684  -0.065  -0.780  0.00  0.00     0.002 A 
ATOM      6  C6  N4B d   1       2.622  -1.104   0.126  0.00  0.00     0.002 A 
ENDROOT
BRANCH   1   7
ATOM      7  C1' N4B d   1       1.640  -3.204   0.978  0.00  0.00     0.057 C 
BRANCH   7   8
ATOM      8  C2' N4B d   1       0.308  -3.930   0.819  0.00  0.00     0.009 C 
BRANCH   8   9
ATOM      9  C3' N4B d   1       0.296  -5.262   1.549  0.00  0.00     0.004 C 
ATOM     10  C4' N4B d   1       1.598  -5.998   1.435  0.00  0.00     0.003 C 
ENDBRANCH   8   9
ENDBRANCH   7   8
ENDBRANCH   1   7
TORSDOF 3
ENDMDL
