MODEL 1
REMARK minimizedAffinity 6.13475418
REMARK minimizedRMSD -1
REMARK  3 active torsions:
REMARK  status: ('A' for Active; 'I' for Inactive)
REMARK    1  A    between atoms: C3'_2  and  C2'_3 
REMARK    2  A    between atoms: C2'_3  and  C1'_4 
REMARK    3  A    between atoms: C1'_4  and  C1_5 
ROOT
ATOM      1  C1  N4B d   1       0.823  -0.912  -1.945  0.00  0.00    -0.075 A 
ATOM      2  C2  N4B d   1      -0.359  -0.843  -1.176  0.00  0.00     0.002 A 
ATOM      3  C3  N4B d   1      -0.344  -1.231   0.141  0.00  0.00     0.002 A 
ATOM      4  C4  N4B d   1       0.831  -1.706   0.703  0.00  0.00    -0.004 A 
ATOM      5  C5  N4B d   1       1.975  -1.744  -0.039  0.00  0.00     0.002 A 
ATOM      6  C6  N4B d   1       1.975  -1.354  -1.363  0.00  0.00     0.002 A 
ENDROOT
BRANCH   1   7
ATOM      7  C1' N4B d   1       0.836  -0.580  -3.413  0.00  0.00     0.057 C 
BRANCH   7   8
ATOM      8  C2' N4B d   1      -0.282  -1.349  -4.110  0.00  0.00     0.009 C 
BRANCH   8   9
ATOM      9  C3' N4B d   1      -0.251  -2.830  -3.770  0.00  0.00     0.004 C 
ATOM     10  C4' N4B d   1      -1.531  -3.311  -3.155  0.00  0.00     0.003 C 
ENDBRANCH   8   9
ENDBRANCH   7   8
ENDBRANCH   1   7
TORSDOF 3
ENDMDL
