MODEL 1
REMARK minimizedAffinity 4.45814323
REMARK minimizedRMSD -1
REMARK  3 active torsions:
REMARK  status: ('A' for Active; 'I' for Inactive)
REMARK    1  A    between atoms: C3'_2  and  C2'_3 
REMARK    2  A    between atoms: C2'_3  and  C1'_4 
REMARK    3  A    between atoms: C1'_4  and  C1_5 
ROOT
ATOM      1  C1  N4B d   1       1.173  -1.621   0.403  0.00  0.00    -0.075 A 
ATOM      2  C2  N4B d   1       1.804  -2.754   0.962  0.00  0.00     0.002 A 
ATOM      3  C3  N4B d   1       1.147  -3.959   0.993  0.00  0.00     0.002 A 
ATOM      4  C4  N4B d   1      -0.142  -4.051   0.492  0.00  0.00    -0.004 A 
ATOM      5  C5  N4B d   1      -0.735  -2.958  -0.069  0.00  0.00     0.002 A 
ATOM      6  C6  N4B d   1      -0.086  -1.741  -0.111  0.00  0.00     0.002 A 
ENDROOT
BRANCH   1   7
ATOM      7  C1' N4B d   1       1.818  -0.262   0.424  0.00  0.00     0.057 C 
BRANCH   7   8
ATOM      8  C2' N4B d   1       1.033   0.679  -0.486  0.00  0.00     0.009 C 
BRANCH   8   9
ATOM      9  C3' N4B d   1       1.483   2.122  -0.335  0.00  0.00     0.004 C 
ATOM     10  C4' N4B d   1       1.914   2.734  -1.635  0.00  0.00     0.003 C 
ENDBRANCH   8   9
ENDBRANCH   7   8
ENDBRANCH   1   7
TORSDOF 3
ENDMDL
