MODEL 1
REMARK minimizedAffinity 1.7872839
REMARK minimizedRMSD -1
REMARK  3 active torsions:
REMARK  status: ('A' for Active; 'I' for Inactive)
REMARK    1  A    between atoms: C3'_2  and  C2'_3 
REMARK    2  A    between atoms: C2'_3  and  C1'_4 
REMARK    3  A    between atoms: C1'_4  and  C1_5 
ROOT
ATOM      1  C1  N4B d   1       1.167  -0.006  -3.111  0.00  0.00    -0.075 A 
ATOM      2  C2  N4B d   1       0.951  -1.402  -3.102  0.00  0.00     0.002 A 
ATOM      3  C3  N4B d   1       0.717  -2.053  -1.916  0.00  0.00     0.002 A 
ATOM      4  C4  N4B d   1       0.714  -1.336  -0.729  0.00  0.00    -0.004 A 
ATOM      5  C5  N4B d   1       0.898   0.016  -0.748  0.00  0.00     0.002 A 
ATOM      6  C6  N4B d   1       1.130   0.684  -1.934  0.00  0.00     0.002 A 
ENDROOT
BRANCH   1   7
ATOM      7  C1' N4B d   1       1.512   0.736  -4.373  0.00  0.00     0.057 C 
BRANCH   7   8
ATOM      8  C2' N4B d   1       3.025   0.915  -4.452  0.00  0.00     0.009 C 
BRANCH   8   9
ATOM      9  C3' N4B d   1       3.522   0.922  -5.887  0.00  0.00     0.004 C 
ATOM     10  C4' N4B d   1       4.995   0.659  -5.993  0.00  0.00     0.003 C 
ENDBRANCH   8   9
ENDBRANCH   7   8
ENDBRANCH   1   7
TORSDOF 3
ENDMDL
