MODEL 1
REMARK minimizedAffinity 0.639166176
REMARK minimizedRMSD -1
REMARK  3 active torsions:
REMARK  status: ('A' for Active; 'I' for Inactive)
REMARK    1  A    between atoms: C3'_2  and  C2'_3 
REMARK    2  A    between atoms: C2'_3  and  C1'_4 
REMARK    3  A    between atoms: C1'_4  and  C1_5 
ROOT
ATOM      1  C1  N4B d   1       3.629   0.914  -4.846  0.00  0.00    -0.075 A 
ATOM      2  C2  N4B d   1       4.897   0.407  -4.485  0.00  0.00     0.002 A 
ATOM      3  C3  N4B d   1       5.999   1.226  -4.519  0.00  0.00     0.002 A 
ATOM      4  C4  N4B d   1       5.861   2.544  -4.928  0.00  0.00    -0.004 A 
ATOM      5  C5  N4B d   1       4.629   3.033  -5.250  0.00  0.00     0.002 A 
ATOM      6  C6  N4B d   1       3.512   2.222  -5.216  0.00  0.00     0.002 A 
ENDROOT
BRANCH   1   7
ATOM      7  C1' N4B d   1       2.410   0.034  -4.906  0.00  0.00     0.057 C 
BRANCH   7   8
ATOM      8  C2' N4B d   1       1.657   0.131  -3.583  0.00  0.00     0.009 C 
BRANCH   8   9
ATOM      9  C3' N4B d   1       1.944  -1.055  -2.677  0.00  0.00     0.004 C 
ATOM     10  C4' N4B d   1       1.193  -2.289  -3.080  0.00  0.00     0.003 C 
ENDBRANCH   8   9
ENDBRANCH   7   8
ENDBRANCH   1   7
TORSDOF 3
ENDMDL
