MODEL 1
REMARK minimizedAffinity 2.42214584
REMARK minimizedRMSD -1
REMARK  3 active torsions:
REMARK  status: ('A' for Active; 'I' for Inactive)
REMARK    1  A    between atoms: C3'_2  and  C2'_3 
REMARK    2  A    between atoms: C2'_3  and  C1'_4 
REMARK    3  A    between atoms: C1'_4  and  C1_5 
ROOT
ATOM      1  C1  N4B d   1       0.912  -1.133  -1.349  0.00  0.00    -0.075 A 
ATOM      2  C2  N4B d   1       1.197  -2.298  -2.095  0.00  0.00     0.002 A 
ATOM      3  C3  N4B d   1       1.380  -2.216  -3.453  0.00  0.00     0.002 A 
ATOM      4  C4  N4B d   1       1.265  -0.988  -4.088  0.00  0.00    -0.004 A 
ATOM      5  C5  N4B d   1       1.014   0.136  -3.357  0.00  0.00     0.002 A 
ATOM      6  C6  N4B d   1       0.832   0.069  -1.990  0.00  0.00     0.002 A 
ENDROOT
BRANCH   1   7
ATOM      7  C1' N4B d   1       0.620  -1.185   0.126  0.00  0.00     0.057 C 
BRANCH   7   8
ATOM      8  C2' N4B d   1      -0.744  -1.834   0.343  0.00  0.00     0.009 C 
BRANCH   8   9
ATOM      9  C3' N4B d   1      -0.817  -2.575   1.666  0.00  0.00     0.004 C 
ATOM     10  C4' N4B d   1      -1.481  -1.773   2.746  0.00  0.00     0.003 C 
ENDBRANCH   8   9
ENDBRANCH   7   8
ENDBRANCH   1   7
TORSDOF 3
ENDMDL
