MODEL 1
REMARK minimizedAffinity 0.808967531
REMARK minimizedRMSD -1
REMARK  3 active torsions:
REMARK  status: ('A' for Active; 'I' for Inactive)
REMARK    1  A    between atoms: C3'_2  and  C2'_3 
REMARK    2  A    between atoms: C2'_3  and  C1'_4 
REMARK    3  A    between atoms: C1'_4  and  C1_5 
ROOT
ATOM      1  C1  N4B d   1       3.258   2.315  -5.313  0.00  0.00    -0.075 A 
ATOM      2  C2  N4B d   1       3.943   1.169  -5.773  0.00  0.00     0.002 A 
ATOM      3  C3  N4B d   1       5.305   1.203  -5.938  0.00  0.00     0.002 A 
ATOM      4  C4  N4B d   1       5.999   2.373  -5.670  0.00  0.00    -0.004 A 
ATOM      5  C5  N4B d   1       5.334   3.468  -5.202  0.00  0.00     0.002 A 
ATOM      6  C6  N4B d   1       3.965   3.447  -5.027  0.00  0.00     0.002 A 
ENDROOT
BRANCH   1   7
ATOM      7  C1' N4B d   1       1.758   2.352  -5.199  0.00  0.00     0.057 C 
BRANCH   7   8
ATOM      8  C2' N4B d   1       1.272   1.051  -4.566  0.00  0.00     0.009 C 
BRANCH   8   9
ATOM      9  C3' N4B d   1       0.621   1.286  -3.214  0.00  0.00     0.004 C 
ATOM     10  C4' N4B d   1       0.668   0.076  -2.329  0.00  0.00     0.003 C 
ENDBRANCH   8   9
ENDBRANCH   7   8
ENDBRANCH   1   7
TORSDOF 3
ENDMDL
