MODEL 1
REMARK minimizedAffinity -4.15666962
REMARK minimizedRMSD -1
REMARK  1 active torsions:
REMARK  status: ('A' for Active; 'I' for Inactive)
REMARK    1  A    between atoms: C1_2  and  C2_3 
ROOT
ATOM      1  C2  UNL d   1       0.854  -0.184  -0.826  0.00  0.00    -0.077 A 
ATOM      2  C3  UNL d   1       0.478  -1.478  -0.437  0.00  0.00     0.002 A 
ATOM      3  C4  UNL d   1       1.231  -2.583  -0.839  0.00  0.00     0.002 A 
ATOM      4  C5  UNL d   1       2.365  -2.405  -1.628  0.00  0.00    -0.004 A 
ATOM      5  C6  UNL d   1       2.746  -1.123  -2.021  0.00  0.00     0.002 A 
ATOM      6  C7  UNL d   1       1.994  -0.017  -1.621  0.00  0.00     0.002 A 
ENDROOT
BRANCH   1   7
ATOM      7  C1  UNL d   1       0.071   1.013  -0.352  0.00  0.00     0.055 C 
ATOM      8  C   UNL d   1      -1.173   0.592   0.416  0.00  0.00     0.019 C 
ENDBRANCH   1   7
TORSDOF 1
ENDMDL
