MODEL 1
REMARK minimizedAffinity -3.78303576
REMARK minimizedRMSD -1
REMARK  1 active torsions:
REMARK  status: ('A' for Active; 'I' for Inactive)
REMARK    1  A    between atoms: C1_2  and  C2_3 
ROOT
ATOM      1  C2  UNL d   1       0.875  -0.501   0.253  0.00  0.00    -0.077 A 
ATOM      2  C3  UNL d   1       1.503  -1.438  -0.580  0.00  0.00     0.002 A 
ATOM      3  C4  UNL d   1       2.318  -1.014  -1.631  0.00  0.00     0.002 A 
ATOM      4  C5  UNL d   1       2.517   0.346  -1.857  0.00  0.00    -0.004 A 
ATOM      5  C6  UNL d   1       1.895   1.286  -1.035  0.00  0.00     0.002 A 
ATOM      6  C7  UNL d   1       1.079   0.864   0.015  0.00  0.00     0.002 A 
ENDROOT
BRANCH   1   7
ATOM      7  C1  UNL d   1       0.035  -0.957   1.417  0.00  0.00     0.055 C 
ATOM      8  C   UNL d   1      -1.263  -0.167   1.506  0.00  0.00     0.019 C 
ENDBRANCH   1   7
TORSDOF 1
ENDMDL
