MODEL 1
REMARK minimizedAffinity -0.539246857
REMARK minimizedRMSD -1
REMARK  1 active torsions:
REMARK  status: ('A' for Active; 'I' for Inactive)
REMARK    1  A    between atoms: C1_2  and  C2_3 
ROOT
ATOM      1  C2  UNL d   1      -1.895   0.098   1.658  0.00  0.00    -0.077 A 
ATOM      2  C3  UNL d   1      -3.015  -0.591   1.171  0.00  0.00     0.002 A 
ATOM      3  C4  UNL d   1      -4.304  -0.142   1.465  0.00  0.00     0.002 A 
ATOM      4  C5  UNL d   1      -4.485   1.000   2.243  0.00  0.00    -0.004 A 
ATOM      5  C6  UNL d   1      -3.377   1.691   2.733  0.00  0.00     0.002 A 
ATOM      6  C7  UNL d   1      -2.089   1.243   2.441  0.00  0.00     0.002 A 
ENDROOT
BRANCH   1   7
ATOM      7  C1  UNL d   1      -0.504  -0.357   1.301  0.00  0.00     0.055 C 
ATOM      8  C   UNL d   1       0.275   0.744   0.596  0.00  0.00     0.019 C 
ENDBRANCH   1   7
TORSDOF 1
ENDMDL
