MODEL 1
REMARK minimizedAffinity -3.41485667
REMARK minimizedRMSD -1
REMARK  1 active torsions:
REMARK  status: ('A' for Active; 'I' for Inactive)
REMARK    1  A    between atoms: C1_2  and  C2_3 
ROOT
ATOM      1  C2  UNL d   1      -1.165   0.271   0.819  0.00  0.00    -0.077 A 
ATOM      2  C3  UNL d   1      -2.417   0.410   0.205  0.00  0.00     0.002 A 
ATOM      3  C4  UNL d   1      -3.556   0.664   0.973  0.00  0.00     0.002 A 
ATOM      4  C5  UNL d   1      -3.452   0.784   2.357  0.00  0.00    -0.004 A 
ATOM      5  C6  UNL d   1      -2.211   0.646   2.977  0.00  0.00     0.002 A 
ATOM      6  C7  UNL d   1      -1.072   0.392   2.211  0.00  0.00     0.002 A 
ENDROOT
BRANCH   1   7
ATOM      7  C1  UNL d   1       0.072   0.047  -0.012  0.00  0.00     0.055 C 
ATOM      8  C   UNL d   1       0.732   1.365  -0.390  0.00  0.00     0.019 C 
ENDBRANCH   1   7
TORSDOF 1
ENDMDL
