MODEL 1
REMARK minimizedAffinity -3.71533465
REMARK minimizedRMSD -1
REMARK  1 active torsions:
REMARK  status: ('A' for Active; 'I' for Inactive)
REMARK    1  A    between atoms: C1_2  and  C2_3 
ROOT
ATOM      1  C2  UNL d   1      -0.130   0.376   0.521  0.00  0.00    -0.077 A 
ATOM      2  C3  UNL d   1      -0.028   1.773   0.481  0.00  0.00     0.002 A 
ATOM      3  C4  UNL d   1       0.728   2.398  -0.512  0.00  0.00     0.002 A 
ATOM      4  C5  UNL d   1       1.385   1.634  -1.475  0.00  0.00    -0.004 A 
ATOM      5  C6  UNL d   1       1.292   0.244  -1.442  0.00  0.00     0.002 A 
ATOM      6  C7  UNL d   1       0.537  -0.383  -0.450  0.00  0.00     0.002 A 
ENDROOT
BRANCH   1   7
ATOM      7  C1  UNL d   1      -0.985  -0.298   1.561  0.00  0.00     0.055 C 
ATOM      8  C   UNL d   1      -2.169   0.574   1.955  0.00  0.00     0.019 C 
ENDBRANCH   1   7
TORSDOF 1
ENDMDL
