MODEL 1
REMARK minimizedAffinity -3.30062127
REMARK minimizedRMSD -1
REMARK  1 active torsions:
REMARK  status: ('A' for Active; 'I' for Inactive)
REMARK    1  A    between atoms: C1_2  and  C2_3 
ROOT
ATOM      1  C2  UNL d   1      -0.001   0.150   0.287  0.00  0.00    -0.077 A 
ATOM      2  C3  UNL d   1       0.397  -1.026  -0.364  0.00  0.00     0.002 A 
ATOM      3  C4  UNL d   1       1.195  -0.965  -1.508  0.00  0.00     0.002 A 
ATOM      4  C5  UNL d   1       1.605   0.269  -2.009  0.00  0.00    -0.004 A 
ATOM      5  C6  UNL d   1       1.213   1.444  -1.370  0.00  0.00     0.002 A 
ATOM      6  C7  UNL d   1       0.414   1.385  -0.227  0.00  0.00     0.002 A 
ENDROOT
BRANCH   1   7
ATOM      7  C1  UNL d   1      -0.820   0.084   1.549  0.00  0.00     0.055 C 
ATOM      8  C   UNL d   1      -2.303   0.259   1.256  0.00  0.00     0.019 C 
ENDBRANCH   1   7
TORSDOF 1
ENDMDL
