MODEL 1
REMARK minimizedAffinity -1.96075034
REMARK minimizedRMSD -1
REMARK  1 active torsions:
REMARK  status: ('A' for Active; 'I' for Inactive)
REMARK    1  A    between atoms: C1_2  and  C2_3 
ROOT
ATOM      1  C2  UNL d   1       0.553   0.327   0.076  0.00  0.00    -0.077 A 
ATOM      2  C3  UNL d   1       0.161  -0.965   0.454  0.00  0.00     0.002 A 
ATOM      3  C4  UNL d   1       0.682  -2.082  -0.203  0.00  0.00     0.002 A 
ATOM      4  C5  UNL d   1       1.601  -1.917  -1.238  0.00  0.00    -0.004 A 
ATOM      5  C6  UNL d   1       1.995  -0.636  -1.622  0.00  0.00     0.002 A 
ATOM      6  C7  UNL d   1       1.474   0.481  -0.968  0.00  0.00     0.002 A 
ENDROOT
BRANCH   1   7
ATOM      7  C1  UNL d   1       0.029   1.530   0.816  0.00  0.00     0.055 C 
ATOM      8  C   UNL d   1       1.154   2.489   1.180  0.00  0.00     0.019 C 
ENDBRANCH   1   7
TORSDOF 1
ENDMDL
