MODEL 1
REMARK minimizedAffinity -1.058496
REMARK minimizedRMSD -1
REMARK  1 active torsions:
REMARK  status: ('A' for Active; 'I' for Inactive)
REMARK    1  A    between atoms: C1_2  and  C2_3 
ROOT
ATOM      1  C2  UNL d   1      -1.358  -0.095   1.005  0.00  0.00    -0.077 A 
ATOM      2  C3  UNL d   1      -2.541  -0.662   0.509  0.00  0.00     0.002 A 
ATOM      3  C4  UNL d   1      -3.783  -0.213   0.962  0.00  0.00     0.002 A 
ATOM      4  C5  UNL d   1      -3.855   0.806   1.910  0.00  0.00    -0.004 A 
ATOM      5  C6  UNL d   1      -2.684   1.374   2.411  0.00  0.00     0.002 A 
ATOM      6  C7  UNL d   1      -1.442   0.927   1.960  0.00  0.00     0.002 A 
ENDROOT
BRANCH   1   7
ATOM      7  C1  UNL d   1      -0.019  -0.543   0.482  0.00  0.00     0.055 C 
ATOM      8  C   UNL d   1       0.811   0.639  -0.000  0.00  0.00     0.019 C 
ENDBRANCH   1   7
TORSDOF 1
ENDMDL
