MODEL 1
REMARK minimizedAffinity -3.64929557
REMARK minimizedRMSD -1
REMARK  1 active torsions:
REMARK  status: ('A' for Active; 'I' for Inactive)
REMARK    1  A    between atoms: C1_2  and  C2_3 
ROOT
ATOM      1  C2  UNL d   1      -0.599   0.141   1.109  0.00  0.00    -0.077 A 
ATOM      2  C3  UNL d   1      -0.158   1.295   0.446  0.00  0.00     0.002 A 
ATOM      3  C4  UNL d   1       0.745   1.200  -0.614  0.00  0.00     0.002 A 
ATOM      4  C5  UNL d   1       1.212  -0.047  -1.024  0.00  0.00    -0.004 A 
ATOM      5  C6  UNL d   1       0.781  -1.201  -0.370  0.00  0.00     0.002 A 
ATOM      6  C7  UNL d   1      -0.120  -1.108   0.691  0.00  0.00     0.002 A 
ENDROOT
BRANCH   1   7
ATOM      7  C1  UNL d   1      -1.611   0.238   2.221  0.00  0.00     0.055 C 
ATOM      8  C   UNL d   1      -3.032   0.173   1.682  0.00  0.00     0.019 C 
ENDBRANCH   1   7
TORSDOF 1
ENDMDL
