MODEL 1
REMARK minimizedAffinity -3.25536942
REMARK minimizedRMSD -1
REMARK  1 active torsions:
REMARK  status: ('A' for Active; 'I' for Inactive)
REMARK    1  A    between atoms: C1_2  and  C2_3 
ROOT
ATOM      1  C2  UNL d   1      -0.864   0.344   0.505  0.00  0.00    -0.077 A 
ATOM      2  C3  UNL d   1      -1.004  -0.276   1.755  0.00  0.00     0.002 A 
ATOM      3  C4  UNL d   1      -2.241  -0.292   2.400  0.00  0.00     0.002 A 
ATOM      4  C5  UNL d   1      -3.349   0.306   1.803  0.00  0.00    -0.004 A 
ATOM      5  C6  UNL d   1      -3.219   0.928   0.561  0.00  0.00     0.002 A 
ATOM      6  C7  UNL d   1      -1.983   0.946  -0.085  0.00  0.00     0.002 A 
ENDROOT
BRANCH   1   7
ATOM      7  C1  UNL d   1       0.459   0.320  -0.215  0.00  0.00     0.055 C 
ATOM      8  C   UNL d   1       0.600   1.510  -1.154  0.00  0.00     0.019 C 
ENDBRANCH   1   7
TORSDOF 1
ENDMDL
