MODEL 1
REMARK minimizedAffinity -2.84670997
REMARK minimizedRMSD -1
REMARK  1 active torsions:
REMARK  status: ('A' for Active; 'I' for Inactive)
REMARK    1  A    between atoms: C1_2  and  C2_3 
ROOT
ATOM      1  C2  UNL d   1      -0.663  -0.139   0.887  0.00  0.00    -0.077 A 
ATOM      2  C3  UNL d   1      -0.057   1.080   0.555  0.00  0.00     0.002 A 
ATOM      3  C4  UNL d   1       0.785   1.171  -0.556  0.00  0.00     0.002 A 
ATOM      4  C5  UNL d   1       1.025   0.047  -1.344  0.00  0.00    -0.004 A 
ATOM      5  C6  UNL d   1       0.428  -1.171  -1.020  0.00  0.00     0.002 A 
ATOM      6  C7  UNL d   1      -0.413  -1.263   0.090  0.00  0.00     0.002 A 
ENDROOT
BRANCH   1   7
ATOM      7  C1  UNL d   1      -1.610  -0.227   2.055  0.00  0.00     0.055 C 
ATOM      8  C   UNL d   1      -3.037   0.097   1.637  0.00  0.00     0.019 C 
ENDBRANCH   1   7
TORSDOF 1
ENDMDL
