MODEL 1
REMARK minimizedAffinity -3.27875543
REMARK minimizedRMSD -1
REMARK  1 active torsions:
REMARK  status: ('A' for Active; 'I' for Inactive)
REMARK    1  A    between atoms: C1_2  and  C2_3 
ROOT
ATOM      1  C2  UNL d   1      -1.256   0.275   1.194  0.00  0.00    -0.077 A 
ATOM      2  C3  UNL d   1      -0.732  -1.007   0.981  0.00  0.00     0.002 A 
ATOM      3  C4  UNL d   1       0.525  -1.168   0.394  0.00  0.00     0.002 A 
ATOM      4  C5  UNL d   1       1.269  -0.051   0.019  0.00  0.00    -0.004 A 
ATOM      5  C6  UNL d   1       0.755   1.228   0.225  0.00  0.00     0.002 A 
ATOM      6  C7  UNL d   1      -0.501   1.391   0.811  0.00  0.00     0.002 A 
ENDROOT
BRANCH   1   7
ATOM      7  C1  UNL d   1      -2.589   0.452   1.872  0.00  0.00     0.055 C 
ATOM      8  C   UNL d   1      -3.711  -0.180   1.060  0.00  0.00     0.019 C 
ENDBRANCH   1   7
TORSDOF 1
ENDMDL
