MODEL 1
REMARK minimizedAffinity -2.67873049
REMARK minimizedRMSD -1
REMARK  1 active torsions:
REMARK  status: ('A' for Active; 'I' for Inactive)
REMARK    1  A    between atoms: C1_2  and  C2_3 
ROOT
ATOM      1  C2  UNL d   1       0.826  -0.713   0.078  0.00  0.00    -0.077 A 
ATOM      2  C3  UNL d   1       1.663  -0.619  -1.042  0.00  0.00     0.002 A 
ATOM      3  C4  UNL d   1       2.200   0.614  -1.421  0.00  0.00     0.002 A 
ATOM      4  C5  UNL d   1       1.908   1.759  -0.683  0.00  0.00    -0.004 A 
ATOM      5  C6  UNL d   1       1.075   1.675   0.432  0.00  0.00     0.002 A 
ATOM      6  C7  UNL d   1       0.537   0.445   0.811  0.00  0.00     0.002 A 
ENDROOT
BRANCH   1   7
ATOM      7  C1  UNL d   1       0.285  -2.049   0.517  0.00  0.00     0.055 C 
ATOM      8  C   UNL d   1       0.776  -3.169  -0.390  0.00  0.00     0.019 C 
ENDBRANCH   1   7
TORSDOF 1
ENDMDL
