MODEL 1
REMARK minimizedAffinity -2.20030189
REMARK minimizedRMSD -1
REMARK  0 active torsions:
REMARK  status: ('A' for Active; 'I' for Inactive)
ROOT
ATOM      1  C1  DEN d   1      -0.248   2.444   0.780  0.00  0.00     0.130 A 
ATOM      2  C2  DEN d   1      -0.216   1.075   0.273  0.00  0.00    -0.031 A 
ATOM      3  C3  DEN d   1       1.141   0.536   0.498  0.00  0.00     0.027 A 
ATOM      4  C4  DEN d   1       3.182   1.682   1.582  0.00  0.00     0.027 A 
ATOM      5  C5  DEN d   1       3.642   2.846   2.155  0.00  0.00    -0.003 A 
ATOM      6  C6  DEN d   1       2.855   3.960   2.279  0.00  0.00     0.001 A 
ATOM      7  C7  DEN d   1       1.550   3.919   1.863  0.00  0.00     0.017 A 
ATOM      8  C8  DEN d   1       1.081   2.751   1.277  0.00  0.00    -0.094 A 
ATOM      9  C9  DEN d   1       1.889   1.631   1.172  0.00  0.00    -0.072 A 
ENDROOT
TORSDOF 0
ENDMDL
