MODEL 1
REMARK minimizedAffinity 1.71317673
REMARK minimizedRMSD -1
REMARK  0 active torsions:
REMARK  status: ('A' for Active; 'I' for Inactive)
ROOT
ATOM      1  C1  DEN d   1      -1.777   0.960   0.967  0.00  0.00     0.130 A 
ATOM      2  C2  DEN d   1      -0.958   0.929   2.176  0.00  0.00    -0.031 A 
ATOM      3  C3  DEN d   1       0.131   1.913   2.016  0.00  0.00     0.027 A 
ATOM      4  C4  DEN d   1       0.624   3.478   0.026  0.00  0.00     0.027 A 
ATOM      5  C5  DEN d   1       0.212   3.857  -1.232  0.00  0.00    -0.003 A 
ATOM      6  C6  DEN d   1      -0.861   3.278  -1.855  0.00  0.00     0.001 A 
ATOM      7  C7  DEN d   1      -1.589   2.319  -1.201  0.00  0.00     0.017 A 
ATOM      8  C8  DEN d   1      -1.176   1.926   0.065  0.00  0.00    -0.094 A 
ATOM      9  C9  DEN d   1      -0.095   2.533   0.683  0.00  0.00    -0.072 A 
ENDROOT
TORSDOF 0
ENDMDL
