MODEL 1
REMARK minimizedAffinity 9.96497059
REMARK minimizedRMSD -1
REMARK  0 active torsions:
REMARK  status: ('A' for Active; 'I' for Inactive)
ROOT
ATOM      1  C1  DEN d   1       1.518   2.273   2.322  0.00  0.00     0.130 A 
ATOM      2  C2  DEN d   1       1.198   1.045   1.600  0.00  0.00    -0.031 A 
ATOM      3  C3  DEN d   1       2.309   0.760   0.669  0.00  0.00     0.027 A 
ATOM      4  C4  DEN d   1       4.484   2.091   0.283  0.00  0.00     0.027 A 
ATOM      5  C5  DEN d   1       5.196   3.210   0.654  0.00  0.00    -0.003 A 
ATOM      6  C6  DEN d   1       4.721   4.105   1.575  0.00  0.00     0.001 A 
ATOM      7  C7  DEN d   1       3.519   3.874   2.190  0.00  0.00     0.017 A 
ATOM      8  C8  DEN d   1       2.791   2.752   1.815  0.00  0.00    -0.094 A 
ATOM      9  C9  DEN d   1       3.295   1.852   0.891  0.00  0.00    -0.072 A 
ENDROOT
TORSDOF 0
ENDMDL
