MODEL 1
REMARK minimizedAffinity 5.42023182
REMARK minimizedRMSD -1
REMARK  0 active torsions:
REMARK  status: ('A' for Active; 'I' for Inactive)
ROOT
ATOM      1  C1  DEN d   1      -0.478   1.503  -0.789  0.00  0.00     0.130 A 
ATOM      2  C2  DEN d   1      -1.601   2.297  -0.297  0.00  0.00    -0.031 A 
ATOM      3  C3  DEN d   1      -1.259   2.782   1.055  0.00  0.00     0.027 A 
ATOM      4  C4  DEN d   1       0.891   2.386   2.426  0.00  0.00     0.027 A 
ATOM      5  C5  DEN d   1       2.120   1.766   2.430  0.00  0.00    -0.003 A 
ATOM      6  C6  DEN d   1       2.553   0.993   1.385  0.00  0.00     0.001 A 
ATOM      7  C7  DEN d   1       1.767   0.857   0.271  0.00  0.00     0.017 A 
ATOM      8  C8  DEN d   1       0.523   1.473   0.262  0.00  0.00    -0.094 A 
ATOM      9  C9  DEN d   1       0.109   2.261   1.323  0.00  0.00    -0.072 A 
ENDROOT
TORSDOF 0
ENDMDL
