MODEL 1
REMARK minimizedAffinity 4.83909225
REMARK minimizedRMSD -1
REMARK  0 active torsions:
REMARK  status: ('A' for Active; 'I' for Inactive)
ROOT
ATOM      1  C1  DEN d   1       2.354   0.862   0.220  0.00  0.00     0.130 A 
ATOM      2  C2  DEN d   1       3.067   1.584   1.271  0.00  0.00    -0.031 A 
ATOM      3  C3  DEN d   1       2.070   2.317   2.078  0.00  0.00     0.027 A 
ATOM      4  C4  DEN d   1      -0.494   2.400   1.805  0.00  0.00     0.027 A 
ATOM      5  C5  DEN d   1      -1.557   1.958   1.049  0.00  0.00    -0.003 A 
ATOM      6  C6  DEN d   1      -1.390   1.155  -0.047  0.00  0.00     0.001 A 
ATOM      7  C7  DEN d   1      -0.134   0.730  -0.392  0.00  0.00     0.017 A 
ATOM      8  C8  DEN d   1       0.944   1.177   0.361  0.00  0.00    -0.094 A 
ATOM      9  C9  DEN d   1       0.753   1.980   1.473  0.00  0.00    -0.072 A 
ENDROOT
TORSDOF 0
ENDMDL
