MODEL 1
REMARK minimizedAffinity 7.01470947
REMARK minimizedRMSD -1
REMARK  0 active torsions:
REMARK  status: ('A' for Active; 'I' for Inactive)
ROOT
ATOM      1  C1  DEN d   1      -0.502   0.595   0.087  0.00  0.00     0.130 A 
ATOM      2  C2  DEN d   1      -1.501   1.433   0.744  0.00  0.00    -0.031 A 
ATOM      3  C3  DEN d   1      -0.799   2.327   1.686  0.00  0.00     0.027 A 
ATOM      4  C4  DEN d   1       1.726   2.498   2.185  0.00  0.00     0.027 A 
ATOM      5  C5  DEN d   1       2.967   1.983   1.882  0.00  0.00    -0.003 A 
ATOM      6  C6  DEN d   1       3.135   0.955   0.993  0.00  0.00     0.001 A 
ATOM      7  C7  DEN d   1       2.047   0.439   0.340  0.00  0.00     0.017 A 
ATOM      8  C8  DEN d   1       0.791   0.947   0.645  0.00  0.00    -0.094 A 
ATOM      9  C9  DEN d   1       0.644   1.995   1.538  0.00  0.00    -0.072 A 
ENDROOT
TORSDOF 0
ENDMDL
