MODEL 1
REMARK minimizedAffinity 8.18607807
REMARK minimizedRMSD -1
REMARK  0 active torsions:
REMARK  status: ('A' for Active; 'I' for Inactive)
ROOT
ATOM      1  C1  DEN d   1      -1.644   2.396   2.682  0.00  0.00     0.130 A 
ATOM      2  C2  DEN d   1      -1.213   3.113   3.879  0.00  0.00    -0.031 A 
ATOM      3  C3  DEN d   1       0.264   3.106   3.909  0.00  0.00     0.027 A 
ATOM      4  C4  DEN d   1       1.915   2.064   2.223  0.00  0.00     0.027 A 
ATOM      5  C5  DEN d   1       2.021   1.342   1.055  0.00  0.00    -0.003 A 
ATOM      6  C6  DEN d   1       0.921   0.896   0.371  0.00  0.00     0.001 A 
ATOM      7  C7  DEN d   1      -0.333   1.206   0.825  0.00  0.00     0.017 A 
ATOM      8  C8  DEN d   1      -0.448   1.926   2.007  0.00  0.00    -0.094 A 
ATOM      9  C9  DEN d   1       0.676   2.379   2.678  0.00  0.00    -0.072 A 
ENDROOT
TORSDOF 0
ENDMDL
