MODEL 1
REMARK minimizedAffinity 4.65895605
REMARK minimizedRMSD -1
REMARK  0 active torsions:
REMARK  status: ('A' for Active; 'I' for Inactive)
ROOT
ATOM      1  C1  DEN d   1       3.182   5.933   0.974  0.00  0.00     0.130 A 
ATOM      2  C2  DEN d   1       4.260   5.964  -0.011  0.00  0.00    -0.031 A 
ATOM      3  C3  DEN d   1       5.544   5.997   0.719  0.00  0.00     0.027 A 
ATOM      4  C4  DEN d   1       5.964   5.998   3.264  0.00  0.00     0.027 A 
ATOM      5  C5  DEN d   1       5.359   5.990   4.501  0.00  0.00    -0.003 A 
ATOM      6  C6  DEN d   1       3.998   5.997   4.649  0.00  0.00     0.001 A 
ATOM      7  C7  DEN d   1       3.195   5.967   3.539  0.00  0.00     0.017 A 
ATOM      8  C8  DEN d   1       3.797   5.982   2.288  0.00  0.00    -0.094 A 
ATOM      9  C9  DEN d   1       5.175   5.963   2.160  0.00  0.00    -0.072 A 
ENDROOT
TORSDOF 0
ENDMDL
