MODEL 1
REMARK minimizedAffinity 7.85228109
REMARK minimizedRMSD -1
REMARK  0 active torsions:
REMARK  status: ('A' for Active; 'I' for Inactive)
ROOT
ATOM      1  C1  DEN d   1       0.580   0.811  -0.172  0.00  0.00     0.130 A 
ATOM      2  C2  DEN d   1       2.034   0.773  -0.048  0.00  0.00    -0.031 A 
ATOM      3  C3  DEN d   1       2.401   1.427   1.225  0.00  0.00     0.027 A 
ATOM      4  C4  DEN d   1       0.865   2.485   3.007  0.00  0.00     0.027 A 
ATOM      5  C5  DEN d   1      -0.442   2.768   3.337  0.00  0.00    -0.003 A 
ATOM      6  C6  DEN d   1      -1.488   2.451   2.512  0.00  0.00     0.001 A 
ATOM      7  C7  DEN d   1      -1.250   1.792   1.335  0.00  0.00     0.017 A 
ATOM      8  C8  DEN d   1       0.066   1.510   0.992  0.00  0.00    -0.094 A 
ATOM      9  C9  DEN d   1       1.109   1.827   1.845  0.00  0.00    -0.072 A 
ENDROOT
TORSDOF 0
ENDMDL
