MODEL 1
REMARK minimizedAffinity 7.51804686
REMARK minimizedRMSD -1
REMARK  0 active torsions:
REMARK  status: ('A' for Active; 'I' for Inactive)
ROOT
ATOM      1  C1  DEN d   1       0.407   0.776  -0.099  0.00  0.00     0.130 A 
ATOM      2  C2  DEN d   1       1.849   0.690  -0.313  0.00  0.00    -0.031 A 
ATOM      3  C3  DEN d   1       2.511   1.550   0.687  0.00  0.00     0.027 A 
ATOM      4  C4  DEN d   1       1.451   2.997   2.540  0.00  0.00     0.027 A 
ATOM      5  C5  DEN d   1       0.262   3.401   3.107  0.00  0.00    -0.003 A 
ATOM      6  C6  DEN d   1      -0.953   2.989   2.627  0.00  0.00     0.001 A 
ATOM      7  C7  DEN d   1      -1.005   2.111   1.577  0.00  0.00     0.017 A 
ATOM      8  C8  DEN d   1       0.189   1.705   0.996  0.00  0.00    -0.094 A 
ATOM      9  C9  DEN d   1       1.407   2.123   1.503  0.00  0.00    -0.072 A 
ENDROOT
TORSDOF 0
ENDMDL
