MODEL 1
REMARK minimizedAffinity 4.94937372
REMARK minimizedRMSD -1
REMARK  0 active torsions:
REMARK  status: ('A' for Active; 'I' for Inactive)
ROOT
ATOM      1  C1  DEN d   1      -1.151   2.025   1.908  0.00  0.00     0.130 A 
ATOM      2  C2  DEN d   1      -0.812   2.857   3.059  0.00  0.00    -0.031 A 
ATOM      3  C3  DEN d   1       0.660   2.931   3.151  0.00  0.00     0.027 A 
ATOM      4  C4  DEN d   1       2.438   1.848   1.629  0.00  0.00     0.027 A 
ATOM      5  C5  DEN d   1       2.633   1.042   0.529  0.00  0.00    -0.003 A 
ATOM      6  C6  DEN d   1       1.590   0.484  -0.162  0.00  0.00     0.001 A 
ATOM      7  C7  DEN d   1       0.302   0.762   0.212  0.00  0.00     0.017 A 
ATOM      8  C8  DEN d   1       0.097   1.567   1.324  0.00  0.00    -0.094 A 
ATOM      9  C9  DEN d   1       1.164   2.132   2.003  0.00  0.00    -0.072 A 
ENDROOT
TORSDOF 0
ENDMDL
