MODEL 1
REMARK minimizedAffinity 3.48762083
REMARK minimizedRMSD -1
REMARK  0 active torsions:
REMARK  status: ('A' for Active; 'I' for Inactive)
ROOT
ATOM      1  C1  DEN d   1      -3.208   1.618  -4.462  0.00  0.00     0.130 A 
ATOM      2  C2  DEN d   1      -3.672   2.867  -5.062  0.00  0.00    -0.031 A 
ATOM      3  C3  DEN d   1      -4.594   3.516  -4.108  0.00  0.00     0.027 A 
ATOM      4  C4  DEN d   1      -5.341   2.717  -1.773  0.00  0.00     0.027 A 
ATOM      5  C5  DEN d   1      -5.223   1.710  -0.840  0.00  0.00    -0.003 A 
ATOM      6  C6  DEN d   1      -4.458   0.595  -1.061  0.00  0.00     0.001 A 
ATOM      7  C7  DEN d   1      -3.746   0.481  -2.226  0.00  0.00     0.017 A 
ATOM      8  C8  DEN d   1      -3.865   1.489  -3.174  0.00  0.00    -0.094 A 
ATOM      9  C9  DEN d   1      -4.633   2.614  -2.926  0.00  0.00    -0.072 A 
ENDROOT
TORSDOF 0
ENDMDL
