MODEL 1
REMARK minimizedAffinity 0.501157224
REMARK minimizedRMSD -1
REMARK  0 active torsions:
REMARK  status: ('A' for Active; 'I' for Inactive)
ROOT
ATOM      1  C1  DEN d   1      -1.446   2.515   2.560  0.00  0.00     0.130 A 
ATOM      2  C2  DEN d   1      -0.766   2.998   3.758  0.00  0.00    -0.031 A 
ATOM      3  C3  DEN d   1       0.682   2.760   3.589  0.00  0.00     0.027 A 
ATOM      4  C4  DEN d   1       1.929   1.700   1.596  0.00  0.00     0.027 A 
ATOM      5  C5  DEN d   1       1.777   1.125   0.353  0.00  0.00    -0.003 A 
ATOM      6  C6  DEN d   1       0.547   0.944  -0.222  0.00  0.00     0.001 A 
ATOM      7  C7  DEN d   1      -0.577   1.383   0.427  0.00  0.00     0.017 A 
ATOM      8  C8  DEN d   1      -0.432   1.956   1.684  0.00  0.00    -0.094 A 
ATOM      9  C9  DEN d   1       0.821   2.142   2.243  0.00  0.00    -0.072 A 
ENDROOT
TORSDOF 0
ENDMDL
