MODEL 1
REMARK minimizedAffinity 5.89823818
REMARK minimizedRMSD -1
REMARK  0 active torsions:
REMARK  status: ('A' for Active; 'I' for Inactive)
ROOT
ATOM      1  C1  DEN d   1       0.789   0.799   0.370  0.00  0.00     0.130 A 
ATOM      2  C2  DEN d   1       2.233   0.908   0.183  0.00  0.00    -0.031 A 
ATOM      3  C3  DEN d   1       2.760   1.822   1.216  0.00  0.00     0.027 A 
ATOM      4  C4  DEN d   1       1.487   3.070   3.080  0.00  0.00     0.027 A 
ATOM      5  C5  DEN d   1       0.246   3.300   3.632  0.00  0.00    -0.003 A 
ATOM      6  C6  DEN d   1      -0.896   2.745   3.118  0.00  0.00     0.001 A 
ATOM      7  C7  DEN d   1      -0.815   1.895   2.047  0.00  0.00     0.017 A 
ATOM      8  C8  DEN d   1       0.432   1.663   1.481  0.00  0.00    -0.094 A 
ATOM      9  C9  DEN d   1       1.576   2.224   2.023  0.00  0.00    -0.072 A 
ENDROOT
TORSDOF 0
ENDMDL
