MODEL 1
REMARK minimizedAffinity 2.31369495
REMARK minimizedRMSD -1
REMARK  0 active torsions:
REMARK  status: ('A' for Active; 'I' for Inactive)
ROOT
ATOM      1  C1  DEN d   1       0.131   0.759   0.392  0.00  0.00     0.130 A 
ATOM      2  C2  DEN d   1       1.520   0.494   0.026  0.00  0.00    -0.031 A 
ATOM      3  C3  DEN d   1       2.385   1.336   0.875  0.00  0.00     0.027 A 
ATOM      4  C4  DEN d   1       1.714   3.014   2.716  0.00  0.00     0.027 A 
ATOM      5  C5  DEN d   1       0.651   3.588   3.377  0.00  0.00    -0.003 A 
ATOM      6  C6  DEN d   1      -0.649   3.288   3.069  0.00  0.00     0.001 A 
ATOM      7  C7  DEN d   1      -0.920   2.355   2.104  0.00  0.00     0.017 A 
ATOM      8  C8  DEN d   1       0.146   1.777   1.428  0.00  0.00    -0.094 A 
ATOM      9  C9  DEN d   1       1.454   2.084   1.762  0.00  0.00    -0.072 A 
ENDROOT
TORSDOF 0
ENDMDL
