MODEL 1
REMARK minimizedAffinity 9.6306982
REMARK minimizedRMSD -1
REMARK  0 active torsions:
REMARK  status: ('A' for Active; 'I' for Inactive)
ROOT
ATOM      1  C1  DEN d   1      -0.707   0.824   0.470  0.00  0.00     0.130 A 
ATOM      2  C2  DEN d   1      -1.847   1.511   1.071  0.00  0.00    -0.031 A 
ATOM      3  C3  DEN d   1      -1.331   2.436   2.101  0.00  0.00     0.027 A 
ATOM      4  C4  DEN d   1       1.109   2.870   2.815  0.00  0.00     0.027 A 
ATOM      5  C5  DEN d   1       2.423   2.516   2.598  0.00  0.00    -0.003 A 
ATOM      6  C6  DEN d   1       2.779   1.556   1.689  0.00  0.00     0.001 A 
ATOM      7  C7  DEN d   1       1.814   0.949   0.929  0.00  0.00     0.017 A 
ATOM      8  C8  DEN d   1       0.487   1.296   1.147  0.00  0.00    -0.094 A 
ATOM      9  C9  DEN d   1       0.148   2.278   2.062  0.00  0.00    -0.072 A 
ENDROOT
TORSDOF 0
ENDMDL
