MODEL 1
REMARK minimizedAffinity 0.289172262
REMARK minimizedRMSD -1
REMARK  1 active torsions:
REMARK  status: ('A' for Active; 'I' for Inactive)
REMARK    1  A    between atoms: C1_2  and  C2_3 
ROOT
ATOM      1  C2  UNL d   1       2.815  -5.169  -2.150  0.00  0.00    -0.073 A 
ATOM      2  C3  UNL d   1       3.872  -6.000  -2.537  0.00  0.00    -0.002 A 
ATOM      3  C4  UNL d   1       5.189  -5.543  -2.470  0.00  0.00     0.004 A 
ATOM      4  C5  UNL d   1       5.463  -4.256  -2.009  0.00  0.00    -0.004 A 
ATOM      5  C6  UNL d   1       4.421  -3.414  -1.606  0.00  0.00    -0.075 A 
ATOM      6  C7  UNL d   1       4.699  -2.026  -1.110  0.00  0.00     0.076 C 
ATOM      7  C8  UNL d   1       3.101  -3.879  -1.679  0.00  0.00     0.001 A 
ENDROOT
BRANCH   1   8
ATOM      8  C1  UNL d   1       1.392  -5.659  -2.214  0.00  0.00     0.053 C 
ATOM      9  C   UNL d   1       0.617  -5.329  -0.949  0.00  0.00     0.018 C 
ENDBRANCH   1   8
TORSDOF 1
ENDMDL
