MODEL 1
REMARK minimizedAffinity 2.0421865
REMARK minimizedRMSD -1
REMARK  1 active torsions:
REMARK  status: ('A' for Active; 'I' for Inactive)
REMARK    1  A    between atoms: C1_2  and  C2_3 
ROOT
ATOM      1  C2  UNL d   1      -0.371   3.197  -0.762  0.00  0.00    -0.073 A 
ATOM      2  C3  UNL d   1       0.550   3.955  -1.494  0.00  0.00    -0.002 A 
ATOM      3  C4  UNL d   1       0.508   5.349  -1.452  0.00  0.00     0.004 A 
ATOM      4  C5  UNL d   1      -0.448   5.999  -0.672  0.00  0.00    -0.004 A 
ATOM      5  C6  UNL d   1      -1.370   5.260   0.076  0.00  0.00    -0.075 A 
ATOM      6  C7  UNL d   1      -2.406   5.944   0.918  0.00  0.00     0.076 C 
ATOM      7  C8  UNL d   1      -1.323   3.860   0.026  0.00  0.00     0.001 A 
ENDROOT
BRANCH   1   8
ATOM      8  C1  UNL d   1      -0.325   1.692  -0.800  0.00  0.00     0.053 C 
ATOM      9  C   UNL d   1      -1.665   1.091  -1.196  0.00  0.00     0.018 C 
ENDBRANCH   1   8
TORSDOF 1
ENDMDL
