MODEL 1
REMARK minimizedAffinity 6.40027714
REMARK minimizedRMSD -1
REMARK  1 active torsions:
REMARK  status: ('A' for Active; 'I' for Inactive)
REMARK    1  A    between atoms: C1_2  and  C2_3 
ROOT
ATOM      1  C2  UNL d   1       3.115  -3.927  -1.427  0.00  0.00    -0.073 A 
ATOM      2  C3  UNL d   1       3.639  -5.117  -1.945  0.00  0.00    -0.002 A 
ATOM      3  C4  UNL d   1       4.365  -5.108  -3.137  0.00  0.00     0.004 A 
ATOM      4  C5  UNL d   1       4.580  -3.910  -3.819  0.00  0.00    -0.004 A 
ATOM      5  C6  UNL d   1       4.076  -2.709  -3.310  0.00  0.00    -0.075 A 
ATOM      6  C7  UNL d   1       4.297  -1.412  -4.032  0.00  0.00     0.076 C 
ATOM      7  C8  UNL d   1       3.346  -2.727  -2.115  0.00  0.00     0.001 A 
ENDROOT
BRANCH   1   8
ATOM      8  C1  UNL d   1       2.336  -3.931  -0.137  0.00  0.00     0.053 C 
ATOM      9  C   UNL d   1       0.923  -4.458  -0.327  0.00  0.00     0.018 C 
ENDBRANCH   1   8
TORSDOF 1
ENDMDL
