MODEL 1
REMARK minimizedAffinity 0.0334580615
REMARK minimizedRMSD -1
REMARK  1 active torsions:
REMARK  status: ('A' for Active; 'I' for Inactive)
REMARK    1  A    between atoms: C1_2  and  C2_3 
ROOT
ATOM      1  C2  UNL d   1       2.967  -4.549  -0.792  0.00  0.00    -0.073 A 
ATOM      2  C3  UNL d   1       4.150  -4.673  -0.055  0.00  0.00    -0.002 A 
ATOM      3  C4  UNL d   1       5.274  -3.919  -0.394  0.00  0.00     0.004 A 
ATOM      4  C5  UNL d   1       5.226  -3.030  -1.467  0.00  0.00    -0.004 A 
ATOM      5  C6  UNL d   1       4.049  -2.883  -2.208  0.00  0.00    -0.075 A 
ATOM      6  C7  UNL d   1       3.981  -1.932  -3.367  0.00  0.00     0.076 C 
ATOM      7  C8  UNL d   1       2.925  -3.645  -1.864  0.00  0.00     0.001 A 
ENDROOT
BRANCH   1   8
ATOM      8  C1  UNL d   1       1.748  -5.356  -0.426  0.00  0.00     0.053 C 
ATOM      9  C   UNL d   1       0.509  -4.888  -1.172  0.00  0.00     0.018 C 
ENDBRANCH   1   8
TORSDOF 1
ENDMDL
