MODEL 1
REMARK minimizedAffinity 3.14568663
REMARK minimizedRMSD -1
REMARK  1 active torsions:
REMARK  status: ('A' for Active; 'I' for Inactive)
REMARK    1  A    between atoms: C1_2  and  C2_3 
ROOT
ATOM      1  C2  UNL d   1      -2.301   1.715  -1.806  0.00  0.00    -0.073 A 
ATOM      2  C3  UNL d   1      -2.861   0.454  -1.571  0.00  0.00    -0.002 A 
ATOM      3  C4  UNL d   1      -4.243   0.274  -1.630  0.00  0.00     0.004 A 
ATOM      4  C5  UNL d   1      -5.079   1.350  -1.931  0.00  0.00    -0.004 A 
ATOM      5  C6  UNL d   1      -4.538   2.615  -2.181  0.00  0.00    -0.075 A 
ATOM      6  C7  UNL d   1      -5.423   3.783  -2.503  0.00  0.00     0.076 C 
ATOM      7  C8  UNL d   1      -3.149   2.788  -2.117  0.00  0.00     0.001 A 
ENDROOT
BRANCH   1   8
ATOM      8  C1  UNL d   1      -0.808   1.913  -1.750  0.00  0.00     0.053 C 
ATOM      9  C   UNL d   1      -0.435   3.282  -1.205  0.00  0.00     0.018 C 
ENDBRANCH   1   8
TORSDOF 1
ENDMDL
