MODEL 1
REMARK minimizedAffinity 4.01854372
REMARK minimizedRMSD -1
REMARK  1 active torsions:
REMARK  status: ('A' for Active; 'I' for Inactive)
REMARK    1  A    between atoms: C1_2  and  C2_3 
ROOT
ATOM      1  C2  UNL d   1       2.740  -5.226  -1.373  0.00  0.00    -0.073 A 
ATOM      2  C3  UNL d   1       3.151  -5.596  -2.658  0.00  0.00    -0.002 A 
ATOM      3  C4  UNL d   1       4.154  -4.880  -3.312  0.00  0.00     0.004 A 
ATOM      4  C5  UNL d   1       4.761  -3.792  -2.685  0.00  0.00    -0.004 A 
ATOM      5  C6  UNL d   1       4.373  -3.413  -1.396  0.00  0.00    -0.075 A 
ATOM      6  C7  UNL d   1       5.015  -2.243  -0.709  0.00  0.00     0.076 C 
ATOM      7  C8  UNL d   1       3.362  -4.136  -0.748  0.00  0.00     0.001 A 
ENDROOT
BRANCH   1   8
ATOM      8  C1  UNL d   1       1.661  -6.000  -0.661  0.00  0.00     0.053 C 
ATOM      9  C   UNL d   1       0.271  -5.485  -1.001  0.00  0.00     0.018 C 
ENDBRANCH   1   8
TORSDOF 1
ENDMDL
