MODEL 1
REMARK minimizedAffinity 7.15728188
REMARK minimizedRMSD -1
REMARK  1 active torsions:
REMARK  status: ('A' for Active; 'I' for Inactive)
REMARK    1  A    between atoms: C1_2  and  C2_3 
ROOT
ATOM      1  C2  UNL d   1      -0.188   2.610   0.817  0.00  0.00    -0.073 A 
ATOM      2  C3  UNL d   1      -0.473   1.806  -0.292  0.00  0.00    -0.002 A 
ATOM      3  C4  UNL d   1      -0.332   2.312  -1.585  0.00  0.00     0.004 A 
ATOM      4  C5  UNL d   1       0.102   3.622  -1.782  0.00  0.00    -0.004 A 
ATOM      5  C6  UNL d   1       0.404   4.438  -0.687  0.00  0.00    -0.075 A 
ATOM      6  C7  UNL d   1       0.870   5.851  -0.882  0.00  0.00     0.076 C 
ATOM      7  C8  UNL d   1       0.256   3.924   0.609  0.00  0.00     0.001 A 
ENDROOT
BRANCH   1   8
ATOM      8  C1  UNL d   1      -0.334   2.066   2.215  0.00  0.00     0.053 C 
ATOM      9  C   UNL d   1      -1.777   1.723   2.546  0.00  0.00     0.018 C 
ENDBRANCH   1   8
TORSDOF 1
ENDMDL
