MODEL 1
REMARK minimizedAffinity 4.56749058
REMARK minimizedRMSD -1
REMARK  2 active torsions:
REMARK  status: ('A' for Active; 'I' for Inactive)
REMARK    1  A    between atoms: C1_2  and  C2_3 
REMARK    2  A    between atoms: C2_3  and  C3_4 
ROOT
ATOM      1  C3  UNL d   1       2.806  -2.370   3.761  0.00  0.00    -0.075 A 
ATOM      2  C4  UNL d   1       1.868  -3.247   3.196  0.00  0.00     0.002 A 
ATOM      3  C5  UNL d   1       1.032  -2.821   2.164  0.00  0.00     0.002 A 
ATOM      4  C6  UNL d   1       1.116  -1.513   1.691  0.00  0.00    -0.004 A 
ATOM      5  C7  UNL d   1       2.032  -0.629   2.255  0.00  0.00     0.002 A 
ATOM      6  C8  UNL d   1       2.873  -1.054   3.285  0.00  0.00     0.002 A 
ENDROOT
BRANCH   1   7
ATOM      7  C2  UNL d   1       3.734  -2.834   4.858  0.00  0.00     0.056 C 
BRANCH   7   8
ATOM      8  C1  UNL d   1       4.848  -3.770   4.379  0.00  0.00     0.007 C 
ATOM      9  C   UNL d   1       6.000  -3.037   3.704  0.00  0.00     0.009 C 
ENDBRANCH   7   8
ENDBRANCH   1   7
TORSDOF 2
ENDMDL
