MODEL 1
REMARK minimizedAffinity 2.62097573
REMARK minimizedRMSD -1
REMARK  2 active torsions:
REMARK  status: ('A' for Active; 'I' for Inactive)
REMARK    1  A    between atoms: C1_2  and  C2_3 
REMARK    2  A    between atoms: C2_3  and  C3_4 
ROOT
ATOM      1  C3  UNL d   1       1.634  -3.147   0.169  0.00  0.00    -0.075 A 
ATOM      2  C4  UNL d   1       1.184  -2.986  -1.149  0.00  0.00     0.002 A 
ATOM      3  C5  UNL d   1       1.340  -4.012  -2.082  0.00  0.00     0.002 A 
ATOM      4  C6  UNL d   1       1.956  -5.205  -1.713  0.00  0.00    -0.004 A 
ATOM      5  C7  UNL d   1       2.422  -5.370  -0.410  0.00  0.00     0.002 A 
ATOM      6  C8  UNL d   1       2.263  -4.347   0.526  0.00  0.00     0.002 A 
ENDROOT
BRANCH   1   7
ATOM      7  C2  UNL d   1       1.441  -2.053   1.191  0.00  0.00     0.056 C 
BRANCH   7   8
ATOM      8  C1  UNL d   1       1.475  -2.541   2.643  0.00  0.00     0.007 C 
ATOM      9  C   UNL d   1       2.580  -1.895   3.468  0.00  0.00     0.009 C 
ENDBRANCH   7   8
ENDBRANCH   1   7
TORSDOF 2
ENDMDL
