MODEL 1
REMARK minimizedAffinity 4.2168026
REMARK minimizedRMSD -1
REMARK  2 active torsions:
REMARK  status: ('A' for Active; 'I' for Inactive)
REMARK    1  A    between atoms: C1_2  and  C2_3 
REMARK    2  A    between atoms: C2_3  and  C3_4 
ROOT
ATOM      1  C3  UNL d   1      -0.030  -2.375  -1.593  0.00  0.00    -0.075 A 
ATOM      2  C4  UNL d   1      -1.396  -2.165  -1.831  0.00  0.00     0.002 A 
ATOM      3  C5  UNL d   1      -2.200  -1.568  -0.860  0.00  0.00     0.002 A 
ATOM      4  C6  UNL d   1      -1.654  -1.185   0.362  0.00  0.00    -0.004 A 
ATOM      5  C7  UNL d   1      -0.301  -1.403   0.616  0.00  0.00     0.002 A 
ATOM      6  C8  UNL d   1       0.507  -1.996  -0.356  0.00  0.00     0.002 A 
ENDROOT
BRANCH   1   7
ATOM      7  C2  UNL d   1       0.853  -2.993  -2.651  0.00  0.00     0.056 C 
BRANCH   7   8
ATOM      8  C1  UNL d   1       2.343  -3.000  -2.295  0.00  0.00     0.007 C 
ATOM      9  C   UNL d   1       3.086  -1.768  -2.795  0.00  0.00     0.009 C 
ENDBRANCH   7   8
ENDBRANCH   1   7
TORSDOF 2
ENDMDL
