MODEL 1
REMARK minimizedAffinity -3.9801836
REMARK minimizedRMSD -1
REMARK  2 active torsions:
REMARK  status: ('A' for Active; 'I' for Inactive)
REMARK    1  A    between atoms: C1_2  and  C2_3 
REMARK    2  A    between atoms: C2_3  and  C3_4 
ROOT
ATOM      1  C3  UNL d   1       3.235   5.778  -2.516  0.00  0.00    -0.075 A 
ATOM      2  C4  UNL d   1       3.394   5.984  -3.894  0.00  0.00     0.002 A 
ATOM      3  C5  UNL d   1       4.626   5.751  -4.507  0.00  0.00     0.002 A 
ATOM      4  C6  UNL d   1       5.714   5.321  -3.751  0.00  0.00    -0.004 A 
ATOM      5  C7  UNL d   1       5.571   5.129  -2.378  0.00  0.00     0.002 A 
ATOM      6  C8  UNL d   1       4.339   5.357  -1.763  0.00  0.00     0.002 A 
ENDROOT
BRANCH   1   7
ATOM      7  C2  UNL d   1       1.897   6.000  -1.851  0.00  0.00     0.056 C 
BRANCH   7   8
ATOM      8  C1  UNL d   1       0.913   4.838  -2.028  0.00  0.00     0.007 C 
ATOM      9  C   UNL d   1       0.640   4.081  -0.735  0.00  0.00     0.009 C 
ENDBRANCH   7   8
ENDBRANCH   1   7
TORSDOF 2
ENDMDL
