MODEL 1
REMARK minimizedAffinity 2.99838114
REMARK minimizedRMSD -1
REMARK  2 active torsions:
REMARK  status: ('A' for Active; 'I' for Inactive)
REMARK    1  A    between atoms: C1_2  and  C2_3 
REMARK    2  A    between atoms: C2_3  and  C3_4 
ROOT
ATOM      1  C3  UNL d   1       2.225  -0.787   2.406  0.00  0.00    -0.075 A 
ATOM      2  C4  UNL d   1       2.816  -0.331   1.219  0.00  0.00     0.002 A 
ATOM      3  C5  UNL d   1       3.244   0.992   1.103  0.00  0.00     0.002 A 
ATOM      4  C6  UNL d   1       3.078   1.876   2.167  0.00  0.00    -0.004 A 
ATOM      5  C7  UNL d   1       2.477   1.439   3.345  0.00  0.00     0.002 A 
ATOM      6  C8  UNL d   1       2.052   0.115   3.465  0.00  0.00     0.002 A 
ENDROOT
BRANCH   1   7
ATOM      7  C2  UNL d   1       1.786  -2.225   2.548  0.00  0.00     0.056 C 
BRANCH   7   8
ATOM      8  C1  UNL d   1       2.167  -2.864   3.887  0.00  0.00     0.007 C 
ATOM      9  C   UNL d   1       3.672  -2.934   4.112  0.00  0.00     0.009 C 
ENDBRANCH   7   8
ENDBRANCH   1   7
TORSDOF 2
ENDMDL
