MODEL 1
REMARK minimizedAffinity 1.87435973
REMARK minimizedRMSD -1
REMARK  2 active torsions:
REMARK  status: ('A' for Active; 'I' for Inactive)
REMARK    1  A    between atoms: C1_2  and  C2_3 
REMARK    2  A    between atoms: C2_3  and  C3_4 
ROOT
ATOM      1  C3  UNL d   1       2.791  -0.118  -0.255  0.00  0.00    -0.075 A 
ATOM      2  C4  UNL d   1       1.906  -0.801   0.592  0.00  0.00     0.002 A 
ATOM      3  C5  UNL d   1       1.229  -0.121   1.606  0.00  0.00     0.002 A 
ATOM      4  C6  UNL d   1       1.436   1.244   1.791  0.00  0.00    -0.004 A 
ATOM      5  C7  UNL d   1       2.325   1.929   0.966  0.00  0.00     0.002 A 
ATOM      6  C8  UNL d   1       3.000   1.252  -0.051  0.00  0.00     0.002 A 
ENDROOT
BRANCH   1   7
ATOM      7  C2  UNL d   1       3.504  -0.842  -1.372  0.00  0.00     0.056 C 
BRANCH   7   8
ATOM      8  C1  UNL d   1       2.640  -1.072  -2.617  0.00  0.00     0.007 C 
ATOM      9  C   UNL d   1       1.719  -2.279  -2.493  0.00  0.00     0.009 C 
ENDBRANCH   7   8
ENDBRANCH   1   7
TORSDOF 2
ENDMDL
