MODEL 1
REMARK minimizedAffinity 7.51436377
REMARK minimizedRMSD -1
REMARK  2 active torsions:
REMARK  status: ('A' for Active; 'I' for Inactive)
REMARK    1  A    between atoms: C1_2  and  C2_3 
REMARK    2  A    between atoms: C2_3  and  C3_4 
ROOT
ATOM      1  C3  UNL d   1       0.708  -2.027   0.447  0.00  0.00    -0.075 A 
ATOM      2  C4  UNL d   1      -0.507  -1.446   0.055  0.00  0.00     0.002 A 
ATOM      3  C5  UNL d   1      -1.002  -1.641  -1.235  0.00  0.00     0.002 A 
ATOM      4  C6  UNL d   1      -0.285  -2.409  -2.150  0.00  0.00    -0.004 A 
ATOM      5  C7  UNL d   1       0.931  -2.977  -1.777  0.00  0.00     0.002 A 
ATOM      6  C8  UNL d   1       1.426  -2.787  -0.486  0.00  0.00     0.002 A 
ENDROOT
BRANCH   1   7
ATOM      7  C2  UNL d   1       1.235  -1.844   1.850  0.00  0.00     0.056 C 
BRANCH   7   8
ATOM      8  C1  UNL d   1       1.967  -0.517   2.073  0.00  0.00     0.007 C 
ATOM      9  C   UNL d   1       2.209  -0.204   3.544  0.00  0.00     0.009 C 
ENDBRANCH   7   8
ENDBRANCH   1   7
TORSDOF 2
ENDMDL
