MODEL 1
REMARK minimizedAffinity 14.6712818
REMARK minimizedRMSD -1
REMARK  0 active torsions:
REMARK  status: ('A' for Active; 'I' for Inactive)
ROOT
ATOM      1  C   UNL d   1      -1.179   1.852   2.881  0.00  0.00     0.023 A 
ATOM      2  C1  UNL d   1      -0.152   2.373   2.094  0.00  0.00     0.003 A 
ATOM      3  C2  UNL d   1      -0.450   3.242   1.042  0.00  0.00     0.048 A 
ATOM      4  C3  UNL d   1      -1.776   3.588   0.785  0.00  0.00     0.023 A 
ATOM      5  C4  UNL d   1      -2.806   3.069   1.571  0.00  0.00     0.048 A 
ATOM      6  C5  UNL d   1      -2.504   2.199   2.620  0.00  0.00     0.003 A 
ATOM      7  I   UNL d   1      -2.221   4.882  -0.779  0.00  0.00    -0.146 I 
ENDROOT
TORSDOF 0
ENDMDL
