MODEL 1
REMARK minimizedAffinity -3.21181226
REMARK minimizedRMSD -1
REMARK  0 active torsions:
REMARK  status: ('A' for Active; 'I' for Inactive)
ROOT
ATOM      1  C   UNL d   1       0.493  -1.309  -0.933  0.00  0.00     0.023 A 
ATOM      2  C1  UNL d   1       1.746  -0.747  -1.179  0.00  0.00     0.003 A 
ATOM      3  C2  UNL d   1       2.107   0.454  -0.566  0.00  0.00     0.048 A 
ATOM      4  C3  UNL d   1       1.210   1.089   0.293  0.00  0.00     0.023 A 
ATOM      5  C4  UNL d   1      -0.045   0.530   0.543  0.00  0.00     0.048 A 
ATOM      6  C5  UNL d   1      -0.401  -0.671  -0.074  0.00  0.00     0.003 A 
ATOM      7  I   UNL d   1       1.745   2.877   1.207  0.00  0.00    -0.146 I 
ENDROOT
TORSDOF 0
ENDMDL
