MODEL 1
REMARK minimizedAffinity 8.01426983
REMARK minimizedRMSD -1
REMARK  0 active torsions:
REMARK  status: ('A' for Active; 'I' for Inactive)
ROOT
ATOM      1  C   UNL d   1       4.067   5.988  -5.008  0.00  0.00     0.023 A 
ATOM      2  C1  UNL d   1       5.444   5.777  -5.083  0.00  0.00     0.003 A 
ATOM      3  C2  UNL d   1       6.000   4.602  -4.572  0.00  0.00     0.048 A 
ATOM      4  C3  UNL d   1       5.173   3.642  -3.989  0.00  0.00     0.023 A 
ATOM      5  C4  UNL d   1       3.795   3.849  -3.912  0.00  0.00     0.048 A 
ATOM      6  C5  UNL d   1       3.244   5.026  -4.423  0.00  0.00     0.003 A 
ATOM      7  I   UNL d   1       5.998   1.893  -3.229  0.00  0.00    -0.146 I 
ENDROOT
TORSDOF 0
ENDMDL
