MODEL 1
REMARK minimizedAffinity 2.04444981
REMARK minimizedRMSD -1
REMARK  0 active torsions:
REMARK  status: ('A' for Active; 'I' for Inactive)
ROOT
ATOM      1  C   UNL d   1       3.436  -1.071  -0.996  0.00  0.00     0.023 A 
ATOM      2  C1  UNL d   1       2.163  -1.393  -0.525  0.00  0.00     0.003 A 
ATOM      3  C2  UNL d   1       1.467  -0.491   0.283  0.00  0.00     0.048 A 
ATOM      4  C3  UNL d   1       2.050   0.731   0.615  0.00  0.00     0.023 A 
ATOM      5  C4  UNL d   1       3.323   1.058   0.145  0.00  0.00     0.048 A 
ATOM      6  C5  UNL d   1       4.015   0.153  -0.662  0.00  0.00     0.003 A 
ATOM      7  I   UNL d   1       1.016   2.075   1.817  0.00  0.00    -0.146 I 
ENDROOT
TORSDOF 0
ENDMDL
