MODEL 1
REMARK minimizedAffinity 5.1262393
REMARK minimizedRMSD -1
REMARK  0 active torsions:
REMARK  status: ('A' for Active; 'I' for Inactive)
ROOT
ATOM      1  C   UNL d   1       3.575   1.595  -0.149  0.00  0.00     0.023 A 
ATOM      2  C1  UNL d   1       3.337   2.631   0.754  0.00  0.00     0.003 A 
ATOM      3  C2  UNL d   1       2.155   2.653   1.497  0.00  0.00     0.048 A 
ATOM      4  C3  UNL d   1       1.216   1.635   1.334  0.00  0.00     0.023 A 
ATOM      5  C4  UNL d   1       1.451   0.596   0.432  0.00  0.00     0.048 A 
ATOM      6  C5  UNL d   1       2.634   0.578  -0.310  0.00  0.00     0.003 A 
ATOM      7  I   UNL d   1      -0.543   1.666   2.440  0.00  0.00    -0.146 I 
ENDROOT
TORSDOF 0
ENDMDL
