MODEL 1
REMARK minimizedAffinity 11.9217072
REMARK minimizedRMSD -1
REMARK  0 active torsions:
REMARK  status: ('A' for Active; 'I' for Inactive)
ROOT
ATOM      1  C   UNL d   1       0.870   2.880   1.612  0.00  0.00     0.023 A 
ATOM      2  C1  UNL d   1       0.781   1.559   2.053  0.00  0.00     0.003 A 
ATOM      3  C2  UNL d   1       1.251   0.520   1.248  0.00  0.00     0.048 A 
ATOM      4  C3  UNL d   1       1.809   0.807   0.003  0.00  0.00     0.023 A 
ATOM      5  C4  UNL d   1       1.901   2.127  -0.442  0.00  0.00     0.048 A 
ATOM      6  C5  UNL d   1       1.429   3.163   0.365  0.00  0.00     0.003 A 
ATOM      7  I   UNL d   1       2.510  -0.738  -1.197  0.00  0.00    -0.146 I 
ENDROOT
TORSDOF 0
ENDMDL
