MODEL 1
REMARK minimizedAffinity 6.86886358
REMARK minimizedRMSD -1
REMARK  0 active torsions:
REMARK  status: ('A' for Active; 'I' for Inactive)
ROOT
ATOM      1  C   UNL d   1      -0.684   2.314   2.618  0.00  0.00     0.023 A 
ATOM      2  C1  UNL d   1       0.016   1.118   2.780  0.00  0.00     0.003 A 
ATOM      3  C2  UNL d   1       1.190   0.892   2.059  0.00  0.00     0.048 A 
ATOM      4  C3  UNL d   1       1.659   1.865   1.177  0.00  0.00     0.023 A 
ATOM      5  C4  UNL d   1       0.962   3.064   1.012  0.00  0.00     0.048 A 
ATOM      6  C5  UNL d   1      -0.212   3.285   1.735  0.00  0.00     0.003 A 
ATOM      7  I   UNL d   1       3.406   1.531   0.103  0.00  0.00    -0.146 I 
ENDROOT
TORSDOF 0
ENDMDL
