MODEL 1
REMARK minimizedAffinity 5.99658871
REMARK minimizedRMSD -1
REMARK  0 active torsions:
REMARK  status: ('A' for Active; 'I' for Inactive)
ROOT
ATOM      1  C   UNL d   1       1.414   0.929   1.978  0.00  0.00     0.023 A 
ATOM      2  C1  UNL d   1       0.745  -0.288   1.848  0.00  0.00     0.003 A 
ATOM      3  C2  UNL d   1       0.463  -0.799   0.579  0.00  0.00     0.048 A 
ATOM      4  C3  UNL d   1       0.854  -0.089  -0.555  0.00  0.00     0.023 A 
ATOM      5  C4  UNL d   1       1.525   1.129  -0.430  0.00  0.00     0.048 A 
ATOM      6  C5  UNL d   1       1.803   1.637   0.840  0.00  0.00     0.003 A 
ATOM      7  I   UNL d   1       0.437  -0.848  -2.444  0.00  0.00    -0.146 I 
ENDROOT
TORSDOF 0
ENDMDL
