MODEL 1
REMARK minimizedAffinity 8.83939934
REMARK minimizedRMSD -1
REMARK  0 active torsions:
REMARK  status: ('A' for Active; 'I' for Inactive)
ROOT
ATOM      1  C   UNL d   1       3.334   2.324   0.358  0.00  0.00     0.023 A 
ATOM      2  C1  UNL d   1       2.897   1.074   0.796  0.00  0.00     0.003 A 
ATOM      3  C2  UNL d   1       1.737   0.969   1.566  0.00  0.00     0.048 A 
ATOM      4  C3  UNL d   1       1.018   2.119   1.894  0.00  0.00     0.023 A 
ATOM      5  C4  UNL d   1       1.451   3.372   1.457  0.00  0.00     0.048 A 
ATOM      6  C5  UNL d   1       2.612   3.472   0.688  0.00  0.00     0.003 A 
ATOM      7  I   UNL d   1      -0.709   1.965   3.040  0.00  0.00    -0.146 I 
ENDROOT
TORSDOF 0
ENDMDL
