MODEL 1
REMARK minimizedAffinity 8.58857346
REMARK minimizedRMSD -1
REMARK  0 active torsions:
REMARK  status: ('A' for Active; 'I' for Inactive)
ROOT
ATOM      1  C   UNL d   1       2.118   2.953   1.994  0.00  0.00     0.023 A 
ATOM      2  C1  UNL d   1       0.883   2.315   1.871  0.00  0.00     0.003 A 
ATOM      3  C2  UNL d   1       0.717   1.287   0.941  0.00  0.00     0.048 A 
ATOM      4  C3  UNL d   1       1.789   0.901   0.138  0.00  0.00     0.023 A 
ATOM      5  C4  UNL d   1       3.027   1.536   0.258  0.00  0.00     0.048 A 
ATOM      6  C5  UNL d   1       3.188   2.564   1.188  0.00  0.00     0.003 A 
ATOM      7  I   UNL d   1       1.544  -0.630  -1.246  0.00  0.00    -0.146 I 
ENDROOT
TORSDOF 0
ENDMDL
