MODEL 1
REMARK minimizedAffinity 12.438364
REMARK minimizedRMSD -1
REMARK  0 active torsions:
REMARK  status: ('A' for Active; 'I' for Inactive)
ROOT
ATOM      1  C   UNL d   1       5.992   5.991  -5.093  0.00  0.00     0.023 A 
ATOM      2  C1  UNL d   1       5.971   5.865  -3.704  0.00  0.00     0.003 A 
ATOM      3  C2  UNL d   1       5.957   4.599  -3.117  0.00  0.00     0.048 A 
ATOM      4  C3  UNL d   1       5.965   3.462  -3.924  0.00  0.00     0.023 A 
ATOM      5  C4  UNL d   1       5.986   3.583  -5.315  0.00  0.00     0.048 A 
ATOM      6  C5  UNL d   1       5.999   4.851  -5.897  0.00  0.00     0.003 A 
ATOM      7  I   UNL d   1       5.943   1.575  -3.052  0.00  0.00    -0.146 I 
ENDROOT
TORSDOF 0
ENDMDL
