MODEL 1
REMARK minimizedAffinity 10.3928194
REMARK minimizedRMSD -1
REMARK  0 active torsions:
REMARK  status: ('A' for Active; 'I' for Inactive)
ROOT
ATOM      1  C   UNL d   1       3.395   1.256  -0.357  0.00  0.00     0.023 A 
ATOM      2  C1  UNL d   1       2.362   0.321  -0.278  0.00  0.00     0.003 A 
ATOM      3  C2  UNL d   1       1.305   0.520   0.612  0.00  0.00     0.048 A 
ATOM      4  C3  UNL d   1       1.286   1.656   1.420  0.00  0.00     0.023 A 
ATOM      5  C4  UNL d   1       2.316   2.594   1.345  0.00  0.00     0.048 A 
ATOM      6  C5  UNL d   1       3.372   2.391   0.454  0.00  0.00     0.003 A 
ATOM      7  I   UNL d   1      -0.287   1.953   2.746  0.00  0.00    -0.146 I 
ENDROOT
TORSDOF 0
ENDMDL
