MODEL 1
REMARK minimizedAffinity 11.7011938
REMARK minimizedRMSD -1
REMARK  0 active torsions:
REMARK  status: ('A' for Active; 'I' for Inactive)
ROOT
ATOM      1  C   UNL d   1       1.290  -0.375  -2.480  0.00  0.00     0.023 A 
ATOM      2  C1  UNL d   1       0.637   0.811  -2.816  0.00  0.00     0.003 A 
ATOM      3  C2  UNL d   1       0.624   1.880  -1.918  0.00  0.00     0.048 A 
ATOM      4  C3  UNL d   1       1.266   1.757  -0.686  0.00  0.00     0.023 A 
ATOM      5  C4  UNL d   1       1.922   0.573  -0.346  0.00  0.00     0.048 A 
ATOM      6  C5  UNL d   1       1.932  -0.494  -1.247  0.00  0.00     0.003 A 
ATOM      7  I   UNL d   1       1.248   3.348   0.651  0.00  0.00    -0.146 I 
ENDROOT
TORSDOF 0
ENDMDL
