MODEL 1
REMARK minimizedAffinity 6.07521963
REMARK minimizedRMSD -1
REMARK  0 active torsions:
REMARK  status: ('A' for Active; 'I' for Inactive)
ROOT
ATOM      1  C   UNL d   1       0.440   0.053  -3.394  0.00  0.00     0.023 A 
ATOM      2  C1  UNL d   1       0.388   1.402  -3.042  0.00  0.00     0.003 A 
ATOM      3  C2  UNL d   1       0.853   1.816  -1.792  0.00  0.00     0.048 A 
ATOM      4  C3  UNL d   1       1.368   0.877  -0.900  0.00  0.00     0.023 A 
ATOM      5  C4  UNL d   1       1.423  -0.473  -1.248  0.00  0.00     0.048 A 
ATOM      6  C5  UNL d   1       0.957  -0.883  -2.499  0.00  0.00     0.003 A 
ATOM      7  I   UNL d   1       2.061   1.491   0.961  0.00  0.00    -0.146 I 
ENDROOT
TORSDOF 0
ENDMDL
