MODEL 1
REMARK minimizedAffinity 7.66592264
REMARK minimizedRMSD -1
REMARK  0 active torsions:
REMARK  status: ('A' for Active; 'I' for Inactive)
ROOT
ATOM      1  C   UNL d   1       1.296   2.400   2.137  0.00  0.00     0.023 A 
ATOM      2  C1  UNL d   1       0.171   3.203   1.952  0.00  0.00     0.003 A 
ATOM      3  C2  UNL d   1      -1.103   2.690   2.200  0.00  0.00     0.048 A 
ATOM      4  C3  UNL d   1      -1.246   1.373   2.635  0.00  0.00     0.023 A 
ATOM      5  C4  UNL d   1      -0.123   0.565   2.822  0.00  0.00     0.048 A 
ATOM      6  C5  UNL d   1       1.150   1.082   2.571  0.00  0.00     0.003 A 
ATOM      7  I   UNL d   1      -3.142   0.607   3.006  0.00  0.00    -0.146 I 
ENDROOT
TORSDOF 0
ENDMDL
