MODEL 1
REMARK minimizedAffinity 0.531318069
REMARK minimizedRMSD -1
REMARK  0 active torsions:
REMARK  status: ('A' for Active; 'I' for Inactive)
ROOT
ATOM      1  C   UNL d   1       2.377   0.829   0.388  0.00  0.00     0.023 A 
ATOM      2  C1  UNL d   1       2.532  -0.085  -0.654  0.00  0.00     0.003 A 
ATOM      3  C2  UNL d   1       1.724  -1.223  -0.713  0.00  0.00     0.048 A 
ATOM      4  C3  UNL d   1       0.763  -1.440   0.273  0.00  0.00     0.023 A 
ATOM      5  C4  UNL d   1       0.603  -0.528   1.318  0.00  0.00     0.048 A 
ATOM      6  C5  UNL d   1       1.414   0.607   1.373  0.00  0.00     0.003 A 
ATOM      7  I   UNL d   1      -0.440  -3.133   0.187  0.00  0.00    -0.146 I 
ENDROOT
TORSDOF 0
ENDMDL
