MODEL 1
REMARK minimizedAffinity -4.49200726
REMARK minimizedRMSD -1
REMARK  1 active torsions:
REMARK  status: ('A' for Active; 'I' for Inactive)
REMARK    1  A    between atoms: C1_2  and  C2_3 
ROOT
ATOM      1  C2  UNL d   1      -0.075   0.386  -0.411  0.00  0.00    -0.073 A 
ATOM      2  C3  UNL d   1       1.146   1.068  -0.380  0.00  0.00    -0.002 A 
ATOM      3  C4  UNL d   1       2.331   0.381  -0.111  0.00  0.00     0.004 A 
ATOM      4  C5  UNL d   1       2.308  -0.994   0.121  0.00  0.00    -0.004 A 
ATOM      5  C6  UNL d   1       1.099  -1.696   0.082  0.00  0.00    -0.075 A 
ATOM      6  C7  UNL d   1       1.057  -3.175   0.332  0.00  0.00     0.076 C 
ATOM      7  C8  UNL d   1      -0.087  -0.998  -0.186  0.00  0.00     0.001 A 
ENDROOT
BRANCH   1   8
ATOM      8  C1  UNL d   1      -1.356   1.122  -0.707  0.00  0.00     0.053 C 
ATOM      9  C   UNL d   1      -1.651   1.177  -2.198  0.00  0.00     0.018 C 
ENDBRANCH   1   8
TORSDOF 1
ENDMDL
