MODEL 1
REMARK minimizedAffinity -5.11630964
REMARK minimizedRMSD -1
REMARK  1 active torsions:
REMARK  status: ('A' for Active; 'I' for Inactive)
REMARK    1  A    between atoms: C1_2  and  C2_3 
ROOT
ATOM      1  C2  UNL d   1       0.479  -0.501  -0.397  0.00  0.00    -0.073 A 
ATOM      2  C3  UNL d   1       0.211   0.378   0.658  0.00  0.00    -0.002 A 
ATOM      3  C4  UNL d   1      -0.726   1.401   0.503  0.00  0.00     0.004 A 
ATOM      4  C5  UNL d   1      -1.409   1.550  -0.704  0.00  0.00    -0.004 A 
ATOM      5  C6  UNL d   1      -1.164   0.674  -1.766  0.00  0.00    -0.075 A 
ATOM      6  C7  UNL d   1      -1.888   0.822  -3.072  0.00  0.00     0.076 C 
ATOM      7  C8  UNL d   1      -0.219  -0.349  -1.603  0.00  0.00     0.001 A 
ENDROOT
BRANCH   1   8
ATOM      8  C1  UNL d   1       1.485  -1.611  -0.231  0.00  0.00     0.053 C 
ATOM      9  C   UNL d   1       1.128  -2.537   0.920  0.00  0.00     0.018 C 
ENDBRANCH   1   8
TORSDOF 1
ENDMDL
