MODEL 1
REMARK minimizedAffinity -2.2826364
REMARK minimizedRMSD -1
REMARK  1 active torsions:
REMARK  status: ('A' for Active; 'I' for Inactive)
REMARK    1  A    between atoms: C1_2  and  C2_3 
ROOT
ATOM      1  C2  UNL d   1      -0.688   0.369   0.100  0.00  0.00    -0.073 A 
ATOM      2  C3  UNL d   1      -1.749   0.079   0.965  0.00  0.00    -0.002 A 
ATOM      3  C4  UNL d   1      -1.728  -1.080   1.742  0.00  0.00     0.004 A 
ATOM      4  C5  UNL d   1      -0.644  -1.955   1.668  0.00  0.00    -0.004 A 
ATOM      5  C6  UNL d   1       0.431  -1.676   0.819  0.00  0.00    -0.075 A 
ATOM      6  C7  UNL d   1       1.603  -2.608   0.726  0.00  0.00     0.076 C 
ATOM      7  C8  UNL d   1       0.401  -0.512   0.039  0.00  0.00     0.001 A 
ENDROOT
BRANCH   1   8
ATOM      8  C1  UNL d   1      -0.704   1.622  -0.737  0.00  0.00     0.053 C 
ATOM      9  C   UNL d   1      -1.919   1.684  -1.649  0.00  0.00     0.018 C 
ENDBRANCH   1   8
TORSDOF 1
ENDMDL
