MODEL 1
REMARK minimizedAffinity -4.46154642
REMARK minimizedRMSD -1
REMARK  1 active torsions:
REMARK  status: ('A' for Active; 'I' for Inactive)
REMARK    1  A    between atoms: C1_2  and  C2_3 
ROOT
ATOM      1  C2  UNL d   1       0.312   0.020  -0.740  0.00  0.00    -0.073 A 
ATOM      2  C3  UNL d   1      -0.159   0.925   0.218  0.00  0.00    -0.002 A 
ATOM      3  C4  UNL d   1      -1.113   1.884  -0.127  0.00  0.00     0.004 A 
ATOM      4  C5  UNL d   1      -1.611   1.943  -1.428  0.00  0.00    -0.004 A 
ATOM      5  C6  UNL d   1      -1.162   1.040  -2.397  0.00  0.00    -0.075 A 
ATOM      6  C7  UNL d   1      -1.686   1.091  -3.802  0.00  0.00     0.076 C 
ATOM      7  C8  UNL d   1      -0.202   0.082  -2.044  0.00  0.00     0.001 A 
ENDROOT
BRANCH   1   8
ATOM      8  C1  UNL d   1       1.337  -1.021  -0.372  0.00  0.00     0.053 C 
ATOM      9  C   UNL d   1       0.694  -2.351  -0.011  0.00  0.00     0.018 C 
ENDBRANCH   1   8
TORSDOF 1
ENDMDL
