MODEL 1
REMARK minimizedAffinity -2.87897205
REMARK minimizedRMSD -1
REMARK  1 active torsions:
REMARK  status: ('A' for Active; 'I' for Inactive)
REMARK    1  A    between atoms: C1_2  and  C2_3 
ROOT
ATOM      1  C2  UNL d   1      -0.132  -0.031  -1.050  0.00  0.00    -0.073 A 
ATOM      2  C3  UNL d   1      -0.092   1.039  -0.148  0.00  0.00    -0.002 A 
ATOM      3  C4  UNL d   1      -0.774   2.223  -0.430  0.00  0.00     0.004 A 
ATOM      4  C5  UNL d   1      -1.507   2.348  -1.610  0.00  0.00    -0.004 A 
ATOM      5  C6  UNL d   1      -1.569   1.286  -2.517  0.00  0.00    -0.075 A 
ATOM      6  C7  UNL d   1      -2.351   1.405  -3.792  0.00  0.00     0.076 C 
ATOM      7  C8  UNL d   1      -0.879   0.101  -2.229  0.00  0.00     0.001 A 
ENDROOT
BRANCH   1   8
ATOM      8  C1  UNL d   1       0.597  -1.314  -0.747  0.00  0.00     0.053 C 
ATOM      9  C   UNL d   1       1.630  -1.137   0.354  0.00  0.00     0.018 C 
ENDBRANCH   1   8
TORSDOF 1
ENDMDL
