MODEL 1
REMARK minimizedAffinity -2.45550275
REMARK minimizedRMSD -1
REMARK  1 active torsions:
REMARK  status: ('A' for Active; 'I' for Inactive)
REMARK    1  A    between atoms: C1_2  and  C2_3 
ROOT
ATOM      1  C2  UNL d   1      -0.527  -1.453   1.114  0.00  0.00    -0.073 A 
ATOM      2  C3  UNL d   1       0.318  -2.559   1.261  0.00  0.00    -0.002 A 
ATOM      3  C4  UNL d   1       1.657  -2.480   0.877  0.00  0.00     0.004 A 
ATOM      4  C5  UNL d   1       2.167  -1.294   0.349  0.00  0.00    -0.004 A 
ATOM      5  C6  UNL d   1       1.342  -0.174   0.205  0.00  0.00    -0.075 A 
ATOM      6  C7  UNL d   1       1.874   1.109  -0.363  0.00  0.00     0.076 C 
ATOM      7  C8  UNL d   1      -0.003  -0.262   0.590  0.00  0.00     0.001 A 
ENDROOT
BRANCH   1   8
ATOM      8  C1  UNL d   1      -1.972  -1.532   1.533  0.00  0.00     0.053 C 
ATOM      9  C   UNL d   1      -2.419  -0.283   2.276  0.00  0.00     0.018 C 
ENDBRANCH   1   8
TORSDOF 1
ENDMDL
