MODEL 1
REMARK minimizedAffinity -2.9488976
REMARK minimizedRMSD -1
REMARK  1 active torsions:
REMARK  status: ('A' for Active; 'I' for Inactive)
REMARK    1  A    between atoms: C1_2  and  C2_3 
ROOT
ATOM      1  C2  UNL d   1      -0.445   0.132  -0.515  0.00  0.00    -0.073 A 
ATOM      2  C3  UNL d   1       0.667   0.912  -0.856  0.00  0.00    -0.002 A 
ATOM      3  C4  UNL d   1       1.958   0.423  -0.657  0.00  0.00     0.004 A 
ATOM      4  C5  UNL d   1       2.152  -0.850  -0.122  0.00  0.00    -0.004 A 
ATOM      5  C6  UNL d   1       1.055  -1.649   0.215  0.00  0.00    -0.075 A 
ATOM      6  C7  UNL d   1       1.246  -3.020   0.793  0.00  0.00     0.076 C 
ATOM      7  C8  UNL d   1      -0.240  -1.150   0.014  0.00  0.00     0.001 A 
ENDROOT
BRANCH   1   8
ATOM      8  C1  UNL d   1      -1.841   0.653  -0.734  0.00  0.00     0.053 C 
ATOM      9  C   UNL d   1      -2.074   1.071  -2.178  0.00  0.00     0.018 C 
ENDBRANCH   1   8
TORSDOF 1
ENDMDL
