MODEL 1
REMARK minimizedAffinity -4.00279808
REMARK minimizedRMSD -1
REMARK  1 active torsions:
REMARK  status: ('A' for Active; 'I' for Inactive)
REMARK    1  A    between atoms: C1_2  and  C2_3 
ROOT
ATOM      1  C2  UNL d   1       0.601  -0.719   0.335  0.00  0.00    -0.073 A 
ATOM      2  C3  UNL d   1      -0.234  -0.906   1.442  0.00  0.00    -0.002 A 
ATOM      3  C4  UNL d   1      -1.427  -0.190   1.555  0.00  0.00     0.004 A 
ATOM      4  C5  UNL d   1      -1.800   0.713   0.560  0.00  0.00    -0.004 A 
ATOM      5  C6  UNL d   1      -0.985   0.905  -0.561  0.00  0.00    -0.075 A 
ATOM      6  C7  UNL d   1      -1.370   1.874  -1.639  0.00  0.00     0.076 C 
ATOM      7  C8  UNL d   1       0.213   0.184  -0.665  0.00  0.00     0.001 A 
ENDROOT
BRANCH   1   8
ATOM      8  C1  UNL d   1       1.886  -1.495   0.205  0.00  0.00     0.053 C 
ATOM      9  C   UNL d   1       2.000  -2.589   1.255  0.00  0.00     0.018 C 
ENDBRANCH   1   8
TORSDOF 1
ENDMDL
