MODEL 1
REMARK minimizedAffinity -4.3108077
REMARK minimizedRMSD -1
REMARK  1 active torsions:
REMARK  status: ('A' for Active; 'I' for Inactive)
REMARK    1  A    between atoms: C1_2  and  C2_3 
ROOT
ATOM      1  C2  UNL d   1      -0.293   0.374  -0.018  0.00  0.00    -0.073 A 
ATOM      2  C3  UNL d   1      -1.142   0.445   1.091  0.00  0.00    -0.002 A 
ATOM      3  C4  UNL d   1      -1.153  -0.582   2.037  0.00  0.00     0.004 A 
ATOM      4  C5  UNL d   1      -0.312  -1.684   1.886  0.00  0.00    -0.004 A 
ATOM      5  C6  UNL d   1       0.553  -1.767   0.790  0.00  0.00    -0.075 A 
ATOM      6  C7  UNL d   1       1.463  -2.947   0.613  0.00  0.00     0.076 C 
ATOM      7  C8  UNL d   1       0.556  -0.733  -0.156  0.00  0.00     0.001 A 
ENDROOT
BRANCH   1   8
ATOM      8  C1  UNL d   1      -0.272   1.483  -1.039  0.00  0.00     0.053 C 
ATOM      9  C   UNL d   1      -1.513   1.471  -1.918  0.00  0.00     0.018 C 
ENDBRANCH   1   8
TORSDOF 1
ENDMDL
