MODEL 1
REMARK minimizedAffinity -4.91651249
REMARK minimizedRMSD -1
REMARK  1 active torsions:
REMARK  status: ('A' for Active; 'I' for Inactive)
REMARK    1  A    between atoms: C1_2  and  C2_3 
ROOT
ATOM      1  C2  UNL d   1      -0.467   0.084  -0.281  0.00  0.00    -0.073 A 
ATOM      2  C3  UNL d   1       0.637   0.928  -0.450  0.00  0.00    -0.002 A 
ATOM      3  C4  UNL d   1       1.922   0.474  -0.150  0.00  0.00     0.004 A 
ATOM      4  C5  UNL d   1       2.118  -0.827   0.313  0.00  0.00    -0.004 A 
ATOM      5  C6  UNL d   1       1.028  -1.688   0.477  0.00  0.00    -0.075 A 
ATOM      6  C7  UNL d   1       1.221  -3.090   0.977  0.00  0.00     0.076 C 
ATOM      7  C8  UNL d   1      -0.260  -1.225   0.177  0.00  0.00     0.001 A 
ENDROOT
BRANCH   1   8
ATOM      8  C1  UNL d   1      -1.857   0.567  -0.609  0.00  0.00     0.053 C 
ATOM      9  C   UNL d   1      -1.950   1.116  -2.024  0.00  0.00     0.018 C 
ENDBRANCH   1   8
TORSDOF 1
ENDMDL
