MODEL 1
REMARK minimizedAffinity -2.77373576
REMARK minimizedRMSD -1
REMARK  0 active torsions:
REMARK  status: ('A' for Active; 'I' for Inactive)
ROOT
ATOM      1  C   UNL d   1       3.525   1.825  -2.873  0.00  0.00     0.077 C 
ATOM      2  C1  UNL d   1       3.977   1.407  -1.506  0.00  0.00    -0.074 A 
ATOM      3  C2  UNL d   1       5.318   1.103  -1.254  0.00  0.00    -0.005 A 
ATOM      4  C3  UNL d   1       5.726   0.724   0.025  0.00  0.00     0.006 A 
ATOM      5  C4  UNL d   1       4.797   0.645   1.063  0.00  0.00    -0.005 A 
ATOM      6  C5  UNL d   1       3.451   0.946   0.831  0.00  0.00    -0.074 A 
ATOM      7  C6  UNL d   1       2.442   0.875   1.938  0.00  0.00     0.077 C 
ATOM      8  C7  UNL d   1       3.051   1.332  -0.456  0.00  0.00    -0.001 A 
ENDROOT
TORSDOF 0
ENDMDL
