MODEL 1
REMARK minimizedAffinity 0.57048738
REMARK minimizedRMSD -1
REMARK  0 active torsions:
REMARK  status: ('A' for Active; 'I' for Inactive)
ROOT
ATOM      1  C   UNL d   1       5.919  -0.619   0.865  0.00  0.00     0.077 C 
ATOM      2  C1  UNL d   1       4.663   0.086   0.446  0.00  0.00    -0.074 A 
ATOM      3  C2  UNL d   1       3.589   0.228   1.330  0.00  0.00    -0.005 A 
ATOM      4  C3  UNL d   1       2.431   0.894   0.929  0.00  0.00     0.006 A 
ATOM      5  C4  UNL d   1       2.336   1.424  -0.359  0.00  0.00    -0.005 A 
ATOM      6  C5  UNL d   1       3.400   1.292  -1.256  0.00  0.00    -0.074 A 
ATOM      7  C6  UNL d   1       3.318   1.864  -2.640  0.00  0.00     0.077 C 
ATOM      8  C7  UNL d   1       4.563   0.628  -0.843  0.00  0.00    -0.001 A 
ENDROOT
TORSDOF 0
ENDMDL
