MODEL 1
REMARK minimizedAffinity 7.88951063
REMARK minimizedRMSD -1
REMARK  0 active torsions:
REMARK  status: ('A' for Active; 'I' for Inactive)
ROOT
ATOM      1  C   UNL d   1      -1.760  -2.574  -5.056  0.00  0.00     0.077 C 
ATOM      2  C1  UNL d   1      -2.474  -2.785  -3.754  0.00  0.00    -0.074 A 
ATOM      3  C2  UNL d   1      -1.903  -2.371  -2.546  0.00  0.00    -0.005 A 
ATOM      4  C3  UNL d   1      -2.583  -2.566  -1.344  0.00  0.00     0.006 A 
ATOM      5  C4  UNL d   1      -3.838  -3.175  -1.337  0.00  0.00    -0.005 A 
ATOM      6  C5  UNL d   1      -4.425  -3.595  -2.535  0.00  0.00    -0.074 A 
ATOM      7  C6  UNL d   1      -5.778  -4.242  -2.547  0.00  0.00     0.077 C 
ATOM      8  C7  UNL d   1      -3.739  -3.389  -3.740  0.00  0.00    -0.001 A 
ENDROOT
TORSDOF 0
ENDMDL
