MODEL 1
REMARK minimizedAffinity -1.51806056
REMARK minimizedRMSD -1
REMARK  0 active torsions:
REMARK  status: ('A' for Active; 'I' for Inactive)
ROOT
ATOM      1  C   UNL d   1       5.362   1.134   0.251  0.00  0.00     0.077 C 
ATOM      2  C1  UNL d   1       4.345   0.801   1.302  0.00  0.00    -0.074 A 
ATOM      3  C2  UNL d   1       4.605  -0.173   2.271  0.00  0.00    -0.005 A 
ATOM      4  C3  UNL d   1       3.654  -0.465   3.249  0.00  0.00     0.006 A 
ATOM      5  C4  UNL d   1       2.435   0.213   3.267  0.00  0.00    -0.005 A 
ATOM      6  C5  UNL d   1       2.157   1.191   2.307  0.00  0.00    -0.074 A 
ATOM      7  C6  UNL d   1       0.855   1.936   2.318  0.00  0.00     0.077 C 
ATOM      8  C7  UNL d   1       3.121   1.484   1.332  0.00  0.00    -0.001 A 
ENDROOT
TORSDOF 0
ENDMDL
