MODEL 1
REMARK minimizedAffinity -3.78160262
REMARK minimizedRMSD -1
REMARK  0 active torsions:
REMARK  status: ('A' for Active; 'I' for Inactive)
ROOT
ATOM      1  C   UNL d   1       3.864   1.142  -2.631  0.00  0.00     0.077 C 
ATOM      2  C1  UNL d   1       4.292   1.181  -1.194  0.00  0.00    -0.074 A 
ATOM      3  C2  UNL d   1       5.618   1.456  -0.846  0.00  0.00    -0.005 A 
ATOM      4  C3  UNL d   1       5.999   1.498   0.495  0.00  0.00     0.006 A 
ATOM      5  C4  UNL d   1       5.059   1.266   1.500  0.00  0.00    -0.005 A 
ATOM      6  C5  UNL d   1       3.728   0.991   1.171  0.00  0.00    -0.074 A 
ATOM      7  C6  UNL d   1       2.703   0.749   2.240  0.00  0.00     0.077 C 
ATOM      8  C7  UNL d   1       3.352   0.957  -0.178  0.00  0.00    -0.001 A 
ENDROOT
TORSDOF 0
ENDMDL
