MODEL 1
REMARK minimizedAffinity 3.11874485
REMARK minimizedRMSD -1
REMARK  0 active torsions:
REMARK  status: ('A' for Active; 'I' for Inactive)
ROOT
ATOM      1  C   UNL d   1       3.059   2.040  -2.421  0.00  0.00     0.077 C 
ATOM      2  C1  UNL d   1       3.186   1.300  -1.123  0.00  0.00    -0.074 A 
ATOM      3  C2  UNL d   1       2.158   1.331  -0.174  0.00  0.00    -0.005 A 
ATOM      4  C3  UNL d   1       2.286   0.630   1.025  0.00  0.00     0.006 A 
ATOM      5  C4  UNL d   1       3.442  -0.107   1.288  0.00  0.00    -0.005 A 
ATOM      6  C5  UNL d   1       4.479  -0.150   0.351  0.00  0.00    -0.074 A 
ATOM      7  C6  UNL d   1       5.724  -0.945   0.613  0.00  0.00     0.077 C 
ATOM      8  C7  UNL d   1       4.340   0.551  -0.855  0.00  0.00    -0.001 A 
ENDROOT
TORSDOF 0
ENDMDL
