MODEL 1
REMARK minimizedAffinity 4.77644491
REMARK minimizedRMSD -1
REMARK  0 active torsions:
REMARK  status: ('A' for Active; 'I' for Inactive)
ROOT
ATOM      1  C   UNL d   1       1.114  -0.341   2.638  0.00  0.00     0.077 C 
ATOM      2  C1  UNL d   1       2.181   0.034   1.651  0.00  0.00    -0.074 A 
ATOM      3  C2  UNL d   1       1.943   0.999   0.668  0.00  0.00    -0.005 A 
ATOM      4  C3  UNL d   1       2.947   1.344  -0.237  0.00  0.00     0.006 A 
ATOM      5  C4  UNL d   1       4.197   0.728  -0.167  0.00  0.00    -0.005 A 
ATOM      6  C5  UNL d   1       4.454  -0.239   0.810  0.00  0.00    -0.074 A 
ATOM      7  C6  UNL d   1       5.795  -0.903   0.906  0.00  0.00     0.077 C 
ATOM      8  C7  UNL d   1       3.442  -0.575   1.720  0.00  0.00    -0.001 A 
ENDROOT
TORSDOF 0
ENDMDL
