MODEL 1
REMARK minimizedAffinity 2.16385436
REMARK minimizedRMSD -1
REMARK  0 active torsions:
REMARK  status: ('A' for Active; 'I' for Inactive)
ROOT
ATOM      1  C   UNL d   1       4.559   4.007   0.764  0.00  0.00     0.077 C 
ATOM      2  C1  UNL d   1       4.235   2.543   0.794  0.00  0.00    -0.074 A 
ATOM      3  C2  UNL d   1       2.970   2.079   0.420  0.00  0.00    -0.005 A 
ATOM      4  C3  UNL d   1       2.686   0.714   0.443  0.00  0.00     0.006 A 
ATOM      5  C4  UNL d   1       3.663  -0.200   0.839  0.00  0.00    -0.005 A 
ATOM      6  C5  UNL d   1       4.934   0.245   1.215  0.00  0.00    -0.074 A 
ATOM      7  C6  UNL d   1       5.999  -0.725   1.634  0.00  0.00     0.077 C 
ATOM      8  C7  UNL d   1       5.214   1.618   1.183  0.00  0.00    -0.001 A 
ENDROOT
TORSDOF 0
ENDMDL
