MODEL 1
REMARK minimizedAffinity 10.0219069
REMARK minimizedRMSD -1
REMARK  0 active torsions:
REMARK  status: ('A' for Active; 'I' for Inactive)
ROOT
ATOM      1  C   UNL d   1      -1.504  -2.255  -5.999  0.00  0.00     0.077 C 
ATOM      2  C1  UNL d   1      -1.516  -2.970  -4.681  0.00  0.00    -0.074 A 
ATOM      3  C2  UNL d   1      -0.810  -4.164  -4.504  0.00  0.00    -0.005 A 
ATOM      4  C3  UNL d   1      -0.823  -4.812  -3.269  0.00  0.00     0.006 A 
ATOM      5  C4  UNL d   1      -1.541  -4.274  -2.200  0.00  0.00    -0.005 A 
ATOM      6  C5  UNL d   1      -2.252  -3.080  -2.358  0.00  0.00    -0.074 A 
ATOM      7  C6  UNL d   1      -3.021  -2.483  -1.217  0.00  0.00     0.077 C 
ATOM      8  C7  UNL d   1      -2.229  -2.431  -3.600  0.00  0.00    -0.001 A 
ENDROOT
TORSDOF 0
ENDMDL
