MODEL 1
REMARK minimizedAffinity 1.7220093
REMARK minimizedRMSD -1
REMARK  0 active torsions:
REMARK  status: ('A' for Active; 'I' for Inactive)
ROOT
ATOM      1  C   UNL d   1       5.652  -0.590   1.957  0.00  0.00     0.077 C 
ATOM      2  C1  UNL d   1       4.646   0.415   1.478  0.00  0.00    -0.074 A 
ATOM      3  C2  UNL d   1       3.339   0.029   1.163  0.00  0.00    -0.005 A 
ATOM      4  C3  UNL d   1       2.412   0.977   0.728  0.00  0.00     0.006 A 
ATOM      5  C4  UNL d   1       2.782   2.316   0.605  0.00  0.00    -0.005 A 
ATOM      6  C5  UNL d   1       4.084   2.721   0.917  0.00  0.00    -0.074 A 
ATOM      7  C6  UNL d   1       4.495   4.158   0.799  0.00  0.00     0.077 C 
ATOM      8  C7  UNL d   1       5.008   1.764   1.360  0.00  0.00    -0.001 A 
ENDROOT
TORSDOF 0
ENDMDL
