MODEL 1
REMARK minimizedAffinity 2.20229149
REMARK minimizedRMSD -1
REMARK  0 active torsions:
REMARK  status: ('A' for Active; 'I' for Inactive)
ROOT
ATOM      1  C   UNL d   1       5.720   0.825  -4.839  0.00  0.00     0.077 C 
ATOM      2  C1  UNL d   1       4.335   1.203  -4.406  0.00  0.00    -0.074 A 
ATOM      3  C2  UNL d   1       3.410   1.715  -5.322  0.00  0.00    -0.005 A 
ATOM      4  C3  UNL d   1       2.122   2.054  -4.907  0.00  0.00     0.006 A 
ATOM      5  C4  UNL d   1       1.746   1.884  -3.574  0.00  0.00    -0.005 A 
ATOM      6  C5  UNL d   1       2.657   1.372  -2.644  0.00  0.00    -0.074 A 
ATOM      7  C6  UNL d   1       2.266   1.174  -1.210  0.00  0.00     0.077 C 
ATOM      8  C7  UNL d   1       3.947   1.028  -3.070  0.00  0.00    -0.001 A 
ENDROOT
TORSDOF 0
ENDMDL
