MODEL 1
REMARK minimizedAffinity 13.9021606
REMARK minimizedRMSD -1
REMARK  0 active torsions:
REMARK  status: ('A' for Active; 'I' for Inactive)
ROOT
ATOM      1  C   UNL d   1      -2.946  -6.000   1.652  0.00  0.00     0.077 C 
ATOM      2  C1  UNL d   1      -2.417  -4.693   1.141  0.00  0.00    -0.074 A 
ATOM      3  C2  UNL d   1      -1.622  -3.873   1.949  0.00  0.00    -0.005 A 
ATOM      4  C3  UNL d   1      -1.130  -2.665   1.457  0.00  0.00     0.006 A 
ATOM      5  C4  UNL d   1      -1.427  -2.264   0.154  0.00  0.00    -0.005 A 
ATOM      6  C5  UNL d   1      -2.219  -3.070  -0.669  0.00  0.00    -0.074 A 
ATOM      7  C6  UNL d   1      -2.539  -2.658  -2.075  0.00  0.00     0.077 C 
ATOM      8  C7  UNL d   1      -2.704  -4.286  -0.170  0.00  0.00    -0.001 A 
ENDROOT
TORSDOF 0
ENDMDL
