MODEL 1
REMARK minimizedAffinity 8.41364765
REMARK minimizedRMSD -1
REMARK  0 active torsions:
REMARK  status: ('A' for Active; 'I' for Inactive)
ROOT
ATOM      1  C   UNL d   1      -4.798  -4.717  -2.225  0.00  0.00     0.077 C 
ATOM      2  C1  UNL d   1      -3.671  -3.760  -2.480  0.00  0.00    -0.074 A 
ATOM      3  C2  UNL d   1      -3.133  -2.990  -1.444  0.00  0.00    -0.005 A 
ATOM      4  C3  UNL d   1      -2.079  -2.112  -1.695  0.00  0.00     0.006 A 
ATOM      5  C4  UNL d   1      -1.554  -1.994  -2.982  0.00  0.00    -0.005 A 
ATOM      6  C5  UNL d   1      -2.079  -2.756  -4.031  0.00  0.00    -0.074 A 
ATOM      7  C6  UNL d   1      -1.519  -2.649  -5.418  0.00  0.00     0.077 C 
ATOM      8  C7  UNL d   1      -3.133  -3.642  -3.769  0.00  0.00    -0.001 A 
ENDROOT
TORSDOF 0
ENDMDL
