MODEL 1
REMARK minimizedAffinity 2.56302977
REMARK minimizedRMSD -1
REMARK  0 active torsions:
REMARK  status: ('A' for Active; 'I' for Inactive)
ROOT
ATOM      1  C   UNL d   1      -1.063  -5.793   1.475  0.00  0.00     0.077 C 
ATOM      2  C1  UNL d   1      -1.343  -4.590   0.624  0.00  0.00    -0.074 A 
ATOM      3  C2  UNL d   1      -0.633  -3.399   0.808  0.00  0.00    -0.005 A 
ATOM      4  C3  UNL d   1      -0.898  -2.291   0.003  0.00  0.00     0.006 A 
ATOM      5  C4  UNL d   1      -1.873  -2.363  -0.992  0.00  0.00    -0.005 A 
ATOM      6  C5  UNL d   1      -2.593  -3.545  -1.191  0.00  0.00    -0.074 A 
ATOM      7  C6  UNL d   1      -3.638  -3.642  -2.262  0.00  0.00     0.077 C 
ATOM      8  C7  UNL d   1      -2.316  -4.656  -0.382  0.00  0.00    -0.001 A 
ENDROOT
TORSDOF 0
ENDMDL
