MODEL 1
REMARK minimizedAffinity 12.2599087
REMARK minimizedRMSD -1
REMARK  0 active torsions:
REMARK  status: ('A' for Active; 'I' for Inactive)
ROOT
ATOM      1  C   UNL d   1      -2.831  -2.774  -3.747  0.00  0.00     0.077 C 
ATOM      2  C1  UNL d   1      -2.347  -2.789  -2.328  0.00  0.00    -0.074 A 
ATOM      3  C2  UNL d   1      -3.251  -2.824  -1.260  0.00  0.00    -0.005 A 
ATOM      4  C3  UNL d   1      -2.785  -2.848   0.054  0.00  0.00     0.006 A 
ATOM      5  C4  UNL d   1      -1.415  -2.837   0.315  0.00  0.00    -0.005 A 
ATOM      6  C5  UNL d   1      -0.496  -2.803  -0.739  0.00  0.00    -0.074 A 
ATOM      7  C6  UNL d   1       0.980  -2.801  -0.477  0.00  0.00     0.077 C 
ATOM      8  C7  UNL d   1      -0.972  -2.786  -2.058  0.00  0.00    -0.001 A 
ENDROOT
TORSDOF 0
ENDMDL
