MODEL 1
REMARK minimizedAffinity 0.626348019
REMARK minimizedRMSD -1
REMARK  0 active torsions:
REMARK  status: ('A' for Active; 'I' for Inactive)
ROOT
ATOM      1  C   UNL d   1      -1.761  -3.760   1.279  0.00  0.00     0.077 C 
ATOM      2  C1  UNL d   1      -2.250  -3.710  -0.138  0.00  0.00    -0.074 A 
ATOM      3  C2  UNL d   1      -1.904  -2.649  -0.981  0.00  0.00    -0.005 A 
ATOM      4  C3  UNL d   1      -2.359  -2.622  -2.300  0.00  0.00     0.006 A 
ATOM      5  C4  UNL d   1      -3.161  -3.654  -2.788  0.00  0.00    -0.005 A 
ATOM      6  C5  UNL d   1      -3.516  -4.723  -1.960  0.00  0.00    -0.074 A 
ATOM      7  C6  UNL d   1      -4.369  -5.846  -2.472  0.00  0.00     0.077 C 
ATOM      8  C7  UNL d   1      -3.050  -4.747  -0.639  0.00  0.00    -0.001 A 
ENDROOT
TORSDOF 0
ENDMDL
