MODEL 1
REMARK minimizedAffinity 9.9921484
REMARK minimizedRMSD -1
REMARK  0 active torsions:
REMARK  status: ('A' for Active; 'I' for Inactive)
ROOT
ATOM      1  C   UNL d   1       3.632   2.137  -3.030  0.00  0.00     0.077 C 
ATOM      2  C1  UNL d   1       3.569   1.338  -1.763  0.00  0.00    -0.074 A 
ATOM      3  C2  UNL d   1       2.398   1.294  -0.998  0.00  0.00    -0.005 A 
ATOM      4  C3  UNL d   1       2.352   0.538   0.173  0.00  0.00     0.006 A 
ATOM      5  C4  UNL d   1       3.473  -0.180   0.592  0.00  0.00    -0.005 A 
ATOM      6  C5  UNL d   1       4.651  -0.148  -0.160  0.00  0.00    -0.074 A 
ATOM      7  C6  UNL d   1       5.862  -0.922   0.270  0.00  0.00     0.077 C 
ATOM      8  C7  UNL d   1       4.688   0.608  -1.340  0.00  0.00    -0.001 A 
ENDROOT
TORSDOF 0
ENDMDL
