MODEL 1
REMARK minimizedAffinity 2.96906495
REMARK minimizedRMSD -1
REMARK  1 active torsions:
REMARK  status: ('A' for Active; 'I' for Inactive)
REMARK    1  A    between atoms: C3_4  and  O_7 
ROOT
ATOM      1  C   UNL d   1       2.120   1.169   1.164  0.00  0.00    -0.033 A 
ATOM      2  C1  UNL d   1       1.958   2.048   0.092  0.00  0.00     0.039 A 
ATOM      3  C2  UNL d   1       0.704   2.201  -0.504  0.00  0.00    -0.080 A 
ATOM      4  C3  UNL d   1      -0.377   1.471  -0.018  0.00  0.00     0.150 A 
ATOM      5  C4  UNL d   1      -0.223   0.597   1.053  0.00  0.00    -0.007 A 
ATOM      6  C5  UNL d   1       1.030   0.444   1.646  0.00  0.00     0.039 A 
ENDROOT
BRANCH   4   7
ATOM      7  O   UNL d   1      -1.618   1.584  -0.570  0.00  0.00    -0.526 OA
ATOM      8  H5  UNL d   1      -1.568   2.201  -1.318  0.00  0.00     0.418 HD
ENDBRANCH   4   7
TORSDOF 1
ENDMDL
