MODEL 1
REMARK minimizedAffinity -3.30200267
REMARK minimizedRMSD -1
REMARK  1 active torsions:
REMARK  status: ('A' for Active; 'I' for Inactive)
REMARK    1  A    between atoms: C3_4  and  O_7 
ROOT
ATOM      1  C   UNL d   1      -2.703  -0.121  -2.911  0.00  0.00    -0.033 A 
ATOM      2  C1  UNL d   1      -2.760   0.667  -1.760  0.00  0.00     0.039 A 
ATOM      3  C2  UNL d   1      -1.902   0.406  -0.690  0.00  0.00    -0.080 A 
ATOM      4  C3  UNL d   1      -0.991  -0.644  -0.784  0.00  0.00     0.150 A 
ATOM      5  C4  UNL d   1      -0.926  -1.430  -1.930  0.00  0.00    -0.007 A 
ATOM      6  C5  UNL d   1      -1.785  -1.169  -2.997  0.00  0.00     0.039 A 
ENDROOT
BRANCH   4   7
ATOM      7  O   UNL d   1      -0.137  -0.939   0.236  0.00  0.00    -0.526 OA
ATOM      8  H5  UNL d   1      -0.315  -0.332   0.973  0.00  0.00     0.418 HD
ENDBRANCH   4   7
TORSDOF 1
ENDMDL
