MODEL 1
REMARK minimizedAffinity -0.0569480695
REMARK minimizedRMSD -1
REMARK  1 active torsions:
REMARK  status: ('A' for Active; 'I' for Inactive)
REMARK    1  A    between atoms: C3_4  and  O_7 
ROOT
ATOM      1  C   UNL d   1      -1.081   0.557  -0.316  0.00  0.00    -0.033 A 
ATOM      2  C1  UNL d   1      -0.404  -0.616   0.024  0.00  0.00     0.039 A 
ATOM      3  C2  UNL d   1       0.965  -0.581   0.297  0.00  0.00    -0.080 A 
ATOM      4  C3  UNL d   1       1.644   0.633   0.227  0.00  0.00     0.150 A 
ATOM      5  C4  UNL d   1       0.976   1.806  -0.107  0.00  0.00    -0.007 A 
ATOM      6  C5  UNL d   1      -0.391   1.768  -0.380  0.00  0.00     0.039 A 
ENDROOT
BRANCH   4   7
ATOM      7  O   UNL d   1       2.981   0.716   0.480  0.00  0.00    -0.526 OA
ATOM      8  H5  UNL d   1       3.315  -0.177   0.670  0.00  0.00     0.418 HD
ENDBRANCH   4   7
TORSDOF 1
ENDMDL
