MODEL 1
REMARK minimizedAffinity -3.56999087
REMARK minimizedRMSD -1
REMARK  1 active torsions:
REMARK  status: ('A' for Active; 'I' for Inactive)
REMARK    1  A    between atoms: C3_4  and  O_7 
ROOT
ATOM      1  C   UNL d   1      -2.472  -0.876  -2.249  0.00  0.00    -0.033 A 
ATOM      2  C1  UNL d   1      -2.987  -0.632  -3.524  0.00  0.00     0.039 A 
ATOM      3  C2  UNL d   1      -3.460   0.639  -3.856  0.00  0.00    -0.080 A 
ATOM      4  C3  UNL d   1      -3.413   1.655  -2.906  0.00  0.00     0.150 A 
ATOM      5  C4  UNL d   1      -2.898   1.420  -1.635  0.00  0.00    -0.007 A 
ATOM      6  C5  UNL d   1      -2.426   0.151  -1.305  0.00  0.00     0.039 A 
ENDROOT
BRANCH   4   7
ATOM      7  O   UNL d   1      -3.868   2.911  -3.182  0.00  0.00    -0.526 OA
ATOM      8  H5  UNL d   1      -4.221   2.917  -4.087  0.00  0.00     0.418 HD
ENDBRANCH   4   7
TORSDOF 1
ENDMDL
