MODEL 1
REMARK minimizedAffinity -5.50862026
REMARK minimizedRMSD -1
REMARK  1 active torsions:
REMARK  status: ('A' for Active; 'I' for Inactive)
REMARK    1  A    between atoms: C3_4  and  O_7 
ROOT
ATOM      1  C   UNL d   1       0.516  -1.879   1.246  0.00  0.00    -0.033 A 
ATOM      2  C1  UNL d   1      -0.169  -0.858   0.584  0.00  0.00     0.039 A 
ATOM      3  C2  UNL d   1       0.517   0.279   0.152  0.00  0.00    -0.080 A 
ATOM      4  C3  UNL d   1       1.886   0.382   0.387  0.00  0.00     0.150 A 
ATOM      5  C4  UNL d   1       2.575  -0.634   1.042  0.00  0.00    -0.007 A 
ATOM      6  C5  UNL d   1       1.888  -1.767   1.474  0.00  0.00     0.039 A 
ENDROOT
BRANCH   4   7
ATOM      7  O   UNL d   1       2.597   1.474  -0.012  0.00  0.00    -0.526 OA
ATOM      8  H5  UNL d   1       1.985   2.106  -0.425  0.00  0.00     0.418 HD
ENDBRANCH   4   7
TORSDOF 1
ENDMDL
