MODEL 1
REMARK minimizedAffinity -4.64150047
REMARK minimizedRMSD -1
REMARK  1 active torsions:
REMARK  status: ('A' for Active; 'I' for Inactive)
REMARK    1  A    between atoms: C3_4  and  O_7 
ROOT
ATOM      1  C   UNL d   1       0.303  -2.081   1.213  0.00  0.00    -0.033 A 
ATOM      2  C1  UNL d   1       0.537  -0.936   0.450  0.00  0.00     0.039 A 
ATOM      3  C2  UNL d   1       1.773  -0.289   0.519  0.00  0.00    -0.080 A 
ATOM      4  C3  UNL d   1       2.765  -0.798   1.353  0.00  0.00     0.150 A 
ATOM      5  C4  UNL d   1       2.539  -1.941   2.114  0.00  0.00    -0.007 A 
ATOM      6  C5  UNL d   1       1.304  -2.584   2.044  0.00  0.00     0.039 A 
ENDROOT
BRANCH   4   7
ATOM      7  O   UNL d   1       3.985  -0.199   1.457  0.00  0.00    -0.526 OA
ATOM      8  H5  UNL d   1       3.987   0.595   0.897  0.00  0.00     0.418 HD
ENDBRANCH   4   7
TORSDOF 1
ENDMDL
