MODEL 1
REMARK minimizedAffinity -3.75893426
REMARK minimizedRMSD -1
REMARK  1 active torsions:
REMARK  status: ('A' for Active; 'I' for Inactive)
REMARK    1  A    between atoms: C3_4  and  O_7 
ROOT
ATOM      1  C   UNL d   1       2.339  -0.024   1.552  0.00  0.00    -0.033 A 
ATOM      2  C1  UNL d   1       2.079   1.014   0.654  0.00  0.00     0.039 A 
ATOM      3  C2  UNL d   1       0.866   1.055  -0.036  0.00  0.00    -0.080 A 
ATOM      4  C3  UNL d   1      -0.078   0.055   0.182  0.00  0.00     0.150 A 
ATOM      5  C4  UNL d   1       0.173  -0.979   1.078  0.00  0.00    -0.007 A 
ATOM      6  C5  UNL d   1       1.385  -1.019   1.765  0.00  0.00     0.039 A 
ENDROOT
BRANCH   4   7
ATOM      7  O   UNL d   1      -1.274   0.050  -0.472  0.00  0.00    -0.526 OA
ATOM      8  H5  UNL d   1      -1.296   0.808  -1.079  0.00  0.00     0.418 HD
ENDBRANCH   4   7
TORSDOF 1
ENDMDL
