MODEL 1
REMARK minimizedAffinity -2.62890697
REMARK minimizedRMSD -1
REMARK  1 active torsions:
REMARK  status: ('A' for Active; 'I' for Inactive)
REMARK    1  A    between atoms: C3_4  and  O_7 
ROOT
ATOM      1  C   UNL d   1      -2.999   0.115  -3.144  0.00  0.00    -0.033 A 
ATOM      2  C1  UNL d   1      -2.098  -0.947  -3.045  0.00  0.00     0.039 A 
ATOM      3  C2  UNL d   1      -1.185  -0.994  -1.989  0.00  0.00    -0.080 A 
ATOM      4  C3  UNL d   1      -1.186   0.024  -1.039  0.00  0.00     0.150 A 
ATOM      5  C4  UNL d   1      -2.084   1.082  -1.130  0.00  0.00    -0.007 A 
ATOM      6  C5  UNL d   1      -2.994   1.128  -2.186  0.00  0.00     0.039 A 
ENDROOT
BRANCH   4   7
ATOM      7  O   UNL d   1      -0.312   0.024   0.006  0.00  0.00    -0.526 OA
ATOM      8  H5  UNL d   1       0.267  -0.753  -0.077  0.00  0.00     0.418 HD
ENDBRANCH   4   7
TORSDOF 1
ENDMDL
