MODEL 1
REMARK minimizedAffinity -2.62293124
REMARK minimizedRMSD -1
REMARK  1 active torsions:
REMARK  status: ('A' for Active; 'I' for Inactive)
REMARK    1  A    between atoms: C3_4  and  O_7 
ROOT
ATOM      1  C   UNL d   1       1.875   0.432   1.175  0.00  0.00    -0.033 A 
ATOM      2  C1  UNL d   1       1.365   1.667   0.770  0.00  0.00     0.039 A 
ATOM      3  C2  UNL d   1       0.095   1.745   0.195  0.00  0.00    -0.080 A 
ATOM      4  C3  UNL d   1      -0.654   0.582   0.033  0.00  0.00     0.150 A 
ATOM      5  C4  UNL d   1      -0.153  -0.651   0.438  0.00  0.00    -0.007 A 
ATOM      6  C5  UNL d   1       1.115  -0.726   1.011  0.00  0.00     0.039 A 
ENDROOT
BRANCH   4   7
ATOM      7  O   UNL d   1      -1.897   0.608  -0.527  0.00  0.00    -0.526 OA
ATOM      8  H5  UNL d   1      -2.099   1.523  -0.785  0.00  0.00     0.418 HD
ENDBRANCH   4   7
TORSDOF 1
ENDMDL
