MODEL 1
REMARK minimizedAffinity -0.790283024
REMARK minimizedRMSD -1
REMARK  1 active torsions:
REMARK  status: ('A' for Active; 'I' for Inactive)
REMARK    1  A    between atoms: C3_4  and  O_7 
ROOT
ATOM      1  C   UNL d   1      -4.182   1.781  -2.739  0.00  0.00    -0.033 A 
ATOM      2  C1  UNL d   1      -3.889   2.662  -3.782  0.00  0.00     0.039 A 
ATOM      3  C2  UNL d   1      -4.173   4.023  -3.650  0.00  0.00    -0.080 A 
ATOM      4  C3  UNL d   1      -4.747   4.489  -2.470  0.00  0.00     0.150 A 
ATOM      5  C4  UNL d   1      -5.037   3.618  -1.426  0.00  0.00    -0.007 A 
ATOM      6  C5  UNL d   1      -4.755   2.259  -1.560  0.00  0.00     0.039 A 
ENDROOT
BRANCH   4   7
ATOM      7  O   UNL d   1      -5.046   5.808  -2.296  0.00  0.00    -0.526 OA
ATOM      8  H5  UNL d   1      -4.817   6.286  -3.111  0.00  0.00     0.418 HD
ENDBRANCH   4   7
TORSDOF 1
ENDMDL
