MODEL 1
REMARK minimizedAffinity 5.42922831
REMARK minimizedRMSD -1
REMARK  0 active torsions:
REMARK  status: ('A' for Active; 'I' for Inactive)
ROOT
ATOM      1  C1  BNZ d   1       3.967  -5.964  -0.342  0.00  0.00     0.000 A 
ATOM      2  C2  BNZ d   1       3.373  -4.772  -0.661  0.00  0.00     0.000 A 
ATOM      3  C3  BNZ d   1       4.090  -3.609  -0.654  0.00  0.00     0.000 A 
ATOM      4  C4  BNZ d   1       5.389  -3.633  -0.291  0.00  0.00     0.000 A 
ATOM      5  C5  BNZ d   1       6.000  -4.825   0.042  0.00  0.00     0.000 A 
ATOM      6  C6  BNZ d   1       5.285  -6.000  -0.003  0.00  0.00     0.000 A 
ENDROOT
TORSDOF 0
ENDMDL
