MODEL 1
REMARK minimizedAffinity 12.3130455
REMARK minimizedRMSD -1
REMARK  0 active torsions:
REMARK  status: ('A' for Active; 'I' for Inactive)
ROOT
ATOM      1  C1  BNZ d   1       3.070  -4.077  -0.662  0.00  0.00     0.000 A 
ATOM      2  C2  BNZ d   1       3.812  -2.926  -0.677  0.00  0.00     0.000 A 
ATOM      3  C3  BNZ d   1       5.169  -2.967  -0.517  0.00  0.00     0.000 A 
ATOM      4  C4  BNZ d   1       5.776  -4.151  -0.302  0.00  0.00     0.000 A 
ATOM      5  C5  BNZ d   1       5.041  -5.319  -0.275  0.00  0.00     0.000 A 
ATOM      6  C6  BNZ d   1       3.680  -5.279  -0.475  0.00  0.00     0.000 A 
ENDROOT
TORSDOF 0
ENDMDL
