MODEL 1
REMARK minimizedAffinity 7.86431503
REMARK minimizedRMSD -1
REMARK  0 active torsions:
REMARK  status: ('A' for Active; 'I' for Inactive)
ROOT
ATOM      1  C1  BNZ d   1      -4.959  -0.040   0.361  0.00  0.00     0.000 A 
ATOM      2  C2  BNZ d   1      -5.052  -0.576  -0.896  0.00  0.00     0.000 A 
ATOM      3  C3  BNZ d   1      -5.501   0.175  -1.945  0.00  0.00     0.000 A 
ATOM      4  C4  BNZ d   1      -5.895   1.447  -1.730  0.00  0.00     0.000 A 
ATOM      5  C5  BNZ d   1      -5.817   1.998  -0.466  0.00  0.00     0.000 A 
ATOM      6  C6  BNZ d   1      -5.327   1.251   0.580  0.00  0.00     0.000 A 
ENDROOT
TORSDOF 0
ENDMDL
