MODEL 1
REMARK minimizedAffinity 6.44278383
REMARK minimizedRMSD -1
REMARK  0 active torsions:
REMARK  status: ('A' for Active; 'I' for Inactive)
ROOT
ATOM      1  C1  BNZ d   1      -5.457   2.259  -0.002  0.00  0.00     0.000 A 
ATOM      2  C2  BNZ d   1      -5.559   2.220  -1.367  0.00  0.00     0.000 A 
ATOM      3  C3  BNZ d   1      -5.593   1.027  -2.033  0.00  0.00     0.000 A 
ATOM      4  C4  BNZ d   1      -5.483  -0.124  -1.338  0.00  0.00     0.000 A 
ATOM      5  C5  BNZ d   1      -5.370  -0.101   0.038  0.00  0.00     0.000 A 
ATOM      6  C6  BNZ d   1      -5.376   1.101   0.708  0.00  0.00     0.000 A 
ENDROOT
TORSDOF 0
ENDMDL
