MODEL 1
REMARK minimizedAffinity 4.4079833
REMARK minimizedRMSD -1
REMARK  0 active torsions:
REMARK  status: ('A' for Active; 'I' for Inactive)
ROOT
ATOM      1  C1  BNZ d   1       0.089   3.214  -3.349  0.00  0.00     0.000 A 
ATOM      2  C2  BNZ d   1       0.074   2.205  -2.423  0.00  0.00     0.000 A 
ATOM      3  C3  BNZ d   1       1.236   1.751  -1.864  0.00  0.00     0.000 A 
ATOM      4  C4  BNZ d   1       2.412   2.277  -2.261  0.00  0.00     0.000 A 
ATOM      5  C5  BNZ d   1       2.445   3.288  -3.200  0.00  0.00     0.000 A 
ATOM      6  C6  BNZ d   1       1.270   3.770  -3.732  0.00  0.00     0.000 A 
ENDROOT
TORSDOF 0
ENDMDL
