MODEL 1
REMARK minimizedAffinity 1.29098415
REMARK minimizedRMSD -1
REMARK  0 active torsions:
REMARK  status: ('A' for Active; 'I' for Inactive)
ROOT
ATOM      1  C1  BNZ d   1      -2.121  -0.773   1.913  0.00  0.00     0.000 A 
ATOM      2  C2  BNZ d   1      -2.681  -1.591   2.857  0.00  0.00     0.000 A 
ATOM      3  C3  BNZ d   1      -4.036  -1.757   2.925  0.00  0.00     0.000 A 
ATOM      4  C4  BNZ d   1      -4.831  -1.074   2.075  0.00  0.00     0.000 A 
ATOM      5  C5  BNZ d   1      -4.282  -0.238   1.124  0.00  0.00     0.000 A 
ATOM      6  C6  BNZ d   1      -2.916  -0.104   1.033  0.00  0.00     0.000 A 
ENDROOT
TORSDOF 0
ENDMDL
