MODEL 1
REMARK minimizedAffinity 8.23055553
REMARK minimizedRMSD -1
REMARK  0 active torsions:
REMARK  status: ('A' for Active; 'I' for Inactive)
ROOT
ATOM      1  C1  BNZ d   1       5.870   4.844  -4.455  0.00  0.00     0.000 A 
ATOM      2  C2  BNZ d   1       5.271   4.165  -5.482  0.00  0.00     0.000 A 
ATOM      3  C3  BNZ d   1       4.083   3.517  -5.294  0.00  0.00     0.000 A 
ATOM      4  C4  BNZ d   1       3.515   3.515  -4.071  0.00  0.00     0.000 A 
ATOM      5  C5  BNZ d   1       4.111   4.188  -3.023  0.00  0.00     0.000 A 
ATOM      6  C6  BNZ d   1       5.288   4.872  -3.226  0.00  0.00     0.000 A 
ENDROOT
TORSDOF 0
ENDMDL
