MODEL 1
REMARK minimizedAffinity 4.73973465
REMARK minimizedRMSD -1
REMARK  0 active torsions:
REMARK  status: ('A' for Active; 'I' for Inactive)
ROOT
ATOM      1  C1  BNZ d   1      -2.969  -1.213   1.369  0.00  0.00     0.000 A 
ATOM      2  C2  BNZ d   1      -1.916  -0.738   2.104  0.00  0.00     0.000 A 
ATOM      3  C3  BNZ d   1      -2.012   0.445   2.782  0.00  0.00     0.000 A 
ATOM      4  C4  BNZ d   1      -3.146   1.170   2.690  0.00  0.00     0.000 A 
ATOM      5  C5  BNZ d   1      -4.213   0.709   1.945  0.00  0.00     0.000 A 
ATOM      6  C6  BNZ d   1      -4.126  -0.501   1.296  0.00  0.00     0.000 A 
ENDROOT
TORSDOF 0
ENDMDL
