MODEL 1
REMARK minimizedAffinity -3.51278257
REMARK minimizedRMSD -1
REMARK  0 active torsions:
REMARK  status: ('A' for Active; 'I' for Inactive)
ROOT
ATOM      1  C1  BNZ d   1      -2.851  -0.943   1.707  0.00  0.00     0.000 A 
ATOM      2  C2  BNZ d   1      -4.133  -0.469   1.790  0.00  0.00     0.000 A 
ATOM      3  C3  BNZ d   1      -4.457   0.523   2.673  0.00  0.00     0.000 A 
ATOM      4  C4  BNZ d   1      -3.509   1.012   3.498  0.00  0.00     0.000 A 
ATOM      5  C5  BNZ d   1      -2.213   0.539   3.432  0.00  0.00     0.000 A 
ATOM      6  C6  BNZ d   1      -1.882  -0.433   2.516  0.00  0.00     0.000 A 
ENDROOT
TORSDOF 0
ENDMDL
