MODEL 1
REMARK minimizedAffinity 9.40922642
REMARK minimizedRMSD -1
REMARK  0 active torsions:
REMARK  status: ('A' for Active; 'I' for Inactive)
ROOT
ATOM      1  C1  BNZ d   1       5.679  -3.540  -0.526  0.00  0.00     0.000 A 
ATOM      2  C2  BNZ d   1       5.023  -4.732  -0.672  0.00  0.00     0.000 A 
ATOM      3  C3  BNZ d   1       3.658  -4.790  -0.627  0.00  0.00     0.000 A 
ATOM      4  C4  BNZ d   1       2.954  -3.663  -0.396  0.00  0.00     0.000 A 
ATOM      5  C5  BNZ d   1       3.602  -2.454  -0.237  0.00  0.00     0.000 A 
ATOM      6  C6  BNZ d   1       4.974  -2.394  -0.322  0.00  0.00     0.000 A 
ENDROOT
TORSDOF 0
ENDMDL
