MODEL 1
REMARK minimizedAffinity 5.44214153
REMARK minimizedRMSD -1
REMARK  0 active torsions:
REMARK  status: ('A' for Active; 'I' for Inactive)
ROOT
ATOM      1  C1  BNZ d   1       5.993   4.122   1.507  0.00  0.00     0.000 A 
ATOM      2  C2  BNZ d   1       5.078   3.370   2.194  0.00  0.00     0.000 A 
ATOM      3  C3  BNZ d   1       4.170   2.594   1.529  0.00  0.00     0.000 A 
ATOM      4  C4  BNZ d   1       4.152   2.603   0.180  0.00  0.00     0.000 A 
ATOM      5  C5  BNZ d   1       5.062   3.364  -0.526  0.00  0.00     0.000 A 
ATOM      6  C6  BNZ d   1       6.000   4.113   0.146  0.00  0.00     0.000 A 
ENDROOT
TORSDOF 0
ENDMDL
