MODEL 1
REMARK minimizedAffinity 8.66949177
REMARK minimizedRMSD -1
REMARK  0 active torsions:
REMARK  status: ('A' for Active; 'I' for Inactive)
ROOT
ATOM      1  C1  BNZ d   1       4.121   3.047   2.064  0.00  0.00     0.000 A 
ATOM      2  C2  BNZ d   1       5.073   4.029   2.147  0.00  0.00     0.000 A 
ATOM      3  C3  BNZ d   1       6.000   4.191   1.156  0.00  0.00     0.000 A 
ATOM      4  C4  BNZ d   1       6.000   3.348   0.104  0.00  0.00     0.000 A 
ATOM      5  C5  BNZ d   1       5.053   2.347   0.009  0.00  0.00     0.000 A 
ATOM      6  C6  BNZ d   1       4.097   2.211   0.990  0.00  0.00     0.000 A 
ENDROOT
TORSDOF 0
ENDMDL
