MODEL 1
REMARK minimizedAffinity 6.68638086
REMARK minimizedRMSD -1
REMARK  0 active torsions:
REMARK  status: ('A' for Active; 'I' for Inactive)
ROOT
ATOM      1  C1  BNZ d   1       2.694   2.999  -2.975  0.00  0.00     0.000 A 
ATOM      2  C2  BNZ d   1       1.972   4.105  -3.337  0.00  0.00     0.000 A 
ATOM      3  C3  BNZ d   1       0.678   4.262  -2.926  0.00  0.00     0.000 A 
ATOM      4  C4  BNZ d   1       0.095   3.295  -2.188  0.00  0.00     0.000 A 
ATOM      5  C5  BNZ d   1       0.807   2.170  -1.823  0.00  0.00     0.000 A 
ATOM      6  C6  BNZ d   1       2.121   2.034  -2.206  0.00  0.00     0.000 A 
ENDROOT
TORSDOF 0
ENDMDL
