MODEL 1
REMARK minimizedAffinity -4.78300095
REMARK minimizedRMSD -1
REMARK  0 active torsions:
REMARK  status: ('A' for Active; 'I' for Inactive)
ROOT
ATOM      1  O1  BZF d   1      -0.652   0.066  -0.609  0.00  0.00    -0.204 OA
ATOM      2  C2  BZF d   1       0.716   0.242  -0.687  0.00  0.00     0.174 A 
ATOM      3  C3  BZF d   1       1.259   0.327   0.544  0.00  0.00    -0.012 A 
ATOM      4  C3A BZF d   1       0.174   0.104   1.450  0.00  0.00    -0.107 A 
ATOM      5  C4  BZF d   1       0.084   0.050   2.811  0.00  0.00     0.055 A 
ATOM      6  C5  BZF d   1      -1.136  -0.113   3.387  0.00  0.00    -0.016 A 
ATOM      7  C6  BZF d   1      -2.286  -0.220   2.632  0.00  0.00     0.022 A 
ATOM      8  C7  BZF d   1      -2.246  -0.177   1.278  0.00  0.00     0.029 A 
ATOM      9  C7A BZF d   1      -1.011  -0.046   0.693  0.00  0.00     0.058 A 
ENDROOT
TORSDOF 0
ENDMDL
