MODEL 1
REMARK minimizedAffinity -3.10145521
REMARK minimizedRMSD -1
REMARK  0 active torsions:
REMARK  status: ('A' for Active; 'I' for Inactive)
ROOT
ATOM      1  O1  BZF d   1       0.806   0.883   0.199  0.00  0.00    -0.204 OA
ATOM      2  C2  BZF d   1       0.503   0.173  -0.946  0.00  0.00     0.174 A 
ATOM      3  C3  BZF d   1      -0.522  -0.676  -0.726  0.00  0.00    -0.012 A 
ATOM      4  C3A BZF d   1      -0.942  -0.418   0.618  0.00  0.00    -0.107 A 
ATOM      5  C4  BZF d   1      -1.928  -0.934   1.409  0.00  0.00     0.055 A 
ATOM      6  C5  BZF d   1      -2.026  -0.517   2.698  0.00  0.00    -0.016 A 
ATOM      7  C6  BZF d   1      -1.153   0.408   3.231  0.00  0.00     0.022 A 
ATOM      8  C7  BZF d   1      -0.162   0.952   2.484  0.00  0.00     0.029 A 
ATOM      9  C7A BZF d   1      -0.080   0.558   1.171  0.00  0.00     0.058 A 
ENDROOT
TORSDOF 0
ENDMDL
