MODEL 1
REMARK minimizedAffinity -4.72115898
REMARK minimizedRMSD -1
REMARK  0 active torsions:
REMARK  status: ('A' for Active; 'I' for Inactive)
ROOT
ATOM      1  O1  BZF d   1      -0.784   0.117  -0.557  0.00  0.00    -0.204 OA
ATOM      2  C2  BZF d   1       0.593   0.006  -0.514  0.00  0.00     0.174 A 
ATOM      3  C3  BZF d   1       1.030  -0.037   0.761  0.00  0.00    -0.012 A 
ATOM      4  C3A BZF d   1      -0.154  -0.041   1.565  0.00  0.00    -0.107 A 
ATOM      5  C4  BZF d   1      -0.374  -0.091   2.912  0.00  0.00     0.055 A 
ATOM      6  C5  BZF d   1      -1.649  -0.004   3.376  0.00  0.00    -0.016 A 
ATOM      7  C6  BZF d   1      -2.724   0.137   2.524  0.00  0.00     0.022 A 
ATOM      8  C7  BZF d   1      -2.556   0.187   1.180  0.00  0.00     0.029 A 
ATOM      9  C7A BZF d   1      -1.272   0.066   0.706  0.00  0.00     0.058 A 
ENDROOT
TORSDOF 0
ENDMDL
