MODEL 1
REMARK minimizedAffinity -5.91504812
REMARK minimizedRMSD -1
REMARK  0 active torsions:
REMARK  status: ('A' for Active; 'I' for Inactive)
ROOT
ATOM      1  O1  BZF d   1      -1.020   0.335  -0.601  0.00  0.00    -0.204 OA
ATOM      2  C2  BZF d   1       0.265  -0.163  -0.702  0.00  0.00     0.174 A 
ATOM      3  C3  BZF d   1       0.731  -0.533   0.508  0.00  0.00    -0.012 A 
ATOM      4  C3A BZF d   1      -0.362  -0.335   1.409  0.00  0.00    -0.107 A 
ATOM      5  C4  BZF d   1      -0.523  -0.538   2.750  0.00  0.00     0.055 A 
ATOM      6  C5  BZF d   1      -1.693  -0.174   3.338  0.00  0.00    -0.016 A 
ATOM      7  C6  BZF d   1      -2.720   0.400   2.618  0.00  0.00     0.022 A 
ATOM      8  C7  BZF d   1      -2.609   0.616   1.285  0.00  0.00     0.029 A 
ATOM      9  C7A BZF d   1      -1.441   0.219   0.681  0.00  0.00     0.058 A 
ENDROOT
TORSDOF 0
ENDMDL
