MODEL 1
REMARK minimizedAffinity -3.77871346
REMARK minimizedRMSD -1
REMARK  0 active torsions:
REMARK  status: ('A' for Active; 'I' for Inactive)
ROOT
ATOM      1  O1  BZF d   1      -1.370  -0.593   1.916  0.00  0.00    -0.204 OA
ATOM      2  C2  BZF d   1      -0.614  -0.543   3.071  0.00  0.00     0.174 A 
ATOM      3  C3  BZF d   1       0.654  -0.175   2.796  0.00  0.00    -0.012 A 
ATOM      4  C3A BZF d   1       0.669   0.106   1.394  0.00  0.00    -0.107 A 
ATOM      5  C4  BZF d   1       1.639   0.532   0.532  0.00  0.00     0.055 A 
ATOM      6  C5  BZF d   1       1.348   0.638  -0.791  0.00  0.00    -0.016 A 
ATOM      7  C6  BZF d   1       0.100   0.322  -1.287  0.00  0.00     0.022 A 
ATOM      8  C7  BZF d   1      -0.896  -0.100  -0.470  0.00  0.00     0.029 A 
ATOM      9  C7A BZF d   1      -0.614  -0.176   0.872  0.00  0.00     0.058 A 
ENDROOT
TORSDOF 0
ENDMDL
