MODEL 1
REMARK minimizedAffinity -3.73773122
REMARK minimizedRMSD -1
REMARK  0 active torsions:
REMARK  status: ('A' for Active; 'I' for Inactive)
ROOT
ATOM      1  O1  BZF d   1      -2.088   0.533  -0.680  0.00  0.00    -0.204 OA
ATOM      2  C2  BZF d   1      -0.874   0.470  -1.336  0.00  0.00     0.174 A 
ATOM      3  C3  BZF d   1       0.131   0.257  -0.463  0.00  0.00    -0.012 A 
ATOM      4  C3A BZF d   1      -0.504   0.090   0.808  0.00  0.00    -0.107 A 
ATOM      5  C4  BZF d   1      -0.035  -0.165   2.065  0.00  0.00     0.055 A 
ATOM      6  C5  BZF d   1      -0.911  -0.196   3.103  0.00  0.00    -0.016 A 
ATOM      7  C6  BZF d   1      -2.260   0.028   2.922  0.00  0.00     0.022 A 
ATOM      8  C7  BZF d   1      -2.773   0.280   1.693  0.00  0.00     0.029 A 
ATOM      9  C7A BZF d   1      -1.894   0.280   0.637  0.00  0.00     0.058 A 
ENDROOT
TORSDOF 0
ENDMDL
