MODEL 1
REMARK minimizedAffinity -5.58336401
REMARK minimizedRMSD -1
REMARK  0 active torsions:
REMARK  status: ('A' for Active; 'I' for Inactive)
ROOT
ATOM      1  O1  BZF d   1      -1.794   1.069  -0.582  0.00  0.00    -0.204 OA
ATOM      2  C2  BZF d   1      -0.577   1.078  -1.236  0.00  0.00     0.174 A 
ATOM      3  C3  BZF d   1       0.400   0.608  -0.434  0.00  0.00    -0.012 A 
ATOM      4  C3A BZF d   1      -0.262   0.199   0.767  0.00  0.00    -0.107 A 
ATOM      5  C4  BZF d   1       0.171  -0.364   1.933  0.00  0.00     0.055 A 
ATOM      6  C5  BZF d   1      -0.721  -0.572   2.937  0.00  0.00    -0.016 A 
ATOM      7  C6  BZF d   1      -2.050  -0.225   2.811  0.00  0.00     0.022 A 
ATOM      8  C7  BZF d   1      -2.528   0.331   1.671  0.00  0.00     0.029 A 
ATOM      9  C7A BZF d   1      -1.636   0.512   0.643  0.00  0.00     0.058 A 
ENDROOT
TORSDOF 0
ENDMDL
