MODEL 1
REMARK minimizedAffinity -6.08718109
REMARK minimizedRMSD -1
REMARK  0 active torsions:
REMARK  status: ('A' for Active; 'I' for Inactive)
ROOT
ATOM      1  O1  BZF d   1      -1.101   0.521  -0.600  0.00  0.00    -0.204 OA
ATOM      2  C2  BZF d   1       0.249   0.250  -0.700  0.00  0.00     0.174 A 
ATOM      3  C3  BZF d   1       0.740  -0.178   0.481  0.00  0.00    -0.012 A 
ATOM      4  C3A BZF d   1      -0.393  -0.262   1.351  0.00  0.00    -0.107 A 
ATOM      5  C4  BZF d   1      -0.551  -0.642   2.653  0.00  0.00     0.055 A 
ATOM      6  C5  BZF d   1      -1.778  -0.539   3.227  0.00  0.00    -0.016 A 
ATOM      7  C6  BZF d   1      -2.867  -0.057   2.531  0.00  0.00     0.022 A 
ATOM      8  C7  BZF d   1      -2.761   0.327   1.235  0.00  0.00     0.029 A 
ATOM      9  C7A BZF d   1      -1.529   0.194   0.643  0.00  0.00     0.058 A 
ENDROOT
TORSDOF 0
ENDMDL
