MODEL 1
REMARK minimizedAffinity -5.43857384
REMARK minimizedRMSD -1
REMARK  0 active torsions:
REMARK  status: ('A' for Active; 'I' for Inactive)
ROOT
ATOM      1  O1  BZF d   1      -2.805   0.476   0.704  0.00  0.00    -0.204 OA
ATOM      2  C2  BZF d   1      -3.415   0.274   1.928  0.00  0.00     0.174 A 
ATOM      3  C3  BZF d   1      -2.506  -0.067   2.864  0.00  0.00    -0.012 A 
ATOM      4  C3A BZF d   1      -1.239   0.009   2.205  0.00  0.00    -0.107 A 
ATOM      5  C4  BZF d   1       0.047  -0.201   2.614  0.00  0.00     0.055 A 
ATOM      6  C5  BZF d   1       1.052  -0.114   1.704  0.00  0.00    -0.016 A 
ATOM      7  C6  BZF d   1       0.808   0.175   0.378  0.00  0.00     0.022 A 
ATOM      8  C7  BZF d   1      -0.450   0.397  -0.074  0.00  0.00     0.029 A 
ATOM      9  C7A BZF d   1      -1.465   0.343   0.849  0.00  0.00     0.058 A 
ENDROOT
TORSDOF 0
ENDMDL
