MODEL 1
REMARK minimizedAffinity -2.42156982
REMARK minimizedRMSD -1
REMARK  0 active torsions:
REMARK  status: ('A' for Active; 'I' for Inactive)
ROOT
ATOM      1  O1  BZF d   1      -0.890  -0.090  -0.427  0.00  0.00    -0.204 OA
ATOM      2  C2  BZF d   1       0.018   0.577   0.374  0.00  0.00     0.174 A 
ATOM      3  C3  BZF d   1       1.226   0.638  -0.222  0.00  0.00    -0.012 A 
ATOM      4  C3A BZF d   1       1.040   0.049  -1.512  0.00  0.00    -0.107 A 
ATOM      5  C4  BZF d   1       1.871  -0.166  -2.575  0.00  0.00     0.055 A 
ATOM      6  C5  BZF d   1       1.397  -0.832  -3.660  0.00  0.00    -0.016 A 
ATOM      7  C6  BZF d   1       0.100  -1.301  -3.715  0.00  0.00     0.022 A 
ATOM      8  C7  BZF d   1      -0.762  -1.107  -2.688  0.00  0.00     0.029 A 
ATOM      9  C7A BZF d   1      -0.296  -0.405  -1.603  0.00  0.00     0.058 A 
ENDROOT
TORSDOF 0
ENDMDL
