MODEL 1
REMARK minimizedAffinity -4.09755373
REMARK minimizedRMSD -1
REMARK  0 active torsions:
REMARK  status: ('A' for Active; 'I' for Inactive)
ROOT
ATOM      1  O1  BZF d   1       1.550   0.525  -0.820  0.00  0.00    -0.204 OA
ATOM      2  C2  BZF d   1       0.809   0.100  -1.905  0.00  0.00     0.174 A 
ATOM      3  C3  BZF d   1      -0.333  -0.494  -1.501  0.00  0.00    -0.012 A 
ATOM      4  C3A BZF d   1      -0.347  -0.353  -0.077  0.00  0.00    -0.107 A 
ATOM      5  C4  BZF d   1      -1.230  -0.728   0.895  0.00  0.00     0.055 A 
ATOM      6  C5  BZF d   1      -0.912  -0.507   2.197  0.00  0.00    -0.016 A 
ATOM      7  C6  BZF d   1       0.282   0.080   2.564  0.00  0.00     0.022 A 
ATOM      8  C7  BZF d   1       1.187   0.473   1.635  0.00  0.00     0.029 A 
ATOM      9  C7A BZF d   1       0.854   0.281   0.317  0.00  0.00     0.058 A 
ENDROOT
TORSDOF 0
ENDMDL
