MODEL 1
REMARK minimizedAffinity -5.73507547
REMARK minimizedRMSD -1
REMARK  0 active torsions:
REMARK  status: ('A' for Active; 'I' for Inactive)
ROOT
ATOM      1  O1  BZF d   1      -1.024   0.419  -0.736  0.00  0.00    -0.204 OA
ATOM      2  C2  BZF d   1       0.305   0.649  -1.036  0.00  0.00     0.174 A 
ATOM      3  C3  BZF d   1       1.076   0.499   0.060  0.00  0.00    -0.012 A 
ATOM      4  C3A BZF d   1       0.184   0.063   1.091  0.00  0.00    -0.107 A 
ATOM      5  C4  BZF d   1       0.358  -0.270   2.404  0.00  0.00     0.055 A 
ATOM      6  C5  BZF d   1      -0.730  -0.584   3.155  0.00  0.00    -0.016 A 
ATOM      7  C6  BZF d   1      -2.005  -0.570   2.627  0.00  0.00     0.022 A 
ATOM      8  C7  BZF d   1      -2.226  -0.252   1.329  0.00  0.00     0.029 A 
ATOM      9  C7A BZF d   1      -1.126   0.034   0.559  0.00  0.00     0.058 A 
ENDROOT
TORSDOF 0
ENDMDL
