MODEL 1
REMARK minimizedAffinity -5.53939533
REMARK minimizedRMSD -1
REMARK  0 active torsions:
REMARK  status: ('A' for Active; 'I' for Inactive)
ROOT
ATOM      1  O1  BZF d   1      -2.277   0.244   0.364  0.00  0.00    -0.204 OA
ATOM      2  C2  BZF d   1      -2.931   0.265   1.581  0.00  0.00     0.174 A 
ATOM      3  C3  BZF d   1      -2.047   0.275   2.599  0.00  0.00    -0.012 A 
ATOM      4  C3A BZF d   1      -0.760   0.354   1.980  0.00  0.00    -0.107 A 
ATOM      5  C4  BZF d   1       0.515   0.413   2.467  0.00  0.00     0.055 A 
ATOM      6  C5  BZF d   1       1.556   0.407   1.594  0.00  0.00    -0.016 A 
ATOM      7  C6  BZF d   1       1.360   0.338   0.230  0.00  0.00     0.022 A 
ATOM      8  C7  BZF d   1       0.114   0.283  -0.300  0.00  0.00     0.029 A 
ATOM      9  C7A BZF d   1      -0.941   0.321   0.578  0.00  0.00     0.058 A 
ENDROOT
TORSDOF 0
ENDMDL
