MODEL 1
REMARK minimizedAffinity -5.16757298
REMARK minimizedRMSD -1
REMARK  0 active torsions:
REMARK  status: ('A' for Active; 'I' for Inactive)
ROOT
ATOM      1  O1  BZF d   1      -1.101   0.181  -0.347  0.00  0.00    -0.204 OA
ATOM      2  C2  BZF d   1       0.270   0.255  -0.506  0.00  0.00     0.174 A 
ATOM      3  C3  BZF d   1       0.891   0.242   0.691  0.00  0.00    -0.012 A 
ATOM      4  C3A BZF d   1      -0.152   0.063   1.655  0.00  0.00    -0.107 A 
ATOM      5  C4  BZF d   1      -0.164  -0.045   3.016  0.00  0.00     0.055 A 
ATOM      6  C5  BZF d   1      -1.357  -0.139   3.660  0.00  0.00    -0.016 A 
ATOM      7  C6  BZF d   1      -2.555  -0.123   2.977  0.00  0.00     0.022 A 
ATOM      8  C7  BZF d   1      -2.593  -0.023   1.625  0.00  0.00     0.029 A 
ATOM      9  C7A BZF d   1      -1.388   0.039   0.969  0.00  0.00     0.058 A 
ENDROOT
TORSDOF 0
ENDMDL
