MODEL 1
REMARK minimizedAffinity -5.38031435
REMARK minimizedRMSD -1
REMARK  0 active torsions:
REMARK  status: ('A' for Active; 'I' for Inactive)
ROOT
ATOM      1  O1  BZF d   1      -1.004   0.345  -0.464  0.00  0.00    -0.204 OA
ATOM      2  C2  BZF d   1       0.336   0.442  -0.786  0.00  0.00     0.174 A 
ATOM      3  C3  BZF d   1       1.107   0.183   0.290  0.00  0.00    -0.012 A 
ATOM      4  C3A BZF d   1       0.193  -0.184   1.328  0.00  0.00    -0.107 A 
ATOM      5  C4  BZF d   1       0.354  -0.567   2.629  0.00  0.00     0.055 A 
ATOM      6  C5  BZF d   1      -0.747  -0.784   3.395  0.00  0.00    -0.016 A 
ATOM      7  C6  BZF d   1      -2.023  -0.623   2.895  0.00  0.00     0.022 A 
ATOM      8  C7  BZF d   1      -2.233  -0.249   1.609  0.00  0.00     0.029 A 
ATOM      9  C7A BZF d   1      -1.122  -0.061   0.823  0.00  0.00     0.058 A 
ENDROOT
TORSDOF 0
ENDMDL
