MODEL 1
REMARK minimizedAffinity -6.42732716
REMARK minimizedRMSD -1
REMARK  0 active torsions:
REMARK  status: ('A' for Active; 'I' for Inactive)
ROOT
ATOM      1  O1  BZF d   1      -0.660   0.253  -0.602  0.00  0.00    -0.204 OA
ATOM      2  C2  BZF d   1       0.721   0.263  -0.651  0.00  0.00     0.174 A 
ATOM      3  C3  BZF d   1       1.245   0.120   0.584  0.00  0.00    -0.012 A 
ATOM      4  C3A BZF d   1       0.122  -0.079   1.448  0.00  0.00    -0.107 A 
ATOM      5  C4  BZF d   1      -0.003  -0.295   2.791  0.00  0.00     0.055 A 
ATOM      6  C5  BZF d   1      -1.246  -0.375   3.334  0.00  0.00    -0.016 A 
ATOM      7  C6  BZF d   1      -2.384  -0.238   2.567  0.00  0.00     0.022 A 
ATOM      8  C7  BZF d   1      -2.311  -0.027   1.230  0.00  0.00     0.029 A 
ATOM      9  C7A BZF d   1      -1.057   0.021   0.673  0.00  0.00     0.058 A 
ENDROOT
TORSDOF 0
ENDMDL
