MODEL 1
REMARK minimizedAffinity -1.1836102
REMARK minimizedRMSD -1
REMARK  0 active torsions:
REMARK  status: ('A' for Active; 'I' for Inactive)
ROOT
ATOM      1  O1  BZF d   1      -2.421   0.719   0.277  0.00  0.00    -0.204 OA
ATOM      2  C2  BZF d   1      -3.120   0.942   1.448  0.00  0.00     0.174 A 
ATOM      3  C3  BZF d   1      -2.298   0.874   2.516  0.00  0.00    -0.012 A 
ATOM      4  C3A BZF d   1      -0.989   0.683   1.972  0.00  0.00    -0.107 A 
ATOM      5  C4  BZF d   1       0.251   0.557   2.530  0.00  0.00     0.055 A 
ATOM      6  C5  BZF d   1       1.316   0.308   1.725  0.00  0.00    -0.016 A 
ATOM      7  C6  BZF d   1       1.178   0.175   0.359  0.00  0.00     0.022 A 
ATOM      8  C7  BZF d   1      -0.031   0.297  -0.242  0.00  0.00     0.029 A 
ATOM      9  C7A BZF d   1      -1.104   0.581   0.566  0.00  0.00     0.058 A 
ENDROOT
TORSDOF 0
ENDMDL
