MODEL 1
REMARK minimizedAffinity 0.876993477
REMARK minimizedRMSD -1
REMARK  0 active torsions:
REMARK  status: ('A' for Active; 'I' for Inactive)
ROOT
ATOM      1  C   UNL d   1       1.812  -1.890   4.489  0.00  0.00     0.020 A 
ATOM      2  C1  UNL d   1       1.303  -1.031   3.516  0.00  0.00     0.020 A 
ATOM      3  C2  UNL d   1       1.115  -1.490   2.210  0.00  0.00     0.034 A 
ATOM      4  C3  UNL d   1       1.435  -2.810   1.875  0.00  0.00     0.017 A 
ATOM      5  C4  UNL d   1       1.945  -3.671   2.853  0.00  0.00     0.017 A 
ATOM      6  C5  UNL d   1       2.132  -3.207   4.158  0.00  0.00     0.034 A 
ATOM      7 Cl   UNL d   1       2.363  -5.314   2.514  0.00  0.00    -0.070 Cl
ATOM      8 Cl1  UNL d   1       1.175  -3.309   0.241  0.00  0.00    -0.070 Cl
ENDROOT
TORSDOF 0
ENDMDL
