MODEL 1
REMARK minimizedAffinity 12.607851
REMARK minimizedRMSD -1
REMARK  0 active torsions:
REMARK  status: ('A' for Active; 'I' for Inactive)
ROOT
ATOM      1  C   UNL d   1      -6.000   3.754   0.328  0.00  0.00     0.020 A 
ATOM      2  C1  UNL d   1      -5.277   3.521   1.497  0.00  0.00     0.020 A 
ATOM      3  C2  UNL d   1      -4.205   2.627   1.489  0.00  0.00     0.034 A 
ATOM      4  C3  UNL d   1      -3.852   1.961   0.309  0.00  0.00     0.017 A 
ATOM      5  C4  UNL d   1      -4.578   2.196  -0.864  0.00  0.00     0.017 A 
ATOM      6  C5  UNL d   1      -5.650   3.092  -0.850  0.00  0.00     0.034 A 
ATOM      7 Cl   UNL d   1      -4.202   1.413  -2.358  0.00  0.00    -0.070 Cl
ATOM      8 Cl1  UNL d   1      -2.514   0.869   0.372  0.00  0.00    -0.070 Cl
ENDROOT
TORSDOF 0
ENDMDL
