MODEL 1
REMARK minimizedAffinity 6.56546402
REMARK minimizedRMSD -1
REMARK  0 active torsions:
REMARK  status: ('A' for Active; 'I' for Inactive)
ROOT
ATOM      1  C   UNL d   1       1.824   0.453   3.103  0.00  0.00     0.020 A 
ATOM      2  C1  UNL d   1       2.161   0.135   1.788  0.00  0.00     0.020 A 
ATOM      3  C2  UNL d   1       1.998  -1.171   1.321  0.00  0.00     0.034 A 
ATOM      4  C3  UNL d   1       1.496  -2.164   2.170  0.00  0.00     0.017 A 
ATOM      5  C4  UNL d   1       1.158  -1.845   3.490  0.00  0.00     0.017 A 
ATOM      6  C5  UNL d   1       1.324  -0.535   3.952  0.00  0.00     0.034 A 
ATOM      7 Cl   UNL d   1       0.534  -3.016   4.596  0.00  0.00    -0.070 Cl
ATOM      8 Cl1  UNL d   1       1.320  -3.758   1.525  0.00  0.00    -0.070 Cl
ENDROOT
TORSDOF 0
ENDMDL
