MODEL 1
REMARK minimizedAffinity -0.498621643
REMARK minimizedRMSD -1
REMARK  0 active torsions:
REMARK  status: ('A' for Active; 'I' for Inactive)
ROOT
ATOM      1  C   UNL d   1      -5.550   1.111  -2.266  0.00  0.00     0.020 A 
ATOM      2  C1  UNL d   1      -4.262   1.534  -2.591  0.00  0.00     0.020 A 
ATOM      3  C2  UNL d   1      -3.343   1.817  -1.579  0.00  0.00     0.034 A 
ATOM      4  C3  UNL d   1      -3.711   1.679  -0.235  0.00  0.00     0.017 A 
ATOM      5  C4  UNL d   1      -5.004   1.254   0.091  0.00  0.00     0.017 A 
ATOM      6  C5  UNL d   1      -5.920   0.972  -0.928  0.00  0.00     0.034 A 
ATOM      7 Cl   UNL d   1      -5.532   1.060   1.725  0.00  0.00    -0.070 Cl
ATOM      8 Cl1  UNL d   1      -2.524   2.046   0.965  0.00  0.00    -0.070 Cl
ENDROOT
TORSDOF 0
ENDMDL
