MODEL 1
REMARK minimizedAffinity 9.705266
REMARK minimizedRMSD -1
REMARK  0 active torsions:
REMARK  status: ('A' for Active; 'I' for Inactive)
ROOT
ATOM      1  C   UNL d   1       5.987  -4.000   2.193  0.00  0.00     0.020 A 
ATOM      2  C1  UNL d   1       5.728  -2.641   2.020  0.00  0.00     0.020 A 
ATOM      3  C2  UNL d   1       4.413  -2.170   2.055  0.00  0.00     0.034 A 
ATOM      4  C3  UNL d   1       3.353  -3.060   2.264  0.00  0.00     0.017 A 
ATOM      5  C4  UNL d   1       3.614  -4.423   2.438  0.00  0.00     0.017 A 
ATOM      6  C5  UNL d   1       4.932  -4.889   2.402  0.00  0.00     0.034 A 
ATOM      7 Cl   UNL d   1       2.358  -5.581   2.701  0.00  0.00    -0.070 Cl
ATOM      8 Cl1  UNL d   1       1.753  -2.408   2.297  0.00  0.00    -0.070 Cl
ENDROOT
TORSDOF 0
ENDMDL
