MODEL 1
REMARK minimizedAffinity 7.76373959
REMARK minimizedRMSD -1
REMARK  0 active torsions:
REMARK  status: ('A' for Active; 'I' for Inactive)
ROOT
ATOM      1  C   UNL d   1      -2.342   2.278   1.113  0.00  0.00     0.020 A 
ATOM      2  C1  UNL d   1      -2.673   2.561  -0.211  0.00  0.00     0.020 A 
ATOM      3  C2  UNL d   1      -3.806   3.323  -0.500  0.00  0.00     0.034 A 
ATOM      4  C3  UNL d   1      -4.613   3.805   0.537  0.00  0.00     0.017 A 
ATOM      5  C4  UNL d   1      -4.280   3.521   1.866  0.00  0.00     0.017 A 
ATOM      6  C5  UNL d   1      -3.144   2.757   2.150  0.00  0.00     0.034 A 
ATOM      7 Cl   UNL d   1      -5.227   4.081   3.199  0.00  0.00    -0.070 Cl
ATOM      8 Cl1  UNL d   1      -6.000   4.742   0.107  0.00  0.00    -0.070 Cl
ENDROOT
TORSDOF 0
ENDMDL
