MODEL 1
REMARK minimizedAffinity 12.8197203
REMARK minimizedRMSD -1
REMARK  0 active torsions:
REMARK  status: ('A' for Active; 'I' for Inactive)
ROOT
ATOM      1  C   UNL d   1       1.465  -5.168   0.644  0.00  0.00     0.020 A 
ATOM      2  C1  UNL d   1       1.875  -5.628   1.894  0.00  0.00     0.020 A 
ATOM      3  C2  UNL d   1       1.835  -4.774   2.999  0.00  0.00     0.034 A 
ATOM      4  C3  UNL d   1       1.384  -3.457   2.855  0.00  0.00     0.017 A 
ATOM      5  C4  UNL d   1       0.973  -2.997   1.599  0.00  0.00     0.017 A 
ATOM      6  C5  UNL d   1       1.015  -3.856   0.496  0.00  0.00     0.034 A 
ATOM      7 Cl   UNL d   1       0.405  -1.385   1.343  0.00  0.00    -0.070 Cl
ATOM      8 Cl1  UNL d   1       1.362  -2.457   4.264  0.00  0.00    -0.070 Cl
ENDROOT
TORSDOF 0
ENDMDL
