MODEL 1
REMARK minimizedAffinity 9.51837349
REMARK minimizedRMSD -1
REMARK  0 active torsions:
REMARK  status: ('A' for Active; 'I' for Inactive)
ROOT
ATOM      1  C   UNL d   1      -2.082   3.012   1.590  0.00  0.00     0.020 A 
ATOM      2  C1  UNL d   1      -2.251   2.933   0.209  0.00  0.00     0.020 A 
ATOM      3  C2  UNL d   1      -3.467   3.303  -0.368  0.00  0.00     0.034 A 
ATOM      4  C3  UNL d   1      -4.520   3.754   0.436  0.00  0.00     0.017 A 
ATOM      5  C4  UNL d   1      -4.349   3.834   1.823  0.00  0.00     0.017 A 
ATOM      6  C5  UNL d   1      -3.129   3.462   2.396  0.00  0.00     0.034 A 
ATOM      7 Cl   UNL d   1      -5.602   4.381   2.881  0.00  0.00    -0.070 Cl
ATOM      8 Cl1  UNL d   1      -5.996   4.196  -0.345  0.00  0.00    -0.070 Cl
ENDROOT
TORSDOF 0
ENDMDL
