MODEL 1
REMARK minimizedAffinity 12.4585667
REMARK minimizedRMSD -1
REMARK  0 active torsions:
REMARK  status: ('A' for Active; 'I' for Inactive)
ROOT
ATOM      1  C   UNL d   1       1.825  -3.224   3.318  0.00  0.00     0.020 A 
ATOM      2  C1  UNL d   1       0.922  -2.437   4.032  0.00  0.00     0.020 A 
ATOM      3  C2  UNL d   1       0.770  -1.085   3.714  0.00  0.00     0.034 A 
ATOM      4  C3  UNL d   1       1.524  -0.517   2.681  0.00  0.00     0.017 A 
ATOM      5  C4  UNL d   1       2.430  -1.307   1.965  0.00  0.00     0.017 A 
ATOM      6  C5  UNL d   1       2.578  -2.660   2.287  0.00  0.00     0.034 A 
ATOM      7 Cl   UNL d   1       3.394  -0.676   0.677  0.00  0.00    -0.070 Cl
ATOM      8 Cl1  UNL d   1       1.285   1.161   2.342  0.00  0.00    -0.070 Cl
ENDROOT
TORSDOF 0
ENDMDL
