MODEL 1
REMARK minimizedAffinity 6.81074524
REMARK minimizedRMSD -1
REMARK  0 active torsions:
REMARK  status: ('A' for Active; 'I' for Inactive)
ROOT
ATOM      1  C   UNL d   1       5.507   4.655  -5.783  0.00  0.00     0.020 A 
ATOM      2  C1  UNL d   1       4.346   4.842  -5.033  0.00  0.00     0.020 A 
ATOM      3  C2  UNL d   1       3.677   3.739  -4.497  0.00  0.00     0.034 A 
ATOM      4  C3  UNL d   1       4.167   2.446  -4.709  0.00  0.00     0.017 A 
ATOM      5  C4  UNL d   1       5.333   2.260  -5.462  0.00  0.00     0.017 A 
ATOM      6  C5  UNL d   1       5.999   3.367  -5.996  0.00  0.00     0.034 A 
ATOM      7 Cl   UNL d   1       5.999   0.695  -5.766  0.00  0.00    -0.070 Cl
ATOM      8 Cl1  UNL d   1       3.289   1.129  -4.016  0.00  0.00    -0.070 Cl
ENDROOT
TORSDOF 0
ENDMDL
