MODEL 1
REMARK minimizedAffinity -3.60890031
REMARK minimizedRMSD -1
REMARK  0 active torsions:
REMARK  status: ('A' for Active; 'I' for Inactive)
ROOT
ATOM      1  N1  IND d   1       0.197   1.509  -3.288  0.00  0.00    -0.196 N 
ATOM      2  C2  IND d   1       0.894   0.616  -4.054  0.00  0.00     0.054 A 
ATOM      3  C3  IND d   1       1.143  -0.512  -3.352  0.00  0.00    -0.031 A 
ATOM      4  C4  IND d   1       0.413  -1.150  -0.967  0.00  0.00     0.051 A 
ATOM      5  C5  IND d   1      -0.211  -0.645   0.139  0.00  0.00    -0.031 A 
ATOM      6  C6  IND d   1      -0.743   0.628   0.160  0.00  0.00     0.015 A 
ATOM      7  C7  IND d   1      -0.682   1.443  -0.935  0.00  0.00    -0.016 A 
ATOM      8  C8  IND d   1      -0.043   0.937  -2.058  0.00  0.00    -0.047 A 
ATOM      9  C9  IND d   1       0.536  -0.338  -2.071  0.00  0.00    -0.096 A 
ATOM     10  HN1 IND d   1      -0.049   2.295  -3.533  0.00  0.00     0.298 HD
ENDROOT
TORSDOF 0
ENDMDL
