MODEL 1
REMARK minimizedAffinity -4.66138029
REMARK minimizedRMSD -1
REMARK  0 active torsions:
REMARK  status: ('A' for Active; 'I' for Inactive)
ROOT
ATOM      1  N1  IND d   1       1.187  -1.081   0.111  0.00  0.00    -0.196 N 
ATOM      2  C2  IND d   1       2.257  -1.175   0.958  0.00  0.00     0.054 A 
ATOM      3  C3  IND d   1       1.919  -0.741   2.193  0.00  0.00    -0.031 A 
ATOM      4  C4  IND d   1      -0.360   0.070   3.074  0.00  0.00     0.051 A 
ATOM      5  C5  IND d   1      -1.630   0.366   2.665  0.00  0.00    -0.031 A 
ATOM      6  C6  IND d   1      -2.035   0.189   1.358  0.00  0.00     0.015 A 
ATOM      7  C7  IND d   1      -1.184  -0.304   0.410  0.00  0.00    -0.016 A 
ATOM      8  C8  IND d   1       0.109  -0.599   0.820  0.00  0.00    -0.047 A 
ATOM      9  C9  IND d   1       0.537  -0.381   2.136  0.00  0.00    -0.096 A 
ATOM     10  HN1 IND d   1       1.188  -1.287  -0.723  0.00  0.00     0.298 HD
ENDROOT
TORSDOF 0
ENDMDL
