MODEL 1
REMARK minimizedAffinity -4.23117018
REMARK minimizedRMSD -1
REMARK  0 active torsions:
REMARK  status: ('A' for Active; 'I' for Inactive)
ROOT
ATOM      1  N1  IND d   1       2.203  -0.177   2.280  0.00  0.00    -0.196 N 
ATOM      2  C2  IND d   1       1.953   0.064   3.602  0.00  0.00     0.054 A 
ATOM      3  C3  IND d   1       0.667   0.444   3.776  0.00  0.00    -0.031 A 
ATOM      4  C4  IND d   1      -1.229   0.638   2.045  0.00  0.00     0.051 A 
ATOM      5  C5  IND d   1      -1.475   0.556   0.703  0.00  0.00    -0.031 A 
ATOM      6  C6  IND d   1      -0.489   0.215  -0.199  0.00  0.00     0.015 A 
ATOM      7  C7  IND d   1       0.784  -0.068   0.209  0.00  0.00    -0.016 A 
ATOM      8  C8  IND d   1       1.039   0.022   1.570  0.00  0.00    -0.047 A 
ATOM      9  C9  IND d   1       0.053   0.408   2.487  0.00  0.00    -0.096 A 
ATOM     10  HN1 IND d   1       2.960  -0.413   1.948  0.00  0.00     0.298 HD
ENDROOT
TORSDOF 0
ENDMDL
