MODEL 1
REMARK minimizedAffinity -4.17876959
REMARK minimizedRMSD -1
REMARK  0 active torsions:
REMARK  status: ('A' for Active; 'I' for Inactive)
ROOT
ATOM      1  N1  IND d   1       1.082  -0.935  -0.167  0.00  0.00    -0.196 N 
ATOM      2  C2  IND d   1      -0.102  -0.652  -0.790  0.00  0.00     0.054 A 
ATOM      3  C3  IND d   1      -1.034  -0.283   0.116  0.00  0.00    -0.031 A 
ATOM      4  C4  IND d   1      -0.808   0.026   2.662  0.00  0.00     0.051 A 
ATOM      5  C5  IND d   1       0.070  -0.147   3.694  0.00  0.00    -0.031 A 
ATOM      6  C6  IND d   1       1.358  -0.598   3.488  0.00  0.00     0.015 A 
ATOM      7  C7  IND d   1       1.821  -0.883   2.234  0.00  0.00    -0.016 A 
ATOM      8  C8  IND d   1       0.929  -0.715   1.184  0.00  0.00    -0.047 A 
ATOM      9  C9  IND d   1      -0.392  -0.299   1.392  0.00  0.00    -0.096 A 
ATOM     10  HN1 IND d   1       1.801  -1.204  -0.554  0.00  0.00     0.298 HD
ENDROOT
TORSDOF 0
ENDMDL
