MODEL 1
REMARK minimizedAffinity -3.60064244
REMARK minimizedRMSD -1
REMARK  0 active torsions:
REMARK  status: ('A' for Active; 'I' for Inactive)
ROOT
ATOM      1  N1  IND d   1       0.791  -0.390  -0.309  0.00  0.00    -0.196 N 
ATOM      2  C2  IND d   1      -0.495  -0.133  -0.695  0.00  0.00     0.054 A 
ATOM      3  C3  IND d   1      -1.309  -0.084   0.383  0.00  0.00    -0.031 A 
ATOM      4  C4  IND d   1      -0.727  -0.297   2.882  0.00  0.00     0.051 A 
ATOM      5  C5  IND d   1       0.311  -0.573   3.727  0.00  0.00    -0.031 A 
ATOM      6  C6  IND d   1       1.589  -0.804   3.260  0.00  0.00     0.015 A 
ATOM      7  C7  IND d   1       1.880  -0.756   1.926  0.00  0.00    -0.016 A 
ATOM      8  C8  IND d   1       0.826  -0.483   1.065  0.00  0.00    -0.047 A 
ATOM      9  C9  IND d   1      -0.481  -0.290   1.529  0.00  0.00    -0.096 A 
ATOM     10  HN1 IND d   1       1.464  -0.478  -0.836  0.00  0.00     0.298 HD
ENDROOT
TORSDOF 0
ENDMDL
