MODEL 1
REMARK minimizedAffinity -6.17557573
REMARK minimizedRMSD -1
REMARK  0 active torsions:
REMARK  status: ('A' for Active; 'I' for Inactive)
ROOT
ATOM      1  N1  IND d   1       1.799  -1.202   1.254  0.00  0.00    -0.196 N 
ATOM      2  C2  IND d   1       1.276  -1.371   0.002  0.00  0.00     0.054 A 
ATOM      3  C3  IND d   1       0.185  -0.590  -0.161  0.00  0.00    -0.031 A 
ATOM      4  C4  IND d   1      -0.860   1.119   1.457  0.00  0.00     0.051 A 
ATOM      5  C5  IND d   1      -0.756   1.597   2.733  0.00  0.00    -0.031 A 
ATOM      6  C6  IND d   1       0.227   1.161   3.597  0.00  0.00     0.015 A 
ATOM      7  C7  IND d   1       1.153   0.233   3.213  0.00  0.00    -0.016 A 
ATOM      8  C8  IND d   1       1.046  -0.261   1.920  0.00  0.00    -0.047 A 
ATOM      9  C9  IND d   1       0.025   0.147   1.052  0.00  0.00    -0.096 A 
ATOM     10  HN1 IND d   1       2.483  -1.615   1.572  0.00  0.00     0.298 HD
ENDROOT
TORSDOF 0
ENDMDL
