MODEL 1
REMARK minimizedAffinity -4.01859188
REMARK minimizedRMSD -1
REMARK  0 active torsions:
REMARK  status: ('A' for Active; 'I' for Inactive)
ROOT
ATOM      1  N1  IND d   1       5.628   2.709   5.262  0.00  0.00    -0.196 N 
ATOM      2  C2  IND d   1       5.430   1.572   4.530  0.00  0.00     0.054 A 
ATOM      3  C3  IND d   1       4.949   1.878   3.305  0.00  0.00    -0.031 A 
ATOM      4  C4  IND d   1       4.508   4.185   2.251  0.00  0.00     0.051 A 
ATOM      5  C5  IND d   1       4.504   5.520   2.544  0.00  0.00    -0.031 A 
ATOM      6  C6  IND d   1       4.885   5.996   3.782  0.00  0.00     0.015 A 
ATOM      7  C7  IND d   1       5.297   5.152   4.774  0.00  0.00    -0.016 A 
ATOM      8  C8  IND d   1       5.295   3.795   4.482  0.00  0.00    -0.047 A 
ATOM      9  C9  IND d   1       4.869   3.303   3.242  0.00  0.00    -0.096 A 
ATOM     10  HN1 IND d   1       5.913   2.741   6.073  0.00  0.00     0.298 HD
ENDROOT
TORSDOF 0
ENDMDL
