MODEL 1
REMARK minimizedAffinity 10.0124912
REMARK minimizedRMSD -1
REMARK  0 active torsions:
REMARK  status: ('A' for Active; 'I' for Inactive)
ROOT
ATOM      1  C   UNL d   1       0.611  -0.537  -4.264  0.00  0.00     0.077 C 
ATOM      2  C1  UNL d   1      -0.289  -1.709  -4.003  0.00  0.00    -0.074 A 
ATOM      3  C2  UNL d   1      -0.748  -1.990  -2.712  0.00  0.00    -0.005 A 
ATOM      4  C3  UNL d   1      -1.591  -3.077  -2.487  0.00  0.00     0.006 A 
ATOM      5  C4  UNL d   1      -1.984  -3.894  -3.549  0.00  0.00    -0.005 A 
ATOM      6  C5  UNL d   1      -1.536  -3.628  -4.846  0.00  0.00    -0.074 A 
ATOM      7  C6  UNL d   1      -1.957  -4.489  -6.000  0.00  0.00     0.077 C 
ATOM      8  C7  UNL d   1      -0.694  -2.529  -5.066  0.00  0.00    -0.001 A 
ENDROOT
TORSDOF 0
ENDMDL
