MODEL 1
REMARK minimizedAffinity 15.6265345
REMARK minimizedRMSD -1
REMARK  0 active torsions:
REMARK  status: ('A' for Active; 'I' for Inactive)
ROOT
ATOM      1  C   UNL d   1       0.340   0.048  -3.724  0.00  0.00     0.077 C 
ATOM      2  C1  UNL d   1       0.459  -1.272  -4.426  0.00  0.00    -0.074 A 
ATOM      3  C2  UNL d   1       1.708  -1.868  -4.629  0.00  0.00    -0.005 A 
ATOM      4  C3  UNL d   1       1.803  -3.100  -5.276  0.00  0.00     0.006 A 
ATOM      5  C4  UNL d   1       0.652  -3.747  -5.726  0.00  0.00    -0.005 A 
ATOM      6  C5  UNL d   1      -0.606  -3.168  -5.531  0.00  0.00    -0.074 A 
ATOM      7  C6  UNL d   1      -1.853  -3.855  -6.000  0.00  0.00     0.077 C 
ATOM      8  C7  UNL d   1      -0.693  -1.933  -4.874  0.00  0.00    -0.001 A 
ENDROOT
TORSDOF 0
ENDMDL
