MODEL 1
REMARK minimizedAffinity 0.704843998
REMARK minimizedRMSD -1
REMARK  0 active torsions:
REMARK  status: ('A' for Active; 'I' for Inactive)
ROOT
ATOM      1  C   UNL d   1       3.526   0.897   3.658  0.00  0.00     0.077 C 
ATOM      2  C1  UNL d   1       3.012  -0.481   3.952  0.00  0.00    -0.074 A 
ATOM      3  C2  UNL d   1       1.824  -0.943   3.376  0.00  0.00    -0.005 A 
ATOM      4  C3  UNL d   1       1.363  -2.230   3.652  0.00  0.00     0.006 A 
ATOM      5  C4  UNL d   1       2.084  -3.067   4.504  0.00  0.00    -0.005 A 
ATOM      6  C5  UNL d   1       3.275  -2.623   5.088  0.00  0.00    -0.074 A 
ATOM      7  C6  UNL d   1       4.067  -3.513   5.999  0.00  0.00     0.077 C 
ATOM      8  C7  UNL d   1       3.735  -1.330   4.801  0.00  0.00    -0.001 A 
ENDROOT
TORSDOF 0
ENDMDL
