MODEL 1
REMARK minimizedAffinity 6.93050766
REMARK minimizedRMSD -1
REMARK  0 active torsions:
REMARK  status: ('A' for Active; 'I' for Inactive)
ROOT
ATOM      1  C   UNL d   1      -0.911  -1.584  -4.877  0.00  0.00     0.077 C 
ATOM      2  C1  UNL d   1      -0.847  -3.082  -4.895  0.00  0.00    -0.074 A 
ATOM      3  C2  UNL d   1      -0.009  -3.755  -5.790  0.00  0.00    -0.005 A 
ATOM      4  C3  UNL d   1       0.047  -5.149  -5.788  0.00  0.00     0.006 A 
ATOM      5  C4  UNL d   1      -0.734  -5.883  -4.894  0.00  0.00    -0.005 A 
ATOM      6  C5  UNL d   1      -1.577  -5.227  -3.991  0.00  0.00    -0.074 A 
ATOM      7  C6  UNL d   1      -2.415  -6.000  -3.016  0.00  0.00     0.077 C 
ATOM      8  C7  UNL d   1      -1.622  -3.826  -3.994  0.00  0.00    -0.001 A 
ENDROOT
TORSDOF 0
ENDMDL
