MODEL 1
REMARK minimizedAffinity 6.48525763
REMARK minimizedRMSD -1
REMARK  0 active torsions:
REMARK  status: ('A' for Active; 'I' for Inactive)
ROOT
ATOM      1  C   UNL d   1       0.093  -0.765  -5.999  0.00  0.00     0.077 C 
ATOM      2  C1  UNL d   1      -0.627  -1.702  -5.075  0.00  0.00    -0.074 A 
ATOM      3  C2  UNL d   1      -0.904  -1.337  -3.753  0.00  0.00    -0.005 A 
ATOM      4  C3  UNL d   1      -1.583  -2.215  -2.908  0.00  0.00     0.006 A 
ATOM      5  C4  UNL d   1      -1.991  -3.465  -3.375  0.00  0.00    -0.005 A 
ATOM      6  C5  UNL d   1      -1.724  -3.847  -4.694  0.00  0.00    -0.074 A 
ATOM      7  C6  UNL d   1      -2.164  -5.183  -5.215  0.00  0.00     0.077 C 
ATOM      8  C7  UNL d   1      -1.048  -2.956  -5.539  0.00  0.00    -0.001 A 
ENDROOT
TORSDOF 0
ENDMDL
