MODEL 1
REMARK minimizedAffinity 10.7800522
REMARK minimizedRMSD -1
REMARK  0 active torsions:
REMARK  status: ('A' for Active; 'I' for Inactive)
ROOT
ATOM      1  C   UNL d   1       0.736  -0.489  -4.173  0.00  0.00     0.077 C 
ATOM      2  C1  UNL d   1      -0.193  -1.627  -3.870  0.00  0.00    -0.074 A 
ATOM      3  C2  UNL d   1      -0.491  -1.980  -2.550  0.00  0.00    -0.005 A 
ATOM      4  C3  UNL d   1      -1.364  -3.034  -2.284  0.00  0.00     0.006 A 
ATOM      5  C4  UNL d   1      -1.948  -3.745  -3.333  0.00  0.00    -0.005 A 
ATOM      6  C5  UNL d   1      -1.663  -3.406  -4.659  0.00  0.00    -0.074 A 
ATOM      7  C6  UNL d   1      -2.289  -4.154  -5.799  0.00  0.00     0.077 C 
ATOM      8  C7  UNL d   1      -0.790  -2.341  -4.919  0.00  0.00    -0.001 A 
ENDROOT
TORSDOF 0
ENDMDL
