MODEL 1
REMARK minimizedAffinity 6.18089008
REMARK minimizedRMSD -1
REMARK  0 active torsions:
REMARK  status: ('A' for Active; 'I' for Inactive)
ROOT
ATOM      1  C   UNL d   1      -0.305  -0.689  -6.000  0.00  0.00     0.077 C 
ATOM      2  C1  UNL d   1      -0.020  -0.966  -4.554  0.00  0.00    -0.074 A 
ATOM      3  C2  UNL d   1       1.148  -0.491  -3.948  0.00  0.00    -0.005 A 
ATOM      4  C3  UNL d   1       1.395  -0.748  -2.599  0.00  0.00     0.006 A 
ATOM      5  C4  UNL d   1       0.478  -1.482  -1.844  0.00  0.00    -0.005 A 
ATOM      6  C5  UNL d   1      -0.695  -1.964  -2.433  0.00  0.00    -0.074 A 
ATOM      7  C6  UNL d   1      -1.695  -2.745  -1.634  0.00  0.00     0.077 C 
ATOM      8  C7  UNL d   1      -0.939  -1.695  -3.787  0.00  0.00    -0.001 A 
ENDROOT
TORSDOF 0
ENDMDL
