MODEL 1
REMARK minimizedAffinity 8.80844688
REMARK minimizedRMSD -1
REMARK  0 active torsions:
REMARK  status: ('A' for Active; 'I' for Inactive)
ROOT
ATOM      1  C   UNL d   1       4.365   0.937   4.397  0.00  0.00     0.077 C 
ATOM      2  C1  UNL d   1       3.811  -0.454   4.488  0.00  0.00    -0.074 A 
ATOM      3  C2  UNL d   1       2.541  -0.756   3.987  0.00  0.00    -0.005 A 
ATOM      4  C3  UNL d   1       2.043  -2.056   4.070  0.00  0.00     0.006 A 
ATOM      5  C4  UNL d   1       2.809  -3.066   4.653  0.00  0.00    -0.005 A 
ATOM      6  C5  UNL d   1       4.082  -2.783   5.158  0.00  0.00    -0.074 A 
ATOM      7  C6  UNL d   1       4.923  -3.859   5.778  0.00  0.00     0.077 C 
ATOM      8  C7  UNL d   1       4.578  -1.475   5.065  0.00  0.00    -0.001 A 
ENDROOT
TORSDOF 0
ENDMDL
