MODEL 1
REMARK minimizedAffinity -1.36134601
REMARK minimizedRMSD -1
REMARK  1 active torsions:
REMARK  status: ('A' for Active; 'I' for Inactive)
REMARK    1  A    between atoms: C1_2  and  C2_3 
ROOT
ATOM      1  C2  UNL d   1      -0.521  -0.450  -0.209  0.00  0.00    -0.077 A 
ATOM      2  C3  UNL d   1       0.254   0.641   0.209  0.00  0.00     0.002 A 
ATOM      3  C4  UNL d   1       1.630   0.501   0.394  0.00  0.00     0.002 A 
ATOM      4  C5  UNL d   1       2.245  -0.727   0.157  0.00  0.00    -0.004 A 
ATOM      5  C6  UNL d   1       1.483  -1.819  -0.257  0.00  0.00     0.002 A 
ATOM      6  C7  UNL d   1       0.107  -1.680  -0.441  0.00  0.00     0.002 A 
ENDROOT
BRANCH   1   7
ATOM      7  C1  UNL d   1      -1.998  -0.287  -0.456  0.00  0.00     0.055 C 
ATOM      8  C   UNL d   1      -2.681   0.412   0.710  0.00  0.00     0.019 C 
ENDBRANCH   1   7
TORSDOF 1
ENDMDL
