MODEL 1
REMARK minimizedAffinity -4.75151777
REMARK minimizedRMSD -1
REMARK  1 active torsions:
REMARK  status: ('A' for Active; 'I' for Inactive)
REMARK    1  A    between atoms: C1_2  and  C2_3 
ROOT
ATOM      1  C2  UNL d   1       0.535   0.674   0.036  0.00  0.00    -0.077 A 
ATOM      2  C3  UNL d   1       0.728  -0.713  -0.035  0.00  0.00     0.002 A 
ATOM      3  C4  UNL d   1       2.017  -1.245  -0.081  0.00  0.00     0.002 A 
ATOM      4  C5  UNL d   1       3.124  -0.399  -0.052  0.00  0.00    -0.004 A 
ATOM      5  C6  UNL d   1       2.943   0.982   0.016  0.00  0.00     0.002 A 
ATOM      6  C7  UNL d   1       1.654   1.516   0.061  0.00  0.00     0.002 A 
ENDROOT
BRANCH   1   7
ATOM      7  C1  UNL d   1      -0.854   1.248   0.136  0.00  0.00     0.055 C 
ATOM      8  C   UNL d   1      -1.884   0.315  -0.486  0.00  0.00     0.019 C 
ENDBRANCH   1   7
TORSDOF 1
ENDMDL
