MODEL 1
REMARK minimizedAffinity -1.17083466
REMARK minimizedRMSD -1
REMARK  1 active torsions:
REMARK  status: ('A' for Active; 'I' for Inactive)
REMARK    1  A    between atoms: C1_2  and  C2_3 
ROOT
ATOM      1  C2  UNL d   1       0.246  -0.091  -0.444  0.00  0.00    -0.077 A 
ATOM      2  C3  UNL d   1       1.549   0.243  -0.051  0.00  0.00     0.002 A 
ATOM      3  C4  UNL d   1       2.558  -0.722  -0.057  0.00  0.00     0.002 A 
ATOM      4  C5  UNL d   1       2.276  -2.025  -0.459  0.00  0.00    -0.004 A 
ATOM      5  C6  UNL d   1       0.982  -2.368  -0.849  0.00  0.00     0.002 A 
ATOM      6  C7  UNL d   1      -0.028  -1.406  -0.843  0.00  0.00     0.002 A 
ENDROOT
BRANCH   1   7
ATOM      7  C1  UNL d   1      -0.832   0.960  -0.485  0.00  0.00     0.055 C 
ATOM      8  C   UNL d   1      -2.218   0.334  -0.431  0.00  0.00     0.019 C 
ENDBRANCH   1   7
TORSDOF 1
ENDMDL
