MODEL 1
REMARK minimizedAffinity -0.935046136
REMARK minimizedRMSD -1
REMARK  1 active torsions:
REMARK  status: ('A' for Active; 'I' for Inactive)
REMARK    1  A    between atoms: C1_2  and  C2_3 
ROOT
ATOM      1  C2  UNL d   1      -1.822   0.872   0.353  0.00  0.00    -0.077 A 
ATOM      2  C3  UNL d   1      -2.067   2.183   0.784  0.00  0.00     0.002 A 
ATOM      3  C4  UNL d   1      -3.189   2.473   1.563  0.00  0.00     0.002 A 
ATOM      4  C5  UNL d   1      -4.072   1.456   1.920  0.00  0.00    -0.004 A 
ATOM      5  C6  UNL d   1      -3.839   0.149   1.494  0.00  0.00     0.002 A 
ATOM      6  C7  UNL d   1      -2.718  -0.142   0.715  0.00  0.00     0.002 A 
ENDROOT
BRANCH   1   7
ATOM      7  C1  UNL d   1      -0.586   0.549  -0.445  0.00  0.00     0.055 C 
ATOM      8  C   UNL d   1      -0.224  -0.925  -0.335  0.00  0.00     0.019 C 
ENDBRANCH   1   7
TORSDOF 1
ENDMDL
