MODEL 1
REMARK minimizedAffinity -3.23083496
REMARK minimizedRMSD -1
REMARK  1 active torsions:
REMARK  status: ('A' for Active; 'I' for Inactive)
REMARK    1  A    between atoms: C1_2  and  C2_3 
ROOT
ATOM      1  C2  UNL d   1       0.894  -0.407  -0.250  0.00  0.00    -0.077 A 
ATOM      2  C3  UNL d   1      -0.370  -0.686  -0.788  0.00  0.00     0.002 A 
ATOM      3  C4  UNL d   1      -1.329   0.323  -0.899  0.00  0.00     0.002 A 
ATOM      4  C5  UNL d   1      -1.032   1.618  -0.478  0.00  0.00    -0.004 A 
ATOM      5  C6  UNL d   1       0.222   1.905   0.060  0.00  0.00     0.002 A 
ATOM      6  C7  UNL d   1       1.181   0.898   0.173  0.00  0.00     0.002 A 
ENDROOT
BRANCH   1   7
ATOM      7  C1  UNL d   1       1.946  -1.482  -0.175  0.00  0.00     0.055 C 
ATOM      8  C   UNL d   1       3.346  -0.897  -0.290  0.00  0.00     0.019 C 
ENDBRANCH   1   7
TORSDOF 1
ENDMDL
