MODEL 1
REMARK minimizedAffinity 1.13630629
REMARK minimizedRMSD -1
REMARK  1 active torsions:
REMARK  status: ('A' for Active; 'I' for Inactive)
REMARK    1  A    between atoms: C1_2  and  C2_3 
ROOT
ATOM      1  C2  UNL d   1      -1.944   0.290  -0.046  0.00  0.00    -0.077 A 
ATOM      2  C3  UNL d   1      -3.168   0.684  -0.606  0.00  0.00     0.002 A 
ATOM      3  C4  UNL d   1      -4.301   0.823   0.198  0.00  0.00     0.002 A 
ATOM      4  C5  UNL d   1      -4.221   0.573   1.567  0.00  0.00    -0.004 A 
ATOM      5  C6  UNL d   1      -3.009   0.179   2.133  0.00  0.00     0.002 A 
ATOM      6  C7  UNL d   1      -1.876   0.039   1.331  0.00  0.00     0.002 A 
ENDROOT
BRANCH   1   7
ATOM      7  C1  UNL d   1      -0.710   0.188  -0.903  0.00  0.00     0.055 C 
ATOM      8  C   UNL d   1       0.333  -0.718  -0.265  0.00  0.00     0.019 C 
ENDBRANCH   1   7
TORSDOF 1
ENDMDL
