MODEL 1
REMARK minimizedAffinity -3.78022218
REMARK minimizedRMSD -1
REMARK  3 active torsions:
REMARK  status: ('A' for Active; 'I' for Inactive)
REMARK    1  A    between atoms: C3'_2  and  C2'_3 
REMARK    2  A    between atoms: C2'_3  and  C1'_4 
REMARK    3  A    between atoms: C1'_4  and  C1_5 
ROOT
ATOM      1  C1  N4B d   1       0.144   0.059   1.179  0.00  0.00    -0.075 A 
ATOM      2  C2  N4B d   1       1.070  -0.933   1.571  0.00  0.00     0.002 A 
ATOM      3  C3  N4B d   1       1.419  -1.931   0.695  0.00  0.00     0.002 A 
ATOM      4  C4  N4B d   1       0.844  -1.970  -0.566  0.00  0.00    -0.004 A 
ATOM      5  C5  N4B d   1      -0.031  -0.994  -0.946  0.00  0.00     0.002 A 
ATOM      6  C6  N4B d   1      -0.388   0.018  -0.078  0.00  0.00     0.002 A 
ENDROOT
BRANCH   1   7
ATOM      7  C1' N4B d   1      -0.333   1.121   2.131  0.00  0.00     0.057 C 
BRANCH   7   8
ATOM      8  C2' N4B d   1      -1.066   0.458   3.294  0.00  0.00     0.009 C 
BRANCH   8   9
ATOM      9  C3' N4B d   1      -2.184   1.333   3.833  0.00  0.00     0.004 C 
ATOM     10  C4' N4B d   1      -2.344   2.611   3.065  0.00  0.00     0.003 C 
ENDBRANCH   8   9
ENDBRANCH   7   8
ENDBRANCH   1   7
TORSDOF 3
ENDMDL
