MODEL 1
REMARK minimizedAffinity -5.29412985
REMARK minimizedRMSD -1
REMARK  3 active torsions:
REMARK  status: ('A' for Active; 'I' for Inactive)
REMARK    1  A    between atoms: C3'_2  and  C2'_3 
REMARK    2  A    between atoms: C2'_3  and  C1'_4 
REMARK    3  A    between atoms: C1'_4  and  C1_5 
ROOT
ATOM      1  C1  N4B d   1      -1.938  -0.179   1.352  0.00  0.00    -0.075 A 
ATOM      2  C2  N4B d   1      -3.171  -0.575   1.916  0.00  0.00     0.002 A 
ATOM      3  C3  N4B d   1      -3.581  -0.038   3.112  0.00  0.00     0.002 A 
ATOM      4  C4  N4B d   1      -2.771   0.876   3.768  0.00  0.00    -0.004 A 
ATOM      5  C5  N4B d   1      -1.594   1.272   3.204  0.00  0.00     0.002 A 
ATOM      6  C6  N4B d   1      -1.170   0.744   2.000  0.00  0.00     0.002 A 
ENDROOT
BRANCH   1   7
ATOM      7  C1' N4B d   1      -1.406  -0.802   0.090  0.00  0.00     0.057 C 
BRANCH   7   8
ATOM      8  C2' N4B d   1       0.022  -0.319  -0.144  0.00  0.00     0.009 C 
BRANCH   8   9
ATOM      9  C3' N4B d   1       0.965  -1.468  -0.459  0.00  0.00     0.004 C 
ATOM     10  C4' N4B d   1       1.969  -1.121  -1.518  0.00  0.00     0.003 C 
ENDBRANCH   8   9
ENDBRANCH   7   8
ENDBRANCH   1   7
TORSDOF 3
ENDMDL
