MODEL 1
REMARK minimizedAffinity -2.24953747
REMARK minimizedRMSD -1
REMARK  3 active torsions:
REMARK  status: ('A' for Active; 'I' for Inactive)
REMARK    1  A    between atoms: C3'_2  and  C2'_3 
REMARK    2  A    between atoms: C2'_3  and  C1'_4 
REMARK    3  A    between atoms: C1'_4  and  C1_5 
ROOT
ATOM      1  C1  N4B d   1      -1.259   0.391   1.273  0.00  0.00    -0.075 A 
ATOM      2  C2  N4B d   1      -0.549   1.262   2.129  0.00  0.00     0.002 A 
ATOM      3  C3  N4B d   1      -1.049   1.558   3.373  0.00  0.00     0.002 A 
ATOM      4  C4  N4B d   1      -2.260   1.014   3.774  0.00  0.00    -0.004 A 
ATOM      5  C5  N4B d   1      -2.926   0.154   2.951  0.00  0.00     0.002 A 
ATOM      6  C6  N4B d   1      -2.434  -0.157   1.699  0.00  0.00     0.002 A 
ENDROOT
BRANCH   1   7
ATOM      7  C1' N4B d   1      -0.796   0.105  -0.130  0.00  0.00     0.057 C 
BRANCH   7   8
ATOM      8  C2' N4B d   1      -0.766  -1.405  -0.349  0.00  0.00     0.009 C 
BRANCH   8   9
ATOM      9  C3' N4B d   1      -1.767  -1.846  -1.402  0.00  0.00     0.004 C 
ATOM     10  C4' N4B d   1      -2.647  -2.966  -0.934  0.00  0.00     0.003 C 
ENDBRANCH   8   9
ENDBRANCH   7   8
ENDBRANCH   1   7
TORSDOF 3
ENDMDL
