MODEL 1
REMARK minimizedAffinity -5.69876957
REMARK minimizedRMSD -1
REMARK  3 active torsions:
REMARK  status: ('A' for Active; 'I' for Inactive)
REMARK    1  A    between atoms: C3'_2  and  C2'_3 
REMARK    2  A    between atoms: C2'_3  and  C1'_4 
REMARK    3  A    between atoms: C1'_4  and  C1_5 
ROOT
ATOM      1  C1  N4B d   1       0.247  -2.163  -0.282  0.00  0.00    -0.075 A 
ATOM      2  C2  N4B d   1       1.409  -2.411  -1.046  0.00  0.00     0.002 A 
ATOM      3  C3  N4B d   1       2.246  -1.375  -1.380  0.00  0.00     0.002 A 
ATOM      4  C4  N4B d   1       1.934  -0.085  -0.978  0.00  0.00    -0.004 A 
ATOM      5  C5  N4B d   1       0.824   0.143  -0.218  0.00  0.00     0.002 A 
ATOM      6  C6  N4B d   1      -0.024  -0.890   0.128  0.00  0.00     0.002 A 
ENDROOT
BRANCH   1   7
ATOM      7  C1' N4B d   1      -0.743  -3.250   0.035  0.00  0.00     0.057 C 
BRANCH   7   8
ATOM      8  C2' N4B d   1      -2.138  -2.794  -0.383  0.00  0.00     0.009 C 
BRANCH   8   9
ATOM      9  C3' N4B d   1      -2.925  -3.909  -1.049  0.00  0.00     0.004 C 
ATOM     10  C4' N4B d   1      -2.834  -5.208  -0.306  0.00  0.00     0.003 C 
ENDBRANCH   8   9
ENDBRANCH   7   8
ENDBRANCH   1   7
TORSDOF 3
ENDMDL
