MODEL 1
REMARK minimizedAffinity -4.94494963
REMARK minimizedRMSD -1
REMARK  3 active torsions:
REMARK  status: ('A' for Active; 'I' for Inactive)
REMARK    1  A    between atoms: C3'_2  and  C2'_3 
REMARK    2  A    between atoms: C2'_3  and  C1'_4 
REMARK    3  A    between atoms: C1'_4  and  C1_5 
ROOT
ATOM      1  C1  N4B d   1       5.327   2.662   3.510  0.00  0.00    -0.075 A 
ATOM      2  C2  N4B d   1       5.313   3.137   2.180  0.00  0.00     0.002 A 
ATOM      3  C3  N4B d   1       5.495   4.474   1.927  0.00  0.00     0.002 A 
ATOM      4  C4  N4B d   1       5.673   5.354   2.984  0.00  0.00    -0.004 A 
ATOM      5  C5  N4B d   1       5.712   4.884   4.264  0.00  0.00     0.002 A 
ATOM      6  C6  N4B d   1       5.534   3.541   4.533  0.00  0.00     0.002 A 
ENDROOT
BRANCH   1   7
ATOM      7  C1' N4B d   1       5.047   1.221   3.842  0.00  0.00     0.057 C 
BRANCH   7   8
ATOM      8  C2' N4B d   1       5.717   0.873   5.168  0.00  0.00     0.009 C 
BRANCH   8   9
ATOM      9  C3' N4B d   1       4.944  -0.187   5.933  0.00  0.00     0.004 C 
ATOM     10  C4' N4B d   1       5.667  -1.499   5.998  0.00  0.00     0.003 C 
ENDBRANCH   8   9
ENDBRANCH   7   8
ENDBRANCH   1   7
TORSDOF 3
ENDMDL
