MODEL 1
REMARK minimizedAffinity 0.26251623
REMARK minimizedRMSD -1
REMARK  3 active torsions:
REMARK  status: ('A' for Active; 'I' for Inactive)
REMARK    1  A    between atoms: C3'_2  and  C2'_3 
REMARK    2  A    between atoms: C2'_3  and  C1'_4 
REMARK    3  A    between atoms: C1'_4  and  C1_5 
ROOT
ATOM      1  C1  N4B d   1      -2.794  -1.263   2.504  0.00  0.00    -0.075 A 
ATOM      2  C2  N4B d   1      -2.061  -0.072   2.307  0.00  0.00     0.002 A 
ATOM      3  C3  N4B d   1      -1.503   0.575   3.382  0.00  0.00     0.002 A 
ATOM      4  C4  N4B d   1      -1.681   0.064   4.659  0.00  0.00    -0.004 A 
ATOM      5  C5  N4B d   1      -2.369  -1.100   4.837  0.00  0.00     0.002 A 
ATOM      6  C6  N4B d   1      -2.932  -1.764   3.766  0.00  0.00     0.002 A 
ENDROOT
BRANCH   1   7
ATOM      7  C1' N4B d   1      -3.495  -1.960   1.370  0.00  0.00     0.057 C 
BRANCH   7   8
ATOM      8  C2' N4B d   1      -2.838  -1.559   0.052  0.00  0.00     0.009 C 
BRANCH   8   9
ATOM      9  C3' N4B d   1      -3.619  -2.062  -1.149  0.00  0.00     0.004 C 
ATOM     10  C4' N4B d   1      -3.285  -3.480  -1.507  0.00  0.00     0.003 C 
ENDBRANCH   8   9
ENDBRANCH   7   8
ENDBRANCH   1   7
TORSDOF 3
ENDMDL
