MODEL 1
REMARK minimizedAffinity 0.963670373
REMARK minimizedRMSD -1
REMARK  3 active torsions:
REMARK  status: ('A' for Active; 'I' for Inactive)
REMARK    1  A    between atoms: C3'_2  and  C2'_3 
REMARK    2  A    between atoms: C2'_3  and  C1'_4 
REMARK    3  A    between atoms: C1'_4  and  C1_5 
ROOT
ATOM      1  C1  N4B d   1       4.614   3.490   3.982  0.00  0.00    -0.075 A 
ATOM      2  C2  N4B d   1       4.201   4.082   2.768  0.00  0.00     0.002 A 
ATOM      3  C3  N4B d   1       4.696   5.308   2.399  0.00  0.00     0.002 A 
ATOM      4  C4  N4B d   1       5.586   5.968   3.233  0.00  0.00    -0.004 A 
ATOM      5  C5  N4B d   1       6.000   5.378   4.392  0.00  0.00     0.002 A 
ATOM      6  C6  N4B d   1       5.513   4.144   4.774  0.00  0.00     0.002 A 
ENDROOT
BRANCH   1   7
ATOM      7  C1' N4B d   1       4.034   2.190   4.469  0.00  0.00     0.057 C 
BRANCH   7   8
ATOM      8  C2' N4B d   1       5.088   1.446   5.284  0.00  0.00     0.009 C 
BRANCH   8   9
ATOM      9  C3' N4B d   1       4.897  -0.059   5.222  0.00  0.00     0.004 C 
ATOM     10  C4' N4B d   1       6.000  -0.814   5.903  0.00  0.00     0.003 C 
ENDBRANCH   8   9
ENDBRANCH   7   8
ENDBRANCH   1   7
TORSDOF 3
ENDMDL
