MODEL 1
REMARK minimizedAffinity -5.0809207
REMARK minimizedRMSD -1
REMARK  3 active torsions:
REMARK  status: ('A' for Active; 'I' for Inactive)
REMARK    1  A    between atoms: C3'_2  and  C2'_3 
REMARK    2  A    between atoms: C2'_3  and  C1'_4 
REMARK    3  A    between atoms: C1'_4  and  C1_5 
ROOT
ATOM      1  C1  N4B d   1       5.667   1.305   3.357  0.00  0.00    -0.075 A 
ATOM      2  C2  N4B d   1       5.199   0.641   2.202  0.00  0.00     0.002 A 
ATOM      3  C3  N4B d   1       4.983  -0.715   2.230  0.00  0.00     0.002 A 
ATOM      4  C4  N4B d   1       5.245  -1.428   3.391  0.00  0.00    -0.004 A 
ATOM      5  C5  N4B d   1       5.673  -0.775   4.510  0.00  0.00     0.002 A 
ATOM      6  C6  N4B d   1       5.891   0.588   4.497  0.00  0.00     0.002 A 
ENDROOT
BRANCH   1   7
ATOM      7  C1' N4B d   1       6.000   2.772   3.350  0.00  0.00     0.057 C 
BRANCH   7   8
ATOM      8  C2' N4B d   1       5.966   3.286   1.914  0.00  0.00     0.009 C 
BRANCH   8   9
ATOM      9  C3' N4B d   1       5.299   4.647   1.813  0.00  0.00     0.004 C 
ATOM     10  C4' N4B d   1       4.577   4.844   0.513  0.00  0.00     0.003 C 
ENDBRANCH   8   9
ENDBRANCH   7   8
ENDBRANCH   1   7
TORSDOF 3
ENDMDL
