MODEL 1
REMARK minimizedAffinity -3.12528729
REMARK minimizedRMSD -1
REMARK  3 active torsions:
REMARK  status: ('A' for Active; 'I' for Inactive)
REMARK    1  A    between atoms: C3'_2  and  C2'_3 
REMARK    2  A    between atoms: C2'_3  and  C1'_4 
REMARK    3  A    between atoms: C1'_4  and  C1_5 
ROOT
ATOM      1  C1  N4B d   1       5.545   2.653   4.679  0.00  0.00    -0.075 A 
ATOM      2  C2  N4B d   1       4.754   2.759   3.514  0.00  0.00     0.002 A 
ATOM      3  C3  N4B d   1       4.439   3.996   3.007  0.00  0.00     0.002 A 
ATOM      4  C4  N4B d   1       4.886   5.137   3.657  0.00  0.00    -0.004 A 
ATOM      5  C5  N4B d   1       5.671   5.026   4.767  0.00  0.00     0.002 A 
ATOM      6  C6  N4B d   1       5.999   3.789   5.285  0.00  0.00     0.002 A 
ENDROOT
BRANCH   1   7
ATOM      7  C1' N4B d   1       5.844   1.325   5.318  0.00  0.00     0.057 C 
BRANCH   7   8
ATOM      8  C2' N4B d   1       5.935   0.256   4.233  0.00  0.00     0.009 C 
BRANCH   8   9
ATOM      9  C3' N4B d   1       5.201  -1.015   4.625  0.00  0.00     0.004 C 
ATOM     10  C4' N4B d   1       5.872  -1.751   5.746  0.00  0.00     0.003 C 
ENDBRANCH   8   9
ENDBRANCH   7   8
ENDBRANCH   1   7
TORSDOF 3
ENDMDL
