MODEL 1
REMARK minimizedAffinity 2.15891719
REMARK minimizedRMSD -1
REMARK  0 active torsions:
REMARK  status: ('A' for Active; 'I' for Inactive)
ROOT
ATOM      1  O1  BZF d   1       0.819  -0.552   3.367  0.00  0.00    -0.204 OA
ATOM      2  C2  BZF d   1       1.524   0.152   2.410  0.00  0.00     0.174 A 
ATOM      3  C3  BZF d   1       2.464  -0.628   1.839  0.00  0.00    -0.012 A 
ATOM      4  C3A BZF d   1       2.277  -1.925   2.414  0.00  0.00    -0.107 A 
ATOM      5  C4  BZF d   1       2.897  -3.129   2.236  0.00  0.00     0.055 A 
ATOM      6  C5  BZF d   1       2.523  -4.185   3.006  0.00  0.00    -0.016 A 
ATOM      7  C6  BZF d   1       1.538  -4.071   3.965  0.00  0.00     0.022 A 
ATOM      8  C7  BZF d   1       0.891  -2.898   4.174  0.00  0.00     0.029 A 
ATOM      9  C7A BZF d   1       1.244  -1.838   3.375  0.00  0.00     0.058 A 
ENDROOT
TORSDOF 0
ENDMDL
