MODEL 1
REMARK minimizedAffinity 9.00139141
REMARK minimizedRMSD -1
REMARK  0 active torsions:
REMARK  status: ('A' for Active; 'I' for Inactive)
ROOT
ATOM      1  O1  BZF d   1      -3.724  -0.303  -3.291  0.00  0.00    -0.204 OA
ATOM      2  C2  BZF d   1      -3.573  -1.651  -3.029  0.00  0.00     0.174 A 
ATOM      3  C3  BZF d   1      -2.846  -1.842  -1.909  0.00  0.00    -0.012 A 
ATOM      4  C3A BZF d   1      -2.600  -0.531  -1.392  0.00  0.00    -0.107 A 
ATOM      5  C4  BZF d   1      -1.943  -0.065  -0.289  0.00  0.00     0.055 A 
ATOM      6  C5  BZF d   1      -1.821   1.277  -0.111  0.00  0.00    -0.016 A 
ATOM      7  C6  BZF d   1      -2.338   2.179  -1.017  0.00  0.00     0.022 A 
ATOM      8  C7  BZF d   1      -3.002   1.765  -2.123  0.00  0.00     0.029 A 
ATOM      9  C7A BZF d   1      -3.156   0.410  -2.289  0.00  0.00     0.058 A 
ENDROOT
TORSDOF 0
ENDMDL
