MODEL 1
REMARK minimizedAffinity 6.47774744
REMARK minimizedRMSD -1
REMARK  0 active torsions:
REMARK  status: ('A' for Active; 'I' for Inactive)
ROOT
ATOM      1  O1  BZF d   1       3.558  -1.316   2.678  0.00  0.00    -0.204 OA
ATOM      2  C2  BZF d   1       2.460  -0.743   2.065  0.00  0.00     0.174 A 
ATOM      3  C3  BZF d   1       1.372  -1.527   2.205  0.00  0.00    -0.012 A 
ATOM      4  C3A BZF d   1       1.795  -2.616   3.030  0.00  0.00    -0.107 A 
ATOM      5  C4  BZF d   1       1.160  -3.714   3.535  0.00  0.00     0.055 A 
ATOM      6  C5  BZF d   1       1.877  -4.624   4.245  0.00  0.00    -0.016 A 
ATOM      7  C6  BZF d   1       3.230  -4.470   4.466  0.00  0.00     0.022 A 
ATOM      8  C7  BZF d   1       3.903  -3.394   3.990  0.00  0.00     0.029 A 
ATOM      9  C7A BZF d   1       3.174  -2.456   3.300  0.00  0.00     0.058 A 
ENDROOT
TORSDOF 0
ENDMDL
