MODEL 1
REMARK minimizedAffinity 7.25495577
REMARK minimizedRMSD -1
REMARK  0 active torsions:
REMARK  status: ('A' for Active; 'I' for Inactive)
ROOT
ATOM      1  O1  BZF d   1      -5.246   5.075   3.453  0.00  0.00    -0.204 OA
ATOM      2  C2  BZF d   1      -4.495   5.755   4.392  0.00  0.00     0.174 A 
ATOM      3  C3  BZF d   1      -3.190   5.436   4.282  0.00  0.00    -0.012 A 
ATOM      4  C3A BZF d   1      -3.108   4.568   3.148  0.00  0.00    -0.107 A 
ATOM      5  C4  BZF d   1      -2.073   3.931   2.526  0.00  0.00     0.055 A 
ATOM      6  C5  BZF d   1      -2.339   3.097   1.486  0.00  0.00    -0.016 A 
ATOM      7  C6  BZF d   1      -3.628   2.873   1.047  0.00  0.00     0.022 A 
ATOM      8  C7  BZF d   1      -4.687   3.486   1.630  0.00  0.00     0.029 A 
ATOM      9  C7A BZF d   1      -4.418   4.355   2.659  0.00  0.00     0.058 A 
ENDROOT
TORSDOF 0
ENDMDL
