MODEL 1
REMARK minimizedAffinity 7.99241829
REMARK minimizedRMSD -1
REMARK  0 active torsions:
REMARK  status: ('A' for Active; 'I' for Inactive)
ROOT
ATOM      1  O1  BZF d   1       1.093  -1.003   2.934  0.00  0.00    -0.204 OA
ATOM      2  C2  BZF d   1       1.926  -0.404   2.009  0.00  0.00     0.174 A 
ATOM      3  C3  BZF d   1       2.756  -1.310   1.454  0.00  0.00    -0.012 A 
ATOM      4  C3A BZF d   1       2.358  -2.570   2.003  0.00  0.00    -0.107 A 
ATOM      5  C4  BZF d   1       2.795  -3.852   1.826  0.00  0.00     0.055 A 
ATOM      6  C5  BZF d   1       2.242  -4.847   2.568  0.00  0.00    -0.016 A 
ATOM      7  C6  BZF d   1       1.255  -4.596   3.499  0.00  0.00     0.022 A 
ATOM      8  C7  BZF d   1       0.786  -3.342   3.707  0.00  0.00     0.029 A 
ATOM      9  C7A BZF d   1       1.319  -2.339   2.935  0.00  0.00     0.058 A 
ENDROOT
TORSDOF 0
ENDMDL
