MODEL 1
REMARK minimizedAffinity 4.99392176
REMARK minimizedRMSD -1
REMARK  0 active torsions:
REMARK  status: ('A' for Active; 'I' for Inactive)
ROOT
ATOM      1  O1  BZF d   1       1.580  -5.961  -4.460  0.00  0.00    -0.204 OA
ATOM      2  C2  BZF d   1       1.886  -5.998  -5.806  0.00  0.00     0.174 A 
ATOM      3  C3  BZF d   1       3.221  -5.957  -5.994  0.00  0.00    -0.012 A 
ATOM      4  C3A BZF d   1       3.787  -5.982  -4.680  0.00  0.00    -0.107 A 
ATOM      5  C4  BZF d   1       5.069  -5.977  -4.210  0.00  0.00     0.055 A 
ATOM      6  C5  BZF d   1       5.281  -5.933  -2.869  0.00  0.00    -0.016 A 
ATOM      7  C6  BZF d   1       4.235  -5.888  -1.970  0.00  0.00     0.022 A 
ATOM      8  C7  BZF d   1       2.946  -5.897  -2.388  0.00  0.00     0.029 A 
ATOM      9  C7A BZF d   1       2.729  -5.974  -3.743  0.00  0.00     0.058 A 
ENDROOT
TORSDOF 0
ENDMDL
