MODEL 1
REMARK minimizedAffinity 13.5485048
REMARK minimizedRMSD -1
REMARK  0 active torsions:
REMARK  status: ('A' for Active; 'I' for Inactive)
ROOT
ATOM      1  O1  BZF d   1       2.914  -4.408   2.230  0.00  0.00    -0.204 OA
ATOM      2  C2  BZF d   1       2.018  -5.303   2.783  0.00  0.00     0.174 A 
ATOM      3  C3  BZF d   1       1.008  -4.652   3.395  0.00  0.00    -0.012 A 
ATOM      4  C3A BZF d   1       1.241  -3.264   3.133  0.00  0.00    -0.107 A 
ATOM      5  C4  BZF d   1       0.572  -2.121   3.465  0.00  0.00     0.055 A 
ATOM      6  C5  BZF d   1       1.104  -0.920   3.117  0.00  0.00    -0.016 A 
ATOM      7  C6  BZF d   1       2.304  -0.825   2.443  0.00  0.00     0.022 A 
ATOM      8  C7  BZF d   1       3.001  -1.932   2.088  0.00  0.00     0.029 A 
ATOM      9  C7A BZF d   1       2.450  -3.148   2.409  0.00  0.00     0.058 A 
ENDROOT
TORSDOF 0
ENDMDL
