MODEL 1
REMARK minimizedAffinity 7.0826807
REMARK minimizedRMSD -1
REMARK  0 active torsions:
REMARK  status: ('A' for Active; 'I' for Inactive)
ROOT
ATOM      1  O1  BZF d   1       3.000  -4.948   5.918  0.00  0.00    -0.204 OA
ATOM      2  C2  BZF d   1       1.874  -5.743   5.999  0.00  0.00     0.174 A 
ATOM      3  C3  BZF d   1       0.910  -5.294   5.170  0.00  0.00    -0.012 A 
ATOM      4  C3A BZF d   1       1.501  -4.200   4.462  0.00  0.00    -0.107 A 
ATOM      5  C4  BZF d   1       1.048  -3.356   3.490  0.00  0.00     0.055 A 
ATOM      6  C5  BZF d   1       1.852  -2.346   3.064  0.00  0.00    -0.016 A 
ATOM      7  C6  BZF d   1       3.111  -2.149   3.592  0.00  0.00     0.022 A 
ATOM      8  C7  BZF d   1       3.606  -2.964   4.555  0.00  0.00     0.029 A 
ATOM      9  C7A BZF d   1       2.809  -4.005   4.964  0.00  0.00     0.058 A 
ENDROOT
TORSDOF 0
ENDMDL
