MODEL 1
REMARK minimizedAffinity 3.90682101
REMARK minimizedRMSD -1
REMARK  0 active torsions:
REMARK  status: ('A' for Active; 'I' for Inactive)
ROOT
ATOM      1  O1  BZF d   1       5.032  -5.891  -3.524  0.00  0.00    -0.204 OA
ATOM      2  C2  BZF d   1       5.701  -5.905  -4.733  0.00  0.00     0.174 A 
ATOM      3  C3  BZF d   1       4.831  -5.998  -5.759  0.00  0.00    -0.012 A 
ATOM      4  C3A BZF d   1       3.533  -5.953  -5.159  0.00  0.00    -0.107 A 
ATOM      5  C4  BZF d   1       2.264  -5.988  -5.662  0.00  0.00     0.055 A 
ATOM      6  C5  BZF d   1       1.213  -5.998  -4.802  0.00  0.00    -0.016 A 
ATOM      7  C6  BZF d   1       1.393  -5.979  -3.434  0.00  0.00     0.022 A 
ATOM      8  C7  BZF d   1       2.633  -5.939  -2.888  0.00  0.00     0.029 A 
ATOM      9  C7A BZF d   1       3.697  -5.895  -3.756  0.00  0.00     0.058 A 
ENDROOT
TORSDOF 0
ENDMDL
