MODEL 1
REMARK minimizedAffinity -5.47895432
REMARK minimizedRMSD -1
REMARK  0 active torsions:
REMARK  status: ('A' for Active; 'I' for Inactive)
ROOT
ATOM      1  C   UNL d   1      -0.101  -0.019  -0.738  0.00  0.00     0.078 C 
ATOM      2  C1  UNL d   1      -0.861  -0.175   0.546  0.00  0.00    -0.077 A 
ATOM      3  C2  UNL d   1      -2.171   0.304   0.672  0.00  0.00    -0.001 A 
ATOM      4  C3  UNL d   1      -2.862   0.160   1.876  0.00  0.00     0.003 A 
ATOM      5  C4  UNL d   1      -2.252  -0.461   2.963  0.00  0.00    -0.005 A 
ATOM      6  C5  UNL d   1      -0.948  -0.938   2.849  0.00  0.00     0.003 A 
ATOM      7  C6  UNL d   1      -0.255  -0.796   1.645  0.00  0.00    -0.001 A 
ENDROOT
TORSDOF 0
ENDMDL
