MODEL 1
REMARK minimizedAffinity -4.35638618
REMARK minimizedRMSD -1
REMARK  0 active torsions:
REMARK  status: ('A' for Active; 'I' for Inactive)
ROOT
ATOM      1  C   UNL d   1      -0.921  -0.096   2.966  0.00  0.00     0.078 C 
ATOM      2  C1  UNL d   1      -0.229  -0.111   1.636  0.00  0.00    -0.077 A 
ATOM      3  C2  UNL d   1       1.167  -0.035   1.548  0.00  0.00    -0.001 A 
ATOM      4  C3  UNL d   1       1.797  -0.041   0.303  0.00  0.00     0.003 A 
ATOM      5  C4  UNL d   1       1.039  -0.121  -0.864  0.00  0.00    -0.005 A 
ATOM      6  C5  UNL d   1      -0.350  -0.195  -0.787  0.00  0.00     0.003 A 
ATOM      7  C6  UNL d   1      -0.982  -0.189   0.458  0.00  0.00    -0.001 A 
ENDROOT
TORSDOF 0
ENDMDL
