MODEL 1
REMARK minimizedAffinity -3.74659157
REMARK minimizedRMSD -1
REMARK  0 active torsions:
REMARK  status: ('A' for Active; 'I' for Inactive)
ROOT
ATOM      1  C   UNL d   1      -3.222   0.395   2.207  0.00  0.00     0.078 C 
ATOM      2  C1  UNL d   1      -1.820  -0.078   1.968  0.00  0.00    -0.077 A 
ATOM      3  C2  UNL d   1      -1.253  -0.039   0.688  0.00  0.00    -0.001 A 
ATOM      4  C3  UNL d   1       0.050  -0.492   0.478  0.00  0.00     0.003 A 
ATOM      5  C4  UNL d   1       0.798  -0.988   1.544  0.00  0.00    -0.005 A 
ATOM      6  C5  UNL d   1       0.242  -1.033   2.821  0.00  0.00     0.003 A 
ATOM      7  C6  UNL d   1      -1.061  -0.581   3.032  0.00  0.00    -0.001 A 
ENDROOT
TORSDOF 0
ENDMDL
