MODEL 1
REMARK minimizedAffinity -4.63946199
REMARK minimizedRMSD -1
REMARK  0 active torsions:
REMARK  status: ('A' for Active; 'I' for Inactive)
ROOT
ATOM      1  C   UNL d   1      -0.236  -0.566   1.470  0.00  0.00     0.078 C 
ATOM      2  C1  UNL d   1       0.075  -0.754   0.014  0.00  0.00    -0.077 A 
ATOM      3  C2  UNL d   1       0.028   0.325  -0.878  0.00  0.00    -0.001 A 
ATOM      4  C3  UNL d   1       0.309   0.134  -2.231  0.00  0.00     0.003 A 
ATOM      5  C4  UNL d   1       0.639  -1.135  -2.705  0.00  0.00    -0.005 A 
ATOM      6  C5  UNL d   1       0.686  -2.214  -1.825  0.00  0.00     0.003 A 
ATOM      7  C6  UNL d   1       0.404  -2.025  -0.471  0.00  0.00    -0.001 A 
ENDROOT
TORSDOF 0
ENDMDL
