MODEL 1
REMARK minimizedAffinity -1.57090819
REMARK minimizedRMSD -1
REMARK  0 active torsions:
REMARK  status: ('A' for Active; 'I' for Inactive)
ROOT
ATOM      1  C   UNL d   1       0.304   0.347  -1.863  0.00  0.00     0.078 C 
ATOM      2  C1  UNL d   1       0.472   0.265  -0.375  0.00  0.00    -0.077 A 
ATOM      3  C2  UNL d   1      -0.113  -0.773   0.361  0.00  0.00    -0.001 A 
ATOM      4  C3  UNL d   1       0.043  -0.831   1.746  0.00  0.00     0.003 A 
ATOM      5  C4  UNL d   1       0.784   0.146   2.409  0.00  0.00    -0.005 A 
ATOM      6  C5  UNL d   1       1.369   1.183   1.685  0.00  0.00     0.003 A 
ATOM      7  C6  UNL d   1       1.213   1.243   0.299  0.00  0.00    -0.001 A 
ENDROOT
TORSDOF 0
ENDMDL
