MODEL 1
REMARK minimizedAffinity -3.54836202
REMARK minimizedRMSD -1
REMARK  0 active torsions:
REMARK  status: ('A' for Active; 'I' for Inactive)
ROOT
ATOM      1  C   UNL d   1       1.195  -1.091   0.798  0.00  0.00     0.078 C 
ATOM      2  C1  UNL d   1       0.956  -0.793  -0.652  0.00  0.00    -0.077 A 
ATOM      3  C2  UNL d   1       1.573  -1.551  -1.655  0.00  0.00    -0.001 A 
ATOM      4  C3  UNL d   1       1.349  -1.257  -3.001  0.00  0.00     0.003 A 
ATOM      5  C4  UNL d   1       0.509  -0.203  -3.356  0.00  0.00    -0.005 A 
ATOM      6  C5  UNL d   1      -0.107   0.558  -2.365  0.00  0.00     0.003 A 
ATOM      7  C6  UNL d   1       0.116   0.265  -1.018  0.00  0.00    -0.001 A 
ENDROOT
TORSDOF 0
ENDMDL
