MODEL 1
REMARK minimizedAffinity -2.33491039
REMARK minimizedRMSD -1
REMARK  0 active torsions:
REMARK  status: ('A' for Active; 'I' for Inactive)
ROOT
ATOM      1  C   UNL d   1       0.045  -0.218  -0.744  0.00  0.00     0.078 C 
ATOM      2  C1  UNL d   1      -0.517  -0.029   0.633  0.00  0.00    -0.077 A 
ATOM      3  C2  UNL d   1       0.320   0.005   1.755  0.00  0.00    -0.001 A 
ATOM      4  C3  UNL d   1      -0.218   0.172   3.032  0.00  0.00     0.003 A 
ATOM      5  C4  UNL d   1      -1.595   0.305   3.199  0.00  0.00    -0.005 A 
ATOM      6  C5  UNL d   1      -2.436   0.271   2.089  0.00  0.00     0.003 A 
ATOM      7  C6  UNL d   1      -1.900   0.104   0.811  0.00  0.00    -0.001 A 
ENDROOT
TORSDOF 0
ENDMDL
