MODEL 1
REMARK minimizedAffinity -3.07674479
REMARK minimizedRMSD -1
REMARK  0 active torsions:
REMARK  status: ('A' for Active; 'I' for Inactive)
ROOT
ATOM      1  C   UNL d   1       0.539  -0.016  -1.978  0.00  0.00     0.078 C 
ATOM      2  C1  UNL d   1       0.314   0.027  -0.496  0.00  0.00    -0.077 A 
ATOM      3  C2  UNL d   1      -0.928   0.396   0.035  0.00  0.00    -0.001 A 
ATOM      4  C3  UNL d   1      -1.120   0.441   1.417  0.00  0.00     0.003 A 
ATOM      5  C4  UNL d   1      -0.074   0.118   2.279  0.00  0.00    -0.005 A 
ATOM      6  C5  UNL d   1       1.166  -0.249   1.760  0.00  0.00     0.003 A 
ATOM      7  C6  UNL d   1       1.360  -0.294   0.379  0.00  0.00    -0.001 A 
ENDROOT
TORSDOF 0
ENDMDL
