MODEL 1
REMARK minimizedAffinity -3.5392189
REMARK minimizedRMSD -1
REMARK  0 active torsions:
REMARK  status: ('A' for Active; 'I' for Inactive)
ROOT
ATOM      1  C   UNL d   1      -0.544  -0.783   2.989  0.00  0.00     0.078 C 
ATOM      2  C1  UNL d   1      -0.189  -0.406   1.582  0.00  0.00    -0.077 A 
ATOM      3  C2  UNL d   1      -1.172  -0.315   0.589  0.00  0.00    -0.001 A 
ATOM      4  C3  UNL d   1      -0.826   0.028  -0.719  0.00  0.00     0.003 A 
ATOM      5  C4  UNL d   1       0.504   0.283  -1.046  0.00  0.00    -0.005 A 
ATOM      6  C5  UNL d   1       1.490   0.193  -0.066  0.00  0.00     0.003 A 
ATOM      7  C6  UNL d   1       1.146  -0.150   1.243  0.00  0.00    -0.001 A 
ENDROOT
TORSDOF 0
ENDMDL
