MODEL 1
REMARK minimizedAffinity -2.52231669
REMARK minimizedRMSD -1
REMARK  0 active torsions:
REMARK  status: ('A' for Active; 'I' for Inactive)
ROOT
ATOM      1  C   UNL d   1      -0.695   0.281  -1.308  0.00  0.00     0.078 C 
ATOM      2  C1  UNL d   1       0.068  -0.505  -2.331  0.00  0.00    -0.077 A 
ATOM      3  C2  UNL d   1      -0.367  -1.773  -2.738  0.00  0.00    -0.001 A 
ATOM      4  C3  UNL d   1       0.359  -2.498  -3.684  0.00  0.00     0.003 A 
ATOM      5  C4  UNL d   1       1.525  -1.964  -4.231  0.00  0.00    -0.005 A 
ATOM      6  C5  UNL d   1       1.966  -0.705  -3.831  0.00  0.00     0.003 A 
ATOM      7  C6  UNL d   1       1.242   0.022  -2.885  0.00  0.00    -0.001 A 
ENDROOT
TORSDOF 0
ENDMDL
