MODEL 1
REMARK minimizedAffinity -4.43103313
REMARK minimizedRMSD -1
REMARK  0 active torsions:
REMARK  status: ('A' for Active; 'I' for Inactive)
ROOT
ATOM      1  C   UNL d   1      -0.489  -0.406   3.389  0.00  0.00     0.078 C 
ATOM      2  C1  UNL d   1      -0.191  -0.162   1.940  0.00  0.00    -0.077 A 
ATOM      3  C2  UNL d   1      -1.140  -0.448   0.950  0.00  0.00    -0.001 A 
ATOM      4  C3  UNL d   1      -0.845  -0.225  -0.396  0.00  0.00     0.003 A 
ATOM      5  C4  UNL d   1       0.398   0.284  -0.765  0.00  0.00    -0.005 A 
ATOM      6  C5  UNL d   1       1.349   0.569   0.212  0.00  0.00     0.003 A 
ATOM      7  C6  UNL d   1       1.057   0.347   1.559  0.00  0.00    -0.001 A 
ENDROOT
TORSDOF 0
ENDMDL
