MODEL 1
REMARK minimizedAffinity -3.17691875
REMARK minimizedRMSD -1
REMARK  0 active torsions:
REMARK  status: ('A' for Active; 'I' for Inactive)
ROOT
ATOM      1  C   UNL d   1       0.759  -0.354   2.616  0.00  0.00     0.078 C 
ATOM      2  C1  UNL d   1       0.674  -0.200   1.127  0.00  0.00    -0.077 A 
ATOM      3  C2  UNL d   1       0.962   1.024   0.511  0.00  0.00    -0.001 A 
ATOM      4  C3  UNL d   1       0.869   1.156  -0.876  0.00  0.00     0.003 A 
ATOM      5  C4  UNL d   1       0.487   0.068  -1.658  0.00  0.00    -0.005 A 
ATOM      6  C5  UNL d   1       0.196  -1.154  -1.053  0.00  0.00     0.003 A 
ATOM      7  C6  UNL d   1       0.288  -1.287   0.333  0.00  0.00    -0.001 A 
ENDROOT
TORSDOF 0
ENDMDL
