MODEL 1
REMARK minimizedAffinity -5.39622545
REMARK minimizedRMSD -1
REMARK  0 active torsions:
REMARK  status: ('A' for Active; 'I' for Inactive)
ROOT
ATOM      1  C   UNL d   1       0.321  -0.143  -0.974  0.00  0.00     0.078 C 
ATOM      2  C1  UNL d   1      -0.086  -0.249   0.465  0.00  0.00    -0.077 A 
ATOM      3  C2  UNL d   1      -1.252  -0.929   0.837  0.00  0.00    -0.001 A 
ATOM      4  C3  UNL d   1      -1.623  -1.012   2.180  0.00  0.00     0.003 A 
ATOM      5  C4  UNL d   1      -0.834  -0.417   3.162  0.00  0.00    -0.005 A 
ATOM      6  C5  UNL d   1       0.327   0.264   2.802  0.00  0.00     0.003 A 
ATOM      7  C6  UNL d   1       0.700   0.348   1.459  0.00  0.00    -0.001 A 
ENDROOT
TORSDOF 0
ENDMDL
