MODEL 1
REMARK minimizedAffinity -3.81842208
REMARK minimizedRMSD -1
REMARK  0 active torsions:
REMARK  status: ('A' for Active; 'I' for Inactive)
ROOT
ATOM      1  C   UNL d   1       0.247  -0.111   0.468  0.00  0.00     0.078 C 
ATOM      2  C1  UNL d   1       0.391  -0.233  -1.020  0.00  0.00    -0.077 A 
ATOM      3  C2  UNL d   1       0.683  -1.465  -1.618  0.00  0.00    -0.001 A 
ATOM      4  C3  UNL d   1       0.824  -1.561  -3.003  0.00  0.00     0.003 A 
ATOM      5  C4  UNL d   1       0.676  -0.429  -3.802  0.00  0.00    -0.005 A 
ATOM      6  C5  UNL d   1       0.387   0.801  -3.216  0.00  0.00     0.003 A 
ATOM      7  C6  UNL d   1       0.246   0.900  -1.831  0.00  0.00    -0.001 A 
ENDROOT
TORSDOF 0
ENDMDL
