MODEL 1
REMARK minimizedAffinity -4.04754066
REMARK minimizedRMSD -1
REMARK  0 active torsions:
REMARK  status: ('A' for Active; 'I' for Inactive)
ROOT
ATOM      1  C   UNL d   1       0.626  -0.713  -1.515  0.00  0.00     0.078 C 
ATOM      2  C1  UNL d   1       0.491  -0.519  -0.034  0.00  0.00    -0.077 A 
ATOM      3  C2  UNL d   1       1.549  -0.821   0.833  0.00  0.00    -0.001 A 
ATOM      4  C3  UNL d   1       1.406  -0.645   2.210  0.00  0.00     0.003 A 
ATOM      5  C4  UNL d   1       0.206  -0.166   2.733  0.00  0.00    -0.005 A 
ATOM      6  C5  UNL d   1      -0.852   0.136   1.879  0.00  0.00     0.003 A 
ATOM      7  C6  UNL d   1      -0.711  -0.040   0.502  0.00  0.00    -0.001 A 
ENDROOT
TORSDOF 0
ENDMDL
