MODEL 1
REMARK minimizedAffinity 11.6287842
REMARK minimizedRMSD -1
REMARK  1 active torsions:
REMARK  status: ('A' for Active; 'I' for Inactive)
REMARK    1  A    between atoms: C1_2  and  C2_3 
ROOT
ATOM      1  C2  UNL d   1       2.066  -2.563  -1.589  0.00  0.00    -0.081 A 
ATOM      2  C3  UNL d   1       1.578  -2.693  -2.895  0.00  0.00     0.006 A 
ATOM      3  C4  UNL d   1       1.258  -1.559  -3.647  0.00  0.00     0.002 A 
ATOM      4  C5  UNL d   1       1.428  -0.279  -3.109  0.00  0.00    -0.080 A 
ATOM      5  C6  UNL d   1       1.117   0.946  -3.916  0.00  0.00     0.076 C 
ATOM      6  C7  UNL d   1       1.899  -0.151  -1.798  0.00  0.00     0.002 A 
ATOM      7  C8  UNL d   1       2.218  -1.283  -1.045  0.00  0.00     0.006 A 
ENDROOT
BRANCH   1   8
ATOM      8  C1  UNL d   1       2.472  -3.781  -0.799  0.00  0.00     0.054 C 
ATOM      9  C   UNL d   1       3.938  -4.124  -1.026  0.00  0.00     0.018 C 
ENDBRANCH   1   8
TORSDOF 1
ENDMDL
