MODEL 1
REMARK minimizedAffinity 14.4237585
REMARK minimizedRMSD -1
REMARK  1 active torsions:
REMARK  status: ('A' for Active; 'I' for Inactive)
REMARK    1  A    between atoms: C1_2  and  C2_3 
ROOT
ATOM      1  C2  UNL d   1       2.504  -2.501  -0.640  0.00  0.00    -0.081 A 
ATOM      2  C3  UNL d   1       2.284  -1.119  -0.587  0.00  0.00     0.006 A 
ATOM      3  C4  UNL d   1       1.271  -0.533  -1.350  0.00  0.00     0.002 A 
ATOM      4  C5  UNL d   1       0.457  -1.320  -2.173  0.00  0.00    -0.080 A 
ATOM      5  C6  UNL d   1      -0.653  -0.708  -2.974  0.00  0.00     0.076 C 
ATOM      6  C7  UNL d   1       0.689  -2.698  -2.239  0.00  0.00     0.002 A 
ATOM      7  C8  UNL d   1       1.702  -3.284  -1.477  0.00  0.00     0.006 A 
ENDROOT
BRANCH   1   8
ATOM      8  C1  UNL d   1       3.553  -3.144   0.230  0.00  0.00     0.054 C 
ATOM      9  C   UNL d   1       3.623  -4.646  -0.005  0.00  0.00     0.018 C 
ENDBRANCH   1   8
TORSDOF 1
ENDMDL
