MODEL 1
REMARK minimizedAffinity 15.8810492
REMARK minimizedRMSD -1
REMARK  1 active torsions:
REMARK  status: ('A' for Active; 'I' for Inactive)
REMARK    1  A    between atoms: C1_2  and  C2_3 
ROOT
ATOM      1  C2  UNL d   1      -1.074  -4.464  -2.277  0.00  0.00    -0.081 A 
ATOM      2  C3  UNL d   1      -2.169  -5.332  -2.185  0.00  0.00     0.006 A 
ATOM      3  C4  UNL d   1      -3.369  -5.029  -2.832  0.00  0.00     0.002 A 
ATOM      4  C5  UNL d   1      -3.492  -3.858  -3.588  0.00  0.00    -0.080 A 
ATOM      5  C6  UNL d   1      -4.765  -3.536  -4.313  0.00  0.00     0.076 C 
ATOM      6  C7  UNL d   1      -2.404  -2.983  -3.666  0.00  0.00     0.002 A 
ATOM      7  C8  UNL d   1      -1.204  -3.285  -3.018  0.00  0.00     0.006 A 
ENDROOT
BRANCH   1   8
ATOM      8  C1  UNL d   1       0.242  -4.820  -1.634  0.00  0.00     0.054 C 
ATOM      9  C   UNL d   1       0.900  -5.999  -2.336  0.00  0.00     0.018 C 
ENDBRANCH   1   8
TORSDOF 1
ENDMDL
