MODEL 1
REMARK minimizedAffinity 15.1928616
REMARK minimizedRMSD -1
REMARK  1 active torsions:
REMARK  status: ('A' for Active; 'I' for Inactive)
REMARK    1  A    between atoms: C1_2  and  C2_3 
ROOT
ATOM      1  C2  UNL d   1       3.513   0.516  -0.603  0.00  0.00    -0.081 A 
ATOM      2  C3  UNL d   1       2.401   0.426  -1.449  0.00  0.00     0.006 A 
ATOM      3  C4  UNL d   1       1.636  -0.742  -1.492  0.00  0.00     0.002 A 
ATOM      4  C5  UNL d   1       1.966  -1.837  -0.686  0.00  0.00    -0.080 A 
ATOM      5  C6  UNL d   1       1.136  -3.086  -0.701  0.00  0.00     0.076 C 
ATOM      6  C7  UNL d   1       3.088  -1.754   0.146  0.00  0.00     0.002 A 
ATOM      7  C8  UNL d   1       3.853  -0.586   0.190  0.00  0.00     0.006 A 
ENDROOT
BRANCH   1   8
ATOM      8  C1  UNL d   1       4.301   1.797  -0.505  0.00  0.00     0.054 C 
ATOM      9  C   UNL d   1       3.867   2.624   0.697  0.00  0.00     0.018 C 
ENDBRANCH   1   8
TORSDOF 1
ENDMDL
