MODEL 1
REMARK minimizedAffinity 17.1458111
REMARK minimizedRMSD -1
REMARK  1 active torsions:
REMARK  status: ('A' for Active; 'I' for Inactive)
REMARK    1  A    between atoms: C1_2  and  C2_3 
ROOT
ATOM      1  C2  UNL d   1       1.225   1.731   2.995  0.00  0.00    -0.081 A 
ATOM      2  C3  UNL d   1       2.376   1.754   2.198  0.00  0.00     0.006 A 
ATOM      3  C4  UNL d   1       2.467   2.625   1.109  0.00  0.00     0.002 A 
ATOM      4  C5  UNL d   1       1.412   3.491   0.804  0.00  0.00    -0.080 A 
ATOM      5  C6  UNL d   1       1.509   4.452  -0.344  0.00  0.00     0.076 C 
ATOM      6  C7  UNL d   1       0.255   3.456   1.589  0.00  0.00     0.002 A 
ATOM      7  C8  UNL d   1       0.163   2.586   2.677  0.00  0.00     0.006 A 
ENDROOT
BRANCH   1   8
ATOM      8  C1  UNL d   1       1.150   0.840   4.208  0.00  0.00     0.054 C 
ATOM      9  C   UNL d   1       1.545   1.591   5.471  0.00  0.00     0.018 C 
ENDBRANCH   1   8
TORSDOF 1
ENDMDL
