MODEL 1
REMARK minimizedAffinity 3.03415561
REMARK minimizedRMSD -1
REMARK  1 active torsions:
REMARK  status: ('A' for Active; 'I' for Inactive)
REMARK    1  A    between atoms: C1_2  and  C2_3 
ROOT
ATOM      1  C2  UNL d   1      -2.860  -0.218   0.963  0.00  0.00    -0.081 A 
ATOM      2  C3  UNL d   1      -3.005  -0.847  -0.280  0.00  0.00     0.006 A 
ATOM      3  C4  UNL d   1      -1.982  -1.648  -0.792  0.00  0.00     0.002 A 
ATOM      4  C5  UNL d   1      -0.800  -1.839  -0.067  0.00  0.00    -0.080 A 
ATOM      5  C6  UNL d   1       0.294  -2.721  -0.592  0.00  0.00     0.076 C 
ATOM      6  C7  UNL d   1      -0.648  -1.196   1.166  0.00  0.00     0.002 A 
ATOM      7  C8  UNL d   1      -1.670  -0.395   1.678  0.00  0.00     0.006 A 
ENDROOT
BRANCH   1   8
ATOM      8  C1  UNL d   1      -3.987   0.594   1.547  0.00  0.00     0.054 C 
ATOM      9  C   UNL d   1      -3.578   1.245   2.861  0.00  0.00     0.018 C 
ENDBRANCH   1   8
TORSDOF 1
ENDMDL
