MODEL 1
REMARK minimizedAffinity 16.6696167
REMARK minimizedRMSD -1
REMARK  1 active torsions:
REMARK  status: ('A' for Active; 'I' for Inactive)
REMARK    1  A    between atoms: C1_2  and  C2_3 
ROOT
ATOM      1  C2  UNL d   1      -2.244   2.839  -4.352  0.00  0.00    -0.081 A 
ATOM      2  C3  UNL d   1      -2.376   4.115  -3.791  0.00  0.00     0.006 A 
ATOM      3  C4  UNL d   1      -3.281   5.034  -4.328  0.00  0.00     0.002 A 
ATOM      4  C5  UNL d   1      -4.074   4.690  -5.428  0.00  0.00    -0.080 A 
ATOM      5  C6  UNL d   1      -5.070   5.657  -5.995  0.00  0.00     0.076 C 
ATOM      6  C7  UNL d   1      -3.929   3.421  -6.000  0.00  0.00     0.002 A 
ATOM      7  C8  UNL d   1      -3.024   2.502  -5.464  0.00  0.00     0.006 A 
ENDROOT
BRANCH   1   8
ATOM      8  C1  UNL d   1      -1.316   1.823  -3.736  0.00  0.00     0.054 C 
ATOM      9  C   UNL d   1       0.073   1.896  -4.354  0.00  0.00     0.018 C 
ENDBRANCH   1   8
TORSDOF 1
ENDMDL
