MODEL 1
REMARK minimizedAffinity 25.1446972
REMARK minimizedRMSD -1
REMARK  1 active torsions:
REMARK  status: ('A' for Active; 'I' for Inactive)
REMARK    1  A    between atoms: C1_2  and  C2_3 
ROOT
ATOM      1  C2  UNL d   1       2.098   0.014  -1.176  0.00  0.00    -0.081 A 
ATOM      2  C3  UNL d   1       1.823  -0.949  -0.198  0.00  0.00     0.006 A 
ATOM      3  C4  UNL d   1       0.961  -2.013  -0.474  0.00  0.00     0.002 A 
ATOM      4  C5  UNL d   1       0.368  -2.137  -1.735  0.00  0.00    -0.080 A 
ATOM      5  C6  UNL d   1      -0.535  -3.292  -2.054  0.00  0.00     0.076 C 
ATOM      6  C7  UNL d   1       0.629  -1.166  -2.707  0.00  0.00     0.002 A 
ATOM      7  C8  UNL d   1       1.489  -0.101  -2.431  0.00  0.00     0.006 A 
ENDROOT
BRANCH   1   8
ATOM      8  C1  UNL d   1       3.076   1.128  -0.903  0.00  0.00     0.054 C 
ATOM      9  C   UNL d   1       4.107   0.715   0.138  0.00  0.00     0.018 C 
ENDBRANCH   1   8
TORSDOF 1
ENDMDL
