MODEL 1
REMARK minimizedAffinity 15.4901886
REMARK minimizedRMSD -1
REMARK  1 active torsions:
REMARK  status: ('A' for Active; 'I' for Inactive)
REMARK    1  A    between atoms: C1_2  and  C2_3 
ROOT
ATOM      1  C2  UNL d   1       2.048   0.936   0.325  0.00  0.00    -0.081 A 
ATOM      2  C3  UNL d   1       2.852   1.663   1.211  0.00  0.00     0.006 A 
ATOM      3  C4  UNL d   1       2.360   2.052   2.459  0.00  0.00     0.002 A 
ATOM      4  C5  UNL d   1       1.058   1.715   2.844  0.00  0.00    -0.080 A 
ATOM      5  C6  UNL d   1       0.527   2.100   4.193  0.00  0.00     0.076 C 
ATOM      6  C7  UNL d   1       0.248   1.004   1.952  0.00  0.00     0.002 A 
ATOM      7  C8  UNL d   1       0.740   0.615   0.704  0.00  0.00     0.006 A 
ENDROOT
BRANCH   1   8
ATOM      8  C1  UNL d   1       2.598   0.459  -0.995  0.00  0.00     0.054 C 
ATOM      9  C   UNL d   1       1.587  -0.404  -1.736  0.00  0.00     0.018 C 
ENDBRANCH   1   8
TORSDOF 1
ENDMDL
