MODEL 1
REMARK minimizedAffinity 9.78220654
REMARK minimizedRMSD -1
REMARK  1 active torsions:
REMARK  status: ('A' for Active; 'I' for Inactive)
REMARK    1  A    between atoms: C1_2  and  C2_3 
ROOT
ATOM      1  C2  UNL d   1      -1.366   1.674   4.859  0.00  0.00    -0.081 A 
ATOM      2  C3  UNL d   1      -1.989   1.669   3.606  0.00  0.00     0.006 A 
ATOM      3  C4  UNL d   1      -3.359   1.919   3.495  0.00  0.00     0.002 A 
ATOM      4  C5  UNL d   1      -4.126   2.186   4.634  0.00  0.00    -0.080 A 
ATOM      5  C6  UNL d   1      -5.592   2.486   4.525  0.00  0.00     0.076 C 
ATOM      6  C7  UNL d   1      -3.507   2.174   5.888  0.00  0.00     0.002 A 
ATOM      7  C8  UNL d   1      -2.138   1.923   6.000  0.00  0.00     0.006 A 
ENDROOT
BRANCH   1   8
ATOM      8  C1  UNL d   1       0.123   1.468   4.976  0.00  0.00     0.054 C 
ATOM      9  C   UNL d   1       0.732   1.064   3.641  0.00  0.00     0.018 C 
ENDBRANCH   1   8
TORSDOF 1
ENDMDL
