MODEL 1
REMARK minimizedAffinity -0.739606142
REMARK minimizedRMSD -1
REMARK  1 active torsions:
REMARK  status: ('A' for Active; 'I' for Inactive)
REMARK    1  A    between atoms: C1_2  and  C2_3 
ROOT
ATOM      1  C2  UNL d   1      -2.674  -5.177  -4.727  0.00  0.00    -0.081 A 
ATOM      2  C3  UNL d   1      -3.660  -5.707  -5.567  0.00  0.00     0.006 A 
ATOM      3  C4  UNL d   1      -4.745  -4.924  -5.969  0.00  0.00     0.002 A 
ATOM      4  C5  UNL d   1      -4.857  -3.596  -5.544  0.00  0.00    -0.080 A 
ATOM      5  C6  UNL d   1      -6.000  -2.734  -5.993  0.00  0.00     0.076 C 
ATOM      6  C7  UNL d   1      -3.881  -3.071  -4.690  0.00  0.00     0.002 A 
ATOM      7  C8  UNL d   1      -2.797  -3.854  -4.287  0.00  0.00     0.006 A 
ENDROOT
BRANCH   1   8
ATOM      8  C1  UNL d   1      -1.470  -5.999  -4.344  0.00  0.00     0.054 C 
ATOM      9  C   UNL d   1      -0.410  -5.970  -5.435  0.00  0.00     0.018 C 
ENDBRANCH   1   8
TORSDOF 1
ENDMDL
