MODEL 1
REMARK minimizedAffinity -0.74931401
REMARK minimizedRMSD -1
REMARK  1 active torsions:
REMARK  status: ('A' for Active; 'I' for Inactive)
REMARK    1  A    between atoms: C1_2  and  C2_3 
ROOT
ATOM      1  C2  UNL d   1      -3.878  -3.946  -5.273  0.00  0.00    -0.081 A 
ATOM      2  C3  UNL d   1      -2.863  -3.226  -4.631  0.00  0.00     0.006 A 
ATOM      3  C4  UNL d   1      -1.755  -3.888  -4.096  0.00  0.00     0.002 A 
ATOM      4  C5  UNL d   1      -1.639  -5.278  -4.201  0.00  0.00    -0.080 A 
ATOM      5  C6  UNL d   1      -0.441  -5.997  -3.658  0.00  0.00     0.076 C 
ATOM      6  C7  UNL d   1      -2.662  -5.999  -4.827  0.00  0.00     0.002 A 
ATOM      7  C8  UNL d   1      -3.770  -5.338  -5.361  0.00  0.00     0.006 A 
ENDROOT
BRANCH   1   8
ATOM      8  C1  UNL d   1      -5.042  -3.229  -5.908  0.00  0.00     0.054 C 
ATOM      9  C   UNL d   1      -5.646  -2.205  -4.957  0.00  0.00     0.018 C 
ENDBRANCH   1   8
TORSDOF 1
ENDMDL
