MODEL 1
REMARK minimizedAffinity 10.1178961
REMARK minimizedRMSD -1
REMARK  1 active torsions:
REMARK  status: ('A' for Active; 'I' for Inactive)
REMARK    1  A    between atoms: C1_2  and  C2_3 
ROOT
ATOM      1  C2  UNL d   1       0.381  -3.020  -2.042  0.00  0.00    -0.081 A 
ATOM      2  C3  UNL d   1       0.778  -2.022  -2.940  0.00  0.00     0.006 A 
ATOM      3  C4  UNL d   1       1.550  -0.942  -2.503  0.00  0.00     0.002 A 
ATOM      4  C5  UNL d   1       1.943  -0.847  -1.164  0.00  0.00    -0.080 A 
ATOM      5  C6  UNL d   1       2.797   0.291  -0.689  0.00  0.00     0.076 C 
ATOM      6  C7  UNL d   1       1.532  -1.835  -0.263  0.00  0.00     0.002 A 
ATOM      7  C8  UNL d   1       0.760  -2.914  -0.699  0.00  0.00     0.006 A 
ENDROOT
BRANCH   1   8
ATOM      8  C1  UNL d   1      -0.396  -4.219  -2.523  0.00  0.00     0.054 C 
ATOM      9  C   UNL d   1      -1.767  -4.289  -1.865  0.00  0.00     0.018 C 
ENDBRANCH   1   8
TORSDOF 1
ENDMDL
