MODEL 1
REMARK minimizedAffinity 17.3402119
REMARK minimizedRMSD -1
REMARK  1 active torsions:
REMARK  status: ('A' for Active; 'I' for Inactive)
REMARK    1  A    between atoms: C1_2  and  C2_3 
ROOT
ATOM      1  C2  UNL d   1      -4.143   1.567   4.111  0.00  0.00    -0.081 A 
ATOM      2  C3  UNL d   1      -4.141   0.841   2.914  0.00  0.00     0.006 A 
ATOM      3  C4  UNL d   1      -3.771  -0.506   2.904  0.00  0.00     0.002 A 
ATOM      4  C5  UNL d   1      -3.405  -1.151   4.091  0.00  0.00    -0.080 A 
ATOM      5  C6  UNL d   1      -3.035  -2.604   4.099  0.00  0.00     0.076 C 
ATOM      6  C7  UNL d   1      -3.391  -0.420   5.284  0.00  0.00     0.002 A 
ATOM      7  C8  UNL d   1      -3.760   0.927   5.294  0.00  0.00     0.006 A 
ENDROOT
BRANCH   1   8
ATOM      8  C1  UNL d   1      -4.604   3.003   4.135  0.00  0.00     0.054 C 
ATOM      9  C   UNL d   1      -6.000   3.146   3.547  0.00  0.00     0.018 C 
ENDBRANCH   1   8
TORSDOF 1
ENDMDL
