MODEL 1
REMARK minimizedAffinity 11.0601597
REMARK minimizedRMSD -1
REMARK  0 active torsions:
REMARK  status: ('A' for Active; 'I' for Inactive)
ROOT
ATOM      1  C2' OXE d   1      -1.222   2.248   3.353  0.00  0.00     0.078 C 
ATOM      2  C1' OXE d   1       0.236   2.260   5.752  0.00  0.00     0.078 C 
ATOM      3  C1  OXE d   1       0.614   1.243   4.704  0.00  0.00    -0.078 A 
ATOM      4  C2  OXE d   1      -0.135   1.214   3.552  0.00  0.00    -0.078 A 
ATOM      5  C3  OXE d   1       0.206   0.332   2.530  0.00  0.00     0.003 A 
ATOM      6  C4  OXE d   1       1.206  -0.628   2.726  0.00  0.00    -0.002 A 
ATOM      7  C5  OXE d   1       1.955  -0.641   3.908  0.00  0.00    -0.002 A 
ATOM      8  C6  OXE d   1       1.700   0.313   4.887  0.00  0.00     0.003 A 
ENDROOT
TORSDOF 0
ENDMDL
