MODEL 1
REMARK minimizedAffinity 16.208952
REMARK minimizedRMSD -1
REMARK  0 active torsions:
REMARK  status: ('A' for Active; 'I' for Inactive)
ROOT
ATOM      1  C2' OXE d   1       0.198   1.922   5.806  0.00  0.00     0.078 C 
ATOM      2  C1' OXE d   1      -1.259   2.469   3.470  0.00  0.00     0.078 C 
ATOM      3  C1  OXE d   1      -0.412   1.221   3.495  0.00  0.00    -0.078 A 
ATOM      4  C2  OXE d   1       0.334   0.985   4.625  0.00  0.00    -0.078 A 
ATOM      5  C3  OXE d   1       1.089  -0.179   4.722  0.00  0.00     0.003 A 
ATOM      6  C4  OXE d   1       1.217  -1.035   3.621  0.00  0.00    -0.002 A 
ATOM      7  C5  OXE d   1       0.497  -0.793   2.446  0.00  0.00    -0.002 A 
ATOM      8  C6  OXE d   1      -0.353   0.306   2.382  0.00  0.00     0.003 A 
ENDROOT
TORSDOF 0
ENDMDL
