MODEL 1
REMARK minimizedAffinity 5.71317863
REMARK minimizedRMSD -1
REMARK  0 active torsions:
REMARK  status: ('A' for Active; 'I' for Inactive)
ROOT
ATOM      1  C2' OXE d   1      -0.367  -1.466  -5.695  0.00  0.00     0.078 C 
ATOM      2  C1' OXE d   1      -1.926  -3.781  -5.999  0.00  0.00     0.078 C 
ATOM      3  C1  OXE d   1      -0.428  -3.945  -5.936  0.00  0.00    -0.078 A 
ATOM      4  C2  OXE d   1       0.330  -2.803  -5.834  0.00  0.00    -0.078 A 
ATOM      5  C3  OXE d   1       1.713  -2.902  -5.717  0.00  0.00     0.003 A 
ATOM      6  C4  OXE d   1       2.350  -4.141  -5.856  0.00  0.00    -0.002 A 
ATOM      7  C5  OXE d   1       1.599  -5.312  -6.000  0.00  0.00    -0.002 A 
ATOM      8  C6  OXE d   1       0.211  -5.237  -5.999  0.00  0.00     0.003 A 
ENDROOT
TORSDOF 0
ENDMDL
