MODEL 1
REMARK minimizedAffinity 14.1011839
REMARK minimizedRMSD -1
REMARK  0 active torsions:
REMARK  status: ('A' for Active; 'I' for Inactive)
ROOT
ATOM      1  C2' OXE d   1      -1.989  -4.600  -5.997  0.00  0.00     0.078 C 
ATOM      2  C1' OXE d   1      -0.502  -2.219  -5.977  0.00  0.00     0.078 C 
ATOM      3  C1  OXE d   1       0.257  -3.523  -5.980  0.00  0.00    -0.078 A 
ATOM      4  C2  OXE d   1      -0.479  -4.683  -5.943  0.00  0.00    -0.078 A 
ATOM      5  C3  OXE d   1       0.170  -5.913  -5.999  0.00  0.00     0.003 A 
ATOM      6  C4  OXE d   1       1.567  -5.981  -5.938  0.00  0.00    -0.002 A 
ATOM      7  C5  OXE d   1       2.335  -4.812  -5.936  0.00  0.00    -0.002 A 
ATOM      8  C6  OXE d   1       1.698  -3.577  -5.999  0.00  0.00     0.003 A 
ENDROOT
TORSDOF 0
ENDMDL
