MODEL 1
REMARK minimizedAffinity 7.91834068
REMARK minimizedRMSD -1
REMARK  0 active torsions:
REMARK  status: ('A' for Active; 'I' for Inactive)
ROOT
ATOM      1  C2' OXE d   1       3.320   0.524   4.842  0.00  0.00     0.078 C 
ATOM      2  C1' OXE d   1       1.927  -1.776   5.648  0.00  0.00     0.078 C 
ATOM      3  C1  OXE d   1       1.594  -1.188   4.299  0.00  0.00    -0.078 A 
ATOM      4  C2  OXE d   1       2.247  -0.036   3.933  0.00  0.00    -0.078 A 
ATOM      5  C3  OXE d   1       2.017   0.518   2.677  0.00  0.00     0.003 A 
ATOM      6  C4  OXE d   1       1.015  -0.000   1.847  0.00  0.00    -0.002 A 
ATOM      7  C5  OXE d   1       0.310  -1.150   2.218  0.00  0.00    -0.002 A 
ATOM      8  C6  OXE d   1       0.616  -1.779   3.419  0.00  0.00     0.003 A 
ENDROOT
TORSDOF 0
ENDMDL
