MODEL 1
REMARK minimizedAffinity 3.46588492
REMARK minimizedRMSD -1
REMARK  0 active torsions:
REMARK  status: ('A' for Active; 'I' for Inactive)
ROOT
ATOM      1  C2' OXE d   1      -0.624  -3.785   3.720  0.00  0.00     0.078 C 
ATOM      2  C1' OXE d   1       1.624  -3.014   5.214  0.00  0.00     0.078 C 
ATOM      3  C1  OXE d   1       1.027  -2.002   4.268  0.00  0.00    -0.078 A 
ATOM      4  C2  OXE d   1      -0.044  -2.404   3.506  0.00  0.00    -0.078 A 
ATOM      5  C3  OXE d   1      -0.666  -1.493   2.657  0.00  0.00     0.003 A 
ATOM      6  C4  OXE d   1      -0.117  -0.220   2.458  0.00  0.00    -0.002 A 
ATOM      7  C5  OXE d   1       0.997   0.195   3.194  0.00  0.00    -0.002 A 
ATOM      8  C6  OXE d   1       1.555  -0.667   4.132  0.00  0.00     0.003 A 
ENDROOT
TORSDOF 0
ENDMDL
