MODEL 1
REMARK minimizedAffinity 9.96014023
REMARK minimizedRMSD -1
REMARK  0 active torsions:
REMARK  status: ('A' for Active; 'I' for Inactive)
ROOT
ATOM      1  C4' PXY d   1       2.811   1.415   3.010  0.00  0.00     0.077 C 
ATOM      2  C1' PXY d   1       4.671   5.999   6.000  0.00  0.00     0.077 C 
ATOM      3  C1  PXY d   1       4.190   4.801   5.205  0.00  0.00    -0.082 A 
ATOM      4  C2  PXY d   1       3.088   4.169   5.577  0.00  0.00     0.003 A 
ATOM      5  C3  PXY d   1       2.656   3.065   4.889  0.00  0.00     0.003 A 
ATOM      6  C4  PXY d   1       3.329   2.634   3.777  0.00  0.00    -0.082 A 
ATOM      7  C5  PXY d   1       4.448   3.280   3.385  0.00  0.00     0.003 A 
ATOM      8  C6  PXY d   1       4.893   4.374   4.121  0.00  0.00     0.003 A 
ENDROOT
TORSDOF 0
ENDMDL
