MODEL 1
REMARK minimizedAffinity 8.75616169
REMARK minimizedRMSD -1
REMARK  0 active torsions:
REMARK  status: ('A' for Active; 'I' for Inactive)
ROOT
ATOM      1  C4' PXY d   1      -2.809   5.979   5.993  0.00  0.00     0.077 C 
ATOM      2  C1' PXY d   1      -4.319   0.732   4.096  0.00  0.00     0.077 C 
ATOM      3  C1  PXY d   1      -3.935   2.110   4.597  0.00  0.00    -0.082 A 
ATOM      4  C2  PXY d   1      -2.856   2.704   4.115  0.00  0.00     0.003 A 
ATOM      5  C3  PXY d   1      -2.476   3.937   4.580  0.00  0.00     0.003 A 
ATOM      6  C4  PXY d   1      -3.240   4.592   5.509  0.00  0.00    -0.082 A 
ATOM      7  C5  PXY d   1      -4.348   3.997   5.998  0.00  0.00     0.003 A 
ATOM      8  C6  PXY d   1      -4.694   2.728   5.543  0.00  0.00     0.003 A 
ENDROOT
TORSDOF 0
ENDMDL
