MODEL 1
REMARK minimizedAffinity 1.77137184
REMARK minimizedRMSD -1
REMARK  0 active torsions:
REMARK  status: ('A' for Active; 'I' for Inactive)
ROOT
ATOM      1  C4' PXY d   1       2.582  -3.347   0.433  0.00  0.00     0.077 C 
ATOM      2  C1' PXY d   1      -1.098   0.235   3.086  0.00  0.00     0.077 C 
ATOM      3  C1  PXY d   1      -0.142  -0.706   2.381  0.00  0.00    -0.082 A 
ATOM      4  C2  PXY d   1       0.786  -1.340   3.080  0.00  0.00     0.003 A 
ATOM      5  C3  PXY d   1       1.680  -2.170   2.453  0.00  0.00     0.003 A 
ATOM      6  C4  PXY d   1       1.589  -2.395   1.105  0.00  0.00    -0.082 A 
ATOM      7  C5  PXY d   1       0.639  -1.759   0.387  0.00  0.00     0.003 A 
ATOM      8  C6  PXY d   1      -0.232  -0.889   1.036  0.00  0.00     0.003 A 
ENDROOT
TORSDOF 0
ENDMDL
