MODEL 1
REMARK minimizedAffinity 3.46520758
REMARK minimizedRMSD -1
REMARK  0 active torsions:
REMARK  status: ('A' for Active; 'I' for Inactive)
ROOT
ATOM      1  C4' PXY d   1      -1.492  -2.619   3.201  0.00  0.00     0.077 C 
ATOM      2  C1' PXY d   1       3.341  -4.121   0.408  0.00  0.00     0.077 C 
ATOM      3  C1  PXY d   1       2.079  -3.716   1.144  0.00  0.00    -0.082 A 
ATOM      4  C2  PXY d   1       1.249  -4.649   1.583  0.00  0.00     0.003 A 
ATOM      5  C3  PXY d   1       0.088  -4.299   2.222  0.00  0.00     0.003 A 
ATOM      6  C4  PXY d   1      -0.201  -2.982   2.462  0.00  0.00    -0.082 A 
ATOM      7  C5  PXY d   1       0.645  -2.025   2.027  0.00  0.00     0.003 A 
ATOM      8  C6  PXY d   1       1.799  -2.399   1.344  0.00  0.00     0.003 A 
ENDROOT
TORSDOF 0
ENDMDL
