MODEL 1
REMARK minimizedAffinity 4.82731342
REMARK minimizedRMSD -1
REMARK  0 active torsions:
REMARK  status: ('A' for Active; 'I' for Inactive)
ROOT
ATOM      1  C4' PXY d   1      -4.393   4.233  -4.474  0.00  0.00     0.077 C 
ATOM      2  C1' PXY d   1      -3.248  -0.898  -2.071  0.00  0.00     0.077 C 
ATOM      3  C1  PXY d   1      -3.553   0.442  -2.712  0.00  0.00    -0.082 A 
ATOM      4  C2  PXY d   1      -2.892   1.519  -2.321  0.00  0.00     0.003 A 
ATOM      5  C3  PXY d   1      -3.177   2.744  -2.867  0.00  0.00     0.003 A 
ATOM      6  C4  PXY d   1      -4.112   2.859  -3.862  0.00  0.00    -0.082 A 
ATOM      7  C5  PXY d   1      -4.783   1.762  -4.273  0.00  0.00     0.003 A 
ATOM      8  C6  PXY d   1      -4.507   0.535  -3.677  0.00  0.00     0.003 A 
ENDROOT
TORSDOF 0
ENDMDL
