MODEL 1
REMARK minimizedAffinity 1.45923781
REMARK minimizedRMSD -1
REMARK  0 active torsions:
REMARK  status: ('A' for Active; 'I' for Inactive)
ROOT
ATOM      1  C4' PXY d   1       2.147   2.561   1.624  0.00  0.00     0.077 C 
ATOM      2  C1' PXY d   1       0.585   6.000   6.000  0.00  0.00     0.077 C 
ATOM      3  C1  PXY d   1       0.983   5.101   4.846  0.00  0.00    -0.082 A 
ATOM      4  C2  PXY d   1       1.853   4.125   5.048  0.00  0.00     0.003 A 
ATOM      5  C3  PXY d   1       2.249   3.322   4.009  0.00  0.00     0.003 A 
ATOM      6  C4  PXY d   1       1.709   3.487   2.761  0.00  0.00    -0.082 A 
ATOM      7  C5  PXY d   1       0.813   4.474   2.550  0.00  0.00     0.003 A 
ATOM      8  C6  PXY d   1       0.455   5.304   3.609  0.00  0.00     0.003 A 
ENDROOT
TORSDOF 0
ENDMDL
