MODEL 1
REMARK minimizedAffinity 3.51162124
REMARK minimizedRMSD -1
REMARK  0 active torsions:
REMARK  status: ('A' for Active; 'I' for Inactive)
ROOT
ATOM      1  C4' PXY d   1       5.999   5.998   5.124  0.00  0.00     0.077 C 
ATOM      2  C1' PXY d   1       0.618   4.433   3.704  0.00  0.00     0.077 C 
ATOM      3  C1  PXY d   1       2.024   4.854   4.083  0.00  0.00    -0.082 A 
ATOM      4  C2  PXY d   1       3.044   4.485   3.325  0.00  0.00     0.003 A 
ATOM      5  C3  PXY d   1       4.326   4.830   3.671  0.00  0.00     0.003 A 
ATOM      6  C4  PXY d   1       4.561   5.605   4.775  0.00  0.00    -0.082 A 
ATOM      7  C5  PXY d   1       3.524   5.994   5.547  0.00  0.00     0.003 A 
ATOM      8  C6  PXY d   1       2.235   5.599   5.202  0.00  0.00     0.003 A 
ENDROOT
TORSDOF 0
ENDMDL
