MODEL 1
REMARK minimizedAffinity 9.94486713
REMARK minimizedRMSD -1
REMARK  1 active torsions:
REMARK  status: ('A' for Active; 'I' for Inactive)
REMARK    1  A    between atoms: C3_4  and  O_7 
ROOT
ATOM      1  C   UNL d   1       2.939  -0.208  -1.204  0.00  0.00    -0.033 A 
ATOM      2  C1  UNL d   1       4.061   0.416  -1.754  0.00  0.00     0.039 A 
ATOM      3  C2  UNL d   1       4.945   1.117  -0.932  0.00  0.00    -0.080 A 
ATOM      4  C3  UNL d   1       4.697   1.187   0.436  0.00  0.00     0.150 A 
ATOM      5  C4  UNL d   1       3.584   0.564   0.991  0.00  0.00    -0.007 A 
ATOM      6  C5  UNL d   1       2.702  -0.135   0.169  0.00  0.00     0.039 A 
ENDROOT
BRANCH   4   7
ATOM      7  O   UNL d   1       5.529   1.864   1.278  0.00  0.00    -0.526 OA
ATOM      8  H5  UNL d   1       6.239   2.267   0.750  0.00  0.00     0.418 HD
ENDBRANCH   4   7
TORSDOF 1
ENDMDL
