MODEL 1
REMARK minimizedAffinity 1.88099158
REMARK minimizedRMSD -1
REMARK  1 active torsions:
REMARK  status: ('A' for Active; 'I' for Inactive)
REMARK    1  A    between atoms: C3_4  and  O_7 
ROOT
ATOM      1  C   UNL d   1      -5.224   2.113  -0.900  0.00  0.00    -0.033 A 
ATOM      2  C1  UNL d   1      -4.397   3.226  -0.735  0.00  0.00     0.039 A 
ATOM      3  C2  UNL d   1      -3.086   3.063  -0.283  0.00  0.00    -0.080 A 
ATOM      4  C3  UNL d   1      -2.615   1.784   0.000  0.00  0.00     0.150 A 
ATOM      5  C4  UNL d   1      -3.432   0.671  -0.166  0.00  0.00    -0.007 A 
ATOM      6  C5  UNL d   1      -4.741   0.835  -0.616  0.00  0.00     0.039 A 
ENDROOT
BRANCH   4   7
ATOM      7  O   UNL d   1      -1.344   1.575   0.448  0.00  0.00    -0.526 OA
ATOM      8  H5  UNL d   1      -0.906   2.438   0.542  0.00  0.00     0.418 HD
ENDBRANCH   4   7
TORSDOF 1
ENDMDL
