MODEL 1
REMARK minimizedAffinity 3.31808257
REMARK minimizedRMSD -1
REMARK  1 active torsions:
REMARK  status: ('A' for Active; 'I' for Inactive)
REMARK    1  A    between atoms: C3_4  and  O_7 
ROOT
ATOM      1  C   UNL d   1      -5.999   2.232  -3.761  0.00  0.00    -0.033 A 
ATOM      2  C1  UNL d   1      -4.957   3.080  -4.140  0.00  0.00     0.039 A 
ATOM      3  C2  UNL d   1      -3.892   2.586  -4.895  0.00  0.00    -0.080 A 
ATOM      4  C3  UNL d   1      -3.882   1.244  -5.266  0.00  0.00     0.150 A 
ATOM      5  C4  UNL d   1      -4.919   0.394  -4.896  0.00  0.00    -0.007 A 
ATOM      6  C5  UNL d   1      -5.981   0.889  -4.141  0.00  0.00     0.039 A 
ENDROOT
BRANCH   4   7
ATOM      7  O   UNL d   1      -2.861   0.715  -6.000  0.00  0.00    -0.526 OA
ATOM      8  H5  UNL d   1      -2.203   1.412  -6.158  0.00  0.00     0.418 HD
ENDBRANCH   4   7
TORSDOF 1
ENDMDL
