MODEL 1
REMARK minimizedAffinity 9.70807362
REMARK minimizedRMSD -1
REMARK  1 active torsions:
REMARK  status: ('A' for Active; 'I' for Inactive)
REMARK    1  A    between atoms: C3_4  and  O_7 
ROOT
ATOM      1  C   UNL d   1       0.199  -0.034   2.881  0.00  0.00    -0.033 A 
ATOM      2  C1  UNL d   1       1.419   0.139   2.225  0.00  0.00     0.039 A 
ATOM      3  C2  UNL d   1       1.454   0.703   0.949  0.00  0.00    -0.080 A 
ATOM      4  C3  UNL d   1       0.263   1.091   0.341  0.00  0.00     0.150 A 
ATOM      5  C4  UNL d   1      -0.956   0.925   0.990  0.00  0.00    -0.007 A 
ATOM      6  C5  UNL d   1      -0.989   0.361   2.264  0.00  0.00     0.039 A 
ENDROOT
BRANCH   4   7
ATOM      7  O   UNL d   1       0.246   1.642  -0.906  0.00  0.00    -0.526 OA
ATOM      8  H5  UNL d   1       1.157   1.668  -1.243  0.00  0.00     0.418 HD
ENDBRANCH   4   7
TORSDOF 1
ENDMDL
