MODEL 1
REMARK minimizedAffinity 9.29888248
REMARK minimizedRMSD -1
REMARK  1 active torsions:
REMARK  status: ('A' for Active; 'I' for Inactive)
REMARK    1  A    between atoms: C3_4  and  O_7 
ROOT
ATOM      1  C   UNL d   1       6.000   1.927  -0.703  0.00  0.00    -0.033 A 
ATOM      2  C1  UNL d   1       5.487   1.491  -1.926  0.00  0.00     0.039 A 
ATOM      3  C2  UNL d   1       4.292   0.770  -1.966  0.00  0.00    -0.080 A 
ATOM      4  C3  UNL d   1       3.620   0.494  -0.778  0.00  0.00     0.150 A 
ATOM      5  C4  UNL d   1       4.124   0.929   0.443  0.00  0.00    -0.007 A 
ATOM      6  C5  UNL d   1       5.318   1.648   0.481  0.00  0.00     0.039 A 
ENDROOT
BRANCH   4   7
ATOM      7  O   UNL d   1       2.453  -0.211  -0.767  0.00  0.00    -0.526 OA
ATOM      8  H5  UNL d   1       2.241  -0.470  -1.679  0.00  0.00     0.418 HD
ENDBRANCH   4   7
TORSDOF 1
ENDMDL
