MODEL 1
REMARK minimizedAffinity 6.20779514
REMARK minimizedRMSD -1
REMARK  1 active torsions:
REMARK  status: ('A' for Active; 'I' for Inactive)
REMARK    1  A    between atoms: C3_4  and  O_7 
ROOT
ATOM      1  C   UNL d   1       2.532  -3.119  -3.638  0.00  0.00    -0.033 A 
ATOM      2  C1  UNL d   1       2.416  -2.771  -2.291  0.00  0.00     0.039 A 
ATOM      3  C2  UNL d   1       1.525  -3.459  -1.464  0.00  0.00    -0.080 A 
ATOM      4  C3  UNL d   1       0.759  -4.492  -1.996  0.00  0.00     0.150 A 
ATOM      5  C4  UNL d   1       0.873  -4.847  -3.336  0.00  0.00    -0.007 A 
ATOM      6  C5  UNL d   1       1.761  -4.158  -4.160  0.00  0.00     0.039 A 
ENDROOT
BRANCH   4   7
ATOM      7  O   UNL d   1      -0.127  -5.190  -1.229  0.00  0.00    -0.526 OA
ATOM      8  H5  UNL d   1      -0.119  -4.816  -0.332  0.00  0.00     0.418 HD
ENDBRANCH   4   7
TORSDOF 1
ENDMDL
