MODEL 1
REMARK minimizedAffinity 2.20536447
REMARK minimizedRMSD -1
REMARK  1 active torsions:
REMARK  status: ('A' for Active; 'I' for Inactive)
REMARK    1  A    between atoms: C1_2  and  C2_3 
ROOT
ATOM      1  C2  UNL d   1       2.322   0.512  -3.854  0.00  0.00    -0.077 A 
ATOM      2  C3  UNL d   1       3.644   0.044  -3.883  0.00  0.00     0.002 A 
ATOM      3  C4  UNL d   1       4.307  -0.273  -2.696  0.00  0.00     0.002 A 
ATOM      4  C5  UNL d   1       3.656  -0.129  -1.472  0.00  0.00    -0.004 A 
ATOM      5  C6  UNL d   1       2.342   0.337  -1.433  0.00  0.00     0.002 A 
ATOM      6  C7  UNL d   1       1.678   0.655  -2.618  0.00  0.00     0.002 A 
ENDROOT
BRANCH   1   7
ATOM      7  C1  UNL d   1       1.589   0.807  -5.136  0.00  0.00     0.055 C 
ATOM      8  C   UNL d   1       0.264   0.060  -5.200  0.00  0.00     0.019 C 
ENDBRANCH   1   7
TORSDOF 1
ENDMDL
