MODEL 1
REMARK minimizedAffinity 5.97678375
REMARK minimizedRMSD -1
REMARK  1 active torsions:
REMARK  status: ('A' for Active; 'I' for Inactive)
REMARK    1  A    between atoms: C1_2  and  C2_3 
ROOT
ATOM      1  C2  UNL d   1       2.098   0.627  -4.004  0.00  0.00    -0.077 A 
ATOM      2  C3  UNL d   1       1.105   0.012  -3.229  0.00  0.00     0.002 A 
ATOM      3  C4  UNL d   1      -0.040  -0.511  -3.834  0.00  0.00     0.002 A 
ATOM      4  C5  UNL d   1      -0.200  -0.428  -5.215  0.00  0.00    -0.004 A 
ATOM      5  C6  UNL d   1       0.782   0.183  -5.995  0.00  0.00     0.002 A 
ATOM      6  C7  UNL d   1       1.926   0.707  -5.392  0.00  0.00     0.002 A 
ENDROOT
BRANCH   1   7
ATOM      7  C1  UNL d   1       3.356   1.147  -3.360  0.00  0.00     0.055 C 
ATOM      8  C   UNL d   1       4.553   0.269  -3.693  0.00  0.00     0.019 C 
ENDBRANCH   1   7
TORSDOF 1
ENDMDL
