MODEL 1
REMARK minimizedAffinity 0.58299619
REMARK minimizedRMSD -1
REMARK  1 active torsions:
REMARK  status: ('A' for Active; 'I' for Inactive)
REMARK    1  A    between atoms: C1_2  and  C2_3 
ROOT
ATOM      1  C2  UNL d   1       3.372  -0.754  -3.870  0.00  0.00    -0.077 A 
ATOM      2  C3  UNL d   1       3.856   0.223  -2.989  0.00  0.00     0.002 A 
ATOM      3  C4  UNL d   1       3.003   1.211  -2.493  0.00  0.00     0.002 A 
ATOM      4  C5  UNL d   1       1.661   1.228  -2.869  0.00  0.00    -0.004 A 
ATOM      5  C6  UNL d   1       1.171   0.262  -3.747  0.00  0.00     0.002 A 
ATOM      6  C7  UNL d   1       2.023  -0.726  -4.244  0.00  0.00     0.002 A 
ENDROOT
BRANCH   1   7
ATOM      7  C1  UNL d   1       4.279  -1.850  -4.367  0.00  0.00     0.055 C 
ATOM      8  C   UNL d   1       5.179  -2.370  -3.256  0.00  0.00     0.019 C 
ENDBRANCH   1   7
TORSDOF 1
ENDMDL
