MODEL 1
REMARK minimizedAffinity 4.81704664
REMARK minimizedRMSD -1
REMARK  1 active torsions:
REMARK  status: ('A' for Active; 'I' for Inactive)
REMARK    1  A    between atoms: C1_2  and  C2_3 
ROOT
ATOM      1  C2  UNL d   1       1.372  -0.692  -2.273  0.00  0.00    -0.077 A 
ATOM      2  C3  UNL d   1       2.355   0.307  -2.308  0.00  0.00     0.002 A 
ATOM      3  C4  UNL d   1       2.492   1.124  -3.432  0.00  0.00     0.002 A 
ATOM      4  C5  UNL d   1       1.648   0.953  -4.527  0.00  0.00    -0.004 A 
ATOM      5  C6  UNL d   1       0.668  -0.040  -4.503  0.00  0.00     0.002 A 
ATOM      6  C7  UNL d   1       0.531  -0.858  -3.380  0.00  0.00     0.002 A 
ENDROOT
BRANCH   1   7
ATOM      7  C1  UNL d   1       1.190  -1.541  -1.042  0.00  0.00     0.055 C 
ATOM      8  C   UNL d   1       2.261  -1.245  -0.002  0.00  0.00     0.019 C 
ENDBRANCH   1   7
TORSDOF 1
ENDMDL
