MODEL 1
REMARK minimizedAffinity 5.08593273
REMARK minimizedRMSD -1
REMARK  1 active torsions:
REMARK  status: ('A' for Active; 'I' for Inactive)
REMARK    1  A    between atoms: C1_2  and  C2_3 
ROOT
ATOM      1  C2  UNL d   1       3.495  -0.336  -3.822  0.00  0.00    -0.077 A 
ATOM      2  C3  UNL d   1       2.097  -0.356  -3.933  0.00  0.00     0.002 A 
ATOM      3  C4  UNL d   1       1.350   0.788  -3.647  0.00  0.00     0.002 A 
ATOM      4  C5  UNL d   1       1.991   1.961  -3.253  0.00  0.00    -0.004 A 
ATOM      5  C6  UNL d   1       3.380   1.990  -3.138  0.00  0.00     0.002 A 
ATOM      6  C7  UNL d   1       4.129   0.847  -3.421  0.00  0.00     0.002 A 
ENDROOT
BRANCH   1   7
ATOM      7  C1  UNL d   1       4.306  -1.555  -4.176  0.00  0.00     0.055 C 
ATOM      8  C   UNL d   1       5.252  -1.938  -3.048  0.00  0.00     0.019 C 
ENDBRANCH   1   7
TORSDOF 1
ENDMDL
