MODEL 1
REMARK minimizedAffinity 8.33422947
REMARK minimizedRMSD -1
REMARK  2 active torsions:
REMARK  status: ('A' for Active; 'I' for Inactive)
REMARK    1  A    between atoms: C2'_3  and  C1'_4 
REMARK    2  A    between atoms: C1'_4  and  C1_5 
ROOT
ATOM      1  C1  I4B d   1       3.267  -2.008   2.208  0.00  0.00    -0.075 A 
ATOM      2  C2  I4B d   1       2.983  -1.588   3.484  0.00  0.00     0.003 A 
ATOM      3  C3  I4B d   1       1.883  -0.729   3.723  0.00  0.00     0.002 A 
ATOM      4  C4  I4B d   1       1.130  -0.277   2.660  0.00  0.00    -0.004 A 
ATOM      5  C5  I4B d   1       1.405  -0.722   1.370  0.00  0.00     0.002 A 
ATOM      6  C6  I4B d   1       2.472  -1.602   1.144  0.00  0.00     0.003 A 
ENDROOT
BRANCH   1   7
ATOM      7  C1' I4B d   1       4.456  -2.888   1.987  0.00  0.00     0.060 C 
BRANCH   7   8
ATOM      8  C2' I4B d   1       5.692  -2.013   1.990  0.00  0.00    -0.013 C 
ATOM      9  C4' I4B d   1       5.490  -0.781   1.147  0.00  0.00     0.013 C 
ATOM     10  C3' I4B d   1       6.000  -1.651   3.412  0.00  0.00     0.013 C 
ENDBRANCH   7   8
ENDBRANCH   1   7
TORSDOF 2
ENDMDL
