MODEL 1
REMARK minimizedAffinity 12.9004316
REMARK minimizedRMSD -1
REMARK  2 active torsions:
REMARK  status: ('A' for Active; 'I' for Inactive)
REMARK    1  A    between atoms: C2'_3  and  C1'_4 
REMARK    2  A    between atoms: C1'_4  and  C1_5 
ROOT
ATOM      1  C1  I4B d   1       1.911   0.169   2.227  0.00  0.00    -0.075 A 
ATOM      2  C2  I4B d   1       2.942  -0.350   1.484  0.00  0.00     0.003 A 
ATOM      3  C3  I4B d   1       3.544  -1.576   1.858  0.00  0.00     0.002 A 
ATOM      4  C4  I4B d   1       3.120  -2.219   3.004  0.00  0.00    -0.004 A 
ATOM      5  C5  I4B d   1       2.060  -1.703   3.743  0.00  0.00     0.002 A 
ATOM      6  C6  I4B d   1       1.443  -0.507   3.345  0.00  0.00     0.003 A 
ENDROOT
BRANCH   1   7
ATOM      7  C1' I4B d   1       1.320   1.482   1.821  0.00  0.00     0.060 C 
BRANCH   7   8
ATOM      8  C2' I4B d   1       2.421   2.523   1.864  0.00  0.00    -0.013 C 
ATOM      9  C4' I4B d   1       2.260   3.534   0.760  0.00  0.00     0.013 C 
ATOM     10  C3' I4B d   1       2.383   3.181   3.211  0.00  0.00     0.013 C 
ENDBRANCH   7   8
ENDBRANCH   1   7
TORSDOF 2
ENDMDL
