MODEL 1
REMARK minimizedAffinity 9.18878269
REMARK minimizedRMSD -1
REMARK  2 active torsions:
REMARK  status: ('A' for Active; 'I' for Inactive)
REMARK    1  A    between atoms: C2'_3  and  C1'_4 
REMARK    2  A    between atoms: C1'_4  and  C1_5 
ROOT
ATOM      1  C1  I4B d   1       2.432  -1.929   3.982  0.00  0.00    -0.075 A 
ATOM      2  C2  I4B d   1       3.603  -2.577   3.678  0.00  0.00     0.003 A 
ATOM      3  C3  I4B d   1       3.758  -3.951   3.985  0.00  0.00     0.002 A 
ATOM      4  C4  I4B d   1       2.742  -4.620   4.637  0.00  0.00    -0.004 A 
ATOM      5  C5  I4B d   1       1.547  -3.967   4.924  0.00  0.00     0.002 A 
ATOM      6  C6  I4B d   1       1.386  -2.616   4.583  0.00  0.00     0.003 A 
ENDROOT
BRANCH   1   7
ATOM      7  C1' I4B d   1       2.316  -0.470   3.674  0.00  0.00     0.060 C 
BRANCH   7   8
ATOM      8  C2' I4B d   1       2.606  -0.279   2.199  0.00  0.00    -0.013 C 
ATOM      9  C4' I4B d   1       1.441  -0.721   1.353  0.00  0.00     0.013 C 
ATOM     10  C3' I4B d   1       2.922   1.169   1.972  0.00  0.00     0.013 C 
ENDBRANCH   7   8
ENDBRANCH   1   7
TORSDOF 2
ENDMDL
