MODEL 1
REMARK minimizedAffinity 0.683006108
REMARK minimizedRMSD -1
REMARK  2 active torsions:
REMARK  status: ('A' for Active; 'I' for Inactive)
REMARK    1  A    between atoms: C2'_3  and  C1'_4 
REMARK    2  A    between atoms: C1'_4  and  C1_5 
ROOT
ATOM      1  C1  I4B d   1       2.671  -1.353   3.222  0.00  0.00    -0.075 A 
ATOM      2  C2  I4B d   1       1.918  -2.105   4.088  0.00  0.00     0.003 A 
ATOM      3  C3  I4B d   1       2.540  -3.059   4.929  0.00  0.00     0.002 A 
ATOM      4  C4  I4B d   1       3.902  -3.263   4.835  0.00  0.00    -0.004 A 
ATOM      5  C5  I4B d   1       4.666  -2.483   3.972  0.00  0.00     0.002 A 
ATOM      6  C6  I4B d   1       4.049  -1.513   3.169  0.00  0.00     0.003 A 
ENDROOT
BRANCH   1   7
ATOM      7  C1' I4B d   1       1.977  -0.377   2.325  0.00  0.00     0.060 C 
BRANCH   7   8
ATOM      8  C2' I4B d   1       2.878   0.831   2.164  0.00  0.00    -0.013 C 
ATOM      9  C4' I4B d   1       2.671   1.490   0.825  0.00  0.00     0.013 C 
ATOM     10  C3' I4B d   1       2.585   1.781   3.286  0.00  0.00     0.013 C 
ENDBRANCH   7   8
ENDBRANCH   1   7
TORSDOF 2
ENDMDL
