MODEL 1
REMARK minimizedAffinity 10.8080692
REMARK minimizedRMSD -1
REMARK  2 active torsions:
REMARK  status: ('A' for Active; 'I' for Inactive)
REMARK    1  A    between atoms: C2'_3  and  C1'_4 
REMARK    2  A    between atoms: C1'_4  and  C1_5 
ROOT
ATOM      1  C1  I4B d   1       2.251  -0.068   2.734  0.00  0.00    -0.075 A 
ATOM      2  C2  I4B d   1       2.776   0.146   1.484  0.00  0.00     0.003 A 
ATOM      3  C3  I4B d   1       3.321   1.409   1.147  0.00  0.00     0.002 A 
ATOM      4  C4  I4B d   1       3.275   2.437   2.067  0.00  0.00    -0.004 A 
ATOM      5  C5  I4B d   1       2.763   2.211   3.341  0.00  0.00     0.002 A 
ATOM      6  C6  I4B d   1       2.259   0.947   3.682  0.00  0.00     0.003 A 
ENDROOT
BRANCH   1   7
ATOM      7  C1' I4B d   1       1.654  -1.404   3.045  0.00  0.00     0.060 C 
BRANCH   7   8
ATOM      8  C2' I4B d   1       2.377  -1.969   4.252  0.00  0.00    -0.013 C 
ATOM      9  C4' I4B d   1       1.593  -3.090   4.881  0.00  0.00     0.013 C 
ATOM     10  C3' I4B d   1       3.729  -2.438   3.804  0.00  0.00     0.013 C 
ENDBRANCH   7   8
ENDBRANCH   1   7
TORSDOF 2
ENDMDL
