MODEL 1
REMARK minimizedAffinity 17.3319035
REMARK minimizedRMSD -1
REMARK  2 active torsions:
REMARK  status: ('A' for Active; 'I' for Inactive)
REMARK    1  A    between atoms: C2'_3  and  C1'_4 
REMARK    2  A    between atoms: C1'_4  and  C1_5 
ROOT
ATOM      1  C1  I4B d   1      -3.491   3.217   1.185  0.00  0.00    -0.075 A 
ATOM      2  C2  I4B d   1      -4.555   3.797   0.541  0.00  0.00     0.003 A 
ATOM      3  C3  I4B d   1      -5.826   3.843   1.164  0.00  0.00     0.002 A 
ATOM      4  C4  I4B d   1      -5.998   3.257   2.402  0.00  0.00    -0.004 A 
ATOM      5  C5  I4B d   1      -4.913   2.690   3.063  0.00  0.00     0.002 A 
ATOM      6  C6  I4B d   1      -3.648   2.681   2.457  0.00  0.00     0.003 A 
ENDROOT
BRANCH   1   7
ATOM      7  C1' I4B d   1      -2.171   3.156   0.485  0.00  0.00     0.060 C 
BRANCH   7   8
ATOM      8  C2' I4B d   1      -1.393   4.406   0.844  0.00  0.00    -0.013 C 
ATOM      9  C4' I4B d   1      -0.295   4.100   1.828  0.00  0.00     0.013 C 
ATOM     10  C3' I4B d   1      -0.839   4.987  -0.422  0.00  0.00     0.013 C 
ENDBRANCH   7   8
ENDBRANCH   1   7
TORSDOF 2
ENDMDL
