MODEL 1
REMARK minimizedAffinity 12.9836311
REMARK minimizedRMSD -1
REMARK  2 active torsions:
REMARK  status: ('A' for Active; 'I' for Inactive)
REMARK    1  A    between atoms: C2'_3  and  C1'_4 
REMARK    2  A    between atoms: C1'_4  and  C1_5 
ROOT
ATOM      1  C1  I4B d   1       1.944  -0.982   2.036  0.00  0.00    -0.075 A 
ATOM      2  C2  I4B d   1       1.144  -0.260   2.886  0.00  0.00     0.003 A 
ATOM      3  C3  I4B d   1       1.187  -0.498   4.281  0.00  0.00     0.002 A 
ATOM      4  C4  I4B d   1       2.002  -1.497   4.775  0.00  0.00    -0.004 A 
ATOM      5  C5  I4B d   1       2.829  -2.213   3.914  0.00  0.00     0.002 A 
ATOM      6  C6  I4B d   1       2.810  -1.946   2.537  0.00  0.00     0.003 A 
ENDROOT
BRANCH   1   7
ATOM      7  C1' I4B d   1       1.849  -0.727   0.565  0.00  0.00     0.060 C 
BRANCH   7   8
ATOM      8  C2' I4B d   1       1.155  -1.914  -0.071  0.00  0.00    -0.013 C 
ATOM      9  C4' I4B d   1      -0.251  -1.566  -0.484  0.00  0.00     0.013 C 
ATOM     10  C3' I4B d   1       1.973  -2.353  -1.248  0.00  0.00     0.013 C 
ENDBRANCH   7   8
ENDBRANCH   1   7
TORSDOF 2
ENDMDL
