MODEL 1
REMARK minimizedAffinity 10.0116186
REMARK minimizedRMSD -1
REMARK  2 active torsions:
REMARK  status: ('A' for Active; 'I' for Inactive)
REMARK    1  A    between atoms: C2'_3  and  C1'_4 
REMARK    2  A    between atoms: C1'_4  and  C1_5 
ROOT
ATOM      1  C1  I4B d   1      -3.398   3.124   1.371  0.00  0.00    -0.075 A 
ATOM      2  C2  I4B d   1      -4.498   3.594   0.697  0.00  0.00     0.003 A 
ATOM      3  C3  I4B d   1      -5.761   3.634   1.336  0.00  0.00     0.002 A 
ATOM      4  C4  I4B d   1      -5.888   3.152   2.623  0.00  0.00    -0.004 A 
ATOM      5  C5  I4B d   1      -4.767   2.698   3.312  0.00  0.00     0.002 A 
ATOM      6  C6  I4B d   1      -3.512   2.695   2.686  0.00  0.00     0.003 A 
ENDROOT
BRANCH   1   7
ATOM      7  C1' I4B d   1      -2.086   3.064   0.655  0.00  0.00     0.060 C 
BRANCH   7   8
ATOM      8  C2' I4B d   1      -1.345   4.358   0.929  0.00  0.00    -0.013 C 
ATOM      9  C4' I4B d   1      -0.380   4.201   2.074  0.00  0.00     0.013 C 
ATOM     10  C3' I4B d   1      -0.633   4.759  -0.329  0.00  0.00     0.013 C 
ENDBRANCH   7   8
ENDBRANCH   1   7
TORSDOF 2
ENDMDL
