MODEL 1
REMARK minimizedAffinity 8.40159798
REMARK minimizedRMSD -1
REMARK  3 active torsions:
REMARK  status: ('A' for Active; 'I' for Inactive)
REMARK    1  A    between atoms: C3'_2  and  C2'_3 
REMARK    2  A    between atoms: C2'_3  and  C1'_4 
REMARK    3  A    between atoms: C1'_4  and  C1_5 
ROOT
ATOM      1  C1  N4B d   1       1.394  -1.769   0.617  0.00  0.00    -0.075 A 
ATOM      2  C2  N4B d   1       0.565  -1.548  -0.506  0.00  0.00     0.002 A 
ATOM      3  C3  N4B d   1       1.041  -0.839  -1.581  0.00  0.00     0.002 A 
ATOM      4  C4  N4B d   1       2.330  -0.327  -1.549  0.00  0.00    -0.004 A 
ATOM      5  C5  N4B d   1       3.132  -0.567  -0.472  0.00  0.00     0.002 A 
ATOM      6  C6  N4B d   1       2.668  -1.281   0.614  0.00  0.00     0.002 A 
ENDROOT
BRANCH   1   7
ATOM      7  C1' N4B d   1       0.889  -2.465   1.851  0.00  0.00     0.057 C 
BRANCH   7   8
ATOM      8  C2' N4B d   1       0.228  -1.441   2.769  0.00  0.00     0.009 C 
BRANCH   8   9
ATOM      9  C3' N4B d   1      -1.283  -1.592   2.794  0.00  0.00     0.004 C 
ATOM     10  C4' N4B d   1      -1.981  -0.370   3.312  0.00  0.00     0.003 C 
ENDBRANCH   8   9
ENDBRANCH   7   8
ENDBRANCH   1   7
TORSDOF 3
ENDMDL
