MODEL 1
REMARK minimizedAffinity 6.40670061
REMARK minimizedRMSD -1
REMARK  3 active torsions:
REMARK  status: ('A' for Active; 'I' for Inactive)
REMARK    1  A    between atoms: C3'_2  and  C2'_3 
REMARK    2  A    between atoms: C2'_3  and  C1'_4 
REMARK    3  A    between atoms: C1'_4  and  C1_5 
ROOT
ATOM      1  C1  N4B d   1      -5.059   1.593  -5.187  0.00  0.00    -0.075 A 
ATOM      2  C2  N4B d   1      -3.958   1.182  -5.971  0.00  0.00     0.002 A 
ATOM      3  C3  N4B d   1      -3.592  -0.142  -6.000  0.00  0.00     0.002 A 
ATOM      4  C4  N4B d   1      -4.297  -1.065  -5.242  0.00  0.00    -0.004 A 
ATOM      5  C5  N4B d   1      -5.374  -0.664  -4.508  0.00  0.00     0.002 A 
ATOM      6  C6  N4B d   1      -5.756   0.662  -4.472  0.00  0.00     0.002 A 
ENDROOT
BRANCH   1   7
ATOM      7  C1' N4B d   1      -5.443   3.041  -5.056  0.00  0.00     0.057 C 
BRANCH   7   8
ATOM      8  C2' N4B d   1      -4.244   3.834  -4.544  0.00  0.00     0.009 C 
BRANCH   8   9
ATOM      9  C3' N4B d   1      -3.695   3.261  -3.248  0.00  0.00     0.004 C 
ATOM     10  C4' N4B d   1      -2.213   3.038  -3.294  0.00  0.00     0.003 C 
ENDBRANCH   8   9
ENDBRANCH   7   8
ENDBRANCH   1   7
TORSDOF 3
ENDMDL
