MODEL 1
REMARK minimizedAffinity 7.34475422
REMARK minimizedRMSD -1
REMARK  3 active torsions:
REMARK  status: ('A' for Active; 'I' for Inactive)
REMARK    1  A    between atoms: C3'_2  and  C2'_3 
REMARK    2  A    between atoms: C2'_3  and  C1'_4 
REMARK    3  A    between atoms: C1'_4  and  C1_5 
ROOT
ATOM      1  C1  N4B d   1      -0.083  -0.804   1.509  0.00  0.00    -0.075 A 
ATOM      2  C2  N4B d   1      -0.058  -0.297   2.827  0.00  0.00     0.002 A 
ATOM      3  C3  N4B d   1      -1.187   0.270   3.366  0.00  0.00     0.002 A 
ATOM      4  C4  N4B d   1      -2.342   0.357   2.603  0.00  0.00    -0.004 A 
ATOM      5  C5  N4B d   1      -2.365  -0.158   1.340  0.00  0.00     0.002 A 
ATOM      6  C6  N4B d   1      -1.239  -0.734   0.787  0.00  0.00     0.002 A 
ENDROOT
BRANCH   1   7
ATOM      7  C1' N4B d   1       1.150  -1.355   0.847  0.00  0.00     0.057 C 
BRANCH   7   8
ATOM      8  C2' N4B d   1       1.085  -1.069  -0.650  0.00  0.00     0.009 C 
BRANCH   8   9
ATOM      9  C3' N4B d   1       2.465  -1.033  -1.283  0.00  0.00     0.004 C 
ATOM     10  C4' N4B d   1       2.450  -0.491  -2.681  0.00  0.00     0.003 C 
ENDBRANCH   8   9
ENDBRANCH   7   8
ENDBRANCH   1   7
TORSDOF 3
ENDMDL
