MODEL 1
REMARK minimizedAffinity 10.474267
REMARK minimizedRMSD -1
REMARK  3 active torsions:
REMARK  status: ('A' for Active; 'I' for Inactive)
REMARK    1  A    between atoms: C3'_2  and  C2'_3 
REMARK    2  A    between atoms: C2'_3  and  C1'_4 
REMARK    3  A    between atoms: C1'_4  and  C1_5 
ROOT
ATOM      1  C1  N4B d   1      -3.410   0.807  -3.840  0.00  0.00    -0.075 A 
ATOM      2  C2  N4B d   1      -4.589   1.232  -4.491  0.00  0.00     0.002 A 
ATOM      3  C3  N4B d   1      -5.080   0.518  -5.557  0.00  0.00     0.002 A 
ATOM      4  C4  N4B d   1      -4.401  -0.607  -5.999  0.00  0.00    -0.004 A 
ATOM      5  C5  N4B d   1      -3.277  -1.025  -5.349  0.00  0.00     0.002 A 
ATOM      6  C6  N4B d   1      -2.775  -0.320  -4.274  0.00  0.00     0.002 A 
ENDROOT
BRANCH   1   7
ATOM      7  C1' N4B d   1      -2.788   1.602  -2.725  0.00  0.00     0.057 C 
BRANCH   7   8
ATOM      8  C2' N4B d   1      -2.394   2.979  -3.251  0.00  0.00     0.009 C 
BRANCH   8   9
ATOM      9  C3' N4B d   1      -0.996   3.377  -2.810  0.00  0.00     0.004 C 
ATOM     10  C4' N4B d   1      -0.195   4.003  -3.912  0.00  0.00     0.003 C 
ENDBRANCH   8   9
ENDBRANCH   7   8
ENDBRANCH   1   7
TORSDOF 3
ENDMDL
