MODEL 1
REMARK minimizedAffinity 3.02950358
REMARK minimizedRMSD -1
REMARK  3 active torsions:
REMARK  status: ('A' for Active; 'I' for Inactive)
REMARK    1  A    between atoms: C3'_2  and  C2'_3 
REMARK    2  A    between atoms: C2'_3  and  C1'_4 
REMARK    3  A    between atoms: C1'_4  and  C1_5 
ROOT
ATOM      1  C1  N4B d   1      -4.709   1.764  -4.565  0.00  0.00    -0.075 A 
ATOM      2  C2  N4B d   1      -3.685   2.188  -3.690  0.00  0.00     0.002 A 
ATOM      3  C3  N4B d   1      -3.614   3.504  -3.304  0.00  0.00     0.002 A 
ATOM      4  C4  N4B d   1      -4.539   4.413  -3.793  0.00  0.00    -0.004 A 
ATOM      5  C5  N4B d   1      -5.540   3.991  -4.618  0.00  0.00     0.002 A 
ATOM      6  C6  N4B d   1      -5.627   2.670  -5.011  0.00  0.00     0.002 A 
ENDROOT
BRANCH   1   7
ATOM      7  C1' N4B d   1      -4.777   0.353  -5.083  0.00  0.00     0.057 C 
BRANCH   7   8
ATOM      8  C2' N4B d   1      -5.382  -0.546  -4.009  0.00  0.00     0.009 C 
BRANCH   8   9
ATOM      9  C3' N4B d   1      -4.471  -1.713  -3.666  0.00  0.00     0.004 C 
ATOM     10  C4' N4B d   1      -3.576  -1.427  -2.497  0.00  0.00     0.003 C 
ENDBRANCH   8   9
ENDBRANCH   7   8
ENDBRANCH   1   7
TORSDOF 3
ENDMDL
