MODEL 1
REMARK minimizedAffinity 0.214475572
REMARK minimizedRMSD -1
REMARK  3 active torsions:
REMARK  status: ('A' for Active; 'I' for Inactive)
REMARK    1  A    between atoms: C3'_2  and  C2'_3 
REMARK    2  A    between atoms: C2'_3  and  C1'_4 
REMARK    3  A    between atoms: C1'_4  and  C1_5 
ROOT
ATOM      1  C1  N4B d   1       1.923   0.474  -1.836  0.00  0.00    -0.075 A 
ATOM      2  C2  N4B d   1       1.466   1.004  -3.063  0.00  0.00     0.002 A 
ATOM      3  C3  N4B d   1       1.495   2.360  -3.278  0.00  0.00     0.002 A 
ATOM      4  C4  N4B d   1       1.956   3.204  -2.279  0.00  0.00    -0.004 A 
ATOM      5  C5  N4B d   1       2.419   2.682  -1.107  0.00  0.00     0.002 A 
ATOM      6  C6  N4B d   1       2.400   1.321  -0.878  0.00  0.00     0.002 A 
ENDROOT
BRANCH   1   7
ATOM      7  C1' N4B d   1       1.832  -0.994  -1.522  0.00  0.00     0.057 C 
BRANCH   7   8
ATOM      8  C2' N4B d   1       2.095  -1.205  -0.034  0.00  0.00     0.009 C 
BRANCH   8   9
ATOM      9  C3' N4B d   1       0.843  -1.637   0.710  0.00  0.00     0.004 C 
ATOM     10  C4' N4B d   1       0.963  -1.473   2.195  0.00  0.00     0.003 C 
ENDBRANCH   8   9
ENDBRANCH   7   8
ENDBRANCH   1   7
TORSDOF 3
ENDMDL
