MODEL 1
REMARK minimizedAffinity 13.6119814
REMARK minimizedRMSD -1
REMARK  3 active torsions:
REMARK  status: ('A' for Active; 'I' for Inactive)
REMARK    1  A    between atoms: C3'_2  and  C2'_3 
REMARK    2  A    between atoms: C2'_3  and  C1'_4 
REMARK    3  A    between atoms: C1'_4  and  C1_5 
ROOT
ATOM      1  C1  N4B d   1       1.885  -0.438  -0.647  0.00  0.00    -0.075 A 
ATOM      2  C2  N4B d   1       1.787  -0.076  -2.009  0.00  0.00     0.002 A 
ATOM      3  C3  N4B d   1       2.306   1.120  -2.441  0.00  0.00     0.002 A 
ATOM      4  C4  N4B d   1       2.909   1.975  -1.530  0.00  0.00    -0.004 A 
ATOM      5  C5  N4B d   1       3.022   1.607  -0.221  0.00  0.00     0.002 A 
ATOM      6  C6  N4B d   1       2.508   0.406   0.226  0.00  0.00     0.002 A 
ENDROOT
BRANCH   1   7
ATOM      7  C1' N4B d   1       1.257  -1.696  -0.112  0.00  0.00     0.057 C 
BRANCH   7   8
ATOM      8  C2' N4B d   1       1.269  -1.652   1.413  0.00  0.00     0.009 C 
BRANCH   8   9
ATOM      9  C3' N4B d   1      -0.100  -1.948   2.000  0.00  0.00     0.004 C 
ATOM     10  C4' N4B d   1      -0.538  -0.920   3.001  0.00  0.00     0.003 C 
ENDBRANCH   8   9
ENDBRANCH   7   8
ENDBRANCH   1   7
TORSDOF 3
ENDMDL
