MODEL 1
REMARK minimizedAffinity -0.468115807
REMARK minimizedRMSD -1
REMARK  3 active torsions:
REMARK  status: ('A' for Active; 'I' for Inactive)
REMARK    1  A    between atoms: C3'_2  and  C2'_3 
REMARK    2  A    between atoms: C2'_3  and  C1'_4 
REMARK    3  A    between atoms: C1'_4  and  C1_5 
ROOT
ATOM      1  C1  N4B d   1       1.712  -0.351  -0.599  0.00  0.00    -0.075 A 
ATOM      2  C2  N4B d   1       2.907   0.233  -0.125  0.00  0.00     0.002 A 
ATOM      3  C3  N4B d   1       3.249   1.506  -0.511  0.00  0.00     0.002 A 
ATOM      4  C4  N4B d   1       2.424   2.204  -1.380  0.00  0.00    -0.004 A 
ATOM      5  C5  N4B d   1       1.259   1.642  -1.813  0.00  0.00     0.002 A 
ATOM      6  C6  N4B d   1       0.900   0.365  -1.430  0.00  0.00     0.002 A 
ENDROOT
BRANCH   1   7
ATOM      7  C1' N4B d   1       1.339  -1.772  -0.274  0.00  0.00     0.057 C 
BRANCH   7   8
ATOM      8  C2' N4B d   1       2.100  -2.217   0.972  0.00  0.00     0.009 C 
BRANCH   8   9
ATOM      9  C3' N4B d   1       2.196  -3.730   1.069  0.00  0.00     0.004 C 
ATOM     10  C4' N4B d   1       3.505  -4.194   1.633  0.00  0.00     0.003 C 
ENDBRANCH   8   9
ENDBRANCH   7   8
ENDBRANCH   1   7
TORSDOF 3
ENDMDL
