MODEL 1
REMARK minimizedAffinity 2.97422981
REMARK minimizedRMSD -1
REMARK  3 active torsions:
REMARK  status: ('A' for Active; 'I' for Inactive)
REMARK    1  A    between atoms: C3'_2  and  C2'_3 
REMARK    2  A    between atoms: C2'_3  and  C1'_4 
REMARK    3  A    between atoms: C1'_4  and  C1_5 
ROOT
ATOM      1  C1  N4B d   1       1.878   0.495  -0.814  0.00  0.00    -0.075 A 
ATOM      2  C2  N4B d   1       0.772   0.247  -1.657  0.00  0.00     0.002 A 
ATOM      3  C3  N4B d   1       0.302   1.239  -2.482  0.00  0.00     0.002 A 
ATOM      4  C4  N4B d   1       0.908   2.486  -2.469  0.00  0.00    -0.004 A 
ATOM      5  C5  N4B d   1       1.992   2.710  -1.671  0.00  0.00     0.002 A 
ATOM      6  C6  N4B d   1       2.477   1.721  -0.839  0.00  0.00     0.002 A 
ENDROOT
BRANCH   1   7
ATOM      7  C1' N4B d   1       2.374  -0.531   0.168  0.00  0.00     0.057 C 
BRANCH   7   8
ATOM      8  C2' N4B d   1       1.277  -1.564   0.409  0.00  0.00     0.009 C 
BRANCH   8   9
ATOM      9  C3' N4B d   1       1.766  -2.723   1.261  0.00  0.00     0.004 C 
ATOM     10  C4' N4B d   1       2.925  -3.449   0.646  0.00  0.00     0.003 C 
ENDBRANCH   8   9
ENDBRANCH   7   8
ENDBRANCH   1   7
TORSDOF 3
ENDMDL
