MODEL 1
REMARK minimizedAffinity 6.56455851
REMARK minimizedRMSD -1
REMARK  3 active torsions:
REMARK  status: ('A' for Active; 'I' for Inactive)
REMARK    1  A    between atoms: C3'_2  and  C2'_3 
REMARK    2  A    between atoms: C2'_3  and  C1'_4 
REMARK    3  A    between atoms: C1'_4  and  C1_5 
ROOT
ATOM      1  C1  N4B d   1      -4.021   0.705   2.851  0.00  0.00    -0.075 A 
ATOM      2  C2  N4B d   1      -2.816   0.140   3.324  0.00  0.00     0.002 A 
ATOM      3  C3  N4B d   1      -2.112  -0.736   2.535  0.00  0.00     0.002 A 
ATOM      4  C4  N4B d   1      -2.602  -1.076   1.282  0.00  0.00    -0.004 A 
ATOM      5  C5  N4B d   1      -3.753  -0.506   0.823  0.00  0.00     0.002 A 
ATOM      6  C6  N4B d   1      -4.469   0.379   1.604  0.00  0.00     0.002 A 
ENDROOT
BRANCH   1   7
ATOM      7  C1' N4B d   1      -4.870   1.601   3.712  0.00  0.00     0.057 C 
BRANCH   7   8
ATOM      8  C2' N4B d   1      -4.682   1.214   5.176  0.00  0.00     0.009 C 
BRANCH   8   9
ATOM      9  C3' N4B d   1      -4.095   2.352   5.993  0.00  0.00     0.004 C 
ATOM     10  C4' N4B d   1      -4.088   3.656   5.252  0.00  0.00     0.003 C 
ENDBRANCH   8   9
ENDBRANCH   7   8
ENDBRANCH   1   7
TORSDOF 3
ENDMDL
