MODEL 1
REMARK minimizedAffinity -1.80755937
REMARK minimizedRMSD -1
REMARK  3 active torsions:
REMARK  status: ('A' for Active; 'I' for Inactive)
REMARK    1  A    between atoms: C3'_2  and  C2'_3 
REMARK    2  A    between atoms: C2'_3  and  C1'_4 
REMARK    3  A    between atoms: C1'_4  and  C1_5 
ROOT
ATOM      1  C1  N4B d   1       1.862   0.553  -1.286  0.00  0.00    -0.075 A 
ATOM      2  C2  N4B d   1       2.071   1.227  -0.063  0.00  0.00     0.002 A 
ATOM      3  C3  N4B d   1       2.971   2.262   0.006  0.00  0.00     0.002 A 
ATOM      4  C4  N4B d   1       3.684   2.627  -1.126  0.00  0.00    -0.004 A 
ATOM      5  C5  N4B d   1       3.458   1.988  -2.310  0.00  0.00     0.002 A 
ATOM      6  C6  N4B d   1       2.554   0.948  -2.394  0.00  0.00     0.002 A 
ENDROOT
BRANCH   1   7
ATOM      7  C1' N4B d   1       0.952  -0.641  -1.390  0.00  0.00     0.057 C 
BRANCH   7   8
ATOM      8  C2' N4B d   1       1.686  -1.876  -0.875  0.00  0.00     0.009 C 
BRANCH   8   9
ATOM      9  C3' N4B d   1       1.708  -1.931   0.643  0.00  0.00     0.004 C 
ATOM     10  C4' N4B d   1       2.888  -2.685   1.180  0.00  0.00     0.003 C 
ENDBRANCH   8   9
ENDBRANCH   7   8
ENDBRANCH   1   7
TORSDOF 3
ENDMDL
