MODEL 1
REMARK minimizedAffinity 17.0636978
REMARK minimizedRMSD -1
REMARK  0 active torsions:
REMARK  status: ('A' for Active; 'I' for Inactive)
ROOT
ATOM      1  O1  BZF d   1       0.726  -3.015   1.478  0.00  0.00    -0.204 OA
ATOM      2  C2  BZF d   1       1.636  -2.258   2.188  0.00  0.00     0.174 A 
ATOM      3  C3  BZF d   1       1.144  -1.027   2.436  0.00  0.00    -0.012 A 
ATOM      4  C3A BZF d   1      -0.191  -1.045   1.924  0.00  0.00    -0.107 A 
ATOM      5  C4  BZF d   1      -1.195  -0.120   1.887  0.00  0.00     0.055 A 
ATOM      6  C5  BZF d   1      -2.355  -0.430   1.249  0.00  0.00    -0.016 A 
ATOM      7  C6  BZF d   1      -2.542  -1.650   0.634  0.00  0.00     0.022 A 
ATOM      8  C7  BZF d   1      -1.577  -2.601   0.649  0.00  0.00     0.029 A 
ATOM      9  C7A BZF d   1      -0.417  -2.304   1.321  0.00  0.00     0.058 A 
ENDROOT
TORSDOF 0
ENDMDL
