MODEL 1
REMARK minimizedAffinity 25.133894
REMARK minimizedRMSD -1
REMARK  0 active torsions:
REMARK  status: ('A' for Active; 'I' for Inactive)
ROOT
ATOM      1  O1  BZF d   1       0.157  -3.056   1.857  0.00  0.00    -0.204 OA
ATOM      2  C2  BZF d   1       1.218  -2.264   2.254  0.00  0.00     0.174 A 
ATOM      3  C3  BZF d   1       0.997  -0.973   1.933  0.00  0.00    -0.012 A 
ATOM      4  C3A BZF d   1      -0.322  -0.943   1.379  0.00  0.00    -0.107 A 
ATOM      5  C4  BZF d   1      -1.112   0.057   0.889  0.00  0.00     0.055 A 
ATOM      6  C5  BZF d   1      -2.321  -0.258   0.354  0.00  0.00    -0.016 A 
ATOM      7  C6  BZF d   1      -2.768  -1.561   0.288  0.00  0.00     0.022 A 
ATOM      8  C7  BZF d   1      -2.022  -2.587   0.766  0.00  0.00     0.029 A 
ATOM      9  C7A BZF d   1      -0.814  -2.268   1.337  0.00  0.00     0.058 A 
ENDROOT
TORSDOF 0
ENDMDL
