MODEL 1
REMARK minimizedAffinity 5.58631659
REMARK minimizedRMSD -1
REMARK  0 active torsions:
REMARK  status: ('A' for Active; 'I' for Inactive)
ROOT
ATOM      1  O1  BZF d   1      -1.867  -2.673   1.580  0.00  0.00    -0.204 OA
ATOM      2  C2  BZF d   1      -0.621  -2.544   2.162  0.00  0.00     0.174 A 
ATOM      3  C3  BZF d   1      -0.249  -1.249   2.216  0.00  0.00    -0.012 A 
ATOM      4  C3A BZF d   1      -1.370  -0.515   1.714  0.00  0.00    -0.107 A 
ATOM      5  C4  BZF d   1      -1.616   0.817   1.535  0.00  0.00     0.055 A 
ATOM      6  C5  BZF d   1      -2.784   1.200   0.955  0.00  0.00    -0.016 A 
ATOM      7  C6  BZF d   1      -3.724   0.280   0.538  0.00  0.00     0.022 A 
ATOM      8  C7  BZF d   1      -3.527  -1.051   0.700  0.00  0.00     0.029 A 
ATOM      9  C7A BZF d   1      -2.363  -1.440   1.316  0.00  0.00     0.058 A 
ENDROOT
TORSDOF 0
ENDMDL
