MODEL 1
REMARK minimizedAffinity 16.7352791
REMARK minimizedRMSD -1
REMARK  0 active torsions:
REMARK  status: ('A' for Active; 'I' for Inactive)
ROOT
ATOM      1  O1  BZF d   1       5.457   4.123  -0.678  0.00  0.00    -0.204 OA
ATOM      2  C2  BZF d   1       6.000   5.165  -1.404  0.00  0.00     0.174 A 
ATOM      3  C3  BZF d   1       5.493   5.193  -2.654  0.00  0.00    -0.012 A 
ATOM      4  C3A BZF d   1       4.507   4.156  -2.683  0.00  0.00    -0.107 A 
ATOM      5  C4  BZF d   1       3.649   3.703  -3.644  0.00  0.00     0.055 A 
ATOM      6  C5  BZF d   1       2.866   2.625  -3.375  0.00  0.00    -0.016 A 
ATOM      7  C6  BZF d   1       2.918   1.974  -2.160  0.00  0.00     0.022 A 
ATOM      8  C7  BZF d   1       3.750   2.391  -1.174  0.00  0.00     0.029 A 
ATOM      9  C7A BZF d   1       4.518   3.499  -1.430  0.00  0.00     0.058 A 
ENDROOT
TORSDOF 0
ENDMDL
