MODEL 1
REMARK minimizedAffinity 16.0802441
REMARK minimizedRMSD -1
REMARK  0 active torsions:
REMARK  status: ('A' for Active; 'I' for Inactive)
ROOT
ATOM      1  O1  BZF d   1      -0.414   4.321  -3.665  0.00  0.00    -0.204 OA
ATOM      2  C2  BZF d   1      -0.029   5.502  -4.270  0.00  0.00     0.174 A 
ATOM      3  C3  BZF d   1       1.303   5.684  -4.158  0.00  0.00    -0.012 A 
ATOM      4  C3A BZF d   1       1.793   4.501  -3.519  0.00  0.00    -0.107 A 
ATOM      5  C4  BZF d   1       3.038   4.081  -3.149  0.00  0.00     0.055 A 
ATOM      6  C5  BZF d   1       3.167   2.906  -2.479  0.00  0.00    -0.016 A 
ATOM      7  C6  BZF d   1       2.073   2.129  -2.159  0.00  0.00     0.022 A 
ATOM      8  C7  BZF d   1       0.818   2.502  -2.509  0.00  0.00     0.029 A 
ATOM      9  C7A BZF d   1       0.688   3.673  -3.216  0.00  0.00     0.058 A 
ENDROOT
TORSDOF 0
ENDMDL
