MODEL 1
REMARK minimizedAffinity 9.93453407
REMARK minimizedRMSD -1
REMARK  0 active torsions:
REMARK  status: ('A' for Active; 'I' for Inactive)
ROOT
ATOM      1  O1  BZF d   1      -1.314  -5.190  -5.958  0.00  0.00    -0.204 OA
ATOM      2  C2  BZF d   1      -2.433  -5.999  -6.000  0.00  0.00     0.174 A 
ATOM      3  C3  BZF d   1      -3.067  -6.000  -4.810  0.00  0.00    -0.012 A 
ATOM      4  C3A BZF d   1      -2.348  -5.065  -3.999  0.00  0.00    -0.107 A 
ATOM      5  C4  BZF d   1      -2.505  -4.618  -2.718  0.00  0.00     0.055 A 
ATOM      6  C5  BZF d   1      -1.587  -3.759  -2.202  0.00  0.00    -0.016 A 
ATOM      7  C6  BZF d   1      -0.501  -3.330  -2.936  0.00  0.00     0.022 A 
ATOM      8  C7  BZF d   1      -0.306  -3.742  -4.212  0.00  0.00     0.029 A 
ATOM      9  C7A BZF d   1      -1.249  -4.585  -4.748  0.00  0.00     0.058 A 
ENDROOT
TORSDOF 0
ENDMDL
