MODEL 1
REMARK minimizedAffinity 10.4526052
REMARK minimizedRMSD -1
REMARK  0 active torsions:
REMARK  status: ('A' for Active; 'I' for Inactive)
ROOT
ATOM      1  O1  BZF d   1      -0.142  -3.248   1.756  0.00  0.00    -0.204 OA
ATOM      2  C2  BZF d   1       1.123  -2.881   2.171  0.00  0.00     0.174 A 
ATOM      3  C3  BZF d   1       1.180  -1.558   2.422  0.00  0.00    -0.012 A 
ATOM      4  C3A BZF d   1      -0.157  -1.082   2.236  0.00  0.00    -0.107 A 
ATOM      5  C4  BZF d   1      -0.741   0.146   2.355  0.00  0.00     0.055 A 
ATOM      6  C5  BZF d   1      -2.054   0.288   2.031  0.00  0.00    -0.016 A 
ATOM      7  C6  BZF d   1      -2.809  -0.775   1.581  0.00  0.00     0.022 A 
ATOM      8  C7  BZF d   1      -2.274  -2.014   1.451  0.00  0.00     0.029 A 
ATOM      9  C7A BZF d   1      -0.957  -2.167   1.809  0.00  0.00     0.058 A 
ENDROOT
TORSDOF 0
ENDMDL
