MODEL 1
REMARK minimizedAffinity 2.9059062
REMARK minimizedRMSD -1
REMARK  0 active torsions:
REMARK  status: ('A' for Active; 'I' for Inactive)
ROOT
ATOM      1  O1  BZF d   1      -1.977   0.049   3.613  0.00  0.00    -0.204 OA
ATOM      2  C2  BZF d   1      -1.498  -0.581   2.481  0.00  0.00     0.174 A 
ATOM      3  C3  BZF d   1      -2.401  -0.519   1.481  0.00  0.00    -0.012 A 
ATOM      4  C3A BZF d   1      -3.476   0.275   1.993  0.00  0.00    -0.107 A 
ATOM      5  C4  BZF d   1      -4.659   0.705   1.465  0.00  0.00     0.055 A 
ATOM      6  C5  BZF d   1      -5.519   1.403   2.253  0.00  0.00    -0.016 A 
ATOM      7  C6  BZF d   1      -5.229   1.684   3.572  0.00  0.00     0.022 A 
ATOM      8  C7  BZF d   1      -4.065   1.283   4.139  0.00  0.00     0.029 A 
ATOM      9  C7A BZF d   1      -3.181   0.605   3.336  0.00  0.00     0.058 A 
ENDROOT
TORSDOF 0
ENDMDL
