MODEL 1
REMARK minimizedAffinity 13.9522142
REMARK minimizedRMSD -1
REMARK  0 active torsions:
REMARK  status: ('A' for Active; 'I' for Inactive)
ROOT
ATOM      1  O1  BZF d   1       2.087   5.996  -1.516  0.00  0.00    -0.204 OA
ATOM      2  C2  BZF d   1       0.706   5.998  -1.490  0.00  0.00     0.174 A 
ATOM      3  C3  BZF d   1       0.219   4.796  -1.860  0.00  0.00    -0.012 A 
ATOM      4  C3A BZF d   1       1.369   3.965  -2.046  0.00  0.00    -0.107 A 
ATOM      5  C4  BZF d   1       1.535   2.657  -2.401  0.00  0.00     0.055 A 
ATOM      6  C5  BZF d   1       2.793   2.171  -2.565  0.00  0.00    -0.016 A 
ATOM      7  C6  BZF d   1       3.907   2.966  -2.388  0.00  0.00     0.022 A 
ATOM      8  C7  BZF d   1       3.793   4.268  -2.031  0.00  0.00     0.029 A 
ATOM      9  C7A BZF d   1       2.523   4.753  -1.832  0.00  0.00     0.058 A 
ENDROOT
TORSDOF 0
ENDMDL
