MODEL 1
REMARK minimizedAffinity 18.8642368
REMARK minimizedRMSD -1
REMARK  0 active torsions:
REMARK  status: ('A' for Active; 'I' for Inactive)
ROOT
ATOM      1  O1  BZF d   1       1.733   2.904  -3.596  0.00  0.00    -0.204 OA
ATOM      2  C2  BZF d   1       0.535   3.581  -3.713  0.00  0.00     0.174 A 
ATOM      3  C3  BZF d   1      -0.094   3.650  -2.522  0.00  0.00    -0.012 A 
ATOM      4  C3A BZF d   1       0.807   3.053  -1.585  0.00  0.00    -0.107 A 
ATOM      5  C4  BZF d   1       0.755   2.840  -0.237  0.00  0.00     0.055 A 
ATOM      6  C5  BZF d   1       1.769   2.165   0.365  0.00  0.00    -0.016 A 
ATOM      7  C6  BZF d   1       2.847   1.685  -0.351  0.00  0.00     0.022 A 
ATOM      8  C7  BZF d   1       2.946   1.877  -1.689  0.00  0.00     0.029 A 
ATOM      9  C7A BZF d   1       1.938   2.587  -2.294  0.00  0.00     0.058 A 
ENDROOT
TORSDOF 0
ENDMDL
