MODEL 1
REMARK minimizedAffinity 12.1024752
REMARK minimizedRMSD -1
REMARK  0 active torsions:
REMARK  status: ('A' for Active; 'I' for Inactive)
ROOT
ATOM      1  O1  BZF d   1      -1.410  -3.438   0.869  0.00  0.00    -0.204 OA
ATOM      2  C2  BZF d   1      -2.737  -3.107   0.675  0.00  0.00     0.174 A 
ATOM      3  C3  BZF d   1      -3.114  -2.129   1.523  0.00  0.00    -0.012 A 
ATOM      4  C3A BZF d   1      -1.926  -1.765   2.231  0.00  0.00    -0.107 A 
ATOM      5  C4  BZF d   1      -1.655  -0.839   3.198  0.00  0.00     0.055 A 
ATOM      6  C5  BZF d   1      -0.406  -0.788   3.732  0.00  0.00    -0.016 A 
ATOM      7  C6  BZF d   1       0.592  -1.649   3.327  0.00  0.00     0.022 A 
ATOM      8  C7  BZF d   1       0.373  -2.581   2.368  0.00  0.00     0.029 A 
ATOM      9  C7A BZF d   1      -0.879  -2.613   1.803  0.00  0.00     0.058 A 
ENDROOT
TORSDOF 0
ENDMDL
