MODEL 1
REMARK minimizedAffinity 12.4688148
REMARK minimizedRMSD -1
REMARK  0 active torsions:
REMARK  status: ('A' for Active; 'I' for Inactive)
ROOT
ATOM      1  O1  BZF d   1       2.705   3.417  -3.400  0.00  0.00    -0.204 OA
ATOM      2  C2  BZF d   1       1.601   3.931  -2.749  0.00  0.00     0.174 A 
ATOM      3  C3  BZF d   1       1.955   4.944  -1.931  0.00  0.00    -0.012 A 
ATOM      4  C3A BZF d   1       3.357   5.131  -2.151  0.00  0.00    -0.107 A 
ATOM      5  C4  BZF d   1       4.279   6.000  -1.641  0.00  0.00     0.055 A 
ATOM      6  C5  BZF d   1       5.581   5.872  -2.008  0.00  0.00    -0.016 A 
ATOM      7  C6  BZF d   1       5.996   4.884  -2.878  0.00  0.00     0.022 A 
ATOM      8  C7  BZF d   1       5.117   4.003  -3.413  0.00  0.00     0.029 A 
ATOM      9  C7A BZF d   1       3.796   4.150  -3.070  0.00  0.00     0.058 A 
ENDROOT
TORSDOF 0
ENDMDL
