MODEL 1
REMARK minimizedAffinity 13.6146317
REMARK minimizedRMSD -1
REMARK  0 active torsions:
REMARK  status: ('A' for Active; 'I' for Inactive)
ROOT
ATOM      1  O1  BZF d   1       1.125   3.982  -4.363  0.00  0.00    -0.204 OA
ATOM      2  C2  BZF d   1      -0.167   3.951  -3.876  0.00  0.00     0.174 A 
ATOM      3  C3  BZF d   1      -0.223   3.272  -2.712  0.00  0.00    -0.012 A 
ATOM      4  C3A BZF d   1       1.133   2.931  -2.409  0.00  0.00    -0.107 A 
ATOM      5  C4  BZF d   1       1.725   2.267  -1.373  0.00  0.00     0.055 A 
ATOM      6  C5  BZF d   1       3.064   2.039  -1.415  0.00  0.00    -0.016 A 
ATOM      7  C6  BZF d   1       3.839   2.455  -2.477  0.00  0.00     0.022 A 
ATOM      8  C7  BZF d   1       3.298   3.122  -3.525  0.00  0.00     0.029 A 
ATOM      9  C7A BZF d   1       1.950   3.383  -3.471  0.00  0.00     0.058 A 
ENDROOT
TORSDOF 0
ENDMDL
