MODEL 1
REMARK minimizedAffinity 11.4863672
REMARK minimizedRMSD -1
REMARK  0 active torsions:
REMARK  status: ('A' for Active; 'I' for Inactive)
ROOT
ATOM      1  O1  BZF d   1      -1.077   3.379  -4.568  0.00  0.00    -0.204 OA
ATOM      2  C2  BZF d   1      -1.364   4.641  -5.053  0.00  0.00     0.174 A 
ATOM      3  C3  BZF d   1      -0.536   5.559  -4.515  0.00  0.00    -0.012 A 
ATOM      4  C3A BZF d   1       0.382   4.813  -3.710  0.00  0.00    -0.107 A 
ATOM      5  C4  BZF d   1       1.451   5.163  -2.936  0.00  0.00     0.055 A 
ATOM      6  C5  BZF d   1       2.092   4.201  -2.221  0.00  0.00    -0.016 A 
ATOM      7  C6  BZF d   1       1.688   2.883  -2.252  0.00  0.00     0.022 A 
ATOM      8  C7  BZF d   1       0.636   2.486  -3.009  0.00  0.00     0.029 A 
ATOM      9  C7A BZF d   1       0.007   3.451  -3.759  0.00  0.00     0.058 A 
ENDROOT
TORSDOF 0
ENDMDL
