MODEL 1
REMARK minimizedAffinity 13.245883
REMARK minimizedRMSD -1
REMARK  0 active torsions:
REMARK  status: ('A' for Active; 'I' for Inactive)
ROOT
ATOM      1  O1  BZF d   1      -4.328  -3.765  -5.486  0.00  0.00    -0.204 OA
ATOM      2  C2  BZF d   1      -4.922  -4.902  -6.000  0.00  0.00     0.174 A 
ATOM      3  C3  BZF d   1      -4.056  -5.936  -6.000  0.00  0.00    -0.012 A 
ATOM      4  C3A BZF d   1      -2.874  -5.436  -5.366  0.00  0.00    -0.107 A 
ATOM      5  C4  BZF d   1      -1.667  -5.995  -5.057  0.00  0.00     0.055 A 
ATOM      6  C5  BZF d   1      -0.700  -5.216  -4.505  0.00  0.00    -0.016 A 
ATOM      7  C6  BZF d   1      -0.904  -3.875  -4.255  0.00  0.00     0.022 A 
ATOM      8  C7  BZF d   1      -2.086  -3.277  -4.540  0.00  0.00     0.029 A 
ATOM      9  C7A BZF d   1      -3.076  -4.069  -5.067  0.00  0.00     0.058 A 
ENDROOT
TORSDOF 0
ENDMDL
