MODEL 1
REMARK minimizedAffinity 3.33703303
REMARK minimizedRMSD -1
REMARK  0 active torsions:
REMARK  status: ('A' for Active; 'I' for Inactive)
ROOT
ATOM      1  O1  BZF d   1      -0.356  -3.194  -0.230  0.00  0.00    -0.204 OA
ATOM      2  C2  BZF d   1       0.982  -3.534  -0.235  0.00  0.00     0.174 A 
ATOM      3  C3  BZF d   1       1.658  -2.836   0.700  0.00  0.00    -0.012 A 
ATOM      4  C3A BZF d   1       0.663  -2.074   1.392  0.00  0.00    -0.107 A 
ATOM      5  C4  BZF d   1       0.711  -1.198   2.438  0.00  0.00     0.055 A 
ATOM      6  C5  BZF d   1      -0.430  -0.569   2.825  0.00  0.00    -0.016 A 
ATOM      7  C6  BZF d   1      -1.633  -0.789   2.187  0.00  0.00     0.022 A 
ATOM      8  C7  BZF d   1      -1.731  -1.654   1.148  0.00  0.00     0.029 A 
ATOM      9  C7A BZF d   1      -0.586  -2.315   0.775  0.00  0.00     0.058 A 
ENDROOT
TORSDOF 0
ENDMDL
