MODEL 1
REMARK minimizedAffinity -0.956815481
REMARK minimizedRMSD -1
REMARK  0 active torsions:
REMARK  status: ('A' for Active; 'I' for Inactive)
ROOT
ATOM      1  O1  BZF d   1      -1.481  -0.999   0.152  0.00  0.00    -0.204 OA
ATOM      2  C2  BZF d   1      -1.950   0.047  -0.619  0.00  0.00     0.174 A 
ATOM      3  C3  BZF d   1      -0.958   0.918  -0.898  0.00  0.00    -0.012 A 
ATOM      4  C3A BZF d   1       0.223   0.334  -0.340  0.00  0.00    -0.107 A 
ATOM      5  C4  BZF d   1       1.533   0.718  -0.304  0.00  0.00     0.055 A 
ATOM      6  C5  BZF d   1       2.425  -0.041   0.385  0.00  0.00    -0.016 A 
ATOM      7  C6  BZF d   1       2.041  -1.185   1.054  0.00  0.00     0.022 A 
ATOM      8  C7  BZF d   1       0.754  -1.608   1.043  0.00  0.00     0.029 A 
ATOM      9  C7A BZF d   1      -0.144  -0.862   0.320  0.00  0.00     0.058 A 
ENDROOT
TORSDOF 0
ENDMDL
