MODEL 1
REMARK minimizedAffinity -5.49711943
REMARK minimizedRMSD -1
REMARK  0 active torsions:
REMARK  status: ('A' for Active; 'I' for Inactive)
ROOT
ATOM      1  C   UNL d   1       3.061  -0.743  -1.508  0.00  0.00     0.020 A 
ATOM      2  C1  UNL d   1       2.138  -1.399  -0.694  0.00  0.00     0.020 A 
ATOM      3  C2  UNL d   1       0.862  -0.861  -0.511  0.00  0.00     0.034 A 
ATOM      4  C3  UNL d   1       0.506   0.336  -1.143  0.00  0.00     0.017 A 
ATOM      5  C4  UNL d   1       1.433   0.993  -1.960  0.00  0.00     0.017 A 
ATOM      6  C5  UNL d   1       2.709   0.450  -2.140  0.00  0.00     0.034 A 
ATOM      7 Cl   UNL d   1       1.066   2.474  -2.773  0.00  0.00    -0.070 Cl
ATOM      8 Cl1  UNL d   1      -1.089   0.943  -0.873  0.00  0.00    -0.070 Cl
ENDROOT
TORSDOF 0
ENDMDL
