MODEL 1
REMARK minimizedAffinity -1.69533777
REMARK minimizedRMSD -1
REMARK  0 active torsions:
REMARK  status: ('A' for Active; 'I' for Inactive)
ROOT
ATOM      1  C   UNL d   1       1.356  -1.969   0.130  0.00  0.00     0.020 A 
ATOM      2  C1  UNL d   1       1.584  -1.653  -1.209  0.00  0.00     0.020 A 
ATOM      3  C2  UNL d   1       1.096  -0.455  -1.736  0.00  0.00     0.034 A 
ATOM      4  C3  UNL d   1       0.377   0.430  -0.925  0.00  0.00     0.017 A 
ATOM      5  C4  UNL d   1       0.149   0.111   0.419  0.00  0.00     0.017 A 
ATOM      6  C5  UNL d   1       0.640  -1.089   0.942  0.00  0.00     0.034 A 
ATOM      7 Cl   UNL d   1      -0.730   1.153   1.482  0.00  0.00    -0.070 Cl
ATOM      8 Cl1  UNL d   1      -0.197   1.893  -1.643  0.00  0.00    -0.070 Cl
ENDROOT
TORSDOF 0
ENDMDL
