MODEL 1
REMARK minimizedAffinity -4.59382677
REMARK minimizedRMSD -1
REMARK  0 active torsions:
REMARK  status: ('A' for Active; 'I' for Inactive)
ROOT
ATOM      1  C   UNL d   1      -1.211  -0.390   0.379  0.00  0.00     0.020 A 
ATOM      2  C1  UNL d   1      -0.467   0.739   0.720  0.00  0.00     0.020 A 
ATOM      3  C2  UNL d   1       0.869   0.839   0.328  0.00  0.00     0.034 A 
ATOM      4  C3  UNL d   1       1.466  -0.192  -0.407  0.00  0.00     0.017 A 
ATOM      5  C4  UNL d   1       0.718  -1.324  -0.749  0.00  0.00     0.017 A 
ATOM      6  C5  UNL d   1      -0.620  -1.419  -0.355  0.00  0.00     0.034 A 
ATOM      7 Cl   UNL d   1       1.385  -2.637  -1.655  0.00  0.00    -0.070 Cl
ATOM      8 Cl1  UNL d   1       3.123  -0.002  -0.858  0.00  0.00    -0.070 Cl
ENDROOT
TORSDOF 0
ENDMDL
