MODEL 1
REMARK minimizedAffinity -3.08683586
REMARK minimizedRMSD -1
REMARK  0 active torsions:
REMARK  status: ('A' for Active; 'I' for Inactive)
ROOT
ATOM      1  C   UNL d   1       2.907  -0.660  -0.747  0.00  0.00     0.020 A 
ATOM      2  C1  UNL d   1       2.596   0.607  -0.254  0.00  0.00     0.020 A 
ATOM      3  C2  UNL d   1       1.282   0.912   0.108  0.00  0.00     0.034 A 
ATOM      4  C3  UNL d   1       0.274  -0.050  -0.024  0.00  0.00     0.017 A 
ATOM      5  C4  UNL d   1       0.587  -1.322  -0.519  0.00  0.00     0.017 A 
ATOM      6  C5  UNL d   1       1.905  -1.622  -0.879  0.00  0.00     0.034 A 
ATOM      7 Cl   UNL d   1      -0.602  -2.561  -0.709  0.00  0.00    -0.070 Cl
ATOM      8 Cl1  UNL d   1      -1.329   0.396   0.442  0.00  0.00    -0.070 Cl
ENDROOT
TORSDOF 0
ENDMDL
