MODEL 1
REMARK minimizedAffinity -0.721494377
REMARK minimizedRMSD -1
REMARK  0 active torsions:
REMARK  status: ('A' for Active; 'I' for Inactive)
ROOT
ATOM      1  C   UNL d   1      -0.023   0.773   0.621  0.00  0.00     0.020 A 
ATOM      2  C1  UNL d   1      -0.840  -0.245   0.132  0.00  0.00     0.020 A 
ATOM      3  C2  UNL d   1      -0.324  -1.189  -0.759  0.00  0.00     0.034 A 
ATOM      4  C3  UNL d   1       1.014  -1.116  -1.164  0.00  0.00     0.017 A 
ATOM      5  C4  UNL d   1       1.834  -0.094  -0.672  0.00  0.00     0.017 A 
ATOM      6  C5  UNL d   1       1.311   0.848   0.219  0.00  0.00     0.034 A 
ATOM      7 Cl   UNL d   1       3.495   0.061  -1.126  0.00  0.00    -0.070 Cl
ATOM      8 Cl1  UNL d   1       1.586  -2.316  -2.267  0.00  0.00    -0.070 Cl
ENDROOT
TORSDOF 0
ENDMDL
