MODEL 1
REMARK minimizedAffinity -0.943956673
REMARK minimizedRMSD -1
REMARK  0 active torsions:
REMARK  status: ('A' for Active; 'I' for Inactive)
ROOT
ATOM      1  C   UNL d   1       3.230   0.081  -0.252  0.00  0.00     0.020 A 
ATOM      2  C1  UNL d   1       2.915  -0.832  -1.258  0.00  0.00     0.020 A 
ATOM      3  C2  UNL d   1       1.588  -1.217  -1.460  0.00  0.00     0.034 A 
ATOM      4  C3  UNL d   1       0.571  -0.689  -0.656  0.00  0.00     0.017 A 
ATOM      5  C4  UNL d   1       0.889   0.227   0.353  0.00  0.00     0.017 A 
ATOM      6  C5  UNL d   1       2.219   0.609   0.551  0.00  0.00     0.034 A 
ATOM      7 Cl   UNL d   1      -0.311   0.922   1.385  0.00  0.00    -0.070 Cl
ATOM      8 Cl1  UNL d   1      -1.047  -1.209  -0.963  0.00  0.00    -0.070 Cl
ENDROOT
TORSDOF 0
ENDMDL
