MODEL 1
REMARK minimizedAffinity -4.06088972
REMARK minimizedRMSD -1
REMARK  0 active torsions:
REMARK  status: ('A' for Active; 'I' for Inactive)
ROOT
ATOM      1  C   UNL d   1       0.022   2.020  -1.369  0.00  0.00     0.020 A 
ATOM      2  C1  UNL d   1      -0.985   1.487  -0.565  0.00  0.00     0.020 A 
ATOM      3  C2  UNL d   1      -0.805   0.244   0.047  0.00  0.00     0.034 A 
ATOM      4  C3  UNL d   1       0.383  -0.469  -0.144  0.00  0.00     0.017 A 
ATOM      5  C4  UNL d   1       1.393   0.066  -0.951  0.00  0.00     0.017 A 
ATOM      6  C5  UNL d   1       1.209   1.311  -1.562  0.00  0.00     0.034 A 
ATOM      7 Cl   UNL d   1       2.888  -0.755  -1.234  0.00  0.00    -0.070 Cl
ATOM      8 Cl1  UNL d   1       0.537  -2.000   0.643  0.00  0.00    -0.070 Cl
ENDROOT
TORSDOF 0
ENDMDL
