MODEL 1
REMARK minimizedAffinity 1.53515422
REMARK minimizedRMSD -1
REMARK  0 active torsions:
REMARK  status: ('A' for Active; 'I' for Inactive)
ROOT
ATOM      1  C   UNL d   1       0.956   1.119  -1.078  0.00  0.00     0.020 A 
ATOM      2  C1  UNL d   1      -0.333   1.546  -1.394  0.00  0.00     0.020 A 
ATOM      3  C2  UNL d   1      -1.406   1.196  -0.572  0.00  0.00     0.034 A 
ATOM      4  C3  UNL d   1      -1.192   0.416   0.570  0.00  0.00     0.017 A 
ATOM      5  C4  UNL d   1       0.102  -0.012   0.887  0.00  0.00     0.017 A 
ATOM      6  C5  UNL d   1       1.173   0.342   0.060  0.00  0.00     0.034 A 
ATOM      7 Cl   UNL d   1       0.445  -0.976   2.280  0.00  0.00    -0.070 Cl
ATOM      8 Cl1  UNL d   1      -2.565   0.020   1.542  0.00  0.00    -0.070 Cl
ENDROOT
TORSDOF 0
ENDMDL
