MODEL 1
REMARK minimizedAffinity -3.20745468
REMARK minimizedRMSD -1
REMARK  0 active torsions:
REMARK  status: ('A' for Active; 'I' for Inactive)
ROOT
ATOM      1  C   UNL d   1       1.871   0.373  -1.264  0.00  0.00     0.020 A 
ATOM      2  C1  UNL d   1       2.074  -0.932  -1.708  0.00  0.00     0.020 A 
ATOM      3  C2  UNL d   1       1.260  -1.965  -1.236  0.00  0.00     0.034 A 
ATOM      4  C3  UNL d   1       0.240  -1.693  -0.317  0.00  0.00     0.017 A 
ATOM      5  C4  UNL d   1       0.037  -0.382   0.128  0.00  0.00     0.017 A 
ATOM      6  C5  UNL d   1       0.854   0.648  -0.348  0.00  0.00     0.034 A 
ATOM      7 Cl   UNL d   1      -1.201   0.031   1.261  0.00  0.00    -0.070 Cl
ATOM      8 Cl1  UNL d   1      -0.728  -3.018   0.224  0.00  0.00    -0.070 Cl
ENDROOT
TORSDOF 0
ENDMDL
