MODEL 1
REMARK minimizedAffinity -4.70063829
REMARK minimizedRMSD -1
REMARK  0 active torsions:
REMARK  status: ('A' for Active; 'I' for Inactive)
ROOT
ATOM      1  C   UNL d   1       2.383   0.706  -1.317  0.00  0.00     0.020 A 
ATOM      2  C1  UNL d   1       2.485  -0.592  -1.814  0.00  0.00     0.020 A 
ATOM      3  C2  UNL d   1       1.521  -1.545  -1.481  0.00  0.00     0.034 A 
ATOM      4  C3  UNL d   1       0.449  -1.201  -0.648  0.00  0.00     0.017 A 
ATOM      5  C4  UNL d   1       0.348   0.103  -0.150  0.00  0.00     0.017 A 
ATOM      6  C5  UNL d   1       1.317   1.053  -0.487  0.00  0.00     0.034 A 
ATOM      7 Cl   UNL d   1      -0.945   0.602   0.883  0.00  0.00    -0.070 Cl
ATOM      8 Cl1  UNL d   1      -0.707  -2.430  -0.277  0.00  0.00    -0.070 Cl
ENDROOT
TORSDOF 0
ENDMDL
