MODEL 1
REMARK minimizedAffinity -2.96263814
REMARK minimizedRMSD -1
REMARK  0 active torsions:
REMARK  status: ('A' for Active; 'I' for Inactive)
ROOT
ATOM      1  C   UNL d   1       1.229  -0.011   0.145  0.00  0.00     0.020 A 
ATOM      2  C1  UNL d   1       0.336  -0.884  -0.475  0.00  0.00     0.020 A 
ATOM      3  C2  UNL d   1      -1.010  -0.885  -0.104  0.00  0.00     0.034 A 
ATOM      4  C3  UNL d   1      -1.467  -0.012   0.889  0.00  0.00     0.017 A 
ATOM      5  C4  UNL d   1      -0.570   0.864   1.511  0.00  0.00     0.017 A 
ATOM      6  C5  UNL d   1       0.777   0.861   1.136  0.00  0.00     0.034 A 
ATOM      7 Cl   UNL d   1      -1.060   1.971   2.745  0.00  0.00    -0.070 Cl
ATOM      8 Cl1  UNL d   1      -3.145  -0.067   1.298  0.00  0.00    -0.070 Cl
ENDROOT
TORSDOF 0
ENDMDL
