MODEL 1
REMARK minimizedAffinity -3.84007382
REMARK minimizedRMSD -1
REMARK  0 active torsions:
REMARK  status: ('A' for Active; 'I' for Inactive)
ROOT
ATOM      1  C   UNL d   1       2.039  -1.748  -1.538  0.00  0.00     0.020 A 
ATOM      2  C1  UNL d   1       1.217  -2.018  -0.445  0.00  0.00     0.020 A 
ATOM      3  C2  UNL d   1       0.566  -0.972   0.213  0.00  0.00     0.034 A 
ATOM      4  C3  UNL d   1       0.737   0.348  -0.221  0.00  0.00     0.017 A 
ATOM      5  C4  UNL d   1       1.562   0.617  -1.318  0.00  0.00     0.017 A 
ATOM      6  C5  UNL d   1       2.211  -0.434  -1.974  0.00  0.00     0.034 A 
ATOM      7 Cl   UNL d   1       1.822   2.219  -1.912  0.00  0.00    -0.070 Cl
ATOM      8 Cl1  UNL d   1      -0.099   1.591   0.641  0.00  0.00    -0.070 Cl
ENDROOT
TORSDOF 0
ENDMDL
