MODEL 1
REMARK minimizedAffinity -1.57189655
REMARK minimizedRMSD -1
REMARK  0 active torsions:
REMARK  status: ('A' for Active; 'I' for Inactive)
ROOT
ATOM      1  C   UNL d   1       2.102   0.635  -0.668  0.00  0.00     0.020 A 
ATOM      2  C1  UNL d   1       2.089  -0.551  -1.402  0.00  0.00     0.020 A 
ATOM      3  C2  UNL d   1       1.036  -1.455  -1.250  0.00  0.00     0.034 A 
ATOM      4  C3  UNL d   1      -0.009  -1.176  -0.362  0.00  0.00     0.017 A 
ATOM      5  C4  UNL d   1       0.005   0.014   0.374  0.00  0.00     0.017 A 
ATOM      6  C5  UNL d   1       1.062   0.916   0.218  0.00  0.00     0.034 A 
ATOM      7 Cl   UNL d   1      -1.249   0.429   1.490  0.00  0.00    -0.070 Cl
ATOM      8 Cl1  UNL d   1      -1.279  -2.339  -0.225  0.00  0.00    -0.070 Cl
ENDROOT
TORSDOF 0
ENDMDL
