MODEL 1
REMARK minimizedAffinity 0.99644047
REMARK minimizedRMSD -1
REMARK  0 active torsions:
REMARK  status: ('A' for Active; 'I' for Inactive)
ROOT
ATOM      1  C   UNL d   1      -0.777  -1.026   0.120  0.00  0.00     0.020 A 
ATOM      2  C1  UNL d   1      -1.525   0.053  -0.350  0.00  0.00     0.020 A 
ATOM      3  C2  UNL d   1      -0.882   1.152  -0.922  0.00  0.00     0.034 A 
ATOM      4  C3  UNL d   1       0.514   1.176  -1.025  0.00  0.00     0.017 A 
ATOM      5  C4  UNL d   1       1.264   0.093  -0.553  0.00  0.00     0.017 A 
ATOM      6  C5  UNL d   1       0.615  -1.006   0.019  0.00  0.00     0.034 A 
ATOM      7 Cl   UNL d   1       2.989   0.050  -0.645  0.00  0.00    -0.070 Cl
ATOM      8 Cl1  UNL d   1       1.243   2.568  -1.744  0.00  0.00    -0.070 Cl
ENDROOT
TORSDOF 0
ENDMDL
