MODEL 1
REMARK minimizedAffinity -4.62293148
REMARK minimizedRMSD -1
REMARK  0 active torsions:
REMARK  status: ('A' for Active; 'I' for Inactive)
ROOT
ATOM      1  C   UNL d   1      -0.442  -0.348  -0.527  0.00  0.00     0.020 A 
ATOM      2  C1  UNL d   1       0.308  -1.520  -0.608  0.00  0.00     0.020 A 
ATOM      3  C2  UNL d   1       1.646  -1.466  -1.003  0.00  0.00     0.034 A 
ATOM      4  C3  UNL d   1       2.238  -0.238  -1.320  0.00  0.00     0.017 A 
ATOM      5  C4  UNL d   1       1.484   0.938  -1.238  0.00  0.00     0.017 A 
ATOM      6  C5  UNL d   1       0.144   0.879  -0.842  0.00  0.00     0.034 A 
ATOM      7 Cl   UNL d   1       2.145   2.491  -1.613  0.00  0.00    -0.070 Cl
ATOM      8 Cl1  UNL d   1       3.897  -0.246  -1.801  0.00  0.00    -0.070 Cl
ENDROOT
TORSDOF 0
ENDMDL
