MODEL 1
REMARK minimizedAffinity -1.86729264
REMARK minimizedRMSD -1
REMARK  0 active torsions:
REMARK  status: ('A' for Active; 'I' for Inactive)
ROOT
ATOM      1  C   UNL d   1       2.341  -1.103  -1.677  0.00  0.00     0.020 A 
ATOM      2  C1  UNL d   1       2.394   0.218  -1.236  0.00  0.00     0.020 A 
ATOM      3  C2  UNL d   1       1.385   0.720  -0.410  0.00  0.00     0.034 A 
ATOM      4  C3  UNL d   1       0.319  -0.101  -0.023  0.00  0.00     0.017 A 
ATOM      5  C4  UNL d   1       0.267  -1.427  -0.467  0.00  0.00     0.017 A 
ATOM      6  C5  UNL d   1       1.280  -1.924  -1.293  0.00  0.00     0.034 A 
ATOM      7 Cl   UNL d   1      -1.016  -2.501  -0.031  0.00  0.00    -0.070 Cl
ATOM      8 Cl1  UNL d   1      -0.893   0.585   0.999  0.00  0.00    -0.070 Cl
ENDROOT
TORSDOF 0
ENDMDL
