MODEL 1
REMARK minimizedAffinity -1.94148421
REMARK minimizedRMSD -1
REMARK  0 active torsions:
REMARK  status: ('A' for Active; 'I' for Inactive)
ROOT
ATOM      1  C   UNL d   1       1.881  -5.971  -5.714  0.00  0.00     0.078 C 
ATOM      2  C1  UNL d   1       0.521  -5.987  -5.082  0.00  0.00    -0.077 A 
ATOM      3  C2  UNL d   1      -0.639  -5.983  -5.866  0.00  0.00    -0.001 A 
ATOM      4  C3  UNL d   1      -1.898  -5.989  -5.263  0.00  0.00     0.003 A 
ATOM      5  C4  UNL d   1      -2.009  -5.997  -3.874  0.00  0.00    -0.005 A 
ATOM      6  C5  UNL d   1      -0.860  -6.000  -3.086  0.00  0.00     0.003 A 
ATOM      7  C6  UNL d   1       0.400  -5.994  -3.686  0.00  0.00    -0.001 A 
ENDROOT
TORSDOF 0
ENDMDL
