MODEL 1
REMARK minimizedAffinity 5.52329779
REMARK minimizedRMSD -1
REMARK  0 active torsions:
REMARK  status: ('A' for Active; 'I' for Inactive)
ROOT
ATOM      1  C   UNL d   1       2.079  -3.914  -5.987  0.00  0.00     0.078 C 
ATOM      2  C1  UNL d   1       0.990  -4.648  -5.263  0.00  0.00    -0.077 A 
ATOM      3  C2  UNL d   1      -0.027  -5.306  -5.966  0.00  0.00    -0.001 A 
ATOM      4  C3  UNL d   1      -1.039  -5.977  -5.278  0.00  0.00     0.003 A 
ATOM      5  C4  UNL d   1      -1.046  -5.995  -3.885  0.00  0.00    -0.005 A 
ATOM      6  C5  UNL d   1      -0.040  -5.341  -3.177  0.00  0.00     0.003 A 
ATOM      7  C6  UNL d   1       0.973  -4.669  -3.863  0.00  0.00    -0.001 A 
ENDROOT
TORSDOF 0
ENDMDL
