MODEL 1
REMARK minimizedAffinity 0.370070666
REMARK minimizedRMSD -1
REMARK  0 active torsions:
REMARK  status: ('A' for Active; 'I' for Inactive)
ROOT
ATOM      1  C   UNL d   1      -4.579  -5.983   2.037  0.00  0.00     0.078 C 
ATOM      2  C1  UNL d   1      -4.421  -5.996   0.546  0.00  0.00    -0.077 A 
ATOM      3  C2  UNL d   1      -3.152  -5.994  -0.045  0.00  0.00    -0.001 A 
ATOM      4  C3  UNL d   1      -3.020  -5.996  -1.435  0.00  0.00     0.003 A 
ATOM      5  C4  UNL d   1      -4.153  -6.000  -2.245  0.00  0.00    -0.005 A 
ATOM      6  C5  UNL d   1      -5.421  -6.000  -1.666  0.00  0.00     0.003 A 
ATOM      7  C6  UNL d   1      -5.555  -5.997  -0.277  0.00  0.00    -0.001 A 
ENDROOT
TORSDOF 0
ENDMDL
