MODEL 1
REMARK minimizedAffinity -1.10781431
REMARK minimizedRMSD -1
REMARK  0 active torsions:
REMARK  status: ('A' for Active; 'I' for Inactive)
ROOT
ATOM      1  C   UNL d   1       2.681   0.720  -0.376  0.00  0.00     0.078 C 
ATOM      2  C1  UNL d   1       1.581  -0.195   0.073  0.00  0.00    -0.077 A 
ATOM      3  C2  UNL d   1       1.824  -1.555   0.304  0.00  0.00    -0.001 A 
ATOM      4  C3  UNL d   1       0.788  -2.397   0.712  0.00  0.00     0.003 A 
ATOM      5  C4  UNL d   1      -0.497  -1.889   0.891  0.00  0.00    -0.005 A 
ATOM      6  C5  UNL d   1      -0.748  -0.538   0.661  0.00  0.00     0.003 A 
ATOM      7  C6  UNL d   1       0.286   0.306   0.253  0.00  0.00    -0.001 A 
ENDROOT
TORSDOF 0
ENDMDL
