MODEL 1
REMARK minimizedAffinity -0.958605289
REMARK minimizedRMSD -1
REMARK  0 active torsions:
REMARK  status: ('A' for Active; 'I' for Inactive)
ROOT
ATOM      1  C   UNL d   1      -4.490  -5.980   1.272  0.00  0.00     0.078 C 
ATOM      2  C1  UNL d   1      -4.438  -5.994  -0.226  0.00  0.00    -0.077 A 
ATOM      3  C2  UNL d   1      -3.213  -5.992  -0.906  0.00  0.00    -0.001 A 
ATOM      4  C3  UNL d   1      -3.180  -5.996  -2.301  0.00  0.00     0.003 A 
ATOM      5  C4  UNL d   1      -4.368  -6.000  -3.029  0.00  0.00    -0.005 A 
ATOM      6  C5  UNL d   1      -5.591  -5.999  -2.362  0.00  0.00     0.003 A 
ATOM      7  C6  UNL d   1      -5.626  -5.996  -0.967  0.00  0.00    -0.001 A 
ENDROOT
TORSDOF 0
ENDMDL
