MODEL 1
REMARK minimizedAffinity 2.06768894
REMARK minimizedRMSD -1
REMARK  0 active torsions:
REMARK  status: ('A' for Active; 'I' for Inactive)
ROOT
ATOM      1  C   UNL d   1      -2.006  -5.982  -5.780  0.00  0.00     0.078 C 
ATOM      2  C1  UNL d   1      -0.630  -5.959  -5.185  0.00  0.00    -0.077 A 
ATOM      3  C2  UNL d   1       0.509  -5.980  -6.000  0.00  0.00    -0.001 A 
ATOM      4  C3  UNL d   1       1.784  -5.969  -5.432  0.00  0.00     0.003 A 
ATOM      5  C4  UNL d   1       1.932  -5.937  -4.047  0.00  0.00    -0.005 A 
ATOM      6  C5  UNL d   1       0.805  -5.918  -3.228  0.00  0.00     0.003 A 
ATOM      7  C6  UNL d   1      -0.470  -5.929  -3.794  0.00  0.00    -0.001 A 
ENDROOT
TORSDOF 0
ENDMDL
