MODEL 1
REMARK minimizedAffinity 3.04016471
REMARK minimizedRMSD -1
REMARK  0 active torsions:
REMARK  status: ('A' for Active; 'I' for Inactive)
ROOT
ATOM      1  C   UNL d   1       2.113   0.752  -0.457  0.00  0.00     0.078 C 
ATOM      2  C1  UNL d   1       1.474  -0.462   0.148  0.00  0.00    -0.077 A 
ATOM      3  C2  UNL d   1       2.252  -1.526   0.622  0.00  0.00    -0.001 A 
ATOM      4  C3  UNL d   1       1.644  -2.654   1.174  0.00  0.00     0.003 A 
ATOM      5  C4  UNL d   1       0.255  -2.731   1.256  0.00  0.00    -0.005 A 
ATOM      6  C5  UNL d   1      -0.528  -1.678   0.785  0.00  0.00     0.003 A 
ATOM      7  C6  UNL d   1       0.079  -0.549   0.233  0.00  0.00    -0.001 A 
ENDROOT
TORSDOF 0
ENDMDL
