MODEL 1
REMARK minimizedAffinity -1.1505357
REMARK minimizedRMSD -1
REMARK  0 active torsions:
REMARK  status: ('A' for Active; 'I' for Inactive)
ROOT
ATOM      1  C   UNL d   1      -3.034  -5.978  -3.473  0.00  0.00     0.078 C 
ATOM      2  C1  UNL d   1      -1.652  -5.974  -4.056  0.00  0.00    -0.077 A 
ATOM      3  C2  UNL d   1      -0.521  -6.000  -3.231  0.00  0.00    -0.001 A 
ATOM      4  C3  UNL d   1       0.759  -5.986  -3.787  0.00  0.00     0.003 A 
ATOM      5  C4  UNL d   1       0.920  -5.946  -5.171  0.00  0.00    -0.005 A 
ATOM      6  C5  UNL d   1      -0.199  -5.918  -6.000  0.00  0.00     0.003 A 
ATOM      7  C6  UNL d   1      -1.480  -5.931  -5.445  0.00  0.00    -0.001 A 
ENDROOT
TORSDOF 0
ENDMDL
