MODEL 1
REMARK minimizedAffinity -0.125939071
REMARK minimizedRMSD -1
REMARK  0 active torsions:
REMARK  status: ('A' for Active; 'I' for Inactive)
ROOT
ATOM      1  C   UNL d   1       1.501  -5.637  -5.885  0.00  0.00     0.078 C 
ATOM      2  C1  UNL d   1       0.205  -5.753  -5.140  0.00  0.00    -0.077 A 
ATOM      3  C2  UNL d   1       0.184  -5.884  -3.746  0.00  0.00    -0.001 A 
ATOM      4  C3  UNL d   1      -1.029  -6.000  -3.066  0.00  0.00     0.003 A 
ATOM      5  C4  UNL d   1      -2.231  -5.988  -3.772  0.00  0.00    -0.005 A 
ATOM      6  C5  UNL d   1      -2.220  -5.860  -5.159  0.00  0.00     0.003 A 
ATOM      7  C6  UNL d   1      -1.007  -5.744  -5.841  0.00  0.00    -0.001 A 
ENDROOT
TORSDOF 0
ENDMDL
