MODEL 1
REMARK minimizedAffinity -1.56668031
REMARK minimizedRMSD -1
REMARK  0 active torsions:
REMARK  status: ('A' for Active; 'I' for Inactive)
ROOT
ATOM      1  C   UNL d   1       0.336   0.706   0.204  0.00  0.00     0.078 C 
ATOM      2  C1  UNL d   1       0.226  -0.757   0.513  0.00  0.00    -0.077 A 
ATOM      3  C2  UNL d   1       1.068  -1.360   1.456  0.00  0.00    -0.001 A 
ATOM      4  C3  UNL d   1       0.962  -2.725   1.727  0.00  0.00     0.003 A 
ATOM      5  C4  UNL d   1       0.016  -3.499   1.059  0.00  0.00    -0.005 A 
ATOM      6  C5  UNL d   1      -0.825  -2.909   0.118  0.00  0.00     0.003 A 
ATOM      7  C6  UNL d   1      -0.720  -1.544  -0.155  0.00  0.00    -0.001 A 
ENDROOT
TORSDOF 0
ENDMDL
