MODEL 1
REMARK minimizedAffinity -3.66415763
REMARK minimizedRMSD -1
REMARK  0 active torsions:
REMARK  status: ('A' for Active; 'I' for Inactive)
ROOT
ATOM      1  C   UNL d   1      -2.766  -5.994  -2.660  0.00  0.00     0.078 C 
ATOM      2  C1  UNL d   1      -1.706  -5.715  -3.683  0.00  0.00    -0.077 A 
ATOM      3  C2  UNL d   1      -0.349  -5.725  -3.337  0.00  0.00    -0.001 A 
ATOM      4  C3  UNL d   1       0.627  -5.453  -4.298  0.00  0.00     0.003 A 
ATOM      5  C4  UNL d   1       0.256  -5.169  -5.610  0.00  0.00    -0.005 A 
ATOM      6  C5  UNL d   1      -1.092  -5.155  -5.964  0.00  0.00     0.003 A 
ATOM      7  C6  UNL d   1      -2.069  -5.426  -5.005  0.00  0.00    -0.001 A 
ENDROOT
TORSDOF 0
ENDMDL
