MODEL 1
REMARK minimizedAffinity -0.739699125
REMARK minimizedRMSD -1
REMARK  0 active torsions:
REMARK  status: ('A' for Active; 'I' for Inactive)
ROOT
ATOM      1  C   UNL d   1      -2.623  -5.999  -3.606  0.00  0.00     0.078 C 
ATOM      2  C1  UNL d   1      -1.211  -5.886  -4.097  0.00  0.00    -0.077 A 
ATOM      3  C2  UNL d   1      -0.154  -5.655  -3.208  0.00  0.00    -0.001 A 
ATOM      4  C3  UNL d   1       1.154  -5.542  -3.681  0.00  0.00     0.003 A 
ATOM      5  C4  UNL d   1       1.418  -5.658  -5.044  0.00  0.00    -0.005 A 
ATOM      6  C5  UNL d   1       0.373  -5.885  -5.937  0.00  0.00     0.003 A 
ATOM      7  C6  UNL d   1      -0.936  -5.999  -5.466  0.00  0.00    -0.001 A 
ENDROOT
TORSDOF 0
ENDMDL
