MODEL 1
REMARK minimizedAffinity 8.835186
REMARK minimizedRMSD -1
REMARK  0 active torsions:
REMARK  status: ('A' for Active; 'I' for Inactive)
ROOT
ATOM      1  C   UNL d   1       0.673  -1.801   1.222  0.00  0.00     0.078 C 
ATOM      2  C1  UNL d   1       0.734  -0.440   0.595  0.00  0.00    -0.077 A 
ATOM      3  C2  UNL d   1       1.874  -0.016  -0.098  0.00  0.00    -0.001 A 
ATOM      4  C3  UNL d   1       1.921   1.258  -0.668  0.00  0.00     0.003 A 
ATOM      5  C4  UNL d   1       0.830   2.117  -0.550  0.00  0.00    -0.005 A 
ATOM      6  C5  UNL d   1      -0.308   1.704   0.139  0.00  0.00     0.003 A 
ATOM      7  C6  UNL d   1      -0.356   0.432   0.710  0.00  0.00    -0.001 A 
ENDROOT
TORSDOF 0
ENDMDL
