MODEL 1
REMARK minimizedAffinity -2.09623957
REMARK minimizedRMSD -1
REMARK  0 active torsions:
REMARK  status: ('A' for Active; 'I' for Inactive)
ROOT
ATOM      1  C   UNL d   1       0.377  -5.999  -5.812  0.00  0.00     0.078 C 
ATOM      2  C1  UNL d   1       0.359  -5.794  -4.327  0.00  0.00    -0.077 A 
ATOM      3  C2  UNL d   1       1.515  -5.411  -3.637  0.00  0.00    -0.001 A 
ATOM      4  C3  UNL d   1       1.486  -5.233  -2.253  0.00  0.00     0.003 A 
ATOM      5  C4  UNL d   1       0.303  -5.438  -1.546  0.00  0.00    -0.005 A 
ATOM      6  C5  UNL d   1      -0.853  -5.822  -2.223  0.00  0.00     0.003 A 
ATOM      7  C6  UNL d   1      -0.826  -6.000  -3.607  0.00  0.00    -0.001 A 
ENDROOT
TORSDOF 0
ENDMDL
