MODEL 1
REMARK minimizedAffinity -1.22871256
REMARK minimizedRMSD -1
REMARK  1 active torsions:
REMARK  status: ('A' for Active; 'I' for Inactive)
REMARK    1  A    between atoms: C3_4  and  O_7 
ROOT
ATOM      1  C   UNL d   1       0.436   0.325   1.650  0.00  0.00    -0.033 A 
ATOM      2  C1  UNL d   1       0.327  -0.189   0.356  0.00  0.00     0.039 A 
ATOM      3  C2  UNL d   1       0.058   0.665  -0.715  0.00  0.00    -0.080 A 
ATOM      4  C3  UNL d   1      -0.098   2.029  -0.480  0.00  0.00     0.150 A 
ATOM      5  C4  UNL d   1       0.014   2.548   0.806  0.00  0.00    -0.007 A 
ATOM      6  C5  UNL d   1       0.282   1.693   1.874  0.00  0.00     0.039 A 
ENDROOT
BRANCH   4   7
ATOM      7  O   UNL d   1      -0.366   2.900  -1.493  0.00  0.00    -0.526 OA
ATOM      8  H5  UNL d   1      -0.444   2.396  -2.321  0.00  0.00     0.418 HD
ENDBRANCH   4   7
TORSDOF 1
ENDMDL
