MODEL 1
REMARK minimizedAffinity -4.85016441
REMARK minimizedRMSD -1
REMARK  1 active torsions:
REMARK  status: ('A' for Active; 'I' for Inactive)
REMARK    1  A    between atoms: C3_4  and  O_7 
ROOT
ATOM      1  C   UNL d   1      -0.624   3.203   0.501  0.00  0.00    -0.033 A 
ATOM      2  C1  UNL d   1      -0.554   2.892  -0.858  0.00  0.00     0.039 A 
ATOM      3  C2  UNL d   1      -0.235   1.594  -1.264  0.00  0.00    -0.080 A 
ATOM      4  C3  UNL d   1       0.012   0.619  -0.302  0.00  0.00     0.150 A 
ATOM      5  C4  UNL d   1      -0.059   0.921   1.054  0.00  0.00    -0.007 A 
ATOM      6  C5  UNL d   1      -0.378   2.217   1.457  0.00  0.00     0.039 A 
ENDROOT
BRANCH   4   7
ATOM      7  O   UNL d   1       0.332  -0.660  -0.649  0.00  0.00    -0.526 OA
ATOM      8  H5  UNL d   1       0.373  -0.714  -1.619  0.00  0.00     0.418 HD
ENDBRANCH   4   7
TORSDOF 1
ENDMDL
