MODEL 1
REMARK minimizedAffinity -3.04877448
REMARK minimizedRMSD -1
REMARK  1 active torsions:
REMARK  status: ('A' for Active; 'I' for Inactive)
REMARK    1  A    between atoms: C3_4  and  O_7 
ROOT
ATOM      1  C   UNL d   1       1.128  -0.348   2.515  0.00  0.00    -0.033 A 
ATOM      2  C1  UNL d   1       1.988  -0.698   1.471  0.00  0.00     0.039 A 
ATOM      3  C2  UNL d   1       1.485  -0.878   0.181  0.00  0.00    -0.080 A 
ATOM      4  C3  UNL d   1       0.124  -0.706  -0.052  0.00  0.00     0.150 A 
ATOM      5  C4  UNL d   1      -0.738  -0.354   0.982  0.00  0.00    -0.007 A 
ATOM      6  C5  UNL d   1      -0.234  -0.175   2.270  0.00  0.00     0.039 A 
ENDROOT
BRANCH   4   7
ATOM      7  O   UNL d   1      -0.414  -0.876  -1.293  0.00  0.00    -0.526 OA
ATOM      8  H5  UNL d   1       0.295  -1.145  -1.901  0.00  0.00     0.418 HD
ENDBRANCH   4   7
TORSDOF 1
ENDMDL
