MODEL 1
REMARK minimizedAffinity -4.37420702
REMARK minimizedRMSD -1
REMARK  1 active torsions:
REMARK  status: ('A' for Active; 'I' for Inactive)
REMARK    1  A    between atoms: C3_4  and  O_7 
ROOT
ATOM      1  C   UNL d   1       0.269   1.948   1.467  0.00  0.00    -0.033 A 
ATOM      2  C1  UNL d   1      -0.105   0.793   2.158  0.00  0.00     0.039 A 
ATOM      3  C2  UNL d   1      -0.197  -0.426   1.484  0.00  0.00    -0.080 A 
ATOM      4  C3  UNL d   1       0.088  -0.478   0.123  0.00  0.00     0.150 A 
ATOM      5  C4  UNL d   1       0.466   0.667  -0.571  0.00  0.00    -0.007 A 
ATOM      6  C5  UNL d   1       0.556   1.884   0.103  0.00  0.00     0.039 A 
ENDROOT
BRANCH   4   7
ATOM      7  O   UNL d   1       0.008  -1.645  -0.578  0.00  0.00    -0.526 OA
ATOM      8  H5  UNL d   1      -0.292  -2.346   0.024  0.00  0.00     0.418 HD
ENDBRANCH   4   7
TORSDOF 1
ENDMDL
