MODEL 1
REMARK minimizedAffinity -2.755934
REMARK minimizedRMSD -1
REMARK  1 active torsions:
REMARK  status: ('A' for Active; 'I' for Inactive)
REMARK    1  A    between atoms: C3_4  and  O_7 
ROOT
ATOM      1  C   UNL d   1       0.254  -0.312   0.117  0.00  0.00    -0.033 A 
ATOM      2  C1  UNL d   1       1.193  -0.754  -0.818  0.00  0.00     0.039 A 
ATOM      3  C2  UNL d   1       0.997  -1.962  -1.489  0.00  0.00    -0.080 A 
ATOM      4  C3  UNL d   1      -0.141  -2.718  -1.218  0.00  0.00     0.150 A 
ATOM      5  C4  UNL d   1      -1.082  -2.282  -0.291  0.00  0.00    -0.007 A 
ATOM      6  C5  UNL d   1      -0.884  -1.075   0.379  0.00  0.00     0.039 A 
ENDROOT
BRANCH   4   7
ATOM      7  O   UNL d   1      -0.373  -3.906  -1.845  0.00  0.00    -0.526 OA
ATOM      8  H5  UNL d   1       0.375  -4.093  -2.436  0.00  0.00     0.418 HD
ENDBRANCH   4   7
TORSDOF 1
ENDMDL
