MODEL 1
REMARK minimizedAffinity -0.906633973
REMARK minimizedRMSD -1
REMARK  1 active torsions:
REMARK  status: ('A' for Active; 'I' for Inactive)
REMARK    1  A    between atoms: C3_4  and  O_7 
ROOT
ATOM      1  C   UNL d   1       0.495   0.113  -1.110  0.00  0.00    -0.033 A 
ATOM      2  C1  UNL d   1       0.813  -0.565   0.069  0.00  0.00     0.039 A 
ATOM      3  C2  UNL d   1       0.681   0.077   1.302  0.00  0.00    -0.080 A 
ATOM      4  C3  UNL d   1       0.231   1.393   1.343  0.00  0.00     0.150 A 
ATOM      5  C4  UNL d   1      -0.091   2.073   0.174  0.00  0.00    -0.007 A 
ATOM      6  C5  UNL d   1       0.041   1.432  -1.057  0.00  0.00     0.039 A 
ENDROOT
BRANCH   4   7
ATOM      7  O   UNL d   1       0.091   2.062   2.523  0.00  0.00    -0.526 OA
ATOM      8  H5  UNL d   1       0.378   1.477   3.244  0.00  0.00     0.418 HD
ENDBRANCH   4   7
TORSDOF 1
ENDMDL
