MODEL 1
REMARK minimizedAffinity -3.83428168
REMARK minimizedRMSD -1
REMARK  1 active torsions:
REMARK  status: ('A' for Active; 'I' for Inactive)
REMARK    1  A    between atoms: C3_4  and  O_7 
ROOT
ATOM      1  C   UNL d   1       0.393  -0.379   0.039  0.00  0.00    -0.033 A 
ATOM      2  C1  UNL d   1      -0.419   0.489  -0.694  0.00  0.00     0.039 A 
ATOM      3  C2  UNL d   1      -1.082   1.537  -0.053  0.00  0.00    -0.080 A 
ATOM      4  C3  UNL d   1      -0.924   1.707   1.320  0.00  0.00     0.150 A 
ATOM      5  C4  UNL d   1      -0.114   0.849   2.056  0.00  0.00    -0.007 A 
ATOM      6  C5  UNL d   1       0.547  -0.198   1.414  0.00  0.00     0.039 A 
ENDROOT
BRANCH   4   7
ATOM      7  O   UNL d   1      -1.554   2.713   1.990  0.00  0.00    -0.526 OA
ATOM      8  H5  UNL d   1      -2.102   3.208   1.358  0.00  0.00     0.418 HD
ENDBRANCH   4   7
TORSDOF 1
ENDMDL
