MODEL 1
REMARK minimizedAffinity -3.97351718
REMARK minimizedRMSD -1
REMARK  1 active torsions:
REMARK  status: ('A' for Active; 'I' for Inactive)
REMARK    1  A    between atoms: C3_4  and  O_7 
ROOT
ATOM      1  C   UNL d   1       0.015  -2.998  -2.571  0.00  0.00    -0.033 A 
ATOM      2  C1  UNL d   1      -0.905  -3.195  -1.540  0.00  0.00     0.039 A 
ATOM      3  C2  UNL d   1      -0.974  -2.287  -0.481  0.00  0.00    -0.080 A 
ATOM      4  C3  UNL d   1      -0.120  -1.188  -0.467  0.00  0.00     0.150 A 
ATOM      5  C4  UNL d   1       0.796  -0.984  -1.493  0.00  0.00    -0.007 A 
ATOM      6  C5  UNL d   1       0.865  -1.892  -2.548  0.00  0.00     0.039 A 
ENDROOT
BRANCH   4   7
ATOM      7  O   UNL d   1      -0.148  -0.277   0.548  0.00  0.00    -0.526 OA
ATOM      8  H5  UNL d   1      -0.810  -0.563   1.199  0.00  0.00     0.418 HD
ENDBRANCH   4   7
TORSDOF 1
ENDMDL
