MODEL 1
REMARK minimizedAffinity 8.9194994
REMARK minimizedRMSD -1
REMARK  0 active torsions:
REMARK  status: ('A' for Active; 'I' for Inactive)
ROOT
ATOM      1  C   UNL d   1       0.936  -0.621  -0.266  0.00  0.00     0.020 A 
ATOM      2  C1  UNL d   1      -0.190  -1.058  -0.962  0.00  0.00     0.020 A 
ATOM      3  C2  UNL d   1      -1.445  -1.023  -0.351  0.00  0.00     0.034 A 
ATOM      4  C3  UNL d   1      -1.578  -0.550   0.959  0.00  0.00     0.017 A 
ATOM      5  C4  UNL d   1      -0.447  -0.112   1.657  0.00  0.00     0.017 A 
ATOM      6  C5  UNL d   1       0.808  -0.148   1.041  0.00  0.00     0.034 A 
ATOM      7 Cl   UNL d   1      -0.531   0.485   3.277  0.00  0.00    -0.070 Cl
ATOM      8 Cl1  UNL d   1      -3.161  -0.535   1.652  0.00  0.00    -0.070 Cl
ENDROOT
TORSDOF 0
ENDMDL
