MODEL 1
REMARK minimizedAffinity 2.96876574
REMARK minimizedRMSD -1
REMARK  0 active torsions:
REMARK  status: ('A' for Active; 'I' for Inactive)
ROOT
ATOM      1  C   UNL d   1      -0.551  -6.000   4.626  0.00  0.00     0.020 A 
ATOM      2  C1  UNL d   1      -1.475  -5.601   5.591  0.00  0.00     0.020 A 
ATOM      3  C2  UNL d   1      -1.525  -4.267   6.000  0.00  0.00     0.034 A 
ATOM      4  C3  UNL d   1      -0.650  -3.326   5.444  0.00  0.00     0.017 A 
ATOM      5  C4  UNL d   1       0.277  -3.728   4.475  0.00  0.00     0.017 A 
ATOM      6  C5  UNL d   1       0.323  -5.065   4.069  0.00  0.00     0.034 A 
ATOM      7 Cl   UNL d   1       1.389  -2.625   3.743  0.00  0.00    -0.070 Cl
ATOM      8 Cl1  UNL d   1      -0.768  -1.694   5.996  0.00  0.00    -0.070 Cl
ENDROOT
TORSDOF 0
ENDMDL
