MODEL 1
REMARK minimizedAffinity 7.37071466
REMARK minimizedRMSD -1
REMARK  0 active torsions:
REMARK  status: ('A' for Active; 'I' for Inactive)
ROOT
ATOM      1  C   UNL d   1      -1.069   2.527   2.881  0.00  0.00     0.020 A 
ATOM      2  C1  UNL d   1      -1.692   3.587   3.538  0.00  0.00     0.020 A 
ATOM      3  C2  UNL d   1      -3.084   3.700   3.515  0.00  0.00     0.034 A 
ATOM      4  C3  UNL d   1      -3.856   2.752   2.834  0.00  0.00     0.017 A 
ATOM      5  C4  UNL d   1      -3.229   1.689   2.175  0.00  0.00     0.017 A 
ATOM      6  C5  UNL d   1      -1.836   1.580   2.201  0.00  0.00     0.034 A 
ATOM      7 Cl   UNL d   1      -4.116   0.481   1.313  0.00  0.00    -0.070 Cl
ATOM      8 Cl1  UNL d   1      -5.572   2.955   2.848  0.00  0.00    -0.070 Cl
ENDROOT
TORSDOF 0
ENDMDL
