MODEL 1
REMARK minimizedAffinity 13.3799105
REMARK minimizedRMSD -1
REMARK  0 active torsions:
REMARK  status: ('A' for Active; 'I' for Inactive)
ROOT
ATOM      1  C   UNL d   1       0.483   0.062   0.410  0.00  0.00     0.020 A 
ATOM      2  C1  UNL d   1      -0.806  -0.034  -0.114  0.00  0.00     0.020 A 
ATOM      3  C2  UNL d   1      -1.082  -0.963  -1.119  0.00  0.00     0.034 A 
ATOM      4  C3  UNL d   1      -0.069  -1.799  -1.604  0.00  0.00     0.017 A 
ATOM      5  C4  UNL d   1       1.224  -1.701  -1.077  0.00  0.00     0.017 A 
ATOM      6  C5  UNL d   1       1.495  -0.769  -0.070  0.00  0.00     0.034 A 
ATOM      7 Cl   UNL d   1       2.526  -2.698  -1.624  0.00  0.00    -0.070 Cl
ATOM      8 Cl1  UNL d   1      -0.482  -2.924  -2.848  0.00  0.00    -0.070 Cl
ENDROOT
TORSDOF 0
ENDMDL
