MODEL 1
REMARK minimizedAffinity 3.93923187
REMARK minimizedRMSD -1
REMARK  0 active torsions:
REMARK  status: ('A' for Active; 'I' for Inactive)
ROOT
ATOM      1  C   UNL d   1       0.299  -0.233   2.445  0.00  0.00     0.020 A 
ATOM      2  C1  UNL d   1       1.151  -0.201   1.342  0.00  0.00     0.020 A 
ATOM      3  C2  UNL d   1       0.629  -0.336   0.053  0.00  0.00     0.034 A 
ATOM      4  C3  UNL d   1      -0.748  -0.503  -0.135  0.00  0.00     0.017 A 
ATOM      5  C4  UNL d   1      -1.602  -0.534   0.973  0.00  0.00     0.017 A 
ATOM      6  C5  UNL d   1      -1.074  -0.399   2.261  0.00  0.00     0.034 A 
ATOM      7 Cl   UNL d   1      -3.311  -0.737   0.821  0.00  0.00    -0.070 Cl
ATOM      8 Cl1  UNL d   1      -1.324  -0.662  -1.756  0.00  0.00    -0.070 Cl
ENDROOT
TORSDOF 0
ENDMDL
