MODEL 1
REMARK minimizedAffinity 5.32975721
REMARK minimizedRMSD -1
REMARK  0 active torsions:
REMARK  status: ('A' for Active; 'I' for Inactive)
ROOT
ATOM      1  C   UNL d   1      -1.856  -5.210   4.851  0.00  0.00     0.020 A 
ATOM      2  C1  UNL d   1      -1.181  -5.995   5.784  0.00  0.00     0.020 A 
ATOM      3  C2  UNL d   1       0.186  -5.808   5.996  0.00  0.00     0.034 A 
ATOM      4  C3  UNL d   1       0.883  -4.833   5.273  0.00  0.00     0.017 A 
ATOM      5  C4  UNL d   1       0.205  -4.045   4.336  0.00  0.00     0.017 A 
ATOM      6  C5  UNL d   1      -1.165  -4.236   4.129  0.00  0.00     0.034 A 
ATOM      7 Cl   UNL d   1       0.996  -2.821   3.407  0.00  0.00    -0.070 Cl
ATOM      8 Cl1  UNL d   1       2.573  -4.655   5.586  0.00  0.00    -0.070 Cl
ENDROOT
TORSDOF 0
ENDMDL
