MODEL 1
REMARK minimizedAffinity 12.018014
REMARK minimizedRMSD -1
REMARK  0 active torsions:
REMARK  status: ('A' for Active; 'I' for Inactive)
ROOT
ATOM      1  C   UNL d   1      -1.494  -5.634   5.470  0.00  0.00     0.020 A 
ATOM      2  C1  UNL d   1      -0.859  -5.998   4.283  0.00  0.00     0.020 A 
ATOM      3  C2  UNL d   1      -0.068  -5.071   3.601  0.00  0.00     0.034 A 
ATOM      4  C3  UNL d   1       0.090  -3.775   4.106  0.00  0.00     0.017 A 
ATOM      5  C4  UNL d   1      -0.547  -3.411   5.297  0.00  0.00     0.017 A 
ATOM      6  C5  UNL d   1      -1.338  -4.343   5.976  0.00  0.00     0.034 A 
ATOM      7 Cl   UNL d   1      -0.399  -1.831   5.982  0.00  0.00    -0.070 Cl
ATOM      8 Cl1  UNL d   1       1.083  -2.680   3.211  0.00  0.00    -0.070 Cl
ENDROOT
TORSDOF 0
ENDMDL
