MODEL 1
REMARK minimizedAffinity -0.520570338
REMARK minimizedRMSD -1
REMARK  0 active torsions:
REMARK  status: ('A' for Active; 'I' for Inactive)
ROOT
ATOM      1  C   UNL d   1       2.244  -1.124   0.505  0.00  0.00     0.023 A 
ATOM      2  C1  UNL d   1       2.486   0.019  -0.257  0.00  0.00     0.003 A 
ATOM      3  C2  UNL d   1       1.419   0.803  -0.701  0.00  0.00     0.048 A 
ATOM      4  C3  UNL d   1       0.112   0.438  -0.379  0.00  0.00     0.023 A 
ATOM      5  C4  UNL d   1      -0.135  -0.704   0.385  0.00  0.00     0.048 A 
ATOM      6  C5  UNL d   1       0.935  -1.485   0.825  0.00  0.00     0.003 A 
ATOM      7  I   UNL d   1      -1.477   1.604  -1.038  0.00  0.00    -0.146 I 
ENDROOT
TORSDOF 0
ENDMDL
