MODEL 1
REMARK minimizedAffinity -0.905471802
REMARK minimizedRMSD -1
REMARK  0 active torsions:
REMARK  status: ('A' for Active; 'I' for Inactive)
ROOT
ATOM      1  C   UNL d   1       1.386  -1.743   1.460  0.00  0.00     0.023 A 
ATOM      2  C1  UNL d   1       0.137  -1.223   1.799  0.00  0.00     0.003 A 
ATOM      3  C2  UNL d   1      -0.444  -0.228   1.010  0.00  0.00     0.048 A 
ATOM      4  C3  UNL d   1       0.228   0.241  -0.118  0.00  0.00     0.023 A 
ATOM      5  C4  UNL d   1       1.478  -0.278  -0.462  0.00  0.00     0.048 A 
ATOM      6  C5  UNL d   1       2.056  -1.271   0.330  0.00  0.00     0.003 A 
ATOM      7  I   UNL d   1      -0.635   1.721  -1.294  0.00  0.00    -0.146 I 
ENDROOT
TORSDOF 0
ENDMDL
