MODEL 1
REMARK minimizedAffinity -0.800521731
REMARK minimizedRMSD -1
REMARK  0 active torsions:
REMARK  status: ('A' for Active; 'I' for Inactive)
ROOT
ATOM      1  C   UNL d   1      -2.694   2.414  -3.063  0.00  0.00     0.023 A 
ATOM      2  C1  UNL d   1      -2.872   1.053  -2.814  0.00  0.00     0.003 A 
ATOM      3  C2  UNL d   1      -2.123   0.420  -1.820  0.00  0.00     0.048 A 
ATOM      4  C3  UNL d   1      -1.200   1.154  -1.077  0.00  0.00     0.023 A 
ATOM      5  C4  UNL d   1      -1.019   2.517  -1.321  0.00  0.00     0.048 A 
ATOM      6  C5  UNL d   1      -1.769   3.145  -2.317  0.00  0.00     0.003 A 
ATOM      7  I   UNL d   1      -0.085   0.214   0.404  0.00  0.00    -0.146 I 
ENDROOT
TORSDOF 0
ENDMDL
