MODEL 1
REMARK minimizedAffinity -0.392256886
REMARK minimizedRMSD -1
REMARK  0 active torsions:
REMARK  status: ('A' for Active; 'I' for Inactive)
ROOT
ATOM      1  C   UNL d   1      -0.661  -0.801   1.828  0.00  0.00     0.023 A 
ATOM      2  C1  UNL d   1      -1.565   0.260   1.885  0.00  0.00     0.003 A 
ATOM      3  C2  UNL d   1      -1.725   1.102   0.783  0.00  0.00     0.048 A 
ATOM      4  C3  UNL d   1      -0.979   0.877  -0.373  0.00  0.00     0.023 A 
ATOM      5  C4  UNL d   1      -0.074  -0.184  -0.435  0.00  0.00     0.048 A 
ATOM      6  C5  UNL d   1       0.083  -1.023   0.670  0.00  0.00     0.003 A 
ATOM      7  I   UNL d   1      -1.216   2.129  -2.015  0.00  0.00    -0.146 I 
ENDROOT
TORSDOF 0
ENDMDL
