MODEL 1
REMARK minimizedAffinity -3.01666379
REMARK minimizedRMSD -1
REMARK  0 active torsions:
REMARK  status: ('A' for Active; 'I' for Inactive)
ROOT
ATOM      1  C   UNL d   1      -2.376   1.702  -2.853  0.00  0.00     0.023 A 
ATOM      2  C1  UNL d   1      -1.844   0.446  -3.146  0.00  0.00     0.003 A 
ATOM      3  C2  UNL d   1      -0.827  -0.086  -2.350  0.00  0.00     0.048 A 
ATOM      4  C3  UNL d   1      -0.348   0.643  -1.262  0.00  0.00     0.023 A 
ATOM      5  C4  UNL d   1      -0.878   1.900  -0.965  0.00  0.00     0.048 A 
ATOM      6  C5  UNL d   1      -1.893   2.428  -1.764  0.00  0.00     0.003 A 
ATOM      7  I   UNL d   1       1.165  -0.147  -0.076  0.00  0.00    -0.146 I 
ENDROOT
TORSDOF 0
ENDMDL
