MODEL 1
REMARK minimizedAffinity 2.49956369
REMARK minimizedRMSD -1
REMARK  0 active torsions:
REMARK  status: ('A' for Active; 'I' for Inactive)
ROOT
ATOM      1  C   UNL d   1      -3.142  -5.555  -4.128  0.00  0.00     0.023 A 
ATOM      2  C1  UNL d   1      -2.038  -5.247  -3.333  0.00  0.00     0.003 A 
ATOM      3  C2  UNL d   1      -0.750  -5.315  -3.868  0.00  0.00     0.048 A 
ATOM      4  C3  UNL d   1      -0.573  -5.691  -5.199  0.00  0.00     0.023 A 
ATOM      5  C4  UNL d   1      -1.675  -5.999  -5.999  0.00  0.00     0.048 A 
ATOM      6  C5  UNL d   1      -2.961  -5.931  -5.459  0.00  0.00     0.003 A 
ATOM      7  I   UNL d   1       1.343  -5.792  -5.999  0.00  0.00    -0.146 I 
ENDROOT
TORSDOF 0
ENDMDL
