MODEL 1
REMARK minimizedAffinity -3.38904715
REMARK minimizedRMSD -1
REMARK  0 active torsions:
REMARK  status: ('A' for Active; 'I' for Inactive)
ROOT
ATOM      1  C   UNL d   1       1.557  -1.766   1.497  0.00  0.00     0.023 A 
ATOM      2  C1  UNL d   1       2.066  -1.284   0.291  0.00  0.00     0.003 A 
ATOM      3  C2  UNL d   1       1.278  -0.470  -0.525  0.00  0.00     0.048 A 
ATOM      4  C3  UNL d   1      -0.018  -0.140  -0.128  0.00  0.00     0.023 A 
ATOM      5  C4  UNL d   1      -0.531  -0.619   1.079  0.00  0.00     0.048 A 
ATOM      6  C5  UNL d   1       0.260  -1.434   1.890  0.00  0.00     0.003 A 
ATOM      7  I   UNL d   1      -1.193   1.072  -1.340  0.00  0.00    -0.146 I 
ENDROOT
TORSDOF 0
ENDMDL
