MODEL 1
REMARK minimizedAffinity -2.59209251
REMARK minimizedRMSD -1
REMARK  0 active torsions:
REMARK  status: ('A' for Active; 'I' for Inactive)
ROOT
ATOM      1  C   UNL d   1      -2.487   1.951  -2.463  0.00  0.00     0.023 A 
ATOM      2  C1  UNL d   1      -2.482   0.573  -2.248  0.00  0.00     0.003 A 
ATOM      3  C2  UNL d   1      -1.448  -0.017  -1.518  0.00  0.00     0.048 A 
ATOM      4  C3  UNL d   1      -0.423   0.777  -1.005  0.00  0.00     0.023 A 
ATOM      5  C4  UNL d   1      -0.425   2.157  -1.216  0.00  0.00     0.048 A 
ATOM      6  C5  UNL d   1      -1.461   2.742  -1.948  0.00  0.00     0.003 A 
ATOM      7  I   UNL d   1       1.117  -0.098   0.082  0.00  0.00    -0.146 I 
ENDROOT
TORSDOF 0
ENDMDL
