MODEL 1
REMARK minimizedAffinity -2.74515343
REMARK minimizedRMSD -1
REMARK  0 active torsions:
REMARK  status: ('A' for Active; 'I' for Inactive)
ROOT
ATOM      1  C   UNL d   1       1.877  -1.506   1.502  0.00  0.00     0.023 A 
ATOM      2  C1  UNL d   1       0.681  -1.039   2.046  0.00  0.00     0.003 A 
ATOM      3  C2  UNL d   1      -0.130  -0.172   1.311  0.00  0.00     0.048 A 
ATOM      4  C3  UNL d   1       0.261   0.224   0.032  0.00  0.00     0.023 A 
ATOM      5  C4  UNL d   1       1.457  -0.242  -0.516  0.00  0.00     0.048 A 
ATOM      6  C5  UNL d   1       2.265  -1.108   0.223  0.00  0.00     0.003 A 
ATOM      7  I   UNL d   1      -0.944   1.515  -1.063  0.00  0.00    -0.146 I 
ENDROOT
TORSDOF 0
ENDMDL
