MODEL 1
REMARK minimizedAffinity -1.24661493
REMARK minimizedRMSD -1
REMARK  0 active torsions:
REMARK  status: ('A' for Active; 'I' for Inactive)
ROOT
ATOM      1  C   UNL d   1       1.230  -1.156   1.385  0.00  0.00     0.023 A 
ATOM      2  C1  UNL d   1      -0.120  -0.886   1.610  0.00  0.00     0.003 A 
ATOM      3  C2  UNL d   1      -0.800   0.014   0.787  0.00  0.00     0.048 A 
ATOM      4  C3  UNL d   1      -0.124   0.640  -0.260  0.00  0.00     0.023 A 
ATOM      5  C4  UNL d   1       1.227   0.372  -0.489  0.00  0.00     0.048 A 
ATOM      6  C5  UNL d   1       1.902  -0.528   0.337  0.00  0.00     0.003 A 
ATOM      7  I   UNL d   1      -1.134   1.980  -1.487  0.00  0.00    -0.146 I 
ENDROOT
TORSDOF 0
ENDMDL
