MODEL 1
REMARK minimizedAffinity -3.15662503
REMARK minimizedRMSD -1
REMARK  0 active torsions:
REMARK  status: ('A' for Active; 'I' for Inactive)
ROOT
ATOM      1  C   UNL d   1      -3.372   0.162  -2.452  0.00  0.00     0.023 A 
ATOM      2  C1  UNL d   1      -2.160  -0.091  -3.095  0.00  0.00     0.003 A 
ATOM      3  C2  UNL d   1      -1.297   0.964  -3.401  0.00  0.00     0.048 A 
ATOM      4  C3  UNL d   1      -1.652   2.268  -3.060  0.00  0.00     0.023 A 
ATOM      5  C4  UNL d   1      -2.863   2.526  -2.416  0.00  0.00     0.048 A 
ATOM      6  C5  UNL d   1      -3.723   1.469  -2.113  0.00  0.00     0.003 A 
ATOM      7  I   UNL d   1      -0.369   3.839  -3.514  0.00  0.00    -0.146 I 
ENDROOT
TORSDOF 0
ENDMDL
