MODEL 1
REMARK minimizedAffinity -1.63595545
REMARK minimizedRMSD -1
REMARK  0 active torsions:
REMARK  status: ('A' for Active; 'I' for Inactive)
ROOT
ATOM      1  C   UNL d   1       1.965  -0.637  -0.549  0.00  0.00     0.023 A 
ATOM      2  C1  UNL d   1       2.363  -1.526   0.449  0.00  0.00     0.003 A 
ATOM      3  C2  UNL d   1       1.505  -1.812   1.513  0.00  0.00     0.048 A 
ATOM      4  C3  UNL d   1       0.251  -1.206   1.572  0.00  0.00     0.023 A 
ATOM      5  C4  UNL d   1      -0.152  -0.316   0.575  0.00  0.00     0.048 A 
ATOM      6  C5  UNL d   1       0.710  -0.033  -0.487  0.00  0.00     0.003 A 
ATOM      7  I   UNL d   1      -1.028  -1.631   3.155  0.00  0.00    -0.146 I 
ENDROOT
TORSDOF 0
ENDMDL
