MODEL 1
REMARK minimizedAffinity -3.27803373
REMARK minimizedRMSD -1
REMARK  0 active torsions:
REMARK  status: ('A' for Active; 'I' for Inactive)
ROOT
ATOM      1  C   UNL d   1       2.147  -1.241   0.830  0.00  0.00     0.023 A 
ATOM      2  C1  UNL d   1       1.090  -0.660   1.531  0.00  0.00     0.003 A 
ATOM      3  C2  UNL d   1       0.118   0.076   0.849  0.00  0.00     0.048 A 
ATOM      4  C3  UNL d   1       0.210   0.226  -0.534  0.00  0.00     0.023 A 
ATOM      5  C4  UNL d   1       1.265  -0.354  -1.240  0.00  0.00     0.048 A 
ATOM      6  C5  UNL d   1       2.234  -1.088  -0.554  0.00  0.00     0.003 A 
ATOM      7  I   UNL d   1      -1.235   1.321  -1.551  0.00  0.00    -0.146 I 
ENDROOT
TORSDOF 0
ENDMDL
