MODEL 1
REMARK minimizedAffinity -1.21589494
REMARK minimizedRMSD -1
REMARK  0 active torsions:
REMARK  status: ('A' for Active; 'I' for Inactive)
ROOT
ATOM      1  C   UNL d   1      -1.945   1.195   0.009  0.00  0.00     0.023 A 
ATOM      2  C1  UNL d   1      -0.812   1.138  -0.804  0.00  0.00     0.003 A 
ATOM      3  C2  UNL d   1       0.270   0.334  -0.440  0.00  0.00     0.048 A 
ATOM      4  C3  UNL d   1       0.213  -0.411   0.737  0.00  0.00     0.023 A 
ATOM      5  C4  UNL d   1      -0.919  -0.358   1.553  0.00  0.00     0.048 A 
ATOM      6  C5  UNL d   1      -1.998   0.448   1.186  0.00  0.00     0.003 A 
ATOM      7  I   UNL d   1       1.822  -1.609   1.281  0.00  0.00    -0.146 I 
ENDROOT
TORSDOF 0
ENDMDL
