MODEL 1
REMARK minimizedAffinity -1.98194337
REMARK minimizedRMSD -1
REMARK  0 active torsions:
REMARK  status: ('A' for Active; 'I' for Inactive)
ROOT
ATOM      1  C   UNL d   1      -3.009   1.192  -1.516  0.00  0.00     0.023 A 
ATOM      2  C1  UNL d   1      -2.752   0.267  -0.504  0.00  0.00     0.003 A 
ATOM      3  C2  UNL d   1      -1.443   0.056  -0.065  0.00  0.00     0.048 A 
ATOM      4  C3  UNL d   1      -0.396   0.775  -0.642  0.00  0.00     0.023 A 
ATOM      5  C4  UNL d   1      -0.649   1.702  -1.654  0.00  0.00     0.048 A 
ATOM      6  C5  UNL d   1      -1.959   1.909  -2.090  0.00  0.00     0.003 A 
ATOM      7  I   UNL d   1       1.552   0.463   0.010  0.00  0.00    -0.146 I 
ENDROOT
TORSDOF 0
ENDMDL
