MODEL 1
REMARK minimizedAffinity 7.92333794
REMARK minimizedRMSD -1
REMARK  1 active torsions:
REMARK  status: ('A' for Active; 'I' for Inactive)
REMARK    1  A    between atoms: C1_2  and  C2_3 
ROOT
ATOM      1  C2  UNL d   1      -1.825   2.072  -0.834  0.00  0.00    -0.077 A 
ATOM      2  C3  UNL d   1      -3.092   2.261  -1.404  0.00  0.00     0.002 A 
ATOM      3  C4  UNL d   1      -3.422   1.643  -2.612  0.00  0.00     0.002 A 
ATOM      4  C5  UNL d   1      -2.494   0.828  -3.256  0.00  0.00    -0.004 A 
ATOM      5  C6  UNL d   1      -1.231   0.635  -2.698  0.00  0.00     0.002 A 
ATOM      6  C7  UNL d   1      -0.898   1.253  -1.492  0.00  0.00     0.002 A 
ENDROOT
BRANCH   1   7
ATOM      7  C1  UNL d   1      -1.484   2.698   0.493  0.00  0.00     0.055 C 
ATOM      8  C   UNL d   1      -0.922   4.101   0.315  0.00  0.00     0.019 C 
ENDBRANCH   1   7
TORSDOF 1
ENDMDL
