MODEL 1
REMARK minimizedAffinity 3.67256403
REMARK minimizedRMSD -1
REMARK  1 active torsions:
REMARK  status: ('A' for Active; 'I' for Inactive)
REMARK    1  A    between atoms: C1_2  and  C2_3 
ROOT
ATOM      1  C2  UNL d   1       4.156  -3.563  -5.131  0.00  0.00    -0.077 A 
ATOM      2  C3  UNL d   1       5.316  -3.668  -5.912  0.00  0.00     0.002 A 
ATOM      3  C4  UNL d   1       6.000  -4.882  -6.000  0.00  0.00     0.002 A 
ATOM      4  C5  UNL d   1       5.530  -6.000  -5.314  0.00  0.00    -0.004 A 
ATOM      5  C6  UNL d   1       4.378  -5.904  -4.533  0.00  0.00     0.002 A 
ATOM      6  C7  UNL d   1       3.694  -4.692  -4.443  0.00  0.00     0.002 A 
ENDROOT
BRANCH   1   7
ATOM      7  C1  UNL d   1       3.389  -2.267  -5.074  0.00  0.00     0.055 C 
ATOM      8  C   UNL d   1       2.940  -1.952  -3.655  0.00  0.00     0.019 C 
ENDBRANCH   1   7
TORSDOF 1
ENDMDL
