MODEL 1
REMARK minimizedAffinity 9.56744957
REMARK minimizedRMSD -1
REMARK  1 active torsions:
REMARK  status: ('A' for Active; 'I' for Inactive)
REMARK    1  A    between atoms: C1_2  and  C2_3 
ROOT
ATOM      1  C2  UNL d   1      -0.441  -0.936  -1.699  0.00  0.00    -0.077 A 
ATOM      2  C3  UNL d   1      -1.104  -0.984  -0.465  0.00  0.00     0.002 A 
ATOM      3  C4  UNL d   1      -0.852  -2.022   0.433  0.00  0.00     0.002 A 
ATOM      4  C5  UNL d   1       0.066  -3.019   0.108  0.00  0.00    -0.004 A 
ATOM      5  C6  UNL d   1       0.730  -2.982  -1.118  0.00  0.00     0.002 A 
ATOM      6  C7  UNL d   1       0.478  -1.945  -2.017  0.00  0.00     0.002 A 
ENDROOT
BRANCH   1   7
ATOM      7  C1  UNL d   1      -0.675   0.210  -2.649  0.00  0.00     0.055 C 
ATOM      8  C   UNL d   1      -2.152   0.360  -2.982  0.00  0.00     0.019 C 
ENDBRANCH   1   7
TORSDOF 1
ENDMDL
