MODEL 1
REMARK minimizedAffinity -5.33320189
REMARK minimizedRMSD -1
REMARK  1 active torsions:
REMARK  status: ('A' for Active; 'I' for Inactive)
REMARK    1  A    between atoms: C1_2  and  C2_3 
ROOT
ATOM      1  C2  UNL d   1       2.232   0.003   0.653  0.00  0.00    -0.077 A 
ATOM      2  C3  UNL d   1       2.034   1.391   0.627  0.00  0.00     0.002 A 
ATOM      3  C4  UNL d   1       0.804   1.921   0.233  0.00  0.00     0.002 A 
ATOM      4  C5  UNL d   1      -0.238   1.072  -0.134  0.00  0.00    -0.004 A 
ATOM      5  C6  UNL d   1      -0.050  -0.309  -0.113  0.00  0.00     0.002 A 
ATOM      6  C7  UNL d   1       1.179  -0.841   0.279  0.00  0.00     0.002 A 
ENDROOT
BRANCH   1   7
ATOM      7  C1  UNL d   1       3.541  -0.572   1.124  0.00  0.00     0.055 C 
ATOM      8  C   UNL d   1       3.369  -1.350   2.421  0.00  0.00     0.019 C 
ENDBRANCH   1   7
TORSDOF 1
ENDMDL
