MODEL 1
REMARK minimizedAffinity 11.2959671
REMARK minimizedRMSD -1
REMARK  3 active torsions:
REMARK  status: ('A' for Active; 'I' for Inactive)
REMARK    1  A    between atoms: C3'_2  and  C2'_3 
REMARK    2  A    between atoms: C2'_3  and  C1'_4 
REMARK    3  A    between atoms: C1'_4  and  C1_5 
ROOT
ATOM      1  C1  N4B d   1       2.240  -1.154  -1.838  0.00  0.00    -0.075 A 
ATOM      2  C2  N4B d   1       2.977  -0.215  -1.083  0.00  0.00     0.002 A 
ATOM      3  C3  N4B d   1       3.699  -0.628   0.010  0.00  0.00     0.002 A 
ATOM      4  C4  N4B d   1       3.684  -1.965   0.377  0.00  0.00    -0.004 A 
ATOM      5  C5  N4B d   1       2.990  -2.870  -0.372  0.00  0.00     0.002 A 
ATOM      6  C6  N4B d   1       2.263  -2.470  -1.476  0.00  0.00     0.002 A 
ENDROOT
BRANCH   1   7
ATOM      7  C1' N4B d   1       1.366  -0.737  -2.989  0.00  0.00     0.057 C 
BRANCH   7   8
ATOM      8  C2' N4B d   1       1.513  -1.749  -4.121  0.00  0.00     0.009 C 
BRANCH   8   9
ATOM      9  C3' N4B d   1       2.024  -1.104  -5.398  0.00  0.00     0.004 C 
ATOM     10  C4' N4B d   1       3.182  -1.843  -6.000  0.00  0.00     0.003 C 
ENDBRANCH   8   9
ENDBRANCH   7   8
ENDBRANCH   1   7
TORSDOF 3
ENDMDL
