MODEL 1
REMARK minimizedAffinity 7.5993371
REMARK minimizedRMSD -1
REMARK  3 active torsions:
REMARK  status: ('A' for Active; 'I' for Inactive)
REMARK    1  A    between atoms: C3'_2  and  C2'_3 
REMARK    2  A    between atoms: C2'_3  and  C1'_4 
REMARK    3  A    between atoms: C1'_4  and  C1_5 
ROOT
ATOM      1  C1  N4B d   1       2.721  -3.180  -1.957  0.00  0.00    -0.075 A 
ATOM      2  C2  N4B d   1       1.503  -3.008  -2.651  0.00  0.00     0.002 A 
ATOM      3  C3  N4B d   1       0.716  -1.912  -2.395  0.00  0.00     0.002 A 
ATOM      4  C4  N4B d   1       1.115  -0.989  -1.440  0.00  0.00    -0.004 A 
ATOM      5  C5  N4B d   1       2.304  -1.149  -0.792  0.00  0.00     0.002 A 
ATOM      6  C6  N4B d   1       3.108  -2.244  -1.042  0.00  0.00     0.002 A 
ENDROOT
BRANCH   1   7
ATOM      7  C1' N4B d   1       3.573  -4.406  -2.140  0.00  0.00     0.057 C 
BRANCH   7   8
ATOM      8  C2' N4B d   1       4.567  -4.502  -0.987  0.00  0.00     0.009 C 
BRANCH   8   9
ATOM      9  C3' N4B d   1       5.968  -4.837  -1.471  0.00  0.00     0.004 C 
ATOM     10  C4' N4B d   1       5.999  -5.262  -2.909  0.00  0.00     0.003 C 
ENDBRANCH   8   9
ENDBRANCH   7   8
ENDBRANCH   1   7
TORSDOF 3
ENDMDL
