MODEL 1
REMARK minimizedAffinity 7.90830517
REMARK minimizedRMSD -1
REMARK  3 active torsions:
REMARK  status: ('A' for Active; 'I' for Inactive)
REMARK    1  A    between atoms: C3'_2  and  C2'_3 
REMARK    2  A    between atoms: C2'_3  and  C1'_4 
REMARK    3  A    between atoms: C1'_4  and  C1_5 
ROOT
ATOM      1  C1  N4B d   1       2.253  -1.910  -1.108  0.00  0.00    -0.075 A 
ATOM      2  C2  N4B d   1       3.586  -2.204  -0.747  0.00  0.00     0.002 A 
ATOM      3  C3  N4B d   1       3.896  -3.424  -0.196  0.00  0.00     0.002 A 
ATOM      4  C4  N4B d   1       2.889  -4.353   0.021  0.00  0.00    -0.004 A 
ATOM      5  C5  N4B d   1       1.608  -4.071  -0.353  0.00  0.00     0.002 A 
ATOM      6  C6  N4B d   1       1.284  -2.851  -0.912  0.00  0.00     0.002 A 
ENDROOT
BRANCH   1   7
ATOM      7  C1' N4B d   1       1.852  -0.560  -1.635  0.00  0.00     0.057 C 
BRANCH   7   8
ATOM      8  C2' N4B d   1       2.671   0.517  -0.928  0.00  0.00     0.009 C 
BRANCH   8   9
ATOM      9  C3' N4B d   1       2.157   0.794   0.474  0.00  0.00     0.004 C 
ATOM     10  C4' N4B d   1       3.163   1.499   1.333  0.00  0.00     0.003 C 
ENDBRANCH   8   9
ENDBRANCH   7   8
ENDBRANCH   1   7
TORSDOF 3
ENDMDL
