MODEL 1
REMARK minimizedAffinity 11.4221869
REMARK minimizedRMSD -1
REMARK  3 active torsions:
REMARK  status: ('A' for Active; 'I' for Inactive)
REMARK    1  A    between atoms: C3'_2  and  C2'_3 
REMARK    2  A    between atoms: C2'_3  and  C1'_4 
REMARK    3  A    between atoms: C1'_4  and  C1_5 
ROOT
ATOM      1  C1  N4B d   1      -2.973   1.046   4.428  0.00  0.00    -0.075 A 
ATOM      2  C2  N4B d   1      -2.035   1.609   3.534  0.00  0.00     0.002 A 
ATOM      3  C3  N4B d   1      -1.980   1.174   2.233  0.00  0.00     0.002 A 
ATOM      4  C4  N4B d   1      -2.835   0.168   1.809  0.00  0.00    -0.004 A 
ATOM      5  C5  N4B d   1      -3.755  -0.353   2.672  0.00  0.00     0.002 A 
ATOM      6  C6  N4B d   1      -3.825   0.078   3.981  0.00  0.00     0.002 A 
ENDROOT
BRANCH   1   7
ATOM      7  C1' N4B d   1      -3.013   1.429   5.882  0.00  0.00     0.057 C 
BRANCH   7   8
ATOM      8  C2' N4B d   1      -3.296   2.924   5.999  0.00  0.00     0.009 C 
BRANCH   8   9
ATOM      9  C3' N4B d   1      -4.783   3.227   5.937  0.00  0.00     0.004 C 
ATOM     10  C4' N4B d   1      -5.294   3.344   4.532  0.00  0.00     0.003 C 
ENDBRANCH   8   9
ENDBRANCH   7   8
ENDBRANCH   1   7
TORSDOF 3
ENDMDL
