MODEL 1
REMARK minimizedAffinity 2.01874733
REMARK minimizedRMSD -1
REMARK  3 active torsions:
REMARK  status: ('A' for Active; 'I' for Inactive)
REMARK    1  A    between atoms: C3'_2  and  C2'_3 
REMARK    2  A    between atoms: C2'_3  and  C1'_4 
REMARK    3  A    between atoms: C1'_4  and  C1_5 
ROOT
ATOM      1  C1  N4B d   1      -2.974   0.346   2.359  0.00  0.00    -0.075 A 
ATOM      2  C2  N4B d   1      -2.625   1.486   3.116  0.00  0.00     0.002 A 
ATOM      3  C3  N4B d   1      -1.303   1.811   3.297  0.00  0.00     0.002 A 
ATOM      4  C4  N4B d   1      -0.317   1.005   2.749  0.00  0.00    -0.004 A 
ATOM      5  C5  N4B d   1      -0.663  -0.079   1.997  0.00  0.00     0.002 A 
ATOM      6  C6  N4B d   1      -1.987  -0.416   1.804  0.00  0.00     0.002 A 
ENDROOT
BRANCH   1   7
ATOM      7  C1' N4B d   1      -4.403  -0.099   2.206  0.00  0.00     0.057 C 
BRANCH   7   8
ATOM      8  C2' N4B d   1      -4.464  -1.622   2.273  0.00  0.00     0.009 C 
BRANCH   8   9
ATOM      9  C3' N4B d   1      -5.891  -2.137   2.200  0.00  0.00     0.004 C 
ATOM     10  C4' N4B d   1      -5.986  -3.495   1.570  0.00  0.00     0.003 C 
ENDBRANCH   8   9
ENDBRANCH   7   8
ENDBRANCH   1   7
TORSDOF 3
ENDMDL
