MODEL 1
REMARK minimizedAffinity 7.11917782
REMARK minimizedRMSD -1
REMARK  3 active torsions:
REMARK  status: ('A' for Active; 'I' for Inactive)
REMARK    1  A    between atoms: C3'_2  and  C2'_3 
REMARK    2  A    between atoms: C2'_3  and  C1'_4 
REMARK    3  A    between atoms: C1'_4  and  C1_5 
ROOT
ATOM      1  C1  N4B d   1       2.178  -0.888  -1.168  0.00  0.00    -0.075 A 
ATOM      2  C2  N4B d   1       0.816  -1.226  -1.012  0.00  0.00     0.002 A 
ATOM      3  C3  N4B d   1       0.461  -2.512  -0.687  0.00  0.00     0.002 A 
ATOM      4  C4  N4B d   1       1.445  -3.477  -0.532  0.00  0.00    -0.004 A 
ATOM      5  C5  N4B d   1       2.760  -3.137  -0.660  0.00  0.00     0.002 A 
ATOM      6  C6  N4B d   1       3.132  -1.847  -0.983  0.00  0.00     0.002 A 
ENDROOT
BRANCH   1   7
ATOM      7  C1' N4B d   1       2.610   0.484  -1.607  0.00  0.00     0.057 C 
BRANCH   7   8
ATOM      8  C2' N4B d   1       1.887   0.847  -2.901  0.00  0.00     0.009 C 
BRANCH   8   9
ATOM      9  C3' N4B d   1       1.984  -0.260  -3.936  0.00  0.00     0.004 C 
ATOM     10  C4' N4B d   1       1.570   0.188  -5.306  0.00  0.00     0.003 C 
ENDBRANCH   8   9
ENDBRANCH   7   8
ENDBRANCH   1   7
TORSDOF 3
ENDMDL
