MODEL 1
REMARK minimizedAffinity 9.74373817
REMARK minimizedRMSD -1
REMARK  3 active torsions:
REMARK  status: ('A' for Active; 'I' for Inactive)
REMARK    1  A    between atoms: C3'_2  and  C2'_3 
REMARK    2  A    between atoms: C2'_3  and  C1'_4 
REMARK    3  A    between atoms: C1'_4  and  C1_5 
ROOT
ATOM      1  C1  N4B d   1      -3.965   0.252   3.767  0.00  0.00    -0.075 A 
ATOM      2  C2  N4B d   1      -3.930  -0.846   4.655  0.00  0.00     0.002 A 
ATOM      3  C3  N4B d   1      -4.110  -2.121   4.177  0.00  0.00     0.002 A 
ATOM      4  C4  N4B d   1      -4.345  -2.320   2.825  0.00  0.00    -0.004 A 
ATOM      5  C5  N4B d   1      -4.352  -1.256   1.970  0.00  0.00     0.002 A 
ATOM      6  C6  N4B d   1      -4.169   0.030   2.436  0.00  0.00     0.002 A 
ENDROOT
BRANCH   1   7
ATOM      7  C1' N4B d   1      -3.860   1.671   4.256  0.00  0.00     0.057 C 
BRANCH   7   8
ATOM      8  C2' N4B d   1      -5.251   2.182   4.616  0.00  0.00     0.009 C 
BRANCH   8   9
ATOM      9  C3' N4B d   1      -5.285   2.810   5.999  0.00  0.00     0.004 C 
ATOM     10  C4' N4B d   1      -4.826   4.237   6.000  0.00  0.00     0.003 C 
ENDBRANCH   8   9
ENDBRANCH   7   8
ENDBRANCH   1   7
TORSDOF 3
ENDMDL
