MODEL 1
REMARK minimizedAffinity 3.27909207
REMARK minimizedRMSD -1
REMARK  3 active torsions:
REMARK  status: ('A' for Active; 'I' for Inactive)
REMARK    1  A    between atoms: C3'_2  and  C2'_3 
REMARK    2  A    between atoms: C2'_3  and  C1'_4 
REMARK    3  A    between atoms: C1'_4  and  C1_5 
ROOT
ATOM      1  C1  N4B d   1      -0.328  -2.358  -2.089  0.00  0.00    -0.075 A 
ATOM      2  C2  N4B d   1      -1.292  -1.353  -2.324  0.00  0.00     0.002 A 
ATOM      3  C3  N4B d   1      -2.577  -1.700  -2.662  0.00  0.00     0.002 A 
ATOM      4  C4  N4B d   1      -2.915  -3.039  -2.789  0.00  0.00    -0.004 A 
ATOM      5  C5  N4B d   1      -1.985  -4.004  -2.535  0.00  0.00     0.002 A 
ATOM      6  C6  N4B d   1      -0.691  -3.670  -2.190  0.00  0.00     0.002 A 
ENDROOT
BRANCH   1   7
ATOM      7  C1' N4B d   1       1.111  -2.027  -1.801  0.00  0.00     0.057 C 
BRANCH   7   8
ATOM      8  C2' N4B d   1       1.510  -2.646  -0.465  0.00  0.00     0.009 C 
BRANCH   8   9
ATOM      9  C3' N4B d   1       2.990  -2.985  -0.415  0.00  0.00     0.004 C 
ATOM     10  C4' N4B d   1       3.254  -4.455  -0.550  0.00  0.00     0.003 C 
ENDBRANCH   8   9
ENDBRANCH   7   8
ENDBRANCH   1   7
TORSDOF 3
ENDMDL
