MODEL 1
REMARK minimizedAffinity -1.36998343
REMARK minimizedRMSD -1
REMARK  0 active torsions:
REMARK  status: ('A' for Active; 'I' for Inactive)
ROOT
ATOM      1  C   UNL d   1       0.126  -0.277  -0.259  0.00  0.00     0.172 C 
ATOM      2  N   UNL d   1       0.902  -1.015   0.710  0.00  0.00    -0.070 N 
ATOM      3  C1  UNL d   1       2.150  -0.675   1.159  0.00  0.00    -0.004 A 
ATOM      4  C2  UNL d   1       2.544  -1.629   2.073  0.00  0.00    -0.047 A 
ATOM      5  C3  UNL d   1       1.496  -2.575   2.176  0.00  0.00    -0.047 A 
ATOM      6  C4  UNL d   1       0.492  -2.170   1.321  0.00  0.00    -0.004 A 
ENDROOT
TORSDOF 0
ENDMDL
