MODEL 1
REMARK minimizedAffinity -2.03667188
REMARK minimizedRMSD -1
REMARK  0 active torsions:
REMARK  status: ('A' for Active; 'I' for Inactive)
ROOT
ATOM      1  C   UNL d   1       2.466   0.444   1.181  0.00  0.00     0.172 C 
ATOM      2  N   UNL d   1       1.145   0.213   0.646  0.00  0.00    -0.070 N 
ATOM      3  C1  UNL d   1       0.450  -0.965   0.716  0.00  0.00    -0.004 A 
ATOM      4  C2  UNL d   1      -0.764  -0.776   0.092  0.00  0.00    -0.047 A 
ATOM      5  C3  UNL d   1      -0.800   0.561  -0.370  0.00  0.00    -0.047 A 
ATOM      6  C4  UNL d   1       0.395   1.151  -0.013  0.00  0.00    -0.004 A 
ENDROOT
TORSDOF 0
ENDMDL
