MODEL 1
REMARK minimizedAffinity -3.78346658
REMARK minimizedRMSD -1
REMARK  0 active torsions:
REMARK  status: ('A' for Active; 'I' for Inactive)
ROOT
ATOM      1  C   UNL d   1      -0.651   0.258   0.115  0.00  0.00     0.172 C 
ATOM      2  N   UNL d   1       0.758   0.151   0.416  0.00  0.00    -0.070 N 
ATOM      3  C1  UNL d   1       1.342  -0.836   1.164  0.00  0.00    -0.004 A 
ATOM      4  C2  UNL d   1       2.695  -0.581   1.216  0.00  0.00    -0.047 A 
ATOM      5  C3  UNL d   1       2.933   0.600   0.474  0.00  0.00    -0.047 A 
ATOM      6  C4  UNL d   1       1.716   1.032  -0.010  0.00  0.00    -0.004 A 
ENDROOT
TORSDOF 0
ENDMDL
