MODEL 1
REMARK minimizedAffinity -2.38085103
REMARK minimizedRMSD -1
REMARK  0 active torsions:
REMARK  status: ('A' for Active; 'I' for Inactive)
ROOT
ATOM      1  C   UNL d   1       0.313   0.404  -0.058  0.00  0.00     0.172 C 
ATOM      2  N   UNL d   1       1.096  -0.224   0.981  0.00  0.00    -0.070 N 
ATOM      3  C1  UNL d   1       2.331   0.186   1.408  0.00  0.00    -0.004 A 
ATOM      4  C2  UNL d   1       2.737  -0.672   2.408  0.00  0.00    -0.047 A 
ATOM      5  C3  UNL d   1       1.711  -1.630   2.587  0.00  0.00    -0.047 A 
ATOM      6  C4  UNL d   1       0.707  -1.329   1.691  0.00  0.00    -0.004 A 
ENDROOT
TORSDOF 0
ENDMDL
