MODEL 1
REMARK minimizedAffinity -4.19414282
REMARK minimizedRMSD -1
REMARK  0 active torsions:
REMARK  status: ('A' for Active; 'I' for Inactive)
ROOT
ATOM      1  C   UNL d   1       0.744   1.224   0.078  0.00  0.00     0.172 C 
ATOM      2  N   UNL d   1       1.417   0.053   0.591  0.00  0.00    -0.070 N 
ATOM      3  C1  UNL d   1       0.829  -1.156   0.849  0.00  0.00    -0.004 A 
ATOM      4  C2  UNL d   1       1.804  -2.007   1.324  0.00  0.00    -0.047 A 
ATOM      5  C3  UNL d   1       3.019  -1.283   1.353  0.00  0.00    -0.047 A 
ATOM      6  C4  UNL d   1       2.751  -0.011   0.894  0.00  0.00    -0.004 A 
ENDROOT
TORSDOF 0
ENDMDL
