MODEL 1
REMARK minimizedAffinity -3.41247272
REMARK minimizedRMSD -1
REMARK  0 active torsions:
REMARK  status: ('A' for Active; 'I' for Inactive)
ROOT
ATOM      1  C   UNL d   1      -1.146  -0.027  -0.074  0.00  0.00     0.172 C 
ATOM      2  N   UNL d   1       0.274   0.055   0.172  0.00  0.00    -0.070 N 
ATOM      3  C1  UNL d   1       1.121  -1.011   0.323  0.00  0.00    -0.004 A 
ATOM      4  C2  UNL d   1       2.389  -0.515   0.540  0.00  0.00    -0.047 A 
ATOM      5  C3  UNL d   1       2.300   0.897   0.520  0.00  0.00    -0.047 A 
ATOM      6  C4  UNL d   1       0.980   1.223   0.290  0.00  0.00    -0.004 A 
ENDROOT
TORSDOF 0
ENDMDL
