MODEL 1
REMARK minimizedAffinity -2.82288146
REMARK minimizedRMSD -1
REMARK  0 active torsions:
REMARK  status: ('A' for Active; 'I' for Inactive)
ROOT
ATOM      1  C   UNL d   1      -1.518   0.248  -0.540  0.00  0.00     0.172 C 
ATOM      2  N   UNL d   1      -2.263  -0.052  -1.740  0.00  0.00    -0.070 N 
ATOM      3  C1  UNL d   1      -2.885   0.866  -2.544  0.00  0.00    -0.004 A 
ATOM      4  C2  UNL d   1      -3.482   0.183  -3.581  0.00  0.00    -0.047 A 
ATOM      5  C3  UNL d   1      -3.210  -1.194  -3.394  0.00  0.00    -0.047 A 
ATOM      6  C4  UNL d   1      -2.454  -1.310  -2.246  0.00  0.00    -0.004 A 
ENDROOT
TORSDOF 0
ENDMDL
