MODEL 1
REMARK minimizedAffinity -4.24737167
REMARK minimizedRMSD -1
REMARK  0 active torsions:
REMARK  status: ('A' for Active; 'I' for Inactive)
ROOT
ATOM      1  C   UNL d   1      -0.230  -0.093   0.205  0.00  0.00     0.172 C 
ATOM      2  N   UNL d   1       1.037  -0.497   0.767  0.00  0.00    -0.070 N 
ATOM      3  C1  UNL d   1       1.235  -1.565   1.602  0.00  0.00    -0.004 A 
ATOM      4  C2  UNL d   1       2.577  -1.612   1.914  0.00  0.00    -0.047 A 
ATOM      5  C3  UNL d   1       3.206  -0.536   1.245  0.00  0.00    -0.047 A 
ATOM      6  C4  UNL d   1       2.230   0.138   0.542  0.00  0.00    -0.004 A 
ENDROOT
TORSDOF 0
ENDMDL
