MODEL 1
REMARK minimizedAffinity -2.87897563
REMARK minimizedRMSD -1
REMARK  0 active torsions:
REMARK  status: ('A' for Active; 'I' for Inactive)
ROOT
ATOM      1  C   UNL d   1      -1.460  -0.372  -0.315  0.00  0.00     0.172 C 
ATOM      2  N   UNL d   1      -1.987  -0.163  -1.643  0.00  0.00    -0.070 N 
ATOM      3  C1  UNL d   1      -2.399  -1.146  -2.503  0.00  0.00    -0.004 A 
ATOM      4  C2  UNL d   1      -2.833  -0.539  -3.661  0.00  0.00    -0.047 A 
ATOM      5  C3  UNL d   1      -2.674   0.857  -3.493  0.00  0.00    -0.047 A 
ATOM      6  C4  UNL d   1      -2.149   1.062  -2.235  0.00  0.00    -0.004 A 
ENDROOT
TORSDOF 0
ENDMDL
