MODEL 1
REMARK minimizedAffinity -3.47715735
REMARK minimizedRMSD -1
REMARK  0 active torsions:
REMARK  status: ('A' for Active; 'I' for Inactive)
ROOT
ATOM      1  C   UNL d   1       2.828  -0.153   0.571  0.00  0.00     0.172 C 
ATOM      2  N   UNL d   1       1.432   0.021   0.246  0.00  0.00    -0.070 N 
ATOM      3  C1  UNL d   1       0.804   1.221   0.043  0.00  0.00    -0.004 A 
ATOM      4  C2  UNL d   1      -0.519   0.961  -0.244  0.00  0.00    -0.047 A 
ATOM      5  C3  UNL d   1      -0.692  -0.443  -0.211  0.00  0.00    -0.047 A 
ATOM      6  C4  UNL d   1       0.532  -1.000   0.095  0.00  0.00    -0.004 A 
ENDROOT
TORSDOF 0
ENDMDL
