MODEL 1
REMARK minimizedAffinity -3.5891614
REMARK minimizedRMSD -1
REMARK  0 active torsions:
REMARK  status: ('A' for Active; 'I' for Inactive)
ROOT
ATOM      1  C4' PXY d   1      -2.836   1.012   0.796  0.00  0.00     0.077 C 
ATOM      2  C1' PXY d   1       1.987  -1.899  -0.499  0.00  0.00     0.077 C 
ATOM      3  C1  PXY d   1       0.729  -1.125  -0.160  0.00  0.00    -0.082 A 
ATOM      4  C2  PXY d   1      -0.247  -1.721   0.504  0.00  0.00     0.003 A 
ATOM      5  C3  PXY d   1      -1.405  -1.045   0.791  0.00  0.00     0.003 A 
ATOM      6  C4  PXY d   1      -1.544   0.272   0.440  0.00  0.00    -0.082 A 
ATOM      7  C5  PXY d   1      -0.547   0.890  -0.228  0.00  0.00     0.003 A 
ATOM      8  C6  PXY d   1       0.603   0.174  -0.546  0.00  0.00     0.003 A 
ENDROOT
TORSDOF 0
ENDMDL
