MODEL 1
REMARK minimizedAffinity -6.12327623
REMARK minimizedRMSD -1
REMARK  0 active torsions:
REMARK  status: ('A' for Active; 'I' for Inactive)
ROOT
ATOM      1  C4' PXY d   1      -1.504   0.543   0.087  0.00  0.00     0.077 C 
ATOM      2  C1' PXY d   1       4.054  -0.902   0.743  0.00  0.00     0.077 C 
ATOM      3  C1  PXY d   1       2.595  -0.533   0.564  0.00  0.00    -0.082 A 
ATOM      4  C2  PXY d   1       2.213   0.723   0.727  0.00  0.00     0.003 A 
ATOM      5  C3  PXY d   1       0.892   1.068   0.600  0.00  0.00     0.003 A 
ATOM      6  C4  PXY d   1      -0.039   0.127   0.249  0.00  0.00    -0.082 A 
ATOM      7  C5  PXY d   1       0.345  -1.155   0.070  0.00  0.00     0.003 A 
ATOM      8  C6  PXY d   1       1.684  -1.492   0.244  0.00  0.00     0.003 A 
ENDROOT
TORSDOF 0
ENDMDL
