MODEL 1
REMARK minimizedAffinity -5.08433533
REMARK minimizedRMSD -1
REMARK  0 active torsions:
REMARK  status: ('A' for Active; 'I' for Inactive)
ROOT
ATOM      1  C4' PXY d   1      -1.154   0.809   0.397  0.00  0.00     0.077 C 
ATOM      2  C1' PXY d   1       4.398  -0.736   0.857  0.00  0.00     0.077 C 
ATOM      3  C1  PXY d   1       2.944  -0.321   0.745  0.00  0.00    -0.082 A 
ATOM      4  C2  PXY d   1       2.036  -1.211   0.380  0.00  0.00     0.003 A 
ATOM      5  C3  PXY d   1       0.722  -0.845   0.243  0.00  0.00     0.003 A 
ATOM      6  C4  PXY d   1       0.324   0.432   0.533  0.00  0.00    -0.082 A 
ATOM      7  C5  PXY d   1       1.243   1.344   0.916  0.00  0.00     0.003 A 
ATOM      8  C6  PXY d   1       2.579   0.963   1.009  0.00  0.00     0.003 A 
ENDROOT
TORSDOF 0
ENDMDL
