MODEL 1
REMARK minimizedAffinity -3.73954105
REMARK minimizedRMSD -1
REMARK  0 active torsions:
REMARK  status: ('A' for Active; 'I' for Inactive)
ROOT
ATOM      1  C4' PXY d   1       2.686   0.616   1.142  0.00  0.00     0.077 C 
ATOM      2  C1' PXY d   1      -2.849   1.168  -0.431  0.00  0.00     0.077 C 
ATOM      3  C1  PXY d   1      -1.394   1.031  -0.028  0.00  0.00    -0.082 A 
ATOM      4  C2  PXY d   1      -0.991  -0.055   0.611  0.00  0.00     0.003 A 
ATOM      5  C3  PXY d   1       0.314  -0.181   1.011  0.00  0.00     0.003 A 
ATOM      6  C4  PXY d   1       1.228   0.792   0.708  0.00  0.00    -0.082 A 
ATOM      7  C5  PXY d   1       0.828   1.899   0.047  0.00  0.00     0.003 A 
ATOM      8  C6  PXY d   1      -0.510   2.026  -0.314  0.00  0.00     0.003 A 
ENDROOT
TORSDOF 0
ENDMDL
