MODEL 1
REMARK minimizedAffinity -5.3202672
REMARK minimizedRMSD -1
REMARK  0 active torsions:
REMARK  status: ('A' for Active; 'I' for Inactive)
ROOT
ATOM      1  C4' PXY d   1      -1.617   0.402  -0.520  0.00  0.00     0.077 C 
ATOM      2  C1' PXY d   1       4.016   0.363   0.776  0.00  0.00     0.077 C 
ATOM      3  C1  PXY d   1       2.538   0.386   0.439  0.00  0.00    -0.082 A 
ATOM      4  C2  PXY d   1       1.822  -0.719   0.562  0.00  0.00     0.003 A 
ATOM      5  C3  PXY d   1       0.491  -0.724   0.230  0.00  0.00     0.003 A 
ATOM      6  C4  PXY d   1      -0.124   0.428  -0.181  0.00  0.00    -0.082 A 
ATOM      7  C5  PXY d   1       0.598   1.562  -0.299  0.00  0.00     0.003 A 
ATOM      8  C6  PXY d   1       1.956   1.536   0.003  0.00  0.00     0.003 A 
ENDROOT
TORSDOF 0
ENDMDL
