MODEL 1
REMARK minimizedAffinity -5.18895245
REMARK minimizedRMSD -1
REMARK  0 active torsions:
REMARK  status: ('A' for Active; 'I' for Inactive)
ROOT
ATOM      1  C4' PXY d   1      -2.094   0.733  -0.206  0.00  0.00     0.077 C 
ATOM      2  C1' PXY d   1       3.375  -0.860   0.775  0.00  0.00     0.077 C 
ATOM      3  C1  PXY d   1       1.938  -0.453   0.512  0.00  0.00    -0.082 A 
ATOM      4  C2  PXY d   1       1.623   0.830   0.449  0.00  0.00     0.003 A 
ATOM      5  C3  PXY d   1       0.323   1.215   0.244  0.00  0.00     0.003 A 
ATOM      6  C4  PXY d   1      -0.655   0.277   0.048  0.00  0.00    -0.082 A 
ATOM      7  C5  PXY d   1      -0.339  -1.034   0.100  0.00  0.00     0.003 A 
ATOM      8  C6  PXY d   1       0.979  -1.405   0.350  0.00  0.00     0.003 A 
ENDROOT
TORSDOF 0
ENDMDL
