MODEL 1
REMARK minimizedAffinity -5.5992074
REMARK minimizedRMSD -1
REMARK  0 active torsions:
REMARK  status: ('A' for Active; 'I' for Inactive)
ROOT
ATOM      1  C4' PXY d   1       4.607  -0.574   0.875  0.00  0.00     0.077 C 
ATOM      2  C1' PXY d   1      -0.812   0.463  -0.849  0.00  0.00     0.077 C 
ATOM      3  C1  PXY d   1       0.605   0.179  -0.393  0.00  0.00    -0.082 A 
ATOM      4  C2  PXY d   1       1.421   1.187  -0.126  0.00  0.00     0.003 A 
ATOM      5  C3  PXY d   1       2.716   0.948   0.257  0.00  0.00     0.003 A 
ATOM      6  C4  PXY d   1       3.165  -0.335   0.420  0.00  0.00    -0.082 A 
ATOM      7  C5  PXY d   1       2.335  -1.368   0.161  0.00  0.00     0.003 A 
ATOM      8  C6  PXY d   1       1.037  -1.105  -0.267  0.00  0.00     0.003 A 
ENDROOT
TORSDOF 0
ENDMDL
