MODEL 1
REMARK minimizedAffinity -5.06304789
REMARK minimizedRMSD -1
REMARK  0 active torsions:
REMARK  status: ('A' for Active; 'I' for Inactive)
ROOT
ATOM      1  C4' PXY d   1      -0.854   0.543  -0.984  0.00  0.00     0.077 C 
ATOM      2  C1' PXY d   1       4.422  -0.478   1.147  0.00  0.00     0.077 C 
ATOM      3  C1  PXY d   1       3.039  -0.198   0.593  0.00  0.00    -0.082 A 
ATOM      4  C2  PXY d   1       2.209  -1.204   0.365  0.00  0.00     0.003 A 
ATOM      5  C3  PXY d   1       0.967  -0.971  -0.166  0.00  0.00     0.003 A 
ATOM      6  C4  PXY d   1       0.549   0.308  -0.416  0.00  0.00    -0.082 A 
ATOM      7  C5  PXY d   1       1.385   1.340  -0.176  0.00  0.00     0.003 A 
ATOM      8  C6  PXY d   1       2.657   1.080   0.324  0.00  0.00     0.003 A 
ENDROOT
TORSDOF 0
ENDMDL
