MODEL 1
REMARK minimizedAffinity -3.74643183
REMARK minimizedRMSD -1
REMARK  0 active torsions:
REMARK  status: ('A' for Active; 'I' for Inactive)
ROOT
ATOM      1  C4' PXY d   1       3.063  -1.540   0.604  0.00  0.00     0.077 C 
ATOM      2  C1' PXY d   1      -2.140   0.794  -0.345  0.00  0.00     0.077 C 
ATOM      3  C1  PXY d   1      -0.781   0.170  -0.093  0.00  0.00    -0.082 A 
ATOM      4  C2  PXY d   1       0.245   0.943   0.224  0.00  0.00     0.003 A 
ATOM      5  C3  PXY d   1       1.488   0.400   0.424  0.00  0.00     0.003 A 
ATOM      6  C4  PXY d   1       1.671  -0.955   0.351  0.00  0.00    -0.082 A 
ATOM      7  C5  PXY d   1       0.627  -1.752   0.039  0.00  0.00     0.003 A 
ATOM      8  C6  PXY d   1      -0.618  -1.176  -0.201  0.00  0.00     0.003 A 
ENDROOT
TORSDOF 0
ENDMDL
