MODEL 1
REMARK minimizedAffinity -0.531455994
REMARK minimizedRMSD -1
REMARK  0 active torsions:
REMARK  status: ('A' for Active; 'I' for Inactive)
ROOT
ATOM      1  C4' PXY d   1       1.831  -2.227  -0.400  0.00  0.00     0.077 C 
ATOM      2  C1' PXY d   1       4.371   2.961  -0.625  0.00  0.00     0.077 C 
ATOM      3  C1  PXY d   1       3.697   1.605  -0.557  0.00  0.00    -0.082 A 
ATOM      4  C2  PXY d   1       4.357   0.526  -0.946  0.00  0.00     0.003 A 
ATOM      5  C3  PXY d   1       3.751  -0.704  -0.921  0.00  0.00     0.003 A 
ATOM      6  C4  PXY d   1       2.475  -0.839  -0.443  0.00  0.00    -0.082 A 
ATOM      7  C5  PXY d   1       1.799   0.256  -0.034  0.00  0.00     0.003 A 
ATOM      8  C6  PXY d   1       2.417   1.501  -0.106  0.00  0.00     0.003 A 
ENDROOT
TORSDOF 0
ENDMDL
