MODEL 1
REMARK minimizedAffinity 12.7718678
REMARK minimizedRMSD -1
REMARK  0 active torsions:
REMARK  status: ('A' for Active; 'I' for Inactive)
ROOT
ATOM      1  N1  IND d   1      -5.700   1.745   5.983  0.00  0.00    -0.196 N 
ATOM      2  C2  IND d   1      -5.992   0.410   6.000  0.00  0.00     0.054 A 
ATOM      3  C3  IND d   1      -5.497  -0.194   4.896  0.00  0.00    -0.031 A 
ATOM      4  C4  IND d   1      -4.087   0.797   2.984  0.00  0.00     0.051 A 
ATOM      5  C5  IND d   1      -3.594   1.980   2.510  0.00  0.00    -0.031 A 
ATOM      6  C6  IND d   1      -3.779   3.169   3.185  0.00  0.00     0.015 A 
ATOM      7  C7  IND d   1      -4.458   3.218   4.370  0.00  0.00    -0.016 A 
ATOM      8  C8  IND d   1      -4.966   2.019   4.850  0.00  0.00    -0.047 A 
ATOM      9  C9  IND d   1      -4.817   0.816   4.148  0.00  0.00    -0.096 A 
ATOM     10  HN1 IND d   1      -5.935   2.317   6.580  0.00  0.00     0.298 HD
ENDROOT
TORSDOF 0
ENDMDL
