MODEL 1
REMARK minimizedAffinity 13.0333271
REMARK minimizedRMSD -1
REMARK  0 active torsions:
REMARK  status: ('A' for Active; 'I' for Inactive)
ROOT
ATOM      1  N1  IND d   1       3.367  -0.232  -0.325  0.00  0.00    -0.196 N 
ATOM      2  C2  IND d   1       3.525   0.440  -1.506  0.00  0.00     0.054 A 
ATOM      3  C3  IND d   1       2.898   1.636  -1.454  0.00  0.00    -0.031 A 
ATOM      4  C4  IND d   1       1.639   2.740   0.502  0.00  0.00     0.051 A 
ATOM      5  C5  IND d   1       1.200   2.498   1.773  0.00  0.00    -0.031 A 
ATOM      6  C6  IND d   1       1.468   1.311   2.424  0.00  0.00     0.015 A 
ATOM      7  C7  IND d   1       2.199   0.322   1.829  0.00  0.00    -0.016 A 
ATOM      8  C8  IND d   1       2.641   0.561   0.536  0.00  0.00    -0.047 A 
ATOM      9  C9  IND d   1       2.335   1.746  -0.145  0.00  0.00    -0.096 A 
ATOM     10  HN1 IND d   1       3.671  -1.017  -0.150  0.00  0.00     0.298 HD
ENDROOT
TORSDOF 0
ENDMDL
