MODEL 1
REMARK minimizedAffinity 16.6250305
REMARK minimizedRMSD -1
REMARK  0 active torsions:
REMARK  status: ('A' for Active; 'I' for Inactive)
ROOT
ATOM      1  N1  IND d   1      -4.215   1.878   2.754  0.00  0.00    -0.196 N 
ATOM      2  C2  IND d   1      -4.017   3.149   3.217  0.00  0.00     0.054 A 
ATOM      3  C3  IND d   1      -4.503   3.273   4.473  0.00  0.00    -0.031 A 
ATOM      4  C4  IND d   1      -5.573   1.494   5.995  0.00  0.00     0.051 A 
ATOM      5  C5  IND d   1      -6.000   0.196   6.000  0.00  0.00    -0.031 A 
ATOM      6  C6  IND d   1      -5.848  -0.626   4.901  0.00  0.00     0.015 A 
ATOM      7  C7  IND d   1      -5.251  -0.180   3.756  0.00  0.00    -0.016 A 
ATOM      8  C8  IND d   1      -4.822   1.140   3.746  0.00  0.00    -0.047 A 
ATOM      9  C9  IND d   1      -5.012   1.990   4.842  0.00  0.00    -0.096 A 
ATOM     10  HN1 IND d   1      -3.997   1.589   1.974  0.00  0.00     0.298 HD
ENDROOT
TORSDOF 0
ENDMDL
