MODEL 1
REMARK minimizedAffinity 2.22046661
REMARK minimizedRMSD -1
REMARK  0 active torsions:
REMARK  status: ('A' for Active; 'I' for Inactive)
ROOT
ATOM      1  N1  IND d   1       6.000   2.626  -3.753  0.00  0.00    -0.196 N 
ATOM      2  C2  IND d   1       5.015   1.797  -3.292  0.00  0.00     0.054 A 
ATOM      3  C3  IND d   1       3.808   2.202  -3.747  0.00  0.00    -0.031 A 
ATOM      4  C4  IND d   1       3.227   4.138  -5.342  0.00  0.00     0.051 A 
ATOM      5  C5  IND d   1       3.786   5.198  -5.998  0.00  0.00    -0.031 A 
ATOM      6  C6  IND d   1       5.140   5.459  -5.941  0.00  0.00     0.015 A 
ATOM      7  C7  IND d   1       5.990   4.659  -5.231  0.00  0.00    -0.016 A 
ATOM      8  C8  IND d   1       5.424   3.585  -4.557  0.00  0.00    -0.047 A 
ATOM      9  C9  IND d   1       4.045   3.341  -4.577  0.00  0.00    -0.096 A 
ATOM     10  HN1 IND d   1       6.838   2.560  -3.571  0.00  0.00     0.298 HD
ENDROOT
TORSDOF 0
ENDMDL
