MODEL 1
REMARK minimizedAffinity 18.6327972
REMARK minimizedRMSD -1
REMARK  0 active torsions:
REMARK  status: ('A' for Active; 'I' for Inactive)
ROOT
ATOM      1  N1  IND d   1      -2.409   2.759   3.216  0.00  0.00    -0.196 N 
ATOM      2  C2  IND d   1      -3.754   2.528   3.293  0.00  0.00     0.054 A 
ATOM      3  C3  IND d   1      -4.369   2.948   2.164  0.00  0.00    -0.031 A 
ATOM      4  C4  IND d   1      -3.349   3.948   0.023  0.00  0.00     0.051 A 
ATOM      5  C5  IND d   1      -2.166   4.383  -0.506  0.00  0.00    -0.031 A 
ATOM      6  C6  IND d   1      -0.979   4.295   0.192  0.00  0.00     0.015 A 
ATOM      7  C7  IND d   1      -0.929   3.755   1.446  0.00  0.00    -0.016 A 
ATOM      8  C8  IND d   1      -2.130   3.319   1.989  0.00  0.00    -0.047 A 
ATOM      9  C9  IND d   1      -3.344   3.445   1.302  0.00  0.00    -0.096 A 
ATOM     10  HN1 IND d   1      -1.834   2.584   3.831  0.00  0.00     0.298 HD
ENDROOT
TORSDOF 0
ENDMDL
