MODEL 1
REMARK minimizedAffinity 13.8594675
REMARK minimizedRMSD -1
REMARK  0 active torsions:
REMARK  status: ('A' for Active; 'I' for Inactive)
ROOT
ATOM      1  N1  IND d   1       2.365   4.569  -5.999  0.00  0.00    -0.196 N 
ATOM      2  C2  IND d   1       1.913   5.516  -5.123  0.00  0.00     0.054 A 
ATOM      3  C3  IND d   1       2.051   5.084  -3.850  0.00  0.00    -0.031 A 
ATOM      4  C4  IND d   1       3.089   2.898  -2.969  0.00  0.00     0.051 A 
ATOM      5  C5  IND d   1       3.607   1.706  -3.390  0.00  0.00    -0.031 A 
ATOM      6  C6  IND d   1       3.742   1.401  -4.729  0.00  0.00     0.015 A 
ATOM      7  C7  IND d   1       3.374   2.287  -5.702  0.00  0.00    -0.016 A 
ATOM      8  C8  IND d   1       2.841   3.497  -5.278  0.00  0.00    -0.047 A 
ATOM      9  C9  IND d   1       2.662   3.794  -3.921  0.00  0.00    -0.096 A 
ATOM     10  HN1 IND d   1       2.354   4.633  -6.857  0.00  0.00     0.298 HD
ENDROOT
TORSDOF 0
ENDMDL
