MODEL 1
REMARK minimizedAffinity 8.30401611
REMARK minimizedRMSD -1
REMARK  0 active torsions:
REMARK  status: ('A' for Active; 'I' for Inactive)
ROOT
ATOM      1  N1  IND d   1      -4.819  -5.996  -0.873  0.00  0.00    -0.196 N 
ATOM      2  C2  IND d   1      -4.249  -5.976  -2.115  0.00  0.00     0.054 A 
ATOM      3  C3  IND d   1      -2.901  -5.935  -2.013  0.00  0.00    -0.031 A 
ATOM      4  C4  IND d   1      -1.417  -5.997   0.090  0.00  0.00     0.051 A 
ATOM      5  C5  IND d   1      -1.482  -5.979   1.455  0.00  0.00    -0.031 A 
ATOM      6  C6  IND d   1      -2.687  -5.969   2.127  0.00  0.00     0.015 A 
ATOM      7  C7  IND d   1      -3.877  -5.987   1.457  0.00  0.00    -0.016 A 
ATOM      8  C8  IND d   1      -3.815  -5.998   0.071  0.00  0.00    -0.047 A 
ATOM      9  C9  IND d   1      -2.596  -5.965  -0.618  0.00  0.00    -0.096 A 
ATOM     10  HN1 IND d   1      -5.663  -6.005  -0.709  0.00  0.00     0.298 HD
ENDROOT
TORSDOF 0
ENDMDL
