MODEL 1
REMARK minimizedAffinity 14.9936886
REMARK minimizedRMSD -1
REMARK  0 active torsions:
REMARK  status: ('A' for Active; 'I' for Inactive)
ROOT
ATOM      1  N1  IND d   1      -4.480  -2.627  -4.555  0.00  0.00    -0.196 N 
ATOM      2  C2  IND d   1      -5.800  -2.983  -4.558  0.00  0.00     0.054 A 
ATOM      3  C3  IND d   1      -6.000  -4.052  -3.755  0.00  0.00    -0.031 A 
ATOM      4  C4  IND d   1      -4.324  -5.311  -2.260  0.00  0.00     0.051 A 
ATOM      5  C5  IND d   1      -2.995  -5.376  -1.950  0.00  0.00    -0.031 A 
ATOM      6  C6  IND d   1      -2.074  -4.508  -2.501  0.00  0.00     0.015 A 
ATOM      7  C7  IND d   1      -2.453  -3.531  -3.378  0.00  0.00    -0.016 A 
ATOM      8  C8  IND d   1      -3.801  -3.467  -3.701  0.00  0.00    -0.047 A 
ATOM      9  C9  IND d   1      -4.733  -4.373  -3.178  0.00  0.00    -0.096 A 
ATOM     10  HN1 IND d   1      -4.133  -1.985  -5.010  0.00  0.00     0.298 HD
ENDROOT
TORSDOF 0
ENDMDL
