MODEL 1
REMARK minimizedAffinity 24.7773952
REMARK minimizedRMSD -1
REMARK  0 active torsions:
REMARK  status: ('A' for Active; 'I' for Inactive)
ROOT
ATOM      1  N1  IND d   1      -0.831  -3.002   1.359  0.00  0.00    -0.196 N 
ATOM      2  C2  IND d   1      -1.375  -2.361   0.281  0.00  0.00     0.054 A 
ATOM      3  C3  IND d   1      -2.496  -2.997  -0.128  0.00  0.00    -0.031 A 
ATOM      4  C4  IND d   1      -3.676  -5.048   0.888  0.00  0.00     0.051 A 
ATOM      5  C5  IND d   1      -3.536  -6.000   1.858  0.00  0.00    -0.031 A 
ATOM      6  C6  IND d   1      -2.467  -6.000   2.731  0.00  0.00     0.015 A 
ATOM      7  C7  IND d   1      -1.500  -5.037   2.673  0.00  0.00    -0.016 A 
ATOM      8  C8  IND d   1      -1.635  -4.072   1.684  0.00  0.00    -0.047 A 
ATOM      9  C9  IND d   1      -2.695  -4.092   0.769  0.00  0.00    -0.096 A 
ATOM     10  HN1 IND d   1      -0.108  -2.775   1.765  0.00  0.00     0.298 HD
ENDROOT
TORSDOF 0
ENDMDL
