MODEL 1
REMARK minimizedAffinity 20.8443947
REMARK minimizedRMSD -1
REMARK  0 active torsions:
REMARK  status: ('A' for Active; 'I' for Inactive)
ROOT
ATOM      1  N1  IND d   1       2.281   3.281  -5.543  0.00  0.00    -0.196 N 
ATOM      2  C2  IND d   1       1.623   4.082  -4.652  0.00  0.00     0.054 A 
ATOM      3  C3  IND d   1       1.955   3.748  -3.385  0.00  0.00    -0.031 A 
ATOM      4  C4  IND d   1       3.634   1.987  -2.545  0.00  0.00     0.051 A 
ATOM      5  C5  IND d   1       4.453   0.983  -2.982  0.00  0.00    -0.031 A 
ATOM      6  C6  IND d   1       4.594   0.691  -4.323  0.00  0.00     0.015 A 
ATOM      7  C7  IND d   1       3.928   1.401  -5.282  0.00  0.00    -0.016 A 
ATOM      8  C8  IND d   1       3.090   2.416  -4.840  0.00  0.00    -0.047 A 
ATOM      9  C9  IND d   1       2.910   2.690  -3.478  0.00  0.00    -0.096 A 
ATOM     10  HN1 IND d   1       2.202   3.312  -6.399  0.00  0.00     0.298 HD
ENDROOT
TORSDOF 0
ENDMDL
