MODEL 1
REMARK minimizedAffinity 24.9616528
REMARK minimizedRMSD -1
REMARK  0 active torsions:
REMARK  status: ('A' for Active; 'I' for Inactive)
ROOT
ATOM      1  N1  IND d   1      -4.786  -3.531  -4.046  0.00  0.00    -0.196 N 
ATOM      2  C2  IND d   1      -3.546  -2.961  -3.965  0.00  0.00     0.054 A 
ATOM      3  C3  IND d   1      -2.881  -3.433  -2.886  0.00  0.00    -0.031 A 
ATOM      4  C4  IND d   1      -3.597  -5.218  -1.175  0.00  0.00     0.051 A 
ATOM      5  C5  IND d   1      -4.658  -5.999  -0.814  0.00  0.00    -0.031 A 
ATOM      6  C6  IND d   1      -5.840  -6.000  -1.527  0.00  0.00     0.015 A 
ATOM      7  C7  IND d   1      -6.000  -5.224  -2.640  0.00  0.00    -0.016 A 
ATOM      8  C8  IND d   1      -4.926  -4.424  -3.006  0.00  0.00    -0.047 A 
ATOM      9  C9  IND d   1      -3.740  -4.388  -2.262  0.00  0.00    -0.096 A 
ATOM     10  HN1 IND d   1      -5.378  -3.361  -4.645  0.00  0.00     0.298 HD
ENDROOT
TORSDOF 0
ENDMDL
