MODEL 1
REMARK minimizedAffinity 7.39776945
REMARK minimizedRMSD -1
REMARK  0 active torsions:
REMARK  status: ('A' for Active; 'I' for Inactive)
ROOT
ATOM      1  N1  IND d   1       0.100   2.721   2.993  0.00  0.00    -0.196 N 
ATOM      2  C2  IND d   1       0.865   3.397   2.084  0.00  0.00     0.054 A 
ATOM      3  C3  IND d   1       2.115   2.885   2.047  0.00  0.00    -0.031 A 
ATOM      4  C4  IND d   1       3.096   0.872   3.319  0.00  0.00     0.051 A 
ATOM      5  C5  IND d   1       2.791  -0.041   4.289  0.00  0.00    -0.031 A 
ATOM      6  C6  IND d   1       1.548  -0.083   4.887  0.00  0.00     0.015 A 
ATOM      7  C7  IND d   1       0.555   0.783   4.527  0.00  0.00    -0.016 A 
ATOM      8  C8  IND d   1       0.863   1.717   3.547  0.00  0.00    -0.047 A 
ATOM      9  C9  IND d   1       2.136   1.792   2.967  0.00  0.00    -0.096 A 
ATOM     10  HN1 IND d   1      -0.720   2.894   3.186  0.00  0.00     0.298 HD
ENDROOT
TORSDOF 0
ENDMDL
