MODEL 1
REMARK minimizedAffinity 17.3289928
REMARK minimizedRMSD -1
REMARK  0 active torsions:
REMARK  status: ('A' for Active; 'I' for Inactive)
ROOT
ATOM      1  N1  IND d   1       3.664   1.088  -4.738  0.00  0.00    -0.196 N 
ATOM      2  C2  IND d   1       4.590   0.266  -4.159  0.00  0.00     0.054 A 
ATOM      3  C3  IND d   1       4.658   0.496  -2.829  0.00  0.00    -0.031 A 
ATOM      4  C4  IND d   1       3.269   2.103  -1.375  0.00  0.00     0.051 A 
ATOM      5  C5  IND d   1       2.324   3.088  -1.458  0.00  0.00    -0.031 A 
ATOM      6  C6  IND d   1       1.765   3.462  -2.663  0.00  0.00     0.015 A 
ATOM      7  C7  IND d   1       2.123   2.855  -3.833  0.00  0.00    -0.016 A 
ATOM      8  C8  IND d   1       3.087   1.859  -3.753  0.00  0.00    -0.047 A 
ATOM      9  C9  IND d   1       3.688   1.505  -2.539  0.00  0.00    -0.096 A 
ATOM     10  HN1 IND d   1       3.475   1.119  -5.576  0.00  0.00     0.298 HD
ENDROOT
TORSDOF 0
ENDMDL
