MODEL 1
REMARK minimizedAffinity 9.27668762
REMARK minimizedRMSD -1
REMARK  0 active torsions:
REMARK  status: ('A' for Active; 'I' for Inactive)
ROOT
ATOM      1  N1  IND d   1      -0.522  -4.822   1.972  0.00  0.00    -0.196 N 
ATOM      2  C2  IND d   1      -1.380  -5.799   1.549  0.00  0.00     0.054 A 
ATOM      3  C3  IND d   1      -2.413  -5.255   0.867  0.00  0.00    -0.031 A 
ATOM      4  C4  IND d   1      -2.843  -2.797   0.238  0.00  0.00     0.051 A 
ATOM      5  C5  IND d   1      -2.358  -1.534   0.432  0.00  0.00    -0.031 A 
ATOM      6  C6  IND d   1      -1.210  -1.298   1.161  0.00  0.00     0.015 A 
ATOM      7  C7  IND d   1      -0.497  -2.322   1.717  0.00  0.00    -0.016 A 
ATOM      8  C8  IND d   1      -0.991  -3.605   1.529  0.00  0.00    -0.047 A 
ATOM      9  C9  IND d   1      -2.178  -3.847   0.825  0.00  0.00    -0.096 A 
ATOM     10  HN1 IND d   1       0.190  -4.947   2.437  0.00  0.00     0.298 HD
ENDROOT
TORSDOF 0
ENDMDL
