MODEL 1
REMARK minimizedAffinity 6.83390856
REMARK minimizedRMSD -1
REMARK  0 active torsions:
REMARK  status: ('A' for Active; 'I' for Inactive)
ROOT
ATOM      1  N1  IND d   1      -1.344  -2.524  -4.209  0.00  0.00    -0.196 N 
ATOM      2  C2  IND d   1      -0.228  -2.990  -4.846  0.00  0.00     0.054 A 
ATOM      3  C3  IND d   1       0.728  -3.312  -3.945  0.00  0.00    -0.031 A 
ATOM      4  C4  IND d   1       0.639  -3.250  -1.373  0.00  0.00     0.051 A 
ATOM      5  C5  IND d   1      -0.157  -2.862  -0.332  0.00  0.00    -0.031 A 
ATOM      6  C6  IND d   1      -1.416  -2.334  -0.534  0.00  0.00     0.015 A 
ATOM      7  C7  IND d   1      -1.933  -2.184  -1.790  0.00  0.00    -0.016 A 
ATOM      8  C8  IND d   1      -1.124  -2.570  -2.850  0.00  0.00    -0.047 A 
ATOM      9  C9  IND d   1       0.171  -3.066  -2.653  0.00  0.00    -0.096 A 
ATOM     10  HN1 IND d   1      -2.062  -2.249  -4.593  0.00  0.00     0.298 HD
ENDROOT
TORSDOF 0
ENDMDL
