MODEL 1
REMARK minimizedAffinity 5.9344368
REMARK minimizedRMSD -1
REMARK  0 active torsions:
REMARK  status: ('A' for Active; 'I' for Inactive)
ROOT
ATOM      1  N1  IND d   1       2.494   2.365   1.514  0.00  0.00    -0.196 N 
ATOM      2  C2  IND d   1       1.710   1.343   1.973  0.00  0.00     0.054 A 
ATOM      3  C3  IND d   1       2.411   0.188   1.998  0.00  0.00    -0.031 A 
ATOM      4  C4  IND d   1       4.885  -0.238   1.427  0.00  0.00     0.051 A 
ATOM      5  C5  IND d   1       5.996   0.380   0.927  0.00  0.00    -0.031 A 
ATOM      6  C6  IND d   1       5.998   1.719   0.593  0.00  0.00     0.015 A 
ATOM      7  C7  IND d   1       4.887   2.496   0.758  0.00  0.00    -0.016 A 
ATOM      8  C8  IND d   1       3.754   1.870   1.258  0.00  0.00    -0.047 A 
ATOM      9  C9  IND d   1       3.733   0.502   1.559  0.00  0.00    -0.096 A 
ATOM     10  HN1 IND d   1       2.242   3.180   1.403  0.00  0.00     0.298 HD
ENDROOT
TORSDOF 0
ENDMDL
