MODEL 1
REMARK minimizedAffinity 14.4887733
REMARK minimizedRMSD -1
REMARK  0 active torsions:
REMARK  status: ('A' for Active; 'I' for Inactive)
ROOT
ATOM      1  N1  IND d   1       1.620   0.111   4.226  0.00  0.00    -0.196 N 
ATOM      2  C2  IND d   1       0.563   0.649   4.906  0.00  0.00     0.054 A 
ATOM      3  C3  IND d   1       0.100   1.746   4.266  0.00  0.00    -0.031 A 
ATOM      4  C4  IND d   1       0.862   2.781   2.035  0.00  0.00     0.051 A 
ATOM      5  C5  IND d   1       1.816   2.663   1.063  0.00  0.00    -0.031 A 
ATOM      6  C6  IND d   1       2.771   1.667   1.095  0.00  0.00     0.015 A 
ATOM      7  C7  IND d   1       2.800   0.741   2.099  0.00  0.00    -0.016 A 
ATOM      8  C8  IND d   1       1.838   0.861   3.091  0.00  0.00    -0.047 A 
ATOM      9  C9  IND d   1       0.893   1.895   3.086  0.00  0.00    -0.096 A 
ATOM     10  HN1 IND d   1       2.072  -0.579   4.467  0.00  0.00     0.298 HD
ENDROOT
TORSDOF 0
ENDMDL
