MODEL 1
REMARK minimizedAffinity 3.9313879
REMARK minimizedRMSD -1
REMARK  0 active torsions:
REMARK  status: ('A' for Active; 'I' for Inactive)
ROOT
ATOM      1  N1  IND d   1       2.978   2.405  -5.893  0.00  0.00    -0.196 N 
ATOM      2  C2  IND d   1       3.961   1.456  -5.924  0.00  0.00     0.054 A 
ATOM      3  C3  IND d   1       5.178   2.041  -6.000  0.00  0.00    -0.031 A 
ATOM      4  C4  IND d   1       5.794   4.540  -5.981  0.00  0.00     0.051 A 
ATOM      5  C5  IND d   1       5.236   5.788  -6.000  0.00  0.00    -0.031 A 
ATOM      6  C6  IND d   1       3.869   5.975  -5.981  0.00  0.00     0.015 A 
ATOM      7  C7  IND d   1       3.006   4.918  -5.931  0.00  0.00    -0.016 A 
ATOM      8  C8  IND d   1       3.569   3.649  -5.919  0.00  0.00    -0.047 A 
ATOM      9  C9  IND d   1       4.954   3.452  -5.980  0.00  0.00    -0.096 A 
ATOM     10  HN1 IND d   1       2.133   2.251  -5.863  0.00  0.00     0.298 HD
ENDROOT
TORSDOF 0
ENDMDL
