MODEL 1
REMARK minimizedAffinity -3.82960463
REMARK minimizedRMSD -1
REMARK  0 active torsions:
REMARK  status: ('A' for Active; 'I' for Inactive)
ROOT
ATOM      1  C   UNL d   1      -1.144   0.826   2.098  0.00  0.00     0.020 A 
ATOM      2  C1  UNL d   1       0.128   1.139   1.620  0.00  0.00     0.020 A 
ATOM      3  C2  UNL d   1       0.523   0.709   0.352  0.00  0.00     0.034 A 
ATOM      4  C3  UNL d   1      -0.355  -0.036  -0.444  0.00  0.00     0.017 A 
ATOM      5  C4  UNL d   1      -1.632  -0.349   0.036  0.00  0.00     0.017 A 
ATOM      6  C5  UNL d   1      -2.022   0.084   1.307  0.00  0.00     0.034 A 
ATOM      7 Cl   UNL d   1      -2.771  -1.265  -0.887  0.00  0.00    -0.070 Cl
ATOM      8 Cl1  UNL d   1       0.199  -0.535  -2.003  0.00  0.00    -0.070 Cl
ENDROOT
TORSDOF 0
ENDMDL
