MODEL 1
REMARK minimizedAffinity -1.5160439
REMARK minimizedRMSD -1
REMARK  0 active torsions:
REMARK  status: ('A' for Active; 'I' for Inactive)
ROOT
ATOM      1  C   UNL d   1       0.652   0.286  -0.777  0.00  0.00     0.020 A 
ATOM      2  C1  UNL d   1      -0.195  -0.815  -0.655  0.00  0.00     0.020 A 
ATOM      3  C2  UNL d   1      -1.105  -0.882   0.402  0.00  0.00     0.034 A 
ATOM      4  C3  UNL d   1      -1.171   0.154   1.341  0.00  0.00     0.017 A 
ATOM      5  C4  UNL d   1      -0.321   1.259   1.217  0.00  0.00     0.017 A 
ATOM      6  C5  UNL d   1       0.589   1.321   0.157  0.00  0.00     0.034 A 
ATOM      7 Cl   UNL d   1      -0.344   2.576   2.336  0.00  0.00    -0.070 Cl
ATOM      8 Cl1  UNL d   1      -2.320   0.005   2.623  0.00  0.00    -0.070 Cl
ENDROOT
TORSDOF 0
ENDMDL
