MODEL 1
REMARK minimizedAffinity -3.99767208
REMARK minimizedRMSD -1
REMARK  0 active torsions:
REMARK  status: ('A' for Active; 'I' for Inactive)
ROOT
ATOM      1  C   UNL d   1      -0.085  -0.741  -1.178  0.00  0.00     0.020 A 
ATOM      2  C1  UNL d   1      -1.314  -0.125  -0.945  0.00  0.00     0.020 A 
ATOM      3  C2  UNL d   1      -1.518   0.604   0.228  0.00  0.00     0.034 A 
ATOM      4  C3  UNL d   1      -0.492   0.720   1.173  0.00  0.00     0.017 A 
ATOM      5  C4  UNL d   1       0.741   0.102   0.938  0.00  0.00     0.017 A 
ATOM      6  C5  UNL d   1       0.941  -0.627  -0.238  0.00  0.00     0.034 A 
ATOM      7 Cl   UNL d   1       2.055   0.200   2.057  0.00  0.00    -0.070 Cl
ATOM      8 Cl1  UNL d   1      -0.815   1.638   2.601  0.00  0.00    -0.070 Cl
ENDROOT
TORSDOF 0
ENDMDL
