MODEL 1
REMARK minimizedAffinity -1.57164335
REMARK minimizedRMSD -1
REMARK  0 active torsions:
REMARK  status: ('A' for Active; 'I' for Inactive)
ROOT
ATOM      1  C   UNL d   1       1.153   1.270   2.060  0.00  0.00     0.020 A 
ATOM      2  C1  UNL d   1       0.162   1.699   1.178  0.00  0.00     0.020 A 
ATOM      3  C2  UNL d   1       0.017   1.079  -0.065  0.00  0.00     0.034 A 
ATOM      4  C3  UNL d   1       0.865   0.027  -0.430  0.00  0.00     0.017 A 
ATOM      5  C4  UNL d   1       1.860  -0.402   0.456  0.00  0.00     0.017 A 
ATOM      6  C5  UNL d   1       2.001   0.222   1.699  0.00  0.00     0.034 A 
ATOM      7 Cl   UNL d   1       2.944  -1.694   0.076  0.00  0.00    -0.070 Cl
ATOM      8 Cl1  UNL d   1       0.629  -0.693  -1.983  0.00  0.00    -0.070 Cl
ENDROOT
TORSDOF 0
ENDMDL
