MODEL 1
REMARK minimizedAffinity -1.66730213
REMARK minimizedRMSD -1
REMARK  0 active torsions:
REMARK  status: ('A' for Active; 'I' for Inactive)
ROOT
ATOM      1  C   UNL d   1      -1.297  -0.253  -0.813  0.00  0.00     0.020 A 
ATOM      2  C1  UNL d   1      -0.017  -0.724  -1.103  0.00  0.00     0.020 A 
ATOM      3  C2  UNL d   1       1.039  -0.458  -0.229  0.00  0.00     0.034 A 
ATOM      4  C3  UNL d   1       0.818   0.281   0.939  0.00  0.00     0.017 A 
ATOM      5  C4  UNL d   1      -0.467   0.754   1.229  0.00  0.00     0.017 A 
ATOM      6  C5  UNL d   1      -1.522   0.485   0.351  0.00  0.00     0.034 A 
ATOM      7 Cl   UNL d   1      -0.819   1.672   2.650  0.00  0.00    -0.070 Cl
ATOM      8 Cl1  UNL d   1       2.170   0.572   1.974  0.00  0.00    -0.070 Cl
ENDROOT
TORSDOF 0
ENDMDL
