MODEL 1
REMARK minimizedAffinity -1.23997617
REMARK minimizedRMSD -1
REMARK  0 active torsions:
REMARK  status: ('A' for Active; 'I' for Inactive)
ROOT
ATOM      1  C   UNL d   1      -0.799  -0.457  -1.108  0.00  0.00     0.020 A 
ATOM      2  C1  UNL d   1       0.457  -1.045  -1.255  0.00  0.00     0.020 A 
ATOM      3  C2  UNL d   1       1.459  -0.794  -0.315  0.00  0.00     0.034 A 
ATOM      4  C3  UNL d   1       1.207   0.046   0.776  0.00  0.00     0.017 A 
ATOM      5  C4  UNL d   1      -0.054   0.635   0.922  0.00  0.00     0.017 A 
ATOM      6  C5  UNL d   1      -1.054   0.381  -0.022  0.00  0.00     0.034 A 
ATOM      7 Cl   UNL d   1      -0.440   1.683   2.241  0.00  0.00    -0.070 Cl
ATOM      8 Cl1  UNL d   1       2.492   0.311   1.900  0.00  0.00    -0.070 Cl
ENDROOT
TORSDOF 0
ENDMDL
