MODEL 1
REMARK minimizedAffinity -3.16077018
REMARK minimizedRMSD -1
REMARK  0 active torsions:
REMARK  status: ('A' for Active; 'I' for Inactive)
ROOT
ATOM      1  C   UNL d   1      -1.317  -0.357  -0.493  0.00  0.00     0.020 A 
ATOM      2  C1  UNL d   1      -0.041  -0.845  -0.772  0.00  0.00     0.020 A 
ATOM      3  C2  UNL d   1       1.051  -0.418  -0.013  0.00  0.00     0.034 A 
ATOM      4  C3  UNL d   1       0.868   0.499   1.029  0.00  0.00     0.017 A 
ATOM      5  C4  UNL d   1      -0.413   0.988   1.308  0.00  0.00     0.017 A 
ATOM      6  C5  UNL d   1      -1.503   0.557   0.545  0.00  0.00     0.034 A 
ATOM      7 Cl   UNL d   1      -0.717   2.121   2.577  0.00  0.00    -0.070 Cl
ATOM      8 Cl1  UNL d   1       2.263   0.983   1.927  0.00  0.00    -0.070 Cl
ENDROOT
TORSDOF 0
ENDMDL
