MODEL 1
REMARK minimizedAffinity -5.90317583
REMARK minimizedRMSD -1
REMARK  0 active torsions:
REMARK  status: ('A' for Active; 'I' for Inactive)
ROOT
ATOM      1  C   UNL d   1      -2.098   0.367  -0.520  0.00  0.00     0.020 A 
ATOM      2  C1  UNL d   1      -0.986  -0.275  -1.064  0.00  0.00     0.020 A 
ATOM      3  C2  UNL d   1       0.179  -0.414  -0.308  0.00  0.00     0.034 A 
ATOM      4  C3  UNL d   1       0.236   0.090   0.997  0.00  0.00     0.017 A 
ATOM      5  C4  UNL d   1      -0.880   0.735   1.542  0.00  0.00     0.017 A 
ATOM      6  C5  UNL d   1      -2.045   0.871   0.780  0.00  0.00     0.034 A 
ATOM      7 Cl   UNL d   1      -0.886   1.383   3.144  0.00  0.00    -0.070 Cl
ATOM      8 Cl1  UNL d   1       1.709  -0.117   1.875  0.00  0.00    -0.070 Cl
ENDROOT
TORSDOF 0
ENDMDL
