MODEL 1
REMARK minimizedAffinity -3.82250977
REMARK minimizedRMSD -1
REMARK  0 active torsions:
REMARK  status: ('A' for Active; 'I' for Inactive)
ROOT
ATOM      1  C   UNL d   1      -1.916   1.087   1.020  0.00  0.00     0.020 A 
ATOM      2  C1  UNL d   1      -1.044   1.520   2.018  0.00  0.00     0.020 A 
ATOM      3  C2  UNL d   1       0.277   1.066   2.035  0.00  0.00     0.034 A 
ATOM      4  C3  UNL d   1       0.729   0.178   1.053  0.00  0.00     0.017 A 
ATOM      5  C4  UNL d   1      -0.148  -0.256   0.052  0.00  0.00     0.017 A 
ATOM      6  C5  UNL d   1      -1.469   0.202   0.039  0.00  0.00     0.034 A 
ATOM      7 Cl   UNL d   1       0.336  -1.352  -1.194  0.00  0.00    -0.070 Cl
ATOM      8 Cl1  UNL d   1       2.375  -0.342   1.135  0.00  0.00    -0.070 Cl
ENDROOT
TORSDOF 0
ENDMDL
