MODEL 1
REMARK minimizedAffinity 0.269931674
REMARK minimizedRMSD -1
REMARK  0 active torsions:
REMARK  status: ('A' for Active; 'I' for Inactive)
ROOT
ATOM      1  C   UNL d   1       1.681  -0.677   0.750  0.00  0.00     0.020 A 
ATOM      2  C1  UNL d   1       1.116  -0.902  -0.505  0.00  0.00     0.020 A 
ATOM      3  C2  UNL d   1      -0.183  -0.464  -0.774  0.00  0.00     0.034 A 
ATOM      4  C3  UNL d   1      -0.920   0.201   0.212  0.00  0.00     0.017 A 
ATOM      5  C4  UNL d   1      -0.352   0.427   1.471  0.00  0.00     0.017 A 
ATOM      6  C5  UNL d   1       0.949  -0.014   1.736  0.00  0.00     0.034 A 
ATOM      7 Cl   UNL d   1      -1.199   1.241   2.739  0.00  0.00    -0.070 Cl
ATOM      8 Cl1  UNL d   1      -2.520   0.715  -0.190  0.00  0.00    -0.070 Cl
ENDROOT
TORSDOF 0
ENDMDL
