MODEL 1
REMARK minimizedAffinity -2.90716314
REMARK minimizedRMSD -1
REMARK  0 active torsions:
REMARK  status: ('A' for Active; 'I' for Inactive)
ROOT
ATOM      1  C   UNL d   1      -0.035   2.197   2.423  0.00  0.00     0.020 A 
ATOM      2  C1  UNL d   1      -1.194   1.575   2.886  0.00  0.00     0.020 A 
ATOM      3  C2  UNL d   1      -1.927   0.744   2.036  0.00  0.00     0.034 A 
ATOM      4  C3  UNL d   1      -1.503   0.533   0.719  0.00  0.00     0.017 A 
ATOM      5  C4  UNL d   1      -0.340   1.159   0.255  0.00  0.00     0.017 A 
ATOM      6  C5  UNL d   1       0.391   1.990   1.110  0.00  0.00     0.034 A 
ATOM      7 Cl   UNL d   1       0.246   0.947  -1.357  0.00  0.00    -0.070 Cl
ATOM      8 Cl1  UNL d   1      -2.458  -0.507  -0.276  0.00  0.00    -0.070 Cl
ENDROOT
TORSDOF 0
ENDMDL
