MODEL 1
REMARK minimizedAffinity 15.1097565
REMARK minimizedRMSD -1
REMARK  0 active torsions:
REMARK  status: ('A' for Active; 'I' for Inactive)
ROOT
ATOM      1  C   UNL d   1       4.217  -2.936   1.478  0.00  0.00     0.023 A 
ATOM      2  C1  UNL d   1       3.198  -2.995   0.527  0.00  0.00     0.003 A 
ATOM      3  C2  UNL d   1       2.863  -1.857  -0.210  0.00  0.00     0.048 A 
ATOM      4  C3  UNL d   1       3.551  -0.664   0.009  0.00  0.00     0.023 A 
ATOM      5  C4  UNL d   1       4.572  -0.601   0.959  0.00  0.00     0.048 A 
ATOM      6  C5  UNL d   1       4.903  -1.741   1.694  0.00  0.00     0.003 A 
ATOM      7  I   UNL d   1       3.054   1.030  -1.087  0.00  0.00    -0.146 I 
ENDROOT
TORSDOF 0
ENDMDL
