MODEL 1
REMARK minimizedAffinity 0.24939321
REMARK minimizedRMSD -1
REMARK  0 active torsions:
REMARK  status: ('A' for Active; 'I' for Inactive)
ROOT
ATOM      1  C   UNL d   1       2.548   5.957   5.973  0.00  0.00     0.023 A 
ATOM      2  C1  UNL d   1       3.892   5.584   5.966  0.00  0.00     0.003 A 
ATOM      3  C2  UNL d   1       4.242   4.232   5.973  0.00  0.00     0.048 A 
ATOM      4  C3  UNL d   1       3.243   3.259   5.987  0.00  0.00     0.023 A 
ATOM      5  C4  UNL d   1       1.897   3.628   5.993  0.00  0.00     0.048 A 
ATOM      6  C5  UNL d   1       1.551   4.981   5.986  0.00  0.00     0.003 A 
ATOM      7  I   UNL d   1       3.762   1.246   5.998  0.00  0.00    -0.146 I 
ENDROOT
TORSDOF 0
ENDMDL
