MODEL 1
REMARK minimizedAffinity 7.94442749
REMARK minimizedRMSD -1
REMARK  0 active torsions:
REMARK  status: ('A' for Active; 'I' for Inactive)
ROOT
ATOM      1  C   UNL d   1       3.636   4.560   5.982  0.00  0.00     0.023 A 
ATOM      2  C1  UNL d   1       4.784   3.766   5.989  0.00  0.00     0.003 A 
ATOM      3  C2  UNL d   1       4.671   2.375   5.991  0.00  0.00     0.048 A 
ATOM      4  C3  UNL d   1       3.409   1.783   5.985  0.00  0.00     0.023 A 
ATOM      5  C4  UNL d   1       2.258   2.573   5.976  0.00  0.00     0.048 A 
ATOM      6  C5  UNL d   1       2.375   3.964   5.975  0.00  0.00     0.003 A 
ATOM      7  I   UNL d   1       3.239  -0.289   5.987  0.00  0.00    -0.146 I 
ENDROOT
TORSDOF 0
ENDMDL
