MODEL 1
REMARK minimizedAffinity 1.49623311
REMARK minimizedRMSD -1
REMARK  0 active torsions:
REMARK  status: ('A' for Active; 'I' for Inactive)
ROOT
ATOM      1  C   UNL d   1       3.368  -0.151  -0.030  0.00  0.00     0.023 A 
ATOM      2  C1  UNL d   1       3.306  -1.432   0.519  0.00  0.00     0.003 A 
ATOM      3  C2  UNL d   1       2.295  -2.312   0.128  0.00  0.00     0.048 A 
ATOM      4  C3  UNL d   1       1.349  -1.905  -0.812  0.00  0.00     0.023 A 
ATOM      5  C4  UNL d   1       1.408  -0.625  -1.365  0.00  0.00     0.048 A 
ATOM      6  C5  UNL d   1       2.420   0.252  -0.971  0.00  0.00     0.003 A 
ATOM      7  I   UNL d   1      -0.157  -3.214  -1.396  0.00  0.00    -0.146 I 
ENDROOT
TORSDOF 0
ENDMDL
