MODEL 1
REMARK minimizedAffinity 9.94753933
REMARK minimizedRMSD -1
REMARK  0 active torsions:
REMARK  status: ('A' for Active; 'I' for Inactive)
ROOT
ATOM      1  C   UNL d   1       2.620  -2.101  -1.134  0.00  0.00     0.023 A 
ATOM      2  C1  UNL d   1       2.504  -0.819  -1.671  0.00  0.00     0.003 A 
ATOM      3  C2  UNL d   1       2.721   0.299  -0.864  0.00  0.00     0.048 A 
ATOM      4  C3  UNL d   1       3.056   0.129   0.479  0.00  0.00     0.023 A 
ATOM      5  C4  UNL d   1       3.175  -1.153   1.020  0.00  0.00     0.048 A 
ATOM      6  C5  UNL d   1       2.956  -2.268   0.210  0.00  0.00     0.003 A 
ATOM      7  I   UNL d   1       3.381   1.792   1.682  0.00  0.00    -0.146 I 
ENDROOT
TORSDOF 0
ENDMDL
