MODEL 1
REMARK minimizedAffinity 5.37923145
REMARK minimizedRMSD -1
REMARK  0 active torsions:
REMARK  status: ('A' for Active; 'I' for Inactive)
ROOT
ATOM      1  C   UNL d   1      -4.585   0.367  -0.145  0.00  0.00     0.023 A 
ATOM      2  C1  UNL d   1      -4.050   1.341   0.698  0.00  0.00     0.003 A 
ATOM      3  C2  UNL d   1      -2.729   1.763   0.529  0.00  0.00     0.048 A 
ATOM      4  C3  UNL d   1      -1.950   1.208  -0.486  0.00  0.00     0.023 A 
ATOM      5  C4  UNL d   1      -2.482   0.234  -1.332  0.00  0.00     0.048 A 
ATOM      6  C5  UNL d   1      -3.803  -0.185  -1.159  0.00  0.00     0.003 A 
ATOM      7  I   UNL d   1       0.015   1.835  -0.739  0.00  0.00    -0.146 I 
ENDROOT
TORSDOF 0
ENDMDL
