MODEL 1
REMARK minimizedAffinity 7.23041201
REMARK minimizedRMSD -1
REMARK  0 active torsions:
REMARK  status: ('A' for Active; 'I' for Inactive)
ROOT
ATOM      1  C   UNL d   1      -5.073   0.846   0.784  0.00  0.00     0.023 A 
ATOM      2  C1  UNL d   1      -4.125   1.538   1.537  0.00  0.00     0.003 A 
ATOM      3  C2  UNL d   1      -2.793   1.578   1.119  0.00  0.00     0.048 A 
ATOM      4  C3  UNL d   1      -2.417   0.924  -0.054  0.00  0.00     0.023 A 
ATOM      5  C4  UNL d   1      -3.363   0.231  -0.811  0.00  0.00     0.048 A 
ATOM      6  C5  UNL d   1      -4.693   0.193  -0.389  0.00  0.00     0.003 A 
ATOM      7  I   UNL d   1      -0.436   0.982  -0.679  0.00  0.00    -0.146 I 
ENDROOT
TORSDOF 0
ENDMDL
