MODEL 1
REMARK minimizedAffinity -1.89906585
REMARK minimizedRMSD -1
REMARK  0 active torsions:
REMARK  status: ('A' for Active; 'I' for Inactive)
ROOT
ATOM      1  C   UNL d   1       1.422   4.293   4.823  0.00  0.00     0.023 A 
ATOM      2  C1  UNL d   1       2.405   3.312   4.953  0.00  0.00     0.003 A 
ATOM      3  C2  UNL d   1       3.711   3.671   5.290  0.00  0.00     0.048 A 
ATOM      4  C3  UNL d   1       4.028   5.013   5.497  0.00  0.00     0.023 A 
ATOM      5  C4  UNL d   1       3.047   5.998   5.369  0.00  0.00     0.048 A 
ATOM      6  C5  UNL d   1       1.742   5.634   5.031  0.00  0.00     0.003 A 
ATOM      7  I   UNL d   1       5.972   5.550   5.999  0.00  0.00    -0.146 I 
ENDROOT
TORSDOF 0
ENDMDL
