MODEL 1
REMARK minimizedAffinity 18.6548309
REMARK minimizedRMSD -1
REMARK  0 active torsions:
REMARK  status: ('A' for Active; 'I' for Inactive)
ROOT
ATOM      1  C   UNL d   1      -0.162  -4.067   0.921  0.00  0.00    -0.002 A 
ATOM      2  C1  UNL d   1      -0.060  -5.091  -0.010  0.00  0.00     0.010 A 
ATOM      3  C2  UNL d   1      -0.249  -4.837  -1.369  0.00  0.00     0.041 A 
ATOM      4  C3  UNL d   1      -0.543  -3.523  -1.783  0.00  0.00    -0.075 A 
ATOM      5  S   UNL d   1      -0.813  -2.977  -3.396  0.00  0.00     0.015 SA
ATOM      6  C4  UNL d   1      -1.070  -1.370  -2.888  0.00  0.00     0.022 A 
ATOM      7  C5  UNL d   1      -0.956  -1.236  -1.524  0.00  0.00     0.026 A 
ATOM      8  C6  UNL d   1      -0.650  -2.475  -0.865  0.00  0.00    -0.082 A 
ATOM      9  C7  UNL d   1      -0.454  -2.764   0.507  0.00  0.00     0.045 A 
ENDROOT
TORSDOF 0
ENDMDL
