MODEL 1
REMARK minimizedAffinity 2.42727685
REMARK minimizedRMSD -1
REMARK  0 active torsions:
REMARK  status: ('A' for Active; 'I' for Inactive)
ROOT
ATOM      1  C   UNL d   1      -3.189   1.928  -5.446  0.00  0.00    -0.002 A 
ATOM      2  C1  UNL d   1      -2.448   2.628  -4.505  0.00  0.00     0.010 A 
ATOM      3  C2  UNL d   1      -2.850   3.898  -4.086  0.00  0.00     0.041 A 
ATOM      4  C3  UNL d   1      -4.021   4.458  -4.633  0.00  0.00    -0.075 A 
ATOM      5  S   UNL d   1      -4.706   5.998  -4.270  0.00  0.00     0.015 SA
ATOM      6  C4  UNL d   1      -5.999   5.762  -5.355  0.00  0.00     0.022 A 
ATOM      7  C5  UNL d   1      -5.926   4.544  -5.988  0.00  0.00     0.026 A 
ATOM      8  C6  UNL d   1      -4.785   3.772  -5.582  0.00  0.00    -0.082 A 
ATOM      9  C7  UNL d   1      -4.351   2.486  -5.987  0.00  0.00     0.045 A 
ENDROOT
TORSDOF 0
ENDMDL
