MODEL 1
REMARK minimizedAffinity 18.5914803
REMARK minimizedRMSD -1
REMARK  0 active torsions:
REMARK  status: ('A' for Active; 'I' for Inactive)
ROOT
ATOM      1  C   UNL d   1       1.242  -0.027  -1.821  0.00  0.00    -0.002 A 
ATOM      2  C1  UNL d   1       2.062   0.572  -2.767  0.00  0.00     0.010 A 
ATOM      3  C2  UNL d   1       2.981   1.554  -2.391  0.00  0.00     0.041 A 
ATOM      4  C3  UNL d   1       3.063   1.927  -1.035  0.00  0.00    -0.075 A 
ATOM      5  S   UNL d   1       4.114   3.105  -0.343  0.00  0.00     0.015 SA
ATOM      6  C4  UNL d   1       3.500   2.842   1.224  0.00  0.00     0.022 A 
ATOM      7  C5  UNL d   1       2.516   1.881   1.238  0.00  0.00     0.026 A 
ATOM      8  C6  UNL d   1       2.249   1.338  -0.064  0.00  0.00    -0.082 A 
ATOM      9  C7  UNL d   1       1.327   0.345  -0.477  0.00  0.00     0.045 A 
ENDROOT
TORSDOF 0
ENDMDL
