MODEL 1
REMARK minimizedAffinity 10.9145126
REMARK minimizedRMSD -1
REMARK  0 active torsions:
REMARK  status: ('A' for Active; 'I' for Inactive)
ROOT
ATOM      1  C   UNL d   1      -3.836   1.654  -5.269  0.00  0.00    -0.002 A 
ATOM      2  C1  UNL d   1      -2.981   2.245  -4.350  0.00  0.00     0.010 A 
ATOM      3  C2  UNL d   1      -3.128   3.590  -4.006  0.00  0.00     0.041 A 
ATOM      4  C3  UNL d   1      -4.161   4.338  -4.605  0.00  0.00    -0.075 A 
ATOM      5  S   UNL d   1      -4.532   6.000  -4.335  0.00  0.00     0.015 SA
ATOM      6  C4  UNL d   1      -5.836   5.964  -5.432  0.00  0.00     0.022 A 
ATOM      7  C5  UNL d   1      -5.998   4.722  -5.999  0.00  0.00     0.026 A 
ATOM      8  C6  UNL d   1      -5.036   3.765  -5.531  0.00  0.00    -0.082 A 
ATOM      9  C7  UNL d   1      -4.860   2.399  -5.861  0.00  0.00     0.045 A 
ENDROOT
TORSDOF 0
ENDMDL
