MODEL 1
REMARK minimizedAffinity 22.3254814
REMARK minimizedRMSD -1
REMARK  0 active torsions:
REMARK  status: ('A' for Active; 'I' for Inactive)
ROOT
ATOM      1  C   UNL d   1      -1.812  -1.561  -1.912  0.00  0.00    -0.002 A 
ATOM      2  C1  UNL d   1      -2.112  -0.907  -0.725  0.00  0.00     0.010 A 
ATOM      3  C2  UNL d   1      -1.249   0.062  -0.210  0.00  0.00     0.041 A 
ATOM      4  C3  UNL d   1      -0.069   0.368  -0.916  0.00  0.00    -0.075 A 
ATOM      5  S   UNL d   1       1.136   1.520  -0.477  0.00  0.00     0.015 SA
ATOM      6  C4  UNL d   1       2.077   1.173  -1.854  0.00  0.00     0.022 A 
ATOM      7  C5  UNL d   1       1.502   0.203  -2.641  0.00  0.00     0.026 A 
ATOM      8  C6  UNL d   1       0.255  -0.276  -2.113  0.00  0.00    -0.082 A 
ATOM      9  C7  UNL d   1      -0.640  -1.255  -2.609  0.00  0.00     0.045 A 
ENDROOT
TORSDOF 0
ENDMDL
