MODEL 1
REMARK minimizedAffinity 18.8650055
REMARK minimizedRMSD -1
REMARK  0 active torsions:
REMARK  status: ('A' for Active; 'I' for Inactive)
ROOT
ATOM      1  C   UNL d   1      -0.325  -4.276   1.055  0.00  0.00    -0.002 A 
ATOM      2  C1  UNL d   1      -0.261  -5.104  -0.056  0.00  0.00     0.010 A 
ATOM      3  C2  UNL d   1      -0.495  -4.596  -1.335  0.00  0.00     0.041 A 
ATOM      4  C3  UNL d   1      -0.795  -3.227  -1.481  0.00  0.00    -0.075 A 
ATOM      5  S   UNL d   1      -1.117  -2.384  -2.949  0.00  0.00     0.015 SA
ATOM      6  C4  UNL d   1      -1.347  -0.904  -2.136  0.00  0.00     0.022 A 
ATOM      7  C5  UNL d   1      -1.186  -1.032  -0.777  0.00  0.00     0.026 A 
ATOM      8  C6  UNL d   1      -0.865  -2.373  -0.377  0.00  0.00    -0.082 A 
ATOM      9  C7  UNL d   1      -0.624  -2.919   0.907  0.00  0.00     0.045 A 
ENDROOT
TORSDOF 0
ENDMDL
