MODEL 1
REMARK minimizedAffinity 21.8980885
REMARK minimizedRMSD -1
REMARK  0 active torsions:
REMARK  status: ('A' for Active; 'I' for Inactive)
ROOT
ATOM      1  C   UNL d   1      -2.357  -1.291   1.406  0.00  0.00    -0.002 A 
ATOM      2  C1  UNL d   1      -2.465  -0.573   0.224  0.00  0.00     0.010 A 
ATOM      3  C2  UNL d   1      -1.954  -1.088  -0.969  0.00  0.00     0.041 A 
ATOM      4  C3  UNL d   1      -1.329  -2.350  -0.954  0.00  0.00    -0.075 A 
ATOM      5  S   UNL d   1      -0.632  -3.181  -2.294  0.00  0.00     0.015 SA
ATOM      6  C4  UNL d   1      -0.176  -4.510  -1.329  0.00  0.00     0.022 A 
ATOM      7  C5  UNL d   1      -0.539  -4.340  -0.014  0.00  0.00     0.026 A 
ATOM      8  C6  UNL d   1      -1.210  -3.093   0.224  0.00  0.00    -0.082 A 
ATOM      9  C7  UNL d   1      -1.737  -2.543   1.417  0.00  0.00     0.045 A 
ENDROOT
TORSDOF 0
ENDMDL
