MODEL 1
REMARK minimizedAffinity 24.8527622
REMARK minimizedRMSD -1
REMARK  0 active torsions:
REMARK  status: ('A' for Active; 'I' for Inactive)
ROOT
ATOM      1  C   UNL d   1       1.900   1.827  -0.806  0.00  0.00    -0.002 A 
ATOM      2  C1  UNL d   1       2.552   1.280  -1.902  0.00  0.00     0.010 A 
ATOM      3  C2  UNL d   1       3.825   1.724  -2.264  0.00  0.00     0.041 A 
ATOM      4  C3  UNL d   1       4.439   2.734  -1.498  0.00  0.00    -0.075 A 
ATOM      5  S   UNL d   1       5.995   3.432  -1.753  0.00  0.00     0.015 SA
ATOM      6  C4  UNL d   1       5.830   4.471  -0.412  0.00  0.00     0.022 A 
ATOM      7  C5  UNL d   1       4.624   4.303   0.226  0.00  0.00     0.026 A 
ATOM      8  C6  UNL d   1       3.803   3.299  -0.389  0.00  0.00    -0.082 A 
ATOM      9  C7  UNL d   1       2.512   2.828  -0.048  0.00  0.00     0.045 A 
ENDROOT
TORSDOF 0
ENDMDL
