MODEL 1
REMARK minimizedAffinity 24.9192638
REMARK minimizedRMSD -1
REMARK  0 active torsions:
REMARK  status: ('A' for Active; 'I' for Inactive)
ROOT
ATOM      1  C   UNL d   1       2.236   1.114  -1.710  0.00  0.00    -0.002 A 
ATOM      2  C1  UNL d   1       2.450   0.339  -2.841  0.00  0.00     0.010 A 
ATOM      3  C2  UNL d   1       1.550  -0.669  -3.192  0.00  0.00     0.041 A 
ATOM      4  C3  UNL d   1       0.419  -0.886  -2.381  0.00  0.00    -0.075 A 
ATOM      5  S   UNL d   1      -0.818  -2.063  -2.616  0.00  0.00     0.015 SA
ATOM      6  C4  UNL d   1      -1.661  -1.564  -1.221  0.00  0.00     0.022 A 
ATOM      7  C5  UNL d   1      -1.028  -0.527  -0.579  0.00  0.00     0.026 A 
ATOM      8  C6  UNL d   1       0.181  -0.118  -1.237  0.00  0.00    -0.082 A 
ATOM      9  C7  UNL d   1       1.113   0.896  -0.907  0.00  0.00     0.045 A 
ENDROOT
TORSDOF 0
ENDMDL
