MODEL 1
REMARK minimizedAffinity 25.3340721
REMARK minimizedRMSD -1
REMARK  0 active torsions:
REMARK  status: ('A' for Active; 'I' for Inactive)
ROOT
ATOM      1  C   UNL d   1      -1.039   2.998  -4.843  0.00  0.00    -0.002 A 
ATOM      2  C1  UNL d   1      -2.321   2.668  -4.428  0.00  0.00     0.010 A 
ATOM      3  C2  UNL d   1      -2.602   1.391  -3.938  0.00  0.00     0.041 A 
ATOM      4  C3  UNL d   1      -1.562   0.443  -3.869  0.00  0.00    -0.075 A 
ATOM      5  S   UNL d   1      -1.673  -1.181  -3.302  0.00  0.00     0.015 SA
ATOM      6  C4  UNL d   1      -0.020  -1.475  -3.596  0.00  0.00     0.022 A 
ATOM      7  C5  UNL d   1       0.616  -0.371  -4.114  0.00  0.00     0.026 A 
ATOM      8  C6  UNL d   1      -0.263   0.753  -4.279  0.00  0.00    -0.082 A 
ATOM      9  C7  UNL d   1      -0.010   2.055  -4.773  0.00  0.00     0.045 A 
ENDROOT
TORSDOF 0
ENDMDL
