MODEL 1
REMARK minimizedAffinity 21.611351
REMARK minimizedRMSD -1
REMARK  0 active torsions:
REMARK  status: ('A' for Active; 'I' for Inactive)
ROOT
ATOM      1  C   UNL d   1       2.035   0.991  -1.463  0.00  0.00    -0.002 A 
ATOM      2  C1  UNL d   1       2.357  -0.340  -1.236  0.00  0.00     0.010 A 
ATOM      3  C2  UNL d   1       3.063  -0.714  -0.091  0.00  0.00     0.041 A 
ATOM      4  C3  UNL d   1       3.441   0.281   0.832  0.00  0.00    -0.075 A 
ATOM      5  S   UNL d   1       4.309   0.056   2.304  0.00  0.00     0.015 SA
ATOM      6  C4  UNL d   1       4.272   1.721   2.668  0.00  0.00     0.022 A 
ATOM      7  C5  UNL d   1       3.617   2.445   1.700  0.00  0.00     0.026 A 
ATOM      8  C6  UNL d   1       3.127   1.627   0.626  0.00  0.00    -0.082 A 
ATOM      9  C7  UNL d   1       2.411   1.974  -0.545  0.00  0.00     0.045 A 
ENDROOT
TORSDOF 0
ENDMDL
