MODEL 1
REMARK minimizedAffinity 9.40642738
REMARK minimizedRMSD -1
REMARK  0 active torsions:
REMARK  status: ('A' for Active; 'I' for Inactive)
ROOT
ATOM      1  C   UNL d   1      -5.372   4.116   1.769  0.00  0.00    -0.002 A 
ATOM      2  C1  UNL d   1      -5.995   5.334   1.538  0.00  0.00     0.010 A 
ATOM      3  C2  UNL d   1      -5.847   5.986   0.312  0.00  0.00     0.041 A 
ATOM      4  C3  UNL d   1      -5.056   5.386  -0.688  0.00  0.00    -0.075 A 
ATOM      5  S   UNL d   1      -4.734   6.000  -2.266  0.00  0.00     0.015 SA
ATOM      6  C4  UNL d   1      -3.762   4.660  -2.670  0.00  0.00     0.022 A 
ATOM      7  C5  UNL d   1      -3.674   3.756  -1.638  0.00  0.00     0.026 A 
ATOM      8  C6  UNL d   1      -4.419   4.159  -0.478  0.00  0.00    -0.082 A 
ATOM      9  C7  UNL d   1      -4.588   3.524   0.776  0.00  0.00     0.045 A 
ENDROOT
TORSDOF 0
ENDMDL
