MODEL 1
REMARK minimizedAffinity 12.9245787
REMARK minimizedRMSD -1
REMARK  0 active torsions:
REMARK  status: ('A' for Active; 'I' for Inactive)
ROOT
ATOM      1  C   UNL d   1      -1.121  -1.486  -3.161  0.00  0.00    -0.002 A 
ATOM      2  C1  UNL d   1      -1.357  -1.246  -1.814  0.00  0.00     0.010 A 
ATOM      3  C2  UNL d   1      -0.355  -0.709  -1.003  0.00  0.00     0.041 A 
ATOM      4  C3  UNL d   1       0.898  -0.411  -1.574  0.00  0.00    -0.075 A 
ATOM      5  S   UNL d   1       2.273   0.253  -0.773  0.00  0.00     0.015 SA
ATOM      6  C4  UNL d   1       3.205   0.235  -2.200  0.00  0.00     0.022 A 
ATOM      7  C5  UNL d   1       2.500  -0.263  -3.270  0.00  0.00     0.026 A 
ATOM      8  C6  UNL d   1       1.159  -0.643  -2.927  0.00  0.00    -0.082 A 
ATOM      9  C7  UNL d   1       0.123  -1.190  -3.723  0.00  0.00     0.045 A 
ENDROOT
TORSDOF 0
ENDMDL
