MODEL 1
REMARK minimizedAffinity 14.3245382
REMARK minimizedRMSD -1
REMARK  0 active torsions:
REMARK  status: ('A' for Active; 'I' for Inactive)
ROOT
ATOM      1  C   UNL d   1      -3.554   1.845  -5.395  0.00  0.00    -0.002 A 
ATOM      2  C1  UNL d   1      -2.832   2.388  -4.342  0.00  0.00     0.010 A 
ATOM      3  C2  UNL d   1      -3.117   3.671  -3.872  0.00  0.00     0.041 A 
ATOM      4  C3  UNL d   1      -4.151   4.407  -4.484  0.00  0.00    -0.075 A 
ATOM      5  S   UNL d   1      -4.677   5.997  -4.076  0.00  0.00     0.015 SA
ATOM      6  C4  UNL d   1      -5.874   5.993  -5.289  0.00  0.00     0.022 A 
ATOM      7  C5  UNL d   1      -5.885   4.815  -5.998  0.00  0.00     0.026 A 
ATOM      8  C6  UNL d   1      -4.893   3.881  -5.545  0.00  0.00    -0.082 A 
ATOM      9  C7  UNL d   1      -4.579   2.578  -5.999  0.00  0.00     0.045 A 
ENDROOT
TORSDOF 0
ENDMDL
