MODEL 1
REMARK minimizedAffinity -2.59434104
REMARK minimizedRMSD -1
REMARK  1 active torsions:
REMARK  status: ('A' for Active; 'I' for Inactive)
REMARK    1  A    between atoms: C1_2  and  C2_3 
ROOT
ATOM      1  C2  UNL d   1      -2.579   0.990  -2.154  0.00  0.00    -0.081 A 
ATOM      2  C3  UNL d   1      -2.456   1.428  -3.478  0.00  0.00     0.006 A 
ATOM      3  C4  UNL d   1      -2.826   2.728  -3.831  0.00  0.00     0.002 A 
ATOM      4  C5  UNL d   1      -3.317   3.613  -2.865  0.00  0.00    -0.080 A 
ATOM      5  C6  UNL d   1      -3.690   5.021  -3.225  0.00  0.00     0.076 C 
ATOM      6  C7  UNL d   1      -3.456   3.170  -1.546  0.00  0.00     0.002 A 
ATOM      7  C8  UNL d   1      -3.087   1.870  -1.192  0.00  0.00     0.006 A 
ENDROOT
BRANCH   1   8
ATOM      8  C1  UNL d   1      -2.120  -0.390  -1.757  0.00  0.00     0.054 C 
ATOM      9  C   UNL d   1      -2.566  -0.737  -0.344  0.00  0.00     0.018 C 
ENDBRANCH   1   8
TORSDOF 1
ENDMDL
