MODEL 1
REMARK minimizedAffinity 2.80554771
REMARK minimizedRMSD -1
REMARK  1 active torsions:
REMARK  status: ('A' for Active; 'I' for Inactive)
REMARK    1  A    between atoms: C1_2  and  C2_3 
ROOT
ATOM      1  C2  UNL d   1       0.201  -1.557   1.179  0.00  0.00    -0.081 A 
ATOM      2  C3  UNL d   1       0.089  -0.398   1.958  0.00  0.00     0.006 A 
ATOM      3  C4  UNL d   1      -1.066   0.385   1.901  0.00  0.00     0.002 A 
ATOM      4  C5  UNL d   1      -2.131   0.019   1.072  0.00  0.00    -0.080 A 
ATOM      5  C6  UNL d   1      -3.389   0.835   1.025  0.00  0.00     0.076 C 
ATOM      6  C7  UNL d   1      -2.014  -1.129   0.281  0.00  0.00     0.002 A 
ATOM      7  C8  UNL d   1      -0.858  -1.912   0.337  0.00  0.00     0.006 A 
ENDROOT
BRANCH   1   8
ATOM      8  C1  UNL d   1       1.419  -2.438   1.287  0.00  0.00     0.054 C 
ATOM      9  C   UNL d   1       1.041  -3.912   1.232  0.00  0.00     0.018 C 
ENDBRANCH   1   8
TORSDOF 1
ENDMDL
