MODEL 1
REMARK minimizedAffinity -2.9254303
REMARK minimizedRMSD -1
REMARK  1 active torsions:
REMARK  status: ('A' for Active; 'I' for Inactive)
REMARK    1  A    between atoms: C1_2  and  C2_3 
ROOT
ATOM      1  C2  UNL d   1      -2.606   4.062  -4.055  0.00  0.00    -0.081 A 
ATOM      2  C3  UNL d   1      -1.823   3.987  -2.897  0.00  0.00     0.006 A 
ATOM      3  C4  UNL d   1      -1.744   2.796  -2.171  0.00  0.00     0.002 A 
ATOM      4  C5  UNL d   1      -2.441   1.659  -2.595  0.00  0.00    -0.080 A 
ATOM      5  C6  UNL d   1      -2.341   0.366  -1.842  0.00  0.00     0.076 C 
ATOM      6  C7  UNL d   1      -3.237   1.739  -3.742  0.00  0.00     0.002 A 
ATOM      7  C8  UNL d   1      -3.317   2.929  -4.468  0.00  0.00     0.006 A 
ENDROOT
BRANCH   1   8
ATOM      8  C1  UNL d   1      -2.642   5.326  -4.876  0.00  0.00     0.054 C 
ATOM      9  C   UNL d   1      -1.278   5.999  -4.914  0.00  0.00     0.018 C 
ENDBRANCH   1   8
TORSDOF 1
ENDMDL
