MODEL 1
REMARK minimizedAffinity 4.74330711
REMARK minimizedRMSD -1
REMARK  1 active torsions:
REMARK  status: ('A' for Active; 'I' for Inactive)
REMARK    1  A    between atoms: C1_2  and  C2_3 
ROOT
ATOM      1  C2  UNL d   1      -3.837   3.377  -2.232  0.00  0.00    -0.081 A 
ATOM      2  C3  UNL d   1      -4.310   4.652  -2.564  0.00  0.00     0.006 A 
ATOM      3  C4  UNL d   1      -3.754   5.356  -3.635  0.00  0.00     0.002 A 
ATOM      4  C5  UNL d   1      -2.723   4.794  -4.396  0.00  0.00    -0.080 A 
ATOM      5  C6  UNL d   1      -2.138   5.527  -5.567  0.00  0.00     0.076 C 
ATOM      6  C7  UNL d   1      -2.239   3.528  -4.053  0.00  0.00     0.002 A 
ATOM      7  C8  UNL d   1      -2.794   2.823  -2.982  0.00  0.00     0.006 A 
ENDROOT
BRANCH   1   8
ATOM      8  C1  UNL d   1      -4.478   2.588  -1.118  0.00  0.00     0.054 C 
ATOM      9  C   UNL d   1      -5.991   2.753  -1.124  0.00  0.00     0.018 C 
ENDBRANCH   1   8
TORSDOF 1
ENDMDL
