MODEL 1
REMARK minimizedAffinity 6.35620356
REMARK minimizedRMSD -1
REMARK  1 active torsions:
REMARK  status: ('A' for Active; 'I' for Inactive)
REMARK    1  A    between atoms: C1_2  and  C2_3 
ROOT
ATOM      1  C2  UNL d   1       0.136  -1.508   1.278  0.00  0.00    -0.081 A 
ATOM      2  C3  UNL d   1      -1.111  -1.244   0.698  0.00  0.00     0.006 A 
ATOM      3  C4  UNL d   1      -2.113  -0.607   1.434  0.00  0.00     0.002 A 
ATOM      4  C5  UNL d   1      -1.883  -0.217   2.758  0.00  0.00    -0.080 A 
ATOM      5  C6  UNL d   1      -2.940   0.494   3.549  0.00  0.00     0.076 C 
ATOM      6  C7  UNL d   1      -0.643  -0.497   3.343  0.00  0.00     0.002 A 
ATOM      7  C8  UNL d   1       0.359  -1.134   2.608  0.00  0.00     0.006 A 
ENDROOT
BRANCH   1   8
ATOM      8  C1  UNL d   1       1.241  -2.136   0.467  0.00  0.00     0.054 C 
ATOM      9  C   UNL d   1       2.103  -3.053   1.322  0.00  0.00     0.018 C 
ENDBRANCH   1   8
TORSDOF 1
ENDMDL
