MODEL 1
REMARK minimizedAffinity -3.83994055
REMARK minimizedRMSD -1
REMARK  1 active torsions:
REMARK  status: ('A' for Active; 'I' for Inactive)
REMARK    1  A    between atoms: C1_2  and  C2_3 
ROOT
ATOM      1  C2  UNL d   1      -2.093   3.012  -2.950  0.00  0.00    -0.081 A 
ATOM      2  C3  UNL d   1      -2.804   3.763  -3.894  0.00  0.00     0.006 A 
ATOM      3  C4  UNL d   1      -2.127   4.491  -4.875  0.00  0.00     0.002 A 
ATOM      4  C5  UNL d   1      -0.729   4.475  -4.933  0.00  0.00    -0.080 A 
ATOM      5  C6  UNL d   1       0.009   5.228  -6.000  0.00  0.00     0.076 C 
ATOM      6  C7  UNL d   1      -0.018   3.739  -3.979  0.00  0.00     0.002 A 
ATOM      7  C8  UNL d   1      -0.694   3.011  -2.998  0.00  0.00     0.006 A 
ENDROOT
BRANCH   1   8
ATOM      8  C1  UNL d   1      -2.821   2.174  -1.931  0.00  0.00     0.054 C 
ATOM      9  C   UNL d   1      -2.254   0.763  -1.867  0.00  0.00     0.018 C 
ENDBRANCH   1   8
TORSDOF 1
ENDMDL
