MODEL 1
REMARK minimizedAffinity -6.05927181
REMARK minimizedRMSD -1
REMARK  0 active torsions:
REMARK  status: ('A' for Active; 'I' for Inactive)
ROOT
ATOM      1  C   UNL d   1      -0.534  -0.342   0.674  0.00  0.00     0.078 C 
ATOM      2  C1  UNL d   1       0.550  -0.613  -0.327  0.00  0.00    -0.077 A 
ATOM      3  C2  UNL d   1       0.914  -1.924  -0.659  0.00  0.00    -0.001 A 
ATOM      4  C3  UNL d   1       1.931  -2.160  -1.585  0.00  0.00     0.003 A 
ATOM      5  C4  UNL d   1       2.594  -1.092  -2.184  0.00  0.00    -0.005 A 
ATOM      6  C5  UNL d   1       2.241   0.216  -1.858  0.00  0.00     0.003 A 
ATOM      7  C6  UNL d   1       1.223   0.455  -0.933  0.00  0.00    -0.001 A 
ENDROOT
TORSDOF 0
ENDMDL
