MODEL 1
REMARK minimizedAffinity -3.57672787
REMARK minimizedRMSD -1
REMARK  0 active torsions:
REMARK  status: ('A' for Active; 'I' for Inactive)
ROOT
ATOM      1  C   UNL d   1       2.186   0.641  -1.649  0.00  0.00     0.078 C 
ATOM      2  C1  UNL d   1       1.147   0.003  -0.777  0.00  0.00    -0.077 A 
ATOM      3  C2  UNL d   1       0.409   0.762   0.140  0.00  0.00    -0.001 A 
ATOM      4  C3  UNL d   1      -0.548   0.153   0.953  0.00  0.00     0.003 A 
ATOM      5  C4  UNL d   1      -0.776  -1.218   0.858  0.00  0.00    -0.005 A 
ATOM      6  C5  UNL d   1      -0.045  -1.983  -0.050  0.00  0.00     0.003 A 
ATOM      7  C6  UNL d   1       0.912  -1.375  -0.863  0.00  0.00    -0.001 A 
ENDROOT
TORSDOF 0
ENDMDL
