MODEL 1
REMARK minimizedAffinity -5.27042437
REMARK minimizedRMSD -1
REMARK  0 active torsions:
REMARK  status: ('A' for Active; 'I' for Inactive)
ROOT
ATOM      1  C   UNL d   1       1.892  -2.945  -1.527  0.00  0.00     0.078 C 
ATOM      2  C1  UNL d   1       1.333  -1.604  -1.157  0.00  0.00    -0.077 A 
ATOM      3  C2  UNL d   1       1.852  -0.428  -1.714  0.00  0.00    -0.001 A 
ATOM      4  C3  UNL d   1       1.328   0.814  -1.354  0.00  0.00     0.003 A 
ATOM      5  C4  UNL d   1       0.284   0.894  -0.434  0.00  0.00    -0.005 A 
ATOM      6  C5  UNL d   1      -0.237  -0.270   0.127  0.00  0.00     0.003 A 
ATOM      7  C6  UNL d   1       0.285  -1.514  -0.232  0.00  0.00    -0.001 A 
ENDROOT
TORSDOF 0
ENDMDL
