MODEL 1
REMARK minimizedAffinity -1.63670909
REMARK minimizedRMSD -1
REMARK  0 active torsions:
REMARK  status: ('A' for Active; 'I' for Inactive)
ROOT
ATOM      1  C   UNL d   1       0.571  -1.869   0.069  0.00  0.00     0.078 C 
ATOM      2  C1  UNL d   1       0.811  -0.407  -0.162  0.00  0.00    -0.077 A 
ATOM      3  C2  UNL d   1       0.063   0.562   0.519  0.00  0.00    -0.001 A 
ATOM      4  C3  UNL d   1       0.290   1.920   0.287  0.00  0.00     0.003 A 
ATOM      5  C4  UNL d   1       1.264   2.320  -0.626  0.00  0.00    -0.005 A 
ATOM      6  C5  UNL d   1       2.011   1.363  -1.309  0.00  0.00     0.003 A 
ATOM      7  C6  UNL d   1       1.785   0.005  -1.079  0.00  0.00    -0.001 A 
ENDROOT
TORSDOF 0
ENDMDL
