MODEL 1
REMARK minimizedAffinity -1.92255223
REMARK minimizedRMSD -1
REMARK  0 active torsions:
REMARK  status: ('A' for Active; 'I' for Inactive)
ROOT
ATOM      1  C   UNL d   1      -4.807   5.100  -5.999  0.00  0.00     0.078 C 
ATOM      2  C1  UNL d   1      -3.710   4.123  -5.696  0.00  0.00    -0.077 A 
ATOM      3  C2  UNL d   1      -2.410   4.563  -5.418  0.00  0.00    -0.001 A 
ATOM      4  C3  UNL d   1      -1.396   3.642  -5.147  0.00  0.00     0.003 A 
ATOM      5  C4  UNL d   1      -1.672   2.276  -5.154  0.00  0.00    -0.005 A 
ATOM      6  C5  UNL d   1      -2.962   1.829  -5.432  0.00  0.00     0.003 A 
ATOM      7  C6  UNL d   1      -3.977   2.748  -5.703  0.00  0.00    -0.001 A 
ENDROOT
TORSDOF 0
ENDMDL
