MODEL 1
REMARK minimizedAffinity 1.66100299
REMARK minimizedRMSD -1
REMARK  0 active torsions:
REMARK  status: ('A' for Active; 'I' for Inactive)
ROOT
ATOM      1  C   UNL d   1       1.132   3.842  -0.301  0.00  0.00     0.078 C 
ATOM      2  C1  UNL d   1       1.361   2.609  -1.123  0.00  0.00    -0.077 A 
ATOM      3  C2  UNL d   1       1.192   2.628  -2.513  0.00  0.00    -0.001 A 
ATOM      4  C3  UNL d   1       1.399   1.470  -3.265  0.00  0.00     0.003 A 
ATOM      5  C4  UNL d   1       1.774   0.285  -2.636  0.00  0.00    -0.005 A 
ATOM      6  C5  UNL d   1       1.942   0.256  -1.253  0.00  0.00     0.003 A 
ATOM      7  C6  UNL d   1       1.735   1.412  -0.499  0.00  0.00    -0.001 A 
ENDROOT
TORSDOF 0
ENDMDL
