MODEL 1
REMARK minimizedAffinity 0.0209458582
REMARK minimizedRMSD -1
REMARK  0 active torsions:
REMARK  status: ('A' for Active; 'I' for Inactive)
ROOT
ATOM      1  C   UNL d   1       1.388   3.394  -1.278  0.00  0.00     0.078 C 
ATOM      2  C1  UNL d   1       1.492   1.967  -1.729  0.00  0.00    -0.077 A 
ATOM      3  C2  UNL d   1       0.977   1.562  -2.966  0.00  0.00    -0.001 A 
ATOM      4  C3  UNL d   1       1.073   0.229  -3.368  0.00  0.00     0.003 A 
ATOM      5  C4  UNL d   1       1.681  -0.710  -2.538  0.00  0.00    -0.005 A 
ATOM      6  C5  UNL d   1       2.195  -0.317  -1.304  0.00  0.00     0.003 A 
ATOM      7  C6  UNL d   1       2.100   1.016  -0.900  0.00  0.00    -0.001 A 
ENDROOT
TORSDOF 0
ENDMDL
