MODEL 1
REMARK minimizedAffinity 1.36368144
REMARK minimizedRMSD -1
REMARK  0 active torsions:
REMARK  status: ('A' for Active; 'I' for Inactive)
ROOT
ATOM      1  C   UNL d   1       0.772   3.985  -1.475  0.00  0.00     0.078 C 
ATOM      2  C1  UNL d   1       1.267   2.569  -1.477  0.00  0.00    -0.077 A 
ATOM      3  C2  UNL d   1       0.993   1.708  -0.408  0.00  0.00    -0.001 A 
ATOM      4  C3  UNL d   1       1.469   0.395  -0.419  0.00  0.00     0.003 A 
ATOM      5  C4  UNL d   1       2.223  -0.067  -1.496  0.00  0.00    -0.005 A 
ATOM      6  C5  UNL d   1       2.502   0.784  -2.564  0.00  0.00     0.003 A 
ATOM      7  C6  UNL d   1       2.028   2.097  -2.555  0.00  0.00    -0.001 A 
ENDROOT
TORSDOF 0
ENDMDL
