MODEL 1
REMARK minimizedAffinity -0.312509775
REMARK minimizedRMSD -1
REMARK  0 active torsions:
REMARK  status: ('A' for Active; 'I' for Inactive)
ROOT
ATOM      1  C   UNL d   1       1.520   4.399  -1.367  0.00  0.00     0.078 C 
ATOM      2  C1  UNL d   1       1.604   2.902  -1.344  0.00  0.00    -0.077 A 
ATOM      3  C2  UNL d   1       1.119   2.170  -0.253  0.00  0.00    -0.001 A 
ATOM      4  C3  UNL d   1       1.212   0.777  -0.241  0.00  0.00     0.003 A 
ATOM      5  C4  UNL d   1       1.791   0.105  -1.315  0.00  0.00    -0.005 A 
ATOM      6  C5  UNL d   1       2.278   0.825  -2.404  0.00  0.00     0.003 A 
ATOM      7  C6  UNL d   1       2.186   2.218  -2.418  0.00  0.00    -0.001 A 
ENDROOT
TORSDOF 0
ENDMDL
