MODEL 1
REMARK minimizedAffinity 2.43604851
REMARK minimizedRMSD -1
REMARK  0 active torsions:
REMARK  status: ('A' for Active; 'I' for Inactive)
ROOT
ATOM      1  C   UNL d   1       1.337   4.330  -1.081  0.00  0.00     0.078 C 
ATOM      2  C1  UNL d   1       1.472   2.890  -1.474  0.00  0.00    -0.077 A 
ATOM      3  C2  UNL d   1       2.320   2.026  -0.771  0.00  0.00    -0.001 A 
ATOM      4  C3  UNL d   1       2.443   0.690  -1.154  0.00  0.00     0.003 A 
ATOM      5  C4  UNL d   1       1.721   0.205  -2.243  0.00  0.00    -0.005 A 
ATOM      6  C5  UNL d   1       0.876   1.057  -2.951  0.00  0.00     0.003 A 
ATOM      7  C6  UNL d   1       0.752   2.394  -2.569  0.00  0.00    -0.001 A 
ENDROOT
TORSDOF 0
ENDMDL
