MODEL 1
REMARK minimizedAffinity 3.33943844
REMARK minimizedRMSD -1
REMARK  0 active torsions:
REMARK  status: ('A' for Active; 'I' for Inactive)
ROOT
ATOM      1  C   UNL d   1      -2.300   2.531  -5.995  0.00  0.00     0.078 C 
ATOM      2  C1  UNL d   1      -3.572   3.324  -5.999  0.00  0.00    -0.077 A 
ATOM      3  C2  UNL d   1      -3.549   4.725  -5.990  0.00  0.00    -0.001 A 
ATOM      4  C3  UNL d   1      -4.742   5.450  -5.984  0.00  0.00     0.003 A 
ATOM      5  C4  UNL d   1      -5.966   4.784  -5.986  0.00  0.00    -0.005 A 
ATOM      6  C5  UNL d   1      -5.999   3.391  -5.994  0.00  0.00     0.003 A 
ATOM      7  C6  UNL d   1      -4.807   2.664  -5.999  0.00  0.00    -0.001 A 
ENDROOT
TORSDOF 0
ENDMDL
