MODEL 1
REMARK minimizedAffinity -4.82071161
REMARK minimizedRMSD -1
REMARK  0 active torsions:
REMARK  status: ('A' for Active; 'I' for Inactive)
ROOT
ATOM      1  C   UNL d   1      -0.179  -2.702   0.719  0.00  0.00     0.078 C 
ATOM      2  C1  UNL d   1      -0.556  -1.325   0.258  0.00  0.00    -0.077 A 
ATOM      3  C2  UNL d   1       0.371  -0.276   0.288  0.00  0.00    -0.001 A 
ATOM      4  C3  UNL d   1       0.004   1.002  -0.135  0.00  0.00     0.003 A 
ATOM      5  C4  UNL d   1      -1.291   1.244  -0.591  0.00  0.00    -0.005 A 
ATOM      6  C5  UNL d   1      -2.220   0.207  -0.622  0.00  0.00     0.003 A 
ATOM      7  C6  UNL d   1      -1.855  -1.072  -0.200  0.00  0.00    -0.001 A 
ENDROOT
TORSDOF 0
ENDMDL
