MODEL 1
REMARK minimizedAffinity 2.3126328
REMARK minimizedRMSD -1
REMARK  0 active torsions:
REMARK  status: ('A' for Active; 'I' for Inactive)
ROOT
ATOM      1  C   UNL d   1       4.501  -1.893  -6.000  0.00  0.00     0.078 C 
ATOM      2  C1  UNL d   1       4.535  -2.425  -4.598  0.00  0.00    -0.077 A 
ATOM      3  C2  UNL d   1       4.927  -3.744  -4.337  0.00  0.00    -0.001 A 
ATOM      4  C3  UNL d   1       4.944  -4.228  -3.028  0.00  0.00     0.003 A 
ATOM      5  C4  UNL d   1       4.569  -3.402  -1.971  0.00  0.00    -0.005 A 
ATOM      6  C5  UNL d   1       4.176  -2.089  -2.221  0.00  0.00     0.003 A 
ATOM      7  C6  UNL d   1       4.158  -1.602  -3.529  0.00  0.00    -0.001 A 
ENDROOT
TORSDOF 0
ENDMDL
