MODEL 1
REMARK minimizedAffinity -2.74540591
REMARK minimizedRMSD -1
REMARK  0 active torsions:
REMARK  status: ('A' for Active; 'I' for Inactive)
ROOT
ATOM      1  C   UNL d   1      -4.141  -0.143  -6.000  0.00  0.00     0.078 C 
ATOM      2  C1  UNL d   1      -3.500   1.208  -5.887  0.00  0.00    -0.077 A 
ATOM      3  C2  UNL d   1      -4.273   2.359  -5.694  0.00  0.00    -0.001 A 
ATOM      4  C3  UNL d   1      -3.663   3.612  -5.601  0.00  0.00     0.003 A 
ATOM      5  C4  UNL d   1      -2.278   3.724  -5.701  0.00  0.00    -0.005 A 
ATOM      6  C5  UNL d   1      -1.501   2.585  -5.896  0.00  0.00     0.003 A 
ATOM      7  C6  UNL d   1      -2.109   1.332  -5.989  0.00  0.00    -0.001 A 
ENDROOT
TORSDOF 0
ENDMDL
