MODEL 1
REMARK minimizedAffinity -4.54403496
REMARK minimizedRMSD -1
REMARK  0 active torsions:
REMARK  status: ('A' for Active; 'I' for Inactive)
ROOT
ATOM      1  C   UNL d   1      -3.747   1.408   2.230  0.00  0.00     0.078 C 
ATOM      2  C1  UNL d   1      -2.731   0.419   1.745  0.00  0.00    -0.077 A 
ATOM      3  C2  UNL d   1      -1.362   0.634   1.944  0.00  0.00    -0.001 A 
ATOM      4  C3  UNL d   1      -0.426  -0.291   1.479  0.00  0.00     0.003 A 
ATOM      5  C4  UNL d   1      -0.849  -1.438   0.810  0.00  0.00    -0.005 A 
ATOM      6  C5  UNL d   1      -2.209  -1.660   0.605  0.00  0.00     0.003 A 
ATOM      7  C6  UNL d   1      -3.146  -0.736   1.070  0.00  0.00    -0.001 A 
ENDROOT
TORSDOF 0
ENDMDL
