MODEL 1
REMARK minimizedAffinity -0.453539699
REMARK minimizedRMSD -1
REMARK  1 active torsions:
REMARK  status: ('A' for Active; 'I' for Inactive)
REMARK    1  A    between atoms: C1_2  and  C2_3 
ROOT
ATOM      1  C2  UNL d   1      -3.388   2.508  -1.964  0.00  0.00    -0.077 A 
ATOM      2  C3  UNL d   1      -3.233   2.912  -3.298  0.00  0.00     0.002 A 
ATOM      3  C4  UNL d   1      -2.765   2.014  -4.259  0.00  0.00     0.002 A 
ATOM      4  C5  UNL d   1      -2.452   0.705  -3.897  0.00  0.00    -0.004 A 
ATOM      5  C6  UNL d   1      -2.600   0.294  -2.573  0.00  0.00     0.002 A 
ATOM      6  C7  UNL d   1      -3.067   1.191  -1.611  0.00  0.00     0.002 A 
ENDROOT
BRANCH   1   7
ATOM      7  C1  UNL d   1      -3.940   3.461  -0.937  0.00  0.00     0.055 C 
ATOM      8  C   UNL d   1      -5.376   3.113  -0.573  0.00  0.00     0.019 C 
ENDBRANCH   1   7
TORSDOF 1
ENDMDL
