MODEL 1
REMARK minimizedAffinity -2.6766088
REMARK minimizedRMSD -1
REMARK  1 active torsions:
REMARK  status: ('A' for Active; 'I' for Inactive)
REMARK    1  A    between atoms: C1_2  and  C2_3 
ROOT
ATOM      1  C2  UNL d   1      -2.757   4.395  -3.575  0.00  0.00    -0.077 A 
ATOM      2  C3  UNL d   1      -2.366   3.052  -3.471  0.00  0.00     0.002 A 
ATOM      3  C4  UNL d   1      -2.537   2.358  -2.271  0.00  0.00     0.002 A 
ATOM      4  C5  UNL d   1      -3.102   2.997  -1.169  0.00  0.00    -0.004 A 
ATOM      5  C6  UNL d   1      -3.492   4.332  -1.262  0.00  0.00     0.002 A 
ATOM      6  C7  UNL d   1      -3.320   5.028  -2.460  0.00  0.00     0.002 A 
ENDROOT
BRANCH   1   7
ATOM      7  C1  UNL d   1      -2.619   5.130  -4.882  0.00  0.00     0.055 C 
ATOM      8  C   UNL d   1      -1.191   5.067  -5.405  0.00  0.00     0.019 C 
ENDBRANCH   1   7
TORSDOF 1
ENDMDL
