MODEL 1
REMARK minimizedAffinity 5.49209785
REMARK minimizedRMSD -1
REMARK  1 active torsions:
REMARK  status: ('A' for Active; 'I' for Inactive)
REMARK    1  A    between atoms: C1_2  and  C2_3 
ROOT
ATOM      1  C2  UNL d   1      -3.808   4.011  -1.881  0.00  0.00    -0.077 A 
ATOM      2  C3  UNL d   1      -3.776   3.280  -3.077  0.00  0.00     0.002 A 
ATOM      3  C4  UNL d   1      -3.239   3.845  -4.236  0.00  0.00     0.002 A 
ATOM      4  C5  UNL d   1      -2.727   5.140  -4.209  0.00  0.00    -0.004 A 
ATOM      5  C6  UNL d   1      -2.755   5.875  -3.025  0.00  0.00     0.002 A 
ATOM      6  C7  UNL d   1      -3.293   5.313  -1.866  0.00  0.00     0.002 A 
ENDROOT
BRANCH   1   7
ATOM      7  C1  UNL d   1      -4.341   3.386  -0.618  0.00  0.00     0.055 C 
ATOM      8  C   UNL d   1      -5.834   3.639  -0.464  0.00  0.00     0.019 C 
ENDBRANCH   1   7
TORSDOF 1
ENDMDL
