MODEL 1
REMARK minimizedAffinity -2.4986105
REMARK minimizedRMSD -1
REMARK  1 active torsions:
REMARK  status: ('A' for Active; 'I' for Inactive)
REMARK    1  A    between atoms: C1_2  and  C2_3 
ROOT
ATOM      1  C2  UNL d   1      -1.294   4.338  -4.614  0.00  0.00    -0.077 A 
ATOM      2  C3  UNL d   1      -2.158   5.394  -4.291  0.00  0.00     0.002 A 
ATOM      3  C4  UNL d   1      -3.084   5.257  -3.255  0.00  0.00     0.002 A 
ATOM      4  C5  UNL d   1      -3.152   4.068  -2.532  0.00  0.00    -0.004 A 
ATOM      5  C6  UNL d   1      -2.299   3.012  -2.847  0.00  0.00     0.002 A 
ATOM      6  C7  UNL d   1      -1.374   3.146  -3.883  0.00  0.00     0.002 A 
ENDROOT
BRANCH   1   7
ATOM      7  C1  UNL d   1      -0.261   4.501  -5.699  0.00  0.00     0.055 C 
ATOM      8  C   UNL d   1       0.009   5.970  -5.989  0.00  0.00     0.019 C 
ENDBRANCH   1   7
TORSDOF 1
ENDMDL
