MODEL 1
REMARK minimizedAffinity -3.57515335
REMARK minimizedRMSD -1
REMARK  0 active torsions:
REMARK  status: ('A' for Active; 'I' for Inactive)
ROOT
ATOM      1  C   UNL d   1       1.182  -0.936   2.935  0.00  0.00     0.023 A 
ATOM      2  C1  UNL d   1      -0.043  -1.248   2.345  0.00  0.00     0.003 A 
ATOM      3  C2  UNL d   1      -0.442  -0.598   1.176  0.00  0.00     0.048 A 
ATOM      4  C3  UNL d   1       0.389   0.363   0.601  0.00  0.00     0.023 A 
ATOM      5  C4  UNL d   1       1.616   0.677   1.187  0.00  0.00     0.048 A 
ATOM      6  C5  UNL d   1       2.011   0.025   2.357  0.00  0.00     0.003 A 
ATOM      7  I   UNL d   1      -0.202   1.332  -1.140  0.00  0.00    -0.146 I 
ENDROOT
TORSDOF 0
ENDMDL
