MODEL 1
REMARK minimizedAffinity -3.53891993
REMARK minimizedRMSD -1
REMARK  0 active torsions:
REMARK  status: ('A' for Active; 'I' for Inactive)
ROOT
ATOM      1  C   UNL d   1      -1.151  -0.224   2.036  0.00  0.00     0.023 A 
ATOM      2  C1  UNL d   1      -0.905  -0.061   0.673  0.00  0.00     0.003 A 
ATOM      3  C2  UNL d   1       0.240  -0.615   0.098  0.00  0.00     0.048 A 
ATOM      4  C3  UNL d   1       1.135  -1.332   0.891  0.00  0.00     0.023 A 
ATOM      5  C4  UNL d   1       0.892  -1.499   2.255  0.00  0.00     0.048 A 
ATOM      6  C5  UNL d   1      -0.254  -0.943   2.826  0.00  0.00     0.003 A 
ATOM      7  I   UNL d   1       2.840  -2.158   0.037  0.00  0.00    -0.146 I 
ENDROOT
TORSDOF 0
ENDMDL
