MODEL 1
REMARK minimizedAffinity -2.61457324
REMARK minimizedRMSD -1
REMARK  0 active torsions:
REMARK  status: ('A' for Active; 'I' for Inactive)
ROOT
ATOM      1  C   UNL d   1       1.576  -0.923   2.977  0.00  0.00     0.023 A 
ATOM      2  C1  UNL d   1       0.257  -1.105   2.563  0.00  0.00     0.003 A 
ATOM      3  C2  UNL d   1      -0.124  -0.753   1.266  0.00  0.00     0.048 A 
ATOM      4  C3  UNL d   1       0.820  -0.221   0.388  0.00  0.00     0.023 A 
ATOM      5  C4  UNL d   1       2.142  -0.039   0.798  0.00  0.00     0.048 A 
ATOM      6  C5  UNL d   1       2.518  -0.391   2.096  0.00  0.00     0.003 A 
ATOM      7  I   UNL d   1       0.255   0.303  -1.542  0.00  0.00    -0.146 I 
ENDROOT
TORSDOF 0
ENDMDL
