MODEL 1
REMARK minimizedAffinity -2.4403491
REMARK minimizedRMSD -1
REMARK  0 active torsions:
REMARK  status: ('A' for Active; 'I' for Inactive)
ROOT
ATOM      1  C   UNL d   1       2.522  -0.900   1.245  0.00  0.00     0.023 A 
ATOM      2  C1  UNL d   1       2.143  -0.832  -0.096  0.00  0.00     0.003 A 
ATOM      3  C2  UNL d   1       0.793  -0.732  -0.437  0.00  0.00     0.048 A 
ATOM      4  C3  UNL d   1      -0.174  -0.699   0.568  0.00  0.00     0.023 A 
ATOM      5  C4  UNL d   1       0.201  -0.766   1.911  0.00  0.00     0.048 A 
ATOM      6  C5  UNL d   1       1.552  -0.867   2.247  0.00  0.00     0.003 A 
ATOM      7  I   UNL d   1      -2.184  -0.549   0.064  0.00  0.00    -0.146 I 
ENDROOT
TORSDOF 0
ENDMDL
