MODEL 1
REMARK minimizedAffinity 1.13254285
REMARK minimizedRMSD -1
REMARK  0 active torsions:
REMARK  status: ('A' for Active; 'I' for Inactive)
ROOT
ATOM      1  C   UNL d   1       0.894  -4.415   2.931  0.00  0.00     0.023 A 
ATOM      2  C1  UNL d   1       1.860  -3.679   2.244  0.00  0.00     0.003 A 
ATOM      3  C2  UNL d   1       1.492  -2.535   1.533  0.00  0.00     0.048 A 
ATOM      4  C3  UNL d   1       0.158  -2.132   1.513  0.00  0.00     0.023 A 
ATOM      5  C4  UNL d   1      -0.812  -2.864   2.199  0.00  0.00     0.048 A 
ATOM      6  C5  UNL d   1      -0.440  -4.008   2.908  0.00  0.00     0.003 A 
ATOM      7  I   UNL d   1      -0.391  -0.429   0.455  0.00  0.00    -0.146 I 
ENDROOT
TORSDOF 0
ENDMDL
