MODEL 1
REMARK minimizedAffinity -2.64538527
REMARK minimizedRMSD -1
REMARK  0 active torsions:
REMARK  status: ('A' for Active; 'I' for Inactive)
ROOT
ATOM      1  C   UNL d   1       1.775  -0.377   2.196  0.00  0.00     0.023 A 
ATOM      2  C1  UNL d   1       1.653  -0.231   0.814  0.00  0.00     0.003 A 
ATOM      3  C2  UNL d   1       0.423  -0.457   0.193  0.00  0.00     0.048 A 
ATOM      4  C3  UNL d   1      -0.681  -0.828   0.960  0.00  0.00     0.023 A 
ATOM      5  C4  UNL d   1      -0.563  -0.975   2.343  0.00  0.00     0.048 A 
ATOM      6  C5  UNL d   1       0.669  -0.748   2.959  0.00  0.00     0.003 A 
ATOM      7  I   UNL d   1      -2.513  -1.166   0.038  0.00  0.00    -0.146 I 
ENDROOT
TORSDOF 0
ENDMDL
