MODEL 1
REMARK minimizedAffinity -3.62465787
REMARK minimizedRMSD -1
REMARK  0 active torsions:
REMARK  status: ('A' for Active; 'I' for Inactive)
ROOT
ATOM      1  C   UNL d   1       0.939  -0.478   1.155  0.00  0.00     0.023 A 
ATOM      2  C1  UNL d   1       0.826  -0.463  -0.235  0.00  0.00     0.003 A 
ATOM      3  C2  UNL d   1      -0.393  -0.772  -0.842  0.00  0.00     0.048 A 
ATOM      4  C3  UNL d   1      -1.496  -1.094  -0.052  0.00  0.00     0.023 A 
ATOM      5  C4  UNL d   1      -1.389  -1.110   1.339  0.00  0.00     0.048 A 
ATOM      6  C5  UNL d   1      -0.167  -0.801   1.941  0.00  0.00     0.003 A 
ATOM      7  I   UNL d   1      -3.312  -1.554  -0.953  0.00  0.00    -0.146 I 
ENDROOT
TORSDOF 0
ENDMDL
