MODEL 1
REMARK minimizedAffinity -2.12936449
REMARK minimizedRMSD -1
REMARK  0 active torsions:
REMARK  status: ('A' for Active; 'I' for Inactive)
ROOT
ATOM      1  C   UNL d   1      -1.249   4.021  -2.972  0.00  0.00     0.023 A 
ATOM      2  C1  UNL d   1       0.048   3.508  -2.986  0.00  0.00     0.003 A 
ATOM      3  C2  UNL d   1       0.350   2.350  -2.268  0.00  0.00     0.048 A 
ATOM      4  C3  UNL d   1      -0.650   1.709  -1.537  0.00  0.00     0.023 A 
ATOM      5  C4  UNL d   1      -1.949   2.218  -1.520  0.00  0.00     0.048 A 
ATOM      6  C5  UNL d   1      -2.247   3.377  -2.240  0.00  0.00     0.003 A 
ATOM      7  I   UNL d   1      -0.203  -0.016  -0.467  0.00  0.00    -0.146 I 
ENDROOT
TORSDOF 0
ENDMDL
