MODEL 1
REMARK minimizedAffinity -2.58060217
REMARK minimizedRMSD -1
REMARK  0 active torsions:
REMARK  status: ('A' for Active; 'I' for Inactive)
ROOT
ATOM      1  C   UNL d   1       1.522  -0.506   0.440  0.00  0.00     0.023 A 
ATOM      2  C1  UNL d   1       1.541  -0.766  -0.930  0.00  0.00     0.003 A 
ATOM      3  C2  UNL d   1       0.346  -0.807  -1.651  0.00  0.00     0.048 A 
ATOM      4  C3  UNL d   1      -0.865  -0.586  -0.995  0.00  0.00     0.023 A 
ATOM      5  C4  UNL d   1      -0.888  -0.325   0.376  0.00  0.00     0.048 A 
ATOM      6  C5  UNL d   1       0.309  -0.286   1.093  0.00  0.00     0.003 A 
ATOM      7  I   UNL d   1      -2.646  -0.647  -2.065  0.00  0.00    -0.146 I 
ENDROOT
TORSDOF 0
ENDMDL
