MODEL 1
REMARK minimizedAffinity 3.845227
REMARK minimizedRMSD -1
REMARK  3 active torsions:
REMARK  status: ('A' for Active; 'I' for Inactive)
REMARK    1  A    between atoms: C3'_2  and  C2'_3 
REMARK    2  A    between atoms: C2'_3  and  C1'_4 
REMARK    3  A    between atoms: C1'_4  and  C1_5 
ROOT
ATOM      1  C1  N4B d   1       3.392  -4.080  -1.137  0.00  0.00    -0.075 A 
ATOM      2  C2  N4B d   1       2.719  -3.569  -2.268  0.00  0.00     0.002 A 
ATOM      3  C3  N4B d   1       2.783  -4.238  -3.466  0.00  0.00     0.002 A 
ATOM      4  C4  N4B d   1       3.526  -5.405  -3.560  0.00  0.00    -0.004 A 
ATOM      5  C5  N4B d   1       4.151  -5.906  -2.457  0.00  0.00     0.002 A 
ATOM      6  C6  N4B d   1       4.092  -5.247  -1.245  0.00  0.00     0.002 A 
ENDROOT
BRANCH   1   7
ATOM      7  C1' N4B d   1       3.421  -3.339   0.172  0.00  0.00     0.057 C 
BRANCH   7   8
ATOM      8  C2' N4B d   1       4.769  -2.639   0.321  0.00  0.00     0.009 C 
BRANCH   8   9
ATOM      9  C3' N4B d   1       4.622  -1.128   0.368  0.00  0.00     0.004 C 
ATOM     10  C4' N4B d   1       3.250  -0.665  -0.025  0.00  0.00     0.003 C 
ENDBRANCH   8   9
ENDBRANCH   7   8
ENDBRANCH   1   7
TORSDOF 3
ENDMDL
