MODEL 1
REMARK minimizedAffinity 1.18781495
REMARK minimizedRMSD -1
REMARK  3 active torsions:
REMARK  status: ('A' for Active; 'I' for Inactive)
REMARK    1  A    between atoms: C3'_2  and  C2'_3 
REMARK    2  A    between atoms: C2'_3  and  C1'_4 
REMARK    3  A    between atoms: C1'_4  and  C1_5 
ROOT
ATOM      1  C1  N4B d   1       2.709  -0.695  -1.550  0.00  0.00    -0.075 A 
ATOM      2  C2  N4B d   1       3.838  -0.938  -0.736  0.00  0.00     0.002 A 
ATOM      3  C3  N4B d   1       3.793  -1.918   0.225  0.00  0.00     0.002 A 
ATOM      4  C4  N4B d   1       2.630  -2.653   0.402  0.00  0.00    -0.004 A 
ATOM      5  C5  N4B d   1       1.553  -2.429  -0.405  0.00  0.00     0.002 A 
ATOM      6  C6  N4B d   1       1.585  -1.450  -1.378  0.00  0.00     0.002 A 
ENDROOT
BRANCH   1   7
ATOM      7  C1' N4B d   1       2.681   0.423  -2.555  0.00  0.00     0.057 C 
BRANCH   7   8
ATOM      8  C2' N4B d   1       1.793   0.020  -3.729  0.00  0.00     0.009 C 
BRANCH   8   9
ATOM      9  C3' N4B d   1       1.082   1.215  -4.340  0.00  0.00     0.004 C 
ATOM     10  C4' N4B d   1       1.233   2.462  -3.521  0.00  0.00     0.003 C 
ENDBRANCH   8   9
ENDBRANCH   7   8
ENDBRANCH   1   7
TORSDOF 3
ENDMDL
