MODEL 1
REMARK minimizedAffinity 9.51558495
REMARK minimizedRMSD -1
REMARK  3 active torsions:
REMARK  status: ('A' for Active; 'I' for Inactive)
REMARK    1  A    between atoms: C3'_2  and  C2'_3 
REMARK    2  A    between atoms: C2'_3  and  C1'_4 
REMARK    3  A    between atoms: C1'_4  and  C1_5 
ROOT
ATOM      1  C1  N4B d   1      -5.999  -2.644   3.092  0.00  0.00    -0.075 A 
ATOM      2  C2  N4B d   1      -5.997  -3.525   1.989  0.00  0.00     0.002 A 
ATOM      3  C3  N4B d   1      -5.985  -4.883   2.195  0.00  0.00     0.002 A 
ATOM      4  C4  N4B d   1      -5.955  -5.380   3.489  0.00  0.00    -0.004 A 
ATOM      5  C5  N4B d   1      -5.983  -4.523   4.550  0.00  0.00     0.002 A 
ATOM      6  C6  N4B d   1      -6.000  -3.156   4.358  0.00  0.00     0.002 A 
ENDROOT
BRANCH   1   7
ATOM      7  C1' N4B d   1      -5.926  -1.151   2.917  0.00  0.00     0.057 C 
BRANCH   7   8
ATOM      8  C2' N4B d   1      -4.527  -0.771   2.442  0.00  0.00     0.009 C 
BRANCH   8   9
ATOM      9  C3' N4B d   1      -3.939   0.366   3.261  0.00  0.00     0.004 C 
ATOM     10  C4' N4B d   1      -2.635   0.862   2.712  0.00  0.00     0.003 C 
ENDBRANCH   8   9
ENDBRANCH   7   8
ENDBRANCH   1   7
TORSDOF 3
ENDMDL
