MODEL 1
REMARK minimizedAffinity 8.10090256
REMARK minimizedRMSD -1
REMARK  3 active torsions:
REMARK  status: ('A' for Active; 'I' for Inactive)
REMARK    1  A    between atoms: C3'_2  and  C2'_3 
REMARK    2  A    between atoms: C2'_3  and  C1'_4 
REMARK    3  A    between atoms: C1'_4  and  C1_5 
ROOT
ATOM      1  C1  N4B d   1      -1.131   0.641   2.630  0.00  0.00    -0.075 A 
ATOM      2  C2  N4B d   1      -1.516   1.905   2.133  0.00  0.00     0.002 A 
ATOM      3  C3  N4B d   1      -0.559   2.818   1.762  0.00  0.00     0.002 A 
ATOM      4  C4  N4B d   1       0.783   2.498   1.898  0.00  0.00    -0.004 A 
ATOM      5  C5  N4B d   1       1.147   1.265   2.355  0.00  0.00     0.002 A 
ATOM      6  C6  N4B d   1       0.196   0.336   2.728  0.00  0.00     0.002 A 
ENDROOT
BRANCH   1   7
ATOM      7  C1' N4B d   1      -2.140  -0.357   3.129  0.00  0.00     0.057 C 
BRANCH   7   8
ATOM      8  C2' N4B d   1      -3.478   0.345   3.337  0.00  0.00     0.009 C 
BRANCH   8   9
ATOM      9  C3' N4B d   1      -4.628  -0.427   2.713  0.00  0.00     0.004 C 
ATOM     10  C4' N4B d   1      -5.900  -0.311   3.499  0.00  0.00     0.003 C 
ENDBRANCH   8   9
ENDBRANCH   7   8
ENDBRANCH   1   7
TORSDOF 3
ENDMDL
