MODEL 1
REMARK minimizedAffinity 11.4502697
REMARK minimizedRMSD -1
REMARK  3 active torsions:
REMARK  status: ('A' for Active; 'I' for Inactive)
REMARK    1  A    between atoms: C3'_2  and  C2'_3 
REMARK    2  A    between atoms: C2'_3  and  C1'_4 
REMARK    3  A    between atoms: C1'_4  and  C1_5 
ROOT
ATOM      1  C1  N4B d   1       2.726   2.344   3.431  0.00  0.00    -0.075 A 
ATOM      2  C2  N4B d   1       2.339   0.991   3.549  0.00  0.00     0.002 A 
ATOM      3  C3  N4B d   1       2.239   0.411   4.790  0.00  0.00     0.002 A 
ATOM      4  C4  N4B d   1       2.538   1.155   5.921  0.00  0.00    -0.004 A 
ATOM      5  C5  N4B d   1       2.886   2.469   5.800  0.00  0.00     0.002 A 
ATOM      6  C6  N4B d   1       2.987   3.066   4.560  0.00  0.00     0.002 A 
ENDROOT
BRANCH   1   7
ATOM      7  C1' N4B d   1       2.932   2.998   2.092  0.00  0.00     0.057 C 
BRANCH   7   8
ATOM      8  C2' N4B d   1       4.262   3.745   2.099  0.00  0.00     0.009 C 
BRANCH   8   9
ATOM      9  C3' N4B d   1       4.076   5.239   1.900  0.00  0.00     0.004 C 
ATOM     10  C4' N4B d   1       5.369   5.998   1.946  0.00  0.00     0.003 C 
ENDBRANCH   8   9
ENDBRANCH   7   8
ENDBRANCH   1   7
TORSDOF 3
ENDMDL
