MODEL 1
REMARK minimizedAffinity 12.5433884
REMARK minimizedRMSD -1
REMARK  3 active torsions:
REMARK  status: ('A' for Active; 'I' for Inactive)
REMARK    1  A    between atoms: C3'_2  and  C2'_3 
REMARK    2  A    between atoms: C2'_3  and  C1'_4 
REMARK    3  A    between atoms: C1'_4  and  C1_5 
ROOT
ATOM      1  C1  N4B d   1      -5.993  -2.486   3.807  0.00  0.00    -0.075 A 
ATOM      2  C2  N4B d   1      -5.997  -3.789   3.262  0.00  0.00     0.002 A 
ATOM      3  C3  N4B d   1      -5.980  -4.881   4.095  0.00  0.00     0.002 A 
ATOM      4  C4  N4B d   1      -5.939  -4.696   5.468  0.00  0.00    -0.004 A 
ATOM      5  C5  N4B d   1      -5.961  -3.435   5.987  0.00  0.00     0.002 A 
ATOM      6  C6  N4B d   1      -5.983  -2.328   5.163  0.00  0.00     0.002 A 
ENDROOT
BRANCH   1   7
ATOM      7  C1' N4B d   1      -5.925  -1.262   2.936  0.00  0.00     0.057 C 
BRANCH   7   8
ATOM      8  C2' N4B d   1      -5.854  -0.021   3.822  0.00  0.00     0.009 C 
BRANCH   8   9
ATOM      9  C3' N4B d   1      -4.431   0.488   3.975  0.00  0.00     0.004 C 
ATOM     10  C4' N4B d   1      -4.321   1.971   3.785  0.00  0.00     0.003 C 
ENDBRANCH   8   9
ENDBRANCH   7   8
ENDBRANCH   1   7
TORSDOF 3
ENDMDL
