MODEL 1
REMARK minimizedAffinity 8.9915657
REMARK minimizedRMSD -1
REMARK  3 active torsions:
REMARK  status: ('A' for Active; 'I' for Inactive)
REMARK    1  A    between atoms: C3'_2  and  C2'_3 
REMARK    2  A    between atoms: C2'_3  and  C1'_4 
REMARK    3  A    between atoms: C1'_4  and  C1_5 
ROOT
ATOM      1  C1  N4B d   1       0.727  -3.421  -1.493  0.00  0.00    -0.075 A 
ATOM      2  C2  N4B d   1       0.543  -2.035  -1.295  0.00  0.00     0.002 A 
ATOM      3  C3  N4B d   1       1.460  -1.318  -0.565  0.00  0.00     0.002 A 
ATOM      4  C4  N4B d   1       2.553  -1.967  -0.011  0.00  0.00    -0.004 A 
ATOM      5  C5  N4B d   1       2.737  -3.301  -0.228  0.00  0.00     0.002 A 
ATOM      6  C6  N4B d   1       1.825  -4.033  -0.962  0.00  0.00     0.002 A 
ENDROOT
BRANCH   1   7
ATOM      7  C1' N4B d   1      -0.293  -4.263  -2.210  0.00  0.00     0.057 C 
BRANCH   7   8
ATOM      8  C2' N4B d   1      -1.643  -3.552  -2.175  0.00  0.00     0.009 C 
BRANCH   8   9
ATOM      9  C3' N4B d   1      -2.650  -4.287  -1.307  0.00  0.00     0.004 C 
ATOM     10  C4' N4B d   1      -2.061  -5.485  -0.623  0.00  0.00     0.003 C 
ENDBRANCH   8   9
ENDBRANCH   7   8
ENDBRANCH   1   7
TORSDOF 3
ENDMDL
