MODEL 1
REMARK minimizedAffinity 18.8154545
REMARK minimizedRMSD -1
REMARK  3 active torsions:
REMARK  status: ('A' for Active; 'I' for Inactive)
REMARK    1  A    between atoms: C3'_2  and  C2'_3 
REMARK    2  A    between atoms: C2'_3  and  C1'_4 
REMARK    3  A    between atoms: C1'_4  and  C1_5 
ROOT
ATOM      1  C1  N4B d   1      -5.834  -1.285   3.839  0.00  0.00    -0.075 A 
ATOM      2  C2  N4B d   1      -5.882  -2.642   4.227  0.00  0.00     0.002 A 
ATOM      3  C3  N4B d   1      -5.944  -3.628   3.272  0.00  0.00     0.002 A 
ATOM      4  C4  N4B d   1      -5.979  -3.281   1.930  0.00  0.00    -0.004 A 
ATOM      5  C5  N4B d   1      -5.907  -1.969   1.563  0.00  0.00     0.002 A 
ATOM      6  C6  N4B d   1      -5.840  -0.968   2.511  0.00  0.00     0.002 A 
ENDROOT
BRANCH   1   7
ATOM      7  C1' N4B d   1      -5.851  -0.170   4.848  0.00  0.00     0.057 C 
BRANCH   7   8
ATOM      8  C2' N4B d   1      -5.239   1.080   4.223  0.00  0.00     0.009 C 
BRANCH   8   9
ATOM      9  C3' N4B d   1      -3.739   0.943   4.030  0.00  0.00     0.004 C 
ATOM     10  C4' N4B d   1      -3.084   0.147   5.119  0.00  0.00     0.003 C 
ENDBRANCH   8   9
ENDBRANCH   7   8
ENDBRANCH   1   7
TORSDOF 3
ENDMDL
