MODEL 1
REMARK minimizedAffinity 7.66211891
REMARK minimizedRMSD -1
REMARK  3 active torsions:
REMARK  status: ('A' for Active; 'I' for Inactive)
REMARK    1  A    between atoms: C3'_2  and  C2'_3 
REMARK    2  A    between atoms: C2'_3  and  C1'_4 
REMARK    3  A    between atoms: C1'_4  and  C1_5 
ROOT
ATOM      1  C1  N4B d   1      -1.244  -3.430  -3.145  0.00  0.00    -0.075 A 
ATOM      2  C2  N4B d   1      -1.094  -4.127  -4.364  0.00  0.00     0.002 A 
ATOM      3  C3  N4B d   1      -1.954  -3.879  -5.407  0.00  0.00     0.002 A 
ATOM      4  C4  N4B d   1      -2.977  -2.957  -5.247  0.00  0.00    -0.004 A 
ATOM      5  C5  N4B d   1      -3.099  -2.270  -4.075  0.00  0.00     0.002 A 
ATOM      6  C6  N4B d   1      -2.240  -2.506  -3.020  0.00  0.00     0.002 A 
ENDROOT
BRANCH   1   7
ATOM      7  C1' N4B d   1      -0.382  -3.729  -1.949  0.00  0.00     0.057 C 
BRANCH   7   8
ATOM      8  C2' N4B d   1       0.729  -2.688  -1.859  0.00  0.00     0.009 C 
BRANCH   8   9
ATOM      9  C3' N4B d   1       1.508  -2.798  -0.559  0.00  0.00     0.004 C 
ATOM     10  C4' N4B d   1       2.334  -1.579  -0.273  0.00  0.00     0.003 C 
ENDBRANCH   8   9
ENDBRANCH   7   8
ENDBRANCH   1   7
TORSDOF 3
ENDMDL
