MODEL 1
REMARK minimizedAffinity 19.2688713
REMARK minimizedRMSD -1
REMARK  3 active torsions:
REMARK  status: ('A' for Active; 'I' for Inactive)
REMARK    1  A    between atoms: C3'_2  and  C2'_3 
REMARK    2  A    between atoms: C2'_3  and  C1'_4 
REMARK    3  A    between atoms: C1'_4  and  C1_5 
ROOT
ATOM      1  C1  N4B d   1       1.325   0.793   3.406  0.00  0.00    -0.075 A 
ATOM      2  C2  N4B d   1       1.824   2.110   3.508  0.00  0.00     0.002 A 
ATOM      3  C3  N4B d   1       2.192   2.794   2.375  0.00  0.00     0.002 A 
ATOM      4  C4  N4B d   1       2.089   2.178   1.137  0.00  0.00    -0.004 A 
ATOM      5  C5  N4B d   1       1.582   0.915   1.045  0.00  0.00     0.002 A 
ATOM      6  C6  N4B d   1       1.204   0.217   2.174  0.00  0.00     0.002 A 
ENDROOT
BRANCH   1   7
ATOM      7  C1' N4B d   1       0.990  -0.026   4.622  0.00  0.00     0.057 C 
BRANCH   7   8
ATOM      8  C2' N4B d   1       0.184  -1.249   4.196  0.00  0.00     0.009 C 
BRANCH   8   9
ATOM      9  C3' N4B d   1      -1.011  -1.486   5.103  0.00  0.00     0.004 C 
ATOM     10  C4' N4B d   1      -2.198  -0.648   4.731  0.00  0.00     0.003 C 
ENDBRANCH   8   9
ENDBRANCH   7   8
ENDBRANCH   1   7
TORSDOF 3
ENDMDL
