MODEL 1
REMARK minimizedAffinity 14.0964088
REMARK minimizedRMSD -1
REMARK  3 active torsions:
REMARK  status: ('A' for Active; 'I' for Inactive)
REMARK    1  A    between atoms: C3'_2  and  C2'_3 
REMARK    2  A    between atoms: C2'_3  and  C1'_4 
REMARK    3  A    between atoms: C1'_4  and  C1_5 
ROOT
ATOM      1  C1  N4B d   1       2.730   1.109  -0.962  0.00  0.00    -0.075 A 
ATOM      2  C2  N4B d   1       2.310   2.110  -1.865  0.00  0.00     0.002 A 
ATOM      3  C3  N4B d   1       1.534   1.776  -2.948  0.00  0.00     0.002 A 
ATOM      4  C4  N4B d   1       1.183   0.451  -3.158  0.00  0.00    -0.004 A 
ATOM      5  C5  N4B d   1       1.572  -0.506  -2.267  0.00  0.00     0.002 A 
ATOM      6  C6  N4B d   1       2.348  -0.184  -1.172  0.00  0.00     0.002 A 
ENDROOT
BRANCH   1   7
ATOM      7  C1' N4B d   1       3.650   1.413   0.188  0.00  0.00     0.057 C 
BRANCH   7   8
ATOM      8  C2' N4B d   1       2.941   2.348   1.163  0.00  0.00     0.009 C 
BRANCH   8   9
ATOM      9  C3' N4B d   1       1.899   1.619   1.994  0.00  0.00     0.004 C 
ATOM     10  C4' N4B d   1       2.025   1.900   3.461  0.00  0.00     0.003 C 
ENDBRANCH   8   9
ENDBRANCH   7   8
ENDBRANCH   1   7
TORSDOF 3
ENDMDL
