MODEL 1
REMARK minimizedAffinity 1.79057932
REMARK minimizedRMSD -1
REMARK  3 active torsions:
REMARK  status: ('A' for Active; 'I' for Inactive)
REMARK    1  A    between atoms: C3'_2  and  C2'_3 
REMARK    2  A    between atoms: C2'_3  and  C1'_4 
REMARK    3  A    between atoms: C1'_4  and  C1_5 
ROOT
ATOM      1  C1  N4B d   1       1.577  -1.584  -1.771  0.00  0.00    -0.075 A 
ATOM      2  C2  N4B d   1       1.535  -2.411  -0.627  0.00  0.00     0.002 A 
ATOM      3  C3  N4B d   1       0.730  -3.524  -0.613  0.00  0.00     0.002 A 
ATOM      4  C4  N4B d   1      -0.053  -3.818  -1.720  0.00  0.00    -0.004 A 
ATOM      5  C5  N4B d   1       0.013  -3.028  -2.830  0.00  0.00     0.002 A 
ATOM      6  C6  N4B d   1       0.820  -1.909  -2.860  0.00  0.00     0.002 A 
ENDROOT
BRANCH   1   7
ATOM      7  C1' N4B d   1       2.376  -0.310  -1.802  0.00  0.00     0.057 C 
BRANCH   7   8
ATOM      8  C2' N4B d   1       1.626   0.732  -2.625  0.00  0.00     0.009 C 
BRANCH   8   9
ATOM      9  C3' N4B d   1       1.965   2.149  -2.194  0.00  0.00     0.004 C 
ATOM     10  C4' N4B d   1       1.059   3.175  -2.807  0.00  0.00     0.003 C 
ENDBRANCH   8   9
ENDBRANCH   7   8
ENDBRANCH   1   7
TORSDOF 3
ENDMDL
