MODEL 1
REMARK minimizedAffinity -4.81690836
REMARK minimizedRMSD -1
REMARK  2 active torsions:
REMARK  status: ('A' for Active; 'I' for Inactive)
REMARK    1  A    between atoms: C2'_3  and  C1'_4 
REMARK    2  A    between atoms: C1'_4  and  C1_5 
ROOT
ATOM      1  C1  I4B d   1       0.185  -0.322  -0.470  0.00  0.00    -0.075 A 
ATOM      2  C2  I4B d   1      -0.059  -0.670   0.835  0.00  0.00     0.003 A 
ATOM      3  C3  I4B d   1      -0.270  -2.027   1.183  0.00  0.00     0.002 A 
ATOM      4  C4  I4B d   1      -0.278  -2.989   0.194  0.00  0.00    -0.004 A 
ATOM      5  C5  I4B d   1      -0.007  -2.637  -1.125  0.00  0.00     0.002 A 
ATOM      6  C6  I4B d   1       0.238  -1.297  -1.458  0.00  0.00     0.003 A 
ENDROOT
BRANCH   1   7
ATOM      7  C1' I4B d   1       0.371   1.123  -0.808  0.00  0.00     0.060 C 
BRANCH   7   8
ATOM      8  C2' I4B d   1       1.191   1.759   0.297  0.00  0.00    -0.013 C 
ATOM      9  C4' I4B d   1       2.666   1.579   0.054  0.00  0.00     0.013 C 
ATOM     10  C3' I4B d   1       0.827   3.212   0.365  0.00  0.00     0.013 C 
ENDBRANCH   7   8
ENDBRANCH   1   7
TORSDOF 2
ENDMDL
