MODEL 1
REMARK minimizedAffinity -4.16711807
REMARK minimizedRMSD -1
REMARK  2 active torsions:
REMARK  status: ('A' for Active; 'I' for Inactive)
REMARK    1  A    between atoms: C2'_3  and  C1'_4 
REMARK    2  A    between atoms: C1'_4  and  C1_5 
ROOT
ATOM      1  C1  I4B d   1       0.110  -1.303  -0.090  0.00  0.00    -0.075 A 
ATOM      2  C2  I4B d   1       0.049  -2.401   0.731  0.00  0.00     0.003 A 
ATOM      3  C3  I4B d   1       0.052  -3.705   0.179  0.00  0.00     0.002 A 
ATOM      4  C4  I4B d   1       0.066  -3.862  -1.192  0.00  0.00    -0.004 A 
ATOM      5  C5  I4B d   1       0.151  -2.748  -2.022  0.00  0.00     0.002 A 
ATOM      6  C6  I4B d   1       0.186  -1.460  -1.468  0.00  0.00     0.003 A 
ENDROOT
BRANCH   1   7
ATOM      7  C1' I4B d   1       0.071   0.060   0.526  0.00  0.00     0.060 C 
BRANCH   7   8
ATOM      8  C2' I4B d   1       0.738   1.025  -0.434  0.00  0.00    -0.013 C 
ATOM      9  C4' I4B d   1      -0.133   1.293  -1.632  0.00  0.00     0.013 C 
ATOM     10  C3' I4B d   1       1.036   2.290   0.314  0.00  0.00     0.013 C 
ENDBRANCH   7   8
ENDBRANCH   1   7
TORSDOF 2
ENDMDL
