MODEL 1
REMARK minimizedAffinity -4.36685085
REMARK minimizedRMSD -1
REMARK  2 active torsions:
REMARK  status: ('A' for Active; 'I' for Inactive)
REMARK    1  A    between atoms: C2'_3  and  C1'_4 
REMARK    2  A    between atoms: C1'_4  and  C1_5 
ROOT
ATOM      1  C1  I4B d   1       0.353   0.110  -0.263  0.00  0.00    -0.075 A 
ATOM      2  C2  I4B d   1      -0.535  -0.050   0.771  0.00  0.00     0.003 A 
ATOM      3  C3  I4B d   1      -0.926  -1.347   1.182  0.00  0.00     0.002 A 
ATOM      4  C4  I4B d   1      -0.446  -2.448   0.503  0.00  0.00    -0.004 A 
ATOM      5  C5  I4B d   1       0.472  -2.286  -0.531  0.00  0.00     0.002 A 
ATOM      6  C6  I4B d   1       0.884  -0.999  -0.908  0.00  0.00     0.003 A 
ENDROOT
BRANCH   1   7
ATOM      7  C1' I4B d   1       0.718   1.495  -0.692  0.00  0.00     0.060 C 
BRANCH   7   8
ATOM      8  C2' I4B d   1       1.660   2.072   0.345  0.00  0.00    -0.013 C 
ATOM      9  C4' I4B d   1       3.043   2.261  -0.221  0.00  0.00     0.013 C 
ATOM     10  C3' I4B d   1       1.086   3.374   0.818  0.00  0.00     0.013 C 
ENDBRANCH   7   8
ENDBRANCH   1   7
TORSDOF 2
ENDMDL
