MODEL 1
REMARK minimizedAffinity -3.21710634
REMARK minimizedRMSD -1
REMARK  2 active torsions:
REMARK  status: ('A' for Active; 'I' for Inactive)
REMARK    1  A    between atoms: C2'_3  and  C1'_4 
REMARK    2  A    between atoms: C1'_4  and  C1_5 
ROOT
ATOM      1  C1  I4B d   1      -0.707  -0.953  -0.674  0.00  0.00    -0.075 A 
ATOM      2  C2  I4B d   1      -0.107  -0.089  -1.557  0.00  0.00     0.003 A 
ATOM      3  C3  I4B d   1       0.232  -0.525  -2.861  0.00  0.00     0.002 A 
ATOM      4  C4  I4B d   1      -0.000  -1.836  -3.222  0.00  0.00    -0.004 A 
ATOM      5  C5  I4B d   1      -0.630  -2.704  -2.333  0.00  0.00     0.002 A 
ATOM      6  C6  I4B d   1      -0.997  -2.256  -1.056  0.00  0.00     0.003 A 
ENDROOT
BRANCH   1   7
ATOM      7  C1' I4B d   1      -1.021  -0.470   0.706  0.00  0.00     0.060 C 
BRANCH   7   8
ATOM      8  C2' I4B d   1      -0.623  -1.557   1.683  0.00  0.00    -0.013 C 
ATOM      9  C4' I4B d   1       0.862  -1.550   1.933  0.00  0.00     0.013 C 
ATOM     10  C3' I4B d   1      -1.388  -1.340   2.954  0.00  0.00     0.013 C 
ENDBRANCH   7   8
ENDBRANCH   1   7
TORSDOF 2
ENDMDL
