MODEL 1
REMARK minimizedAffinity -5.31979799
REMARK minimizedRMSD -1
REMARK  2 active torsions:
REMARK  status: ('A' for Active; 'I' for Inactive)
REMARK    1  A    between atoms: C2'_3  and  C1'_4 
REMARK    2  A    between atoms: C1'_4  and  C1_5 
ROOT
ATOM      1  C1  I4B d   1       0.280   0.356  -0.757  0.00  0.00    -0.075 A 
ATOM      2  C2  I4B d   1      -0.137  -0.062   0.482  0.00  0.00     0.003 A 
ATOM      3  C3  I4B d   1      -0.411  -1.431   0.718  0.00  0.00     0.002 A 
ATOM      4  C4  I4B d   1      -0.306  -2.334  -0.320  0.00  0.00    -0.004 A 
ATOM      5  C5  I4B d   1       0.139  -1.912  -1.570  0.00  0.00     0.002 A 
ATOM      6  C6  I4B d   1       0.446  -0.561  -1.787  0.00  0.00     0.003 A 
ENDROOT
BRANCH   1   7
ATOM      7  C1' I4B d   1       0.529   1.814  -0.981  0.00  0.00     0.060 C 
BRANCH   7   8
ATOM      8  C2' I4B d   1       1.202   2.367   0.259  0.00  0.00    -0.013 C 
ATOM      9  C4' I4B d   1       2.657   2.662   0.004  0.00  0.00     0.013 C 
ATOM     10  C3' I4B d   1       0.464   3.605   0.673  0.00  0.00     0.013 C 
ENDBRANCH   7   8
ENDBRANCH   1   7
TORSDOF 2
ENDMDL
