MODEL 1
REMARK minimizedAffinity -4.33046055
REMARK minimizedRMSD -1
REMARK  2 active torsions:
REMARK  status: ('A' for Active; 'I' for Inactive)
REMARK    1  A    between atoms: C2'_3  and  C1'_4 
REMARK    2  A    between atoms: C1'_4  and  C1_5 
ROOT
ATOM      1  C1  I4B d   1       0.021   0.392  -0.119  0.00  0.00    -0.075 A 
ATOM      2  C2  I4B d   1       0.148  -0.738  -0.888  0.00  0.00     0.003 A 
ATOM      3  C3  I4B d   1      -0.300  -1.988  -0.397  0.00  0.00     0.002 A 
ATOM      4  C4  I4B d   1      -0.820  -2.071   0.879  0.00  0.00    -0.004 A 
ATOM      5  C5  I4B d   1      -0.969  -0.920   1.648  0.00  0.00     0.002 A 
ATOM      6  C6  I4B d   1      -0.558   0.321   1.142  0.00  0.00     0.003 A 
ENDROOT
BRANCH   1   7
ATOM      7  C1' I4B d   1       0.536   1.691  -0.655  0.00  0.00     0.060 C 
BRANCH   7   8
ATOM      8  C2' I4B d   1       0.916   2.564   0.523  0.00  0.00    -0.013 C 
ATOM      9  C4' I4B d   1       2.380   2.917   0.490  0.00  0.00     0.013 C 
ATOM     10  C3' I4B d   1       0.062   3.796   0.482  0.00  0.00     0.013 C 
ENDBRANCH   7   8
ENDBRANCH   1   7
TORSDOF 2
ENDMDL
