MODEL 1
REMARK minimizedAffinity -6.04444742
REMARK minimizedRMSD -1
REMARK  2 active torsions:
REMARK  status: ('A' for Active; 'I' for Inactive)
REMARK    1  A    between atoms: C2'_3  and  C1'_4 
REMARK    2  A    between atoms: C1'_4  and  C1_5 
ROOT
ATOM      1  C1  I4B d   1       0.246   0.052  -0.074  0.00  0.00    -0.075 A 
ATOM      2  C2  I4B d   1       0.816  -1.005  -0.739  0.00  0.00     0.003 A 
ATOM      3  C3  I4B d   1       0.600  -2.330  -0.289  0.00  0.00     0.002 A 
ATOM      4  C4  I4B d   1      -0.145  -2.547   0.852  0.00  0.00    -0.004 A 
ATOM      5  C5  I4B d   1      -0.740  -1.476   1.512  0.00  0.00     0.002 A 
ATOM      6  C6  I4B d   1      -0.554  -0.169   1.040  0.00  0.00     0.003 A 
ENDROOT
BRANCH   1   7
ATOM      7  C1' I4B d   1       0.522   1.441  -0.557  0.00  0.00     0.060 C 
BRANCH   7   8
ATOM      8  C2' I4B d   1       1.197   2.201   0.567  0.00  0.00    -0.013 C 
ATOM      9  C4' I4B d   1       2.687   2.276   0.356  0.00  0.00     0.013 C 
ATOM     10  C3' I4B d   1       0.590   3.570   0.630  0.00  0.00     0.013 C 
ENDBRANCH   7   8
ENDBRANCH   1   7
TORSDOF 2
ENDMDL
