MODEL 1
REMARK minimizedAffinity -3.5221014
REMARK minimizedRMSD -1
REMARK  2 active torsions:
REMARK  status: ('A' for Active; 'I' for Inactive)
REMARK    1  A    between atoms: C2'_3  and  C1'_4 
REMARK    2  A    between atoms: C1'_4  and  C1_5 
ROOT
ATOM      1  C1  I4B d   1       0.004  -0.167  -0.313  0.00  0.00    -0.075 A 
ATOM      2  C2  I4B d   1       0.735  -1.064  -1.051  0.00  0.00     0.003 A 
ATOM      3  C3  I4B d   1       0.674  -2.448  -0.756  0.00  0.00     0.002 A 
ATOM      4  C4  I4B d   1      -0.086  -2.882   0.311  0.00  0.00    -0.004 A 
ATOM      5  C5  I4B d   1      -0.843  -1.974   1.045  0.00  0.00     0.002 A 
ATOM      6  C6  I4B d   1      -0.808  -0.609   0.724  0.00  0.00     0.003 A 
ENDROOT
BRANCH   1   7
ATOM      7  C1' I4B d   1       0.118   1.290  -0.631  0.00  0.00     0.060 C 
BRANCH   7   8
ATOM      8  C2' I4B d   1       0.794   1.972   0.541  0.00  0.00    -0.013 C 
ATOM      9  C4' I4B d   1       2.180   2.436   0.176  0.00  0.00     0.013 C 
ATOM     10  C3' I4B d   1      -0.068   3.123   0.967  0.00  0.00     0.013 C 
ENDBRANCH   7   8
ENDBRANCH   1   7
TORSDOF 2
ENDMDL
