MODEL 1
REMARK minimizedAffinity 0.321276844
REMARK minimizedRMSD -1
REMARK  2 active torsions:
REMARK  status: ('A' for Active; 'I' for Inactive)
REMARK    1  A    between atoms: C2'_3  and  C1'_4 
REMARK    2  A    between atoms: C1'_4  and  C1_5 
ROOT
ATOM      1  C1  I4B d   1       0.307   0.780   0.176  0.00  0.00    -0.075 A 
ATOM      2  C2  I4B d   1      -0.166  -0.087  -0.777  0.00  0.00     0.003 A 
ATOM      3  C3  I4B d   1      -0.928  -1.218  -0.396  0.00  0.00     0.002 A 
ATOM      4  C4  I4B d   1      -1.148  -1.470   0.943  0.00  0.00    -0.004 A 
ATOM      5  C5  I4B d   1      -0.687  -0.577   1.906  0.00  0.00     0.002 A 
ATOM      6  C6  I4B d   1       0.035   0.562   1.520  0.00  0.00     0.003 A 
ENDROOT
BRANCH   1   7
ATOM      7  C1' I4B d   1       1.136   1.946  -0.259  0.00  0.00     0.060 C 
BRANCH   7   8
ATOM      8  C2' I4B d   1       0.980   3.042   0.776  0.00  0.00    -0.013 C 
ATOM      9  C4' I4B d   1       2.295   3.355   1.441  0.00  0.00     0.013 C 
ATOM     10  C3' I4B d   1       0.420   4.251   0.088  0.00  0.00     0.013 C 
ENDBRANCH   7   8
ENDBRANCH   1   7
TORSDOF 2
ENDMDL
