MODEL 1
REMARK minimizedAffinity -2.5394659
REMARK minimizedRMSD -1
REMARK  2 active torsions:
REMARK  status: ('A' for Active; 'I' for Inactive)
REMARK    1  A    between atoms: C2'_3  and  C1'_4 
REMARK    2  A    between atoms: C1'_4  and  C1_5 
ROOT
ATOM      1  C1  I4B d   1       0.171   0.210   0.350  0.00  0.00    -0.075 A 
ATOM      2  C2  I4B d   1      -0.996   0.001   1.043  0.00  0.00     0.003 A 
ATOM      3  C3  I4B d   1      -1.390  -1.312   1.396  0.00  0.00     0.002 A 
ATOM      4  C4  I4B d   1      -0.619  -2.384   0.995  0.00  0.00    -0.004 A 
ATOM      5  C5  I4B d   1       0.575  -2.169   0.312  0.00  0.00     0.002 A 
ATOM      6  C6  I4B d   1       0.979  -0.864  -0.002  0.00  0.00     0.003 A 
ENDROOT
BRANCH   1   7
ATOM      7  C1' I4B d   1       0.540   1.607  -0.036  0.00  0.00     0.060 C 
BRANCH   7   8
ATOM      8  C2' I4B d   1       1.899   1.912   0.561  0.00  0.00    -0.013 C 
ATOM      9  C4' I4B d   1       2.786   2.613  -0.434  0.00  0.00     0.013 C 
ATOM     10  C3' I4B d   1       1.688   2.752   1.785  0.00  0.00     0.013 C 
ENDBRANCH   7   8
ENDBRANCH   1   7
TORSDOF 2
ENDMDL
