MODEL 1
REMARK minimizedAffinity -5.31894779
REMARK minimizedRMSD -1
REMARK  2 active torsions:
REMARK  status: ('A' for Active; 'I' for Inactive)
REMARK    1  A    between atoms: C2'_3  and  C1'_4 
REMARK    2  A    between atoms: C1'_4  and  C1_5 
ROOT
ATOM      1  C1  I4B d   1       0.043  -0.202  -0.422  0.00  0.00    -0.075 A 
ATOM      2  C2  I4B d   1       0.109  -1.160  -1.403  0.00  0.00     0.003 A 
ATOM      3  C3  I4B d   1      -0.102  -2.524  -1.083  0.00  0.00     0.002 A 
ATOM      4  C4  I4B d   1      -0.325  -2.887   0.230  0.00  0.00    -0.004 A 
ATOM      5  C5  I4B d   1      -0.414  -1.912   1.219  0.00  0.00     0.002 A 
ATOM      6  C6  I4B d   1      -0.241  -0.560   0.890  0.00  0.00     0.003 A 
ENDROOT
BRANCH   1   7
ATOM      7  C1' I4B d   1       0.304   1.224  -0.789  0.00  0.00     0.060 C 
BRANCH   7   8
ATOM      8  C2' I4B d   1       1.244   1.808   0.245  0.00  0.00    -0.013 C 
ATOM      9  C4' I4B d   1       2.534   2.263  -0.386  0.00  0.00     0.013 C 
ATOM     10  C3' I4B d   1       0.541   2.947   0.921  0.00  0.00     0.013 C 
ENDBRANCH   7   8
ENDBRANCH   1   7
TORSDOF 2
ENDMDL
