MODEL 1
REMARK minimizedAffinity -2.77925801
REMARK minimizedRMSD -1
REMARK  2 active torsions:
REMARK  status: ('A' for Active; 'I' for Inactive)
REMARK    1  A    between atoms: C2'_3  and  C1'_4 
REMARK    2  A    between atoms: C1'_4  and  C1_5 
ROOT
ATOM      1  C1  I4B d   1       0.172   0.074  -0.064  0.00  0.00    -0.075 A 
ATOM      2  C2  I4B d   1      -0.930  -0.071   0.742  0.00  0.00     0.003 A 
ATOM      3  C3  I4B d   1      -1.291  -1.349   1.233  0.00  0.00     0.002 A 
ATOM      4  C4  I4B d   1      -0.557  -2.455   0.854  0.00  0.00    -0.004 A 
ATOM      5  C5  I4B d   1       0.573  -2.303   0.055  0.00  0.00     0.002 A 
ATOM      6  C6  I4B d   1       0.947  -1.029  -0.397  0.00  0.00     0.003 A 
ENDROOT
BRANCH   1   7
ATOM      7  C1' I4B d   1       0.505   1.434  -0.591  0.00  0.00     0.060 C 
BRANCH   7   8
ATOM      8  C2' I4B d   1       1.186   2.210   0.517  0.00  0.00    -0.013 C 
ATOM      9  C4' I4B d   1       2.622   2.506   0.172  0.00  0.00     0.013 C 
ATOM     10  C3' I4B d   1       0.411   3.474   0.741  0.00  0.00     0.013 C 
ENDBRANCH   7   8
ENDBRANCH   1   7
TORSDOF 2
ENDMDL
