MODEL 1
REMARK minimizedAffinity -5.35616446
REMARK minimizedRMSD -1
REMARK  2 active torsions:
REMARK  status: ('A' for Active; 'I' for Inactive)
REMARK    1  A    between atoms: C2'_3  and  C1'_4 
REMARK    2  A    between atoms: C1'_4  and  C1_5 
ROOT
ATOM      1  C1  I4B d   1       0.495   0.169   0.469  0.00  0.00    -0.075 A 
ATOM      2  C2  I4B d   1       0.198  -0.401   1.682  0.00  0.00     0.003 A 
ATOM      3  C3  I4B d   1       0.057  -1.805   1.794  0.00  0.00     0.002 A 
ATOM      4  C4  I4B d   1       0.171  -2.592   0.666  0.00  0.00    -0.004 A 
ATOM      5  C5  I4B d   1       0.495  -2.015  -0.558  0.00  0.00     0.002 A 
ATOM      6  C6  I4B d   1       0.670  -0.627  -0.656  0.00  0.00     0.003 A 
ENDROOT
BRANCH   1   7
ATOM      7  C1' I4B d   1       0.604   1.658   0.379  0.00  0.00     0.060 C 
BRANCH   7   8
ATOM      8  C2' I4B d   1       2.043   2.039   0.663  0.00  0.00    -0.013 C 
ATOM      9  C4' I4B d   1       2.588   2.949  -0.406  0.00  0.00     0.013 C 
ATOM     10  C3' I4B d   1       2.091   2.696   2.010  0.00  0.00     0.013 C 
ENDBRANCH   7   8
ENDBRANCH   1   7
TORSDOF 2
ENDMDL
