MODEL 1
REMARK minimizedAffinity -3.38008642
REMARK minimizedRMSD -1
REMARK  2 active torsions:
REMARK  status: ('A' for Active; 'I' for Inactive)
REMARK    1  A    between atoms: C2'_3  and  C1'_4 
REMARK    2  A    between atoms: C1'_4  and  C1_5 
ROOT
ATOM      1  C1  I4B d   1       0.080   0.187  -0.112  0.00  0.00    -0.075 A 
ATOM      2  C2  I4B d   1       0.357  -0.861  -0.954  0.00  0.00     0.003 A 
ATOM      3  C3  I4B d   1       0.178  -2.195  -0.514  0.00  0.00     0.002 A 
ATOM      4  C4  I4B d   1      -0.230  -2.434   0.782  0.00  0.00    -0.004 A 
ATOM      5  C5  I4B d   1      -0.532  -1.370   1.627  0.00  0.00     0.002 A 
ATOM      6  C6  I4B d   1      -0.388  -0.051   1.174  0.00  0.00     0.003 A 
ENDROOT
BRANCH   1   7
ATOM      7  C1' I4B d   1       0.313   1.583  -0.597  0.00  0.00     0.060 C 
BRANCH   7   8
ATOM      8  C2' I4B d   1       1.100   2.322   0.465  0.00  0.00    -0.013 C 
ATOM      9  C4' I4B d   1       2.494   2.636  -0.009  0.00  0.00     0.013 C 
ATOM     10  C3' I4B d   1       0.350   3.574   0.810  0.00  0.00     0.013 C 
ENDBRANCH   7   8
ENDBRANCH   1   7
TORSDOF 2
ENDMDL
