MODEL 1
REMARK minimizedAffinity -5.7966156
REMARK minimizedRMSD -1
REMARK  2 active torsions:
REMARK  status: ('A' for Active; 'I' for Inactive)
REMARK    1  A    between atoms: C2'_3  and  C1'_4 
REMARK    2  A    between atoms: C1'_4  and  C1_5 
ROOT
ATOM      1  C1  I4B d   1       0.393  -0.133  -0.156  0.00  0.00    -0.075 A 
ATOM      2  C2  I4B d   1      -0.228  -0.273   1.061  0.00  0.00     0.003 A 
ATOM      3  C3  I4B d   1      -0.613  -1.555   1.521  0.00  0.00     0.002 A 
ATOM      4  C4  I4B d   1      -0.406  -2.656   0.716  0.00  0.00    -0.004 A 
ATOM      5  C5  I4B d   1       0.244  -2.516  -0.507  0.00  0.00     0.002 A 
ATOM      6  C6  I4B d   1       0.657  -1.248  -0.940  0.00  0.00     0.003 A 
ENDROOT
BRANCH   1   7
ATOM      7  C1' I4B d   1       0.757   1.240  -0.625  0.00  0.00     0.060 C 
BRANCH   7   8
ATOM      8  C2' I4B d   1       1.373   1.985   0.542  0.00  0.00    -0.013 C 
ATOM      9  C4' I4B d   1       2.867   1.804   0.577  0.00  0.00     0.013 C 
ATOM     10  C3' I4B d   1       1.005   3.433   0.412  0.00  0.00     0.013 C 
ENDBRANCH   7   8
ENDBRANCH   1   7
TORSDOF 2
ENDMDL
