MODEL 1
REMARK minimizedAffinity 1.75082624
REMARK minimizedRMSD -1
REMARK  0 active torsions:
REMARK  status: ('A' for Active; 'I' for Inactive)
ROOT
ATOM      1  C   UNL d   1       2.826  -2.192   0.589  0.00  0.00    -0.002 A 
ATOM      2  C1  UNL d   1       1.563  -2.702   0.325  0.00  0.00     0.010 A 
ATOM      3  C2  UNL d   1       0.494  -1.847   0.050  0.00  0.00     0.041 A 
ATOM      4  C3  UNL d   1       0.719  -0.456   0.041  0.00  0.00    -0.075 A 
ATOM      5  S   UNL d   1      -0.439   0.782  -0.272  0.00  0.00     0.015 SA
ATOM      6  C4  UNL d   1       0.717   2.018  -0.064  0.00  0.00     0.022 A 
ATOM      7  C5  UNL d   1       1.960   1.516   0.238  0.00  0.00     0.026 A 
ATOM      8  C6  UNL d   1       1.983   0.082   0.303  0.00  0.00    -0.082 A 
ATOM      9  C7  UNL d   1       3.045  -0.812   0.580  0.00  0.00     0.045 A 
ENDROOT
TORSDOF 0
ENDMDL
