MODEL 1
REMARK minimizedAffinity 0.909540474
REMARK minimizedRMSD -1
REMARK  0 active torsions:
REMARK  status: ('A' for Active; 'I' for Inactive)
ROOT
ATOM      1  C   UNL d   1       2.348  -1.647   0.831  0.00  0.00    -0.002 A 
ATOM      2  C1  UNL d   1       2.622  -0.458   1.493  0.00  0.00     0.010 A 
ATOM      3  C2  UNL d   1       1.811   0.663   1.304  0.00  0.00     0.041 A 
ATOM      4  C3  UNL d   1       0.708   0.567   0.433  0.00  0.00    -0.075 A 
ATOM      5  S   UNL d   1      -0.424   1.810   0.050  0.00  0.00     0.015 SA
ATOM      6  C4  UNL d   1      -1.299   0.791  -1.000  0.00  0.00     0.022 A 
ATOM      7  C5  UNL d   1      -0.755  -0.469  -1.069  0.00  0.00     0.026 A 
ATOM      8  C6  UNL d   1       0.411  -0.619  -0.243  0.00  0.00    -0.082 A 
ATOM      9  C7  UNL d   1       1.253  -1.738  -0.032  0.00  0.00     0.045 A 
ENDROOT
TORSDOF 0
ENDMDL
