MODEL 1
REMARK minimizedAffinity 3.20017052
REMARK minimizedRMSD -1
REMARK  0 active torsions:
REMARK  status: ('A' for Active; 'I' for Inactive)
ROOT
ATOM      1  C   UNL d   1       0.512  -0.399  -0.616  0.00  0.00     0.124 A 
ATOM      2  C1  UNL d   1      -0.335   0.603  -0.163  0.00  0.00     0.062 A 
ATOM      3  C2  UNL d   1      -0.640   1.685  -0.983  0.00  0.00     0.162 A 
ATOM      4  C3  UNL d   1      -0.098   1.771  -2.266  0.00  0.00    -0.034 A 
ATOM      5  C4  UNL d   1       0.754   0.760  -2.714  0.00  0.00     0.162 A 
ATOM      6  C5  UNL d   1       1.056  -0.319  -1.890  0.00  0.00     0.062 A 
ATOM      7  F   UNL d   1       1.875  -1.286  -2.329  0.00  0.00    -0.097 F 
ATOM      8  F1  UNL d   1       1.293   0.812  -3.941  0.00  0.00    -0.096 F 
ATOM      9  I   UNL d   1      -0.552   3.388  -3.495  0.00  0.00    -0.060 I 
ATOM     10  F2  UNL d   1      -1.462   2.639  -0.520  0.00  0.00    -0.096 F 
ATOM     11  F3  UNL d   1      -0.861   0.529   1.068  0.00  0.00    -0.097 F 
ATOM     12  F4  UNL d   1       0.805  -1.439   0.176  0.00  0.00    -0.092 F 
ENDROOT
TORSDOF 0
ENDMDL
