MODEL 1
REMARK minimizedAffinity -1.33079994
REMARK minimizedRMSD -1
REMARK  0 active torsions:
REMARK  status: ('A' for Active; 'I' for Inactive)
ROOT
ATOM      1  C   UNL d   1       1.128  -1.054   2.153  0.00  0.00     0.124 A 
ATOM      2  C1  UNL d   1      -0.229  -0.827   2.332  0.00  0.00     0.062 A 
ATOM      3  C2  UNL d   1      -1.004  -0.346   1.281  0.00  0.00     0.162 A 
ATOM      4  C3  UNL d   1      -0.423  -0.088   0.040  0.00  0.00    -0.034 A 
ATOM      5  C4  UNL d   1       0.943  -0.317  -0.133  0.00  0.00     0.162 A 
ATOM      6  C5  UNL d   1       1.713  -0.798   0.921  0.00  0.00     0.062 A 
ATOM      7  F   UNL d   1       3.025  -1.016   0.745  0.00  0.00    -0.097 F 
ATOM      8  F1  UNL d   1       1.534  -0.079  -1.314  0.00  0.00    -0.096 F 
ATOM      9  I   UNL d   1      -1.577   0.633  -1.535  0.00  0.00    -0.060 I 
ATOM     10  F2  UNL d   1      -2.313  -0.136   1.483  0.00  0.00    -0.096 F 
ATOM     11  F3  UNL d   1      -0.797  -1.073   3.522  0.00  0.00    -0.097 F 
ATOM     12  F4  UNL d   1       1.871  -1.516   3.166  0.00  0.00    -0.092 F 
ENDROOT
TORSDOF 0
ENDMDL
