MODEL 1
REMARK minimizedAffinity 1.98921108
REMARK minimizedRMSD -1
REMARK  0 active torsions:
REMARK  status: ('A' for Active; 'I' for Inactive)
ROOT
ATOM      1  C   UNL d   1      -0.757   1.991  -2.137  0.00  0.00     0.124 A 
ATOM      2  C1  UNL d   1      -1.668   1.135  -1.534  0.00  0.00     0.062 A 
ATOM      3  C2  UNL d   1      -1.275   0.335  -0.465  0.00  0.00     0.162 A 
ATOM      4  C3  UNL d   1       0.036   0.387   0.008  0.00  0.00    -0.034 A 
ATOM      5  C4  UNL d   1       0.947   1.250  -0.604  0.00  0.00     0.162 A 
ATOM      6  C5  UNL d   1       0.549   2.047  -1.672  0.00  0.00     0.062 A 
ATOM      7  F   UNL d   1       1.431   2.874  -2.254  0.00  0.00    -0.097 F 
ATOM      8  F1  UNL d   1       2.215   1.325  -0.174  0.00  0.00    -0.096 F 
ATOM      9  I   UNL d   1       0.628  -0.808   1.606  0.00  0.00    -0.060 I 
ATOM     10  F2  UNL d   1      -2.176  -0.483   0.099  0.00  0.00    -0.096 F 
ATOM     11  F3  UNL d   1      -2.930   1.078  -1.982  0.00  0.00    -0.097 F 
ATOM     12  F4  UNL d   1      -1.138   2.759  -3.166  0.00  0.00    -0.092 F 
ENDROOT
TORSDOF 0
ENDMDL
