MODEL 1
REMARK minimizedAffinity 0.992041886
REMARK minimizedRMSD -1
REMARK  0 active torsions:
REMARK  status: ('A' for Active; 'I' for Inactive)
ROOT
ATOM      1  C   UNL d   1      -0.373   1.665  -2.164  0.00  0.00     0.124 A 
ATOM      2  C1  UNL d   1       0.604   0.685  -2.051  0.00  0.00     0.062 A 
ATOM      3  C2  UNL d   1       0.862   0.094  -0.817  0.00  0.00     0.162 A 
ATOM      4  C3  UNL d   1       0.141   0.480   0.313  0.00  0.00    -0.034 A 
ATOM      5  C4  UNL d   1      -0.839   1.467   0.191  0.00  0.00     0.162 A 
ATOM      6  C5  UNL d   1      -1.093   2.054  -1.044  0.00  0.00     0.062 A 
ATOM      7  F   UNL d   1      -2.038   3.000  -1.152  0.00  0.00    -0.097 F 
ATOM      8  F1  UNL d   1      -1.550   1.862   1.257  0.00  0.00    -0.096 F 
ATOM      9  I   UNL d   1       0.525  -0.401   2.159  0.00  0.00    -0.060 I 
ATOM     10  F2  UNL d   1       1.812  -0.849  -0.737  0.00  0.00    -0.096 F 
ATOM     11  F3  UNL d   1       1.302   0.308  -3.131  0.00  0.00    -0.097 F 
ATOM     12  F4  UNL d   1      -0.619   2.232  -3.352  0.00  0.00    -0.092 F 
ENDROOT
TORSDOF 0
ENDMDL
