MODEL 1
REMARK minimizedAffinity -3.92273283
REMARK minimizedRMSD -1
REMARK  0 active torsions:
REMARK  status: ('A' for Active; 'I' for Inactive)
ROOT
ATOM      1  C   UNL d   1       1.554  -0.891   1.619  0.00  0.00     0.124 A 
ATOM      2  C1  UNL d   1       0.583   0.031   1.985  0.00  0.00     0.062 A 
ATOM      3  C2  UNL d   1      -0.144   0.707   1.009  0.00  0.00     0.162 A 
ATOM      4  C3  UNL d   1       0.097   0.462  -0.343  0.00  0.00    -0.034 A 
ATOM      5  C4  UNL d   1       1.075  -0.466  -0.704  0.00  0.00     0.162 A 
ATOM      6  C5  UNL d   1       1.799  -1.139   0.276  0.00  0.00     0.062 A 
ATOM      7  F   UNL d   1       2.736  -2.029  -0.080  0.00  0.00    -0.097 F 
ATOM      8  F1  UNL d   1       1.332  -0.725  -1.994  0.00  0.00    -0.096 F 
ATOM      9  I   UNL d   1      -0.988   1.471  -1.805  0.00  0.00    -0.060 I 
ATOM     10  F2  UNL d   1      -1.075   1.593   1.391  0.00  0.00    -0.096 F 
ATOM     11  F3  UNL d   1       0.345   0.273   3.282  0.00  0.00    -0.097 F 
ATOM     12  F4  UNL d   1       2.252  -1.539   2.560  0.00  0.00    -0.092 F 
ENDROOT
TORSDOF 0
ENDMDL
