MODEL 1
REMARK minimizedAffinity -2.17049813
REMARK minimizedRMSD -1
REMARK  0 active torsions:
REMARK  status: ('A' for Active; 'I' for Inactive)
ROOT
ATOM      1  C   UNL d   1      -0.317  -0.805   1.682  0.00  0.00     0.124 A 
ATOM      2  C1  UNL d   1       0.852  -0.099   1.438  0.00  0.00     0.062 A 
ATOM      3  C2  UNL d   1       0.901   0.842   0.414  0.00  0.00     0.162 A 
ATOM      4  C3  UNL d   1      -0.225   1.083  -0.374  0.00  0.00    -0.034 A 
ATOM      5  C4  UNL d   1      -1.397   0.368  -0.123  0.00  0.00     0.162 A 
ATOM      6  C5  UNL d   1      -1.440  -0.571   0.902  0.00  0.00     0.062 A 
ATOM      7  F   UNL d   1      -2.571  -1.253   1.136  0.00  0.00    -0.097 F 
ATOM      8  F1  UNL d   1      -2.497   0.575  -0.862  0.00  0.00    -0.096 F 
ATOM      9  I   UNL d   1      -0.156   2.490  -1.907  0.00  0.00    -0.060 I 
ATOM     10  F2  UNL d   1       2.044   1.510   0.201  0.00  0.00    -0.096 F 
ATOM     11  F3  UNL d   1       1.939  -0.324   2.190  0.00  0.00    -0.097 F 
ATOM     12  F4  UNL d   1      -0.361  -1.711   2.668  0.00  0.00    -0.092 F 
ENDROOT
TORSDOF 0
ENDMDL
