MODEL 1
REMARK minimizedAffinity -0.872917175
REMARK minimizedRMSD -1
REMARK  0 active torsions:
REMARK  status: ('A' for Active; 'I' for Inactive)
ROOT
ATOM      1  C   UNL d   1       1.308  -1.266  -1.350  0.00  0.00     0.124 A 
ATOM      2  C1  UNL d   1       1.921  -1.311  -0.106  0.00  0.00     0.062 A 
ATOM      3  C2  UNL d   1       1.212  -0.956   1.037  0.00  0.00     0.162 A 
ATOM      4  C3  UNL d   1      -0.120  -0.554   0.942  0.00  0.00    -0.034 A 
ATOM      5  C4  UNL d   1      -0.730  -0.510  -0.313  0.00  0.00     0.162 A 
ATOM      6  C5  UNL d   1      -0.017  -0.866  -1.453  0.00  0.00     0.062 A 
ATOM      7  F   UNL d   1      -0.611  -0.821  -2.654  0.00  0.00    -0.097 F 
ATOM      8  F1  UNL d   1      -2.009  -0.128  -0.440  0.00  0.00    -0.096 F 
ATOM      9  I   UNL d   1      -1.185  -0.022   2.650  0.00  0.00    -0.060 I 
ATOM     10  F2  UNL d   1       1.830  -1.009   2.227  0.00  0.00    -0.096 F 
ATOM     11  F3  UNL d   1       3.202  -1.697  -0.005  0.00  0.00    -0.097 F 
ATOM     12  F4  UNL d   1       1.994  -1.607  -2.449  0.00  0.00    -0.092 F 
ENDROOT
TORSDOF 0
ENDMDL
