MODEL 1
REMARK minimizedAffinity -3.85931158
REMARK minimizedRMSD -1
REMARK  1 active torsions:
REMARK  status: ('A' for Active; 'I' for Inactive)
REMARK    1  A    between atoms: C3_4  and  O_7 
ROOT
ATOM      1  C   UNL d   1       1.891   0.120   1.154  0.00  0.00    -0.033 A 
ATOM      2  C1  UNL d   1       2.279  -0.450   2.368  0.00  0.00     0.039 A 
ATOM      3  C2  UNL d   1       1.329  -1.057   3.192  0.00  0.00    -0.080 A 
ATOM      4  C3  UNL d   1      -0.004  -1.086   2.791  0.00  0.00     0.150 A 
ATOM      5  C4  UNL d   1      -0.397  -0.523   1.581  0.00  0.00    -0.007 A 
ATOM      6  C5  UNL d   1       0.553   0.083   0.760  0.00  0.00     0.039 A 
ENDROOT
BRANCH   4   7
ATOM      7  O   UNL d   1      -0.968  -1.663   3.563  0.00  0.00    -0.526 OA
ATOM      8  H5  UNL d   1      -0.554  -1.984   4.382  0.00  0.00     0.418 HD
ENDBRANCH   4   7
TORSDOF 1
ENDMDL
