MODEL 1
REMARK minimizedAffinity -2.59894323
REMARK minimizedRMSD -1
REMARK  1 active torsions:
REMARK  status: ('A' for Active; 'I' for Inactive)
REMARK    1  A    between atoms: C3_4  and  O_7 
ROOT
ATOM      1  C   UNL d   1       2.788  -0.670   0.383  0.00  0.00    -0.033 A 
ATOM      2  C1  UNL d   1       2.400  -1.146  -0.872  0.00  0.00     0.039 A 
ATOM      3  C2  UNL d   1       1.153  -0.800  -1.396  0.00  0.00    -0.080 A 
ATOM      4  C3  UNL d   1       0.305   0.022  -0.657  0.00  0.00     0.150 A 
ATOM      5  C4  UNL d   1       0.688   0.502   0.591  0.00  0.00    -0.007 A 
ATOM      6  C5  UNL d   1       1.933   0.155   1.113  0.00  0.00     0.039 A 
ENDROOT
BRANCH   4   7
ATOM      7  O   UNL d   1      -0.923   0.382  -1.125  0.00  0.00    -0.526 OA
ATOM      8  H5  UNL d   1      -1.063  -0.047  -1.986  0.00  0.00     0.418 HD
ENDBRANCH   4   7
TORSDOF 1
ENDMDL
