MODEL 1
REMARK minimizedAffinity -2.0016923
REMARK minimizedRMSD -1
REMARK  1 active torsions:
REMARK  status: ('A' for Active; 'I' for Inactive)
REMARK    1  A    between atoms: C3_4  and  O_7 
ROOT
ATOM      1  C   UNL d   1       0.065   0.171  -0.017  0.00  0.00    -0.033 A 
ATOM      2  C1  UNL d   1      -1.246  -0.108   0.374  0.00  0.00     0.039 A 
ATOM      3  C2  UNL d   1      -1.487  -0.924   1.481  0.00  0.00    -0.080 A 
ATOM      4  C3  UNL d   1      -0.411  -1.452   2.188  0.00  0.00     0.150 A 
ATOM      5  C4  UNL d   1       0.898  -1.175   1.807  0.00  0.00    -0.007 A 
ATOM      6  C5  UNL d   1       1.137  -0.361   0.700  0.00  0.00     0.039 A 
ENDROOT
BRANCH   4   7
ATOM      7  O   UNL d   1      -0.597  -2.258   3.272  0.00  0.00    -0.526 OA
ATOM      8  H5  UNL d   1      -1.552  -2.385   3.401  0.00  0.00     0.418 HD
ENDBRANCH   4   7
TORSDOF 1
ENDMDL
