MODEL 1
REMARK minimizedAffinity 0.14955166
REMARK minimizedRMSD -1
REMARK  1 active torsions:
REMARK  status: ('A' for Active; 'I' for Inactive)
REMARK    1  A    between atoms: C3_4  and  O_7 
ROOT
ATOM      1  C   UNL d   1       2.341  -1.010   0.666  0.00  0.00    -0.033 A 
ATOM      2  C1  UNL d   1       2.298  -1.177  -0.719  0.00  0.00     0.039 A 
ATOM      3  C2  UNL d   1       1.173  -0.769  -1.439  0.00  0.00    -0.080 A 
ATOM      4  C3  UNL d   1       0.100  -0.196  -0.762  0.00  0.00     0.150 A 
ATOM      5  C4  UNL d   1       0.138  -0.023   0.618  0.00  0.00    -0.007 A 
ATOM      6  C5  UNL d   1       1.261  -0.432   1.335  0.00  0.00     0.039 A 
ENDROOT
BRANCH   4   7
ATOM      7  O   UNL d   1      -1.022   0.213  -1.421  0.00  0.00    -0.526 OA
ATOM      8  H5  UNL d   1      -0.918   0.005  -2.364  0.00  0.00     0.418 HD
ENDBRANCH   4   7
TORSDOF 1
ENDMDL
