MODEL 1
REMARK minimizedAffinity -2.94440913
REMARK minimizedRMSD -1
REMARK  1 active torsions:
REMARK  status: ('A' for Active; 'I' for Inactive)
REMARK    1  A    between atoms: C3_4  and  O_7 
ROOT
ATOM      1  C   UNL d   1       0.266  -0.641  -1.231  0.00  0.00    -0.033 A 
ATOM      2  C1  UNL d   1      -0.472  -0.016  -0.224  0.00  0.00     0.039 A 
ATOM      3  C2  UNL d   1       0.041   0.067   1.072  0.00  0.00    -0.080 A 
ATOM      4  C3  UNL d   1       1.293  -0.477   1.347  0.00  0.00     0.150 A 
ATOM      5  C4  UNL d   1       2.036  -1.097   0.347  0.00  0.00    -0.007 A 
ATOM      6  C5  UNL d   1       1.521  -1.180  -0.946  0.00  0.00     0.039 A 
ENDROOT
BRANCH   4   7
ATOM      7  O   UNL d   1       1.834  -0.424   2.597  0.00  0.00    -0.526 OA
ATOM      8  H5  UNL d   1       1.197   0.007   3.190  0.00  0.00     0.418 HD
ENDBRANCH   4   7
TORSDOF 1
ENDMDL
