MODEL 1
REMARK minimizedAffinity -3.71492743
REMARK minimizedRMSD -1
REMARK  1 active torsions:
REMARK  status: ('A' for Active; 'I' for Inactive)
REMARK    1  A    between atoms: C3_4  and  O_7 
ROOT
ATOM      1  C   UNL d   1      -0.914  -0.086   0.225  0.00  0.00    -0.033 A 
ATOM      2  C1  UNL d   1       0.440   0.216   0.071  0.00  0.00     0.039 A 
ATOM      3  C2  UNL d   1       1.311   0.096   1.156  0.00  0.00    -0.080 A 
ATOM      4  C3  UNL d   1       0.816  -0.327   2.386  0.00  0.00     0.150 A 
ATOM      5  C4  UNL d   1      -0.531  -0.633   2.545  0.00  0.00    -0.007 A 
ATOM      6  C5  UNL d   1      -1.400  -0.512   1.461  0.00  0.00     0.039 A 
ENDROOT
BRANCH   4   7
ATOM      7  O   UNL d   1       1.627  -0.454   3.475  0.00  0.00    -0.526 OA
ATOM      8  H5  UNL d   1       2.525  -0.181   3.223  0.00  0.00     0.418 HD
ENDBRANCH   4   7
TORSDOF 1
ENDMDL
