MODEL 1
REMARK minimizedAffinity 6.48825359
REMARK minimizedRMSD -1
REMARK  3 active torsions:
REMARK  status: ('A' for Active; 'I' for Inactive)
REMARK    1  A    between atoms: C3'_2  and  C2'_3 
REMARK    2  A    between atoms: C2'_3  and  C1'_4 
REMARK    3  A    between atoms: C1'_4  and  C1_5 
ROOT
ATOM      1  C1  N4B d   1      -1.809   3.623  -5.955  0.00  0.00    -0.075 A 
ATOM      2  C2  N4B d   1      -3.221   3.606  -5.967  0.00  0.00     0.002 A 
ATOM      3  C3  N4B d   1      -3.922   4.788  -5.974  0.00  0.00     0.002 A 
ATOM      4  C4  N4B d   1      -3.235   5.992  -5.949  0.00  0.00    -0.004 A 
ATOM      5  C5  N4B d   1      -1.871   6.000  -5.963  0.00  0.00     0.002 A 
ATOM      6  C6  N4B d   1      -1.154   4.820  -5.960  0.00  0.00     0.002 A 
ENDROOT
BRANCH   1   7
ATOM      7  C1' N4B d   1      -1.001   2.358  -5.860  0.00  0.00     0.057 C 
BRANCH   7   8
ATOM      8  C2' N4B d   1       0.321   2.659  -5.161  0.00  0.00     0.009 C 
BRANCH   8   9
ATOM      9  C3' N4B d   1       1.516   2.230  -5.994  0.00  0.00     0.004 C 
ATOM     10  C4' N4B d   1       2.711   3.114  -5.795  0.00  0.00     0.003 C 
ENDBRANCH   8   9
ENDBRANCH   7   8
ENDBRANCH   1   7
TORSDOF 3
ENDMDL
