MODEL 1
REMARK minimizedAffinity 2.41630006
REMARK minimizedRMSD -1
REMARK  3 active torsions:
REMARK  status: ('A' for Active; 'I' for Inactive)
REMARK    1  A    between atoms: C3'_2  and  C2'_3 
REMARK    2  A    between atoms: C2'_3  and  C1'_4 
REMARK    3  A    between atoms: C1'_4  and  C1_5 
ROOT
ATOM      1  C1  N4B d   1      -2.955   3.822  -5.936  0.00  0.00    -0.075 A 
ATOM      2  C2  N4B d   1      -2.863   5.231  -5.967  0.00  0.00     0.002 A 
ATOM      3  C3  N4B d   1      -4.005   5.994  -5.988  0.00  0.00     0.002 A 
ATOM      4  C4  N4B d   1      -5.244   5.372  -5.999  0.00  0.00    -0.004 A 
ATOM      5  C5  N4B d   1      -5.325   4.012  -5.944  0.00  0.00     0.002 A 
ATOM      6  C6  N4B d   1      -4.186   3.233  -5.918  0.00  0.00     0.002 A 
ENDROOT
BRANCH   1   7
ATOM      7  C1' N4B d   1      -1.735   2.945  -5.999  0.00  0.00     0.057 C 
BRANCH   7   8
ATOM      8  C2' N4B d   1      -0.736   3.400  -4.939  0.00  0.00     0.009 C 
BRANCH   8   9
ATOM      9  C3' N4B d   1      -1.373   3.498  -3.563  0.00  0.00     0.004 C 
ATOM     10  C4' N4B d   1      -0.420   3.158  -2.456  0.00  0.00     0.003 C 
ENDBRANCH   8   9
ENDBRANCH   7   8
ENDBRANCH   1   7
TORSDOF 3
ENDMDL
