MODEL 1
REMARK minimizedAffinity 7.51004696
REMARK minimizedRMSD -1
REMARK  3 active torsions:
REMARK  status: ('A' for Active; 'I' for Inactive)
REMARK    1  A    between atoms: C3'_2  and  C2'_3 
REMARK    2  A    between atoms: C2'_3  and  C1'_4 
REMARK    3  A    between atoms: C1'_4  and  C1_5 
ROOT
ATOM      1  C1  N4B d   1      -0.031   1.165   0.369  0.00  0.00    -0.075 A 
ATOM      2  C2  N4B d   1      -0.766  -0.012   0.633  0.00  0.00     0.002 A 
ATOM      3  C3  N4B d   1      -2.130   0.049   0.781  0.00  0.00     0.002 A 
ATOM      4  C4  N4B d   1      -2.776   1.273   0.690  0.00  0.00    -0.004 A 
ATOM      5  C5  N4B d   1      -2.062   2.401   0.410  0.00  0.00     0.002 A 
ATOM      6  C6  N4B d   1      -0.691   2.354   0.254  0.00  0.00     0.002 A 
ENDROOT
BRANCH   1   7
ATOM      7  C1' N4B d   1       1.471   1.162   0.285  0.00  0.00     0.057 C 
BRANCH   7   8
ATOM      8  C2' N4B d   1       1.925  -0.059  -0.511  0.00  0.00     0.009 C 
BRANCH   8   9
ATOM      9  C3' N4B d   1       2.637   0.333  -1.794  0.00  0.00     0.004 C 
ATOM     10  C4' N4B d   1       2.948  -0.845  -2.669  0.00  0.00     0.003 C 
ENDBRANCH   8   9
ENDBRANCH   7   8
ENDBRANCH   1   7
TORSDOF 3
ENDMDL
