MODEL 1
REMARK minimizedAffinity 6.80232048
REMARK minimizedRMSD -1
REMARK  3 active torsions:
REMARK  status: ('A' for Active; 'I' for Inactive)
REMARK    1  A    between atoms: C3'_2  and  C2'_3 
REMARK    2  A    between atoms: C2'_3  and  C1'_4 
REMARK    3  A    between atoms: C1'_4  and  C1_5 
ROOT
ATOM      1  C1  N4B d   1      -1.664   3.510  -5.922  0.00  0.00    -0.075 A 
ATOM      2  C2  N4B d   1      -1.216   4.847  -5.992  0.00  0.00     0.002 A 
ATOM      3  C3  N4B d   1      -2.125   5.877  -6.000  0.00  0.00     0.002 A 
ATOM      4  C4  N4B d   1      -3.482   5.593  -5.956  0.00  0.00    -0.004 A 
ATOM      5  C5  N4B d   1      -3.906   4.300  -5.862  0.00  0.00     0.002 A 
ATOM      6  C6  N4B d   1      -3.003   3.256  -5.850  0.00  0.00     0.002 A 
ENDROOT
BRANCH   1   7
ATOM      7  C1' N4B d   1      -0.711   2.348  -5.997  0.00  0.00     0.057 C 
BRANCH   7   8
ATOM      8  C2' N4B d   1       0.720   2.868  -5.909  0.00  0.00     0.009 C 
BRANCH   8   9
ATOM      9  C3' N4B d   1       1.343   2.593  -4.551  0.00  0.00     0.004 C 
ATOM     10  C4' N4B d   1       2.097   1.297  -4.510  0.00  0.00     0.003 C 
ENDBRANCH   8   9
ENDBRANCH   7   8
ENDBRANCH   1   7
TORSDOF 3
ENDMDL
