MODEL 1
REMARK minimizedAffinity 9.604496
REMARK minimizedRMSD -1
REMARK  3 active torsions:
REMARK  status: ('A' for Active; 'I' for Inactive)
REMARK    1  A    between atoms: C3'_2  and  C2'_3 
REMARK    2  A    between atoms: C2'_3  and  C1'_4 
REMARK    3  A    between atoms: C1'_4  and  C1_5 
ROOT
ATOM      1  C1  N4B d   1      -1.756  -2.921  -0.896  0.00  0.00    -0.075 A 
ATOM      2  C2  N4B d   1      -0.773  -3.201  -1.871  0.00  0.00     0.002 A 
ATOM      3  C3  N4B d   1      -0.499  -4.502  -2.216  0.00  0.00     0.002 A 
ATOM      4  C4  N4B d   1      -1.177  -5.535  -1.588  0.00  0.00    -0.004 A 
ATOM      5  C5  N4B d   1      -2.142  -5.256  -0.665  0.00  0.00     0.002 A 
ATOM      6  C6  N4B d   1      -2.432  -3.953  -0.312  0.00  0.00     0.002 A 
ENDROOT
BRANCH   1   7
ATOM      7  C1' N4B d   1      -2.030  -1.520  -0.424  0.00  0.00     0.057 C 
BRANCH   7   8
ATOM      8  C2' N4B d   1      -1.035  -1.157   0.675  0.00  0.00     0.009 C 
BRANCH   8   9
ATOM      9  C3' N4B d   1      -0.746   0.334   0.710  0.00  0.00     0.004 C 
ATOM     10  C4' N4B d   1       0.684   0.656   0.395  0.00  0.00     0.003 C 
ENDBRANCH   8   9
ENDBRANCH   7   8
ENDBRANCH   1   7
TORSDOF 3
ENDMDL
