MODEL 1
REMARK minimizedAffinity 14.2555552
REMARK minimizedRMSD -1
REMARK  3 active torsions:
REMARK  status: ('A' for Active; 'I' for Inactive)
REMARK    1  A    between atoms: C3'_2  and  C2'_3 
REMARK    2  A    between atoms: C2'_3  and  C1'_4 
REMARK    3  A    between atoms: C1'_4  and  C1_5 
ROOT
ATOM      1  C1  N4B d   1      -1.239   1.155   0.349  0.00  0.00    -0.075 A 
ATOM      2  C2  N4B d   1      -0.835   2.307  -0.361  0.00  0.00     0.002 A 
ATOM      3  C3  N4B d   1       0.428   2.376  -0.897  0.00  0.00     0.002 A 
ATOM      4  C4  N4B d   1       1.306   1.317  -0.720  0.00  0.00    -0.004 A 
ATOM      5  C5  N4B d   1       0.899   0.197  -0.056  0.00  0.00     0.002 A 
ATOM      6  C6  N4B d   1      -0.368   0.113   0.485  0.00  0.00     0.002 A 
ENDROOT
BRANCH   1   7
ATOM      7  C1' N4B d   1      -2.579   1.069   1.026  0.00  0.00     0.057 C 
BRANCH   7   8
ATOM      8  C2' N4B d   1      -2.837   2.364   1.792  0.00  0.00     0.009 C 
BRANCH   8   9
ATOM      9  C3' N4B d   1      -2.262   2.318   3.197  0.00  0.00     0.004 C 
ATOM     10  C4' N4B d   1      -2.748   3.443   4.061  0.00  0.00     0.003 C 
ENDBRANCH   8   9
ENDBRANCH   7   8
ENDBRANCH   1   7
TORSDOF 3
ENDMDL
