MODEL 1
REMARK minimizedAffinity 6.0718689
REMARK minimizedRMSD -1
REMARK  3 active torsions:
REMARK  status: ('A' for Active; 'I' for Inactive)
REMARK    1  A    between atoms: C3'_2  and  C2'_3 
REMARK    2  A    between atoms: C2'_3  and  C1'_4 
REMARK    3  A    between atoms: C1'_4  and  C1_5 
ROOT
ATOM      1  C1  N4B d   1      -0.945   3.843  -5.932  0.00  0.00    -0.075 A 
ATOM      2  C2  N4B d   1      -1.493   5.144  -5.982  0.00  0.00     0.002 A 
ATOM      3  C3  N4B d   1      -2.855   5.314  -5.999  0.00  0.00     0.002 A 
ATOM      4  C4  N4B d   1      -3.686   4.204  -5.985  0.00  0.00    -0.004 A 
ATOM      5  C5  N4B d   1      -3.150   2.952  -5.911  0.00  0.00     0.002 A 
ATOM      6  C6  N4B d   1      -1.782   2.765  -5.889  0.00  0.00     0.002 A 
ENDROOT
BRANCH   1   7
ATOM      7  C1' N4B d   1       0.538   3.603  -5.998  0.00  0.00     0.057 C 
BRANCH   7   8
ATOM      8  C2' N4B d   1       1.046   3.220  -4.611  0.00  0.00     0.009 C 
BRANCH   8   9
ATOM      9  C3' N4B d   1      -0.085   3.104  -3.604  0.00  0.00     0.004 C 
ATOM     10  C4' N4B d   1      -0.637   4.437  -3.195  0.00  0.00     0.003 C 
ENDBRANCH   8   9
ENDBRANCH   7   8
ENDBRANCH   1   7
TORSDOF 3
ENDMDL
