MODEL 1
REMARK minimizedAffinity 1.43222439
REMARK minimizedRMSD -1
REMARK  3 active torsions:
REMARK  status: ('A' for Active; 'I' for Inactive)
REMARK    1  A    between atoms: C3'_2  and  C2'_3 
REMARK    2  A    between atoms: C2'_3  and  C1'_4 
REMARK    3  A    between atoms: C1'_4  and  C1_5 
ROOT
ATOM      1  C1  N4B d   1       0.203   3.574  -5.989  0.00  0.00    -0.075 A 
ATOM      2  C2  N4B d   1      -0.420   2.307  -5.998  0.00  0.00     0.002 A 
ATOM      3  C3  N4B d   1      -1.790   2.214  -5.999  0.00  0.00     0.002 A 
ATOM      4  C4  N4B d   1      -2.555   3.371  -5.972  0.00  0.00    -0.004 A 
ATOM      5  C5  N4B d   1      -1.947   4.591  -5.989  0.00  0.00     0.002 A 
ATOM      6  C6  N4B d   1      -0.570   4.699  -5.993  0.00  0.00     0.002 A 
ENDROOT
BRANCH   1   7
ATOM      7  C1' N4B d   1       1.697   3.725  -5.902  0.00  0.00     0.057 C 
BRANCH   7   8
ATOM      8  C2' N4B d   1       2.050   5.209  -5.888  0.00  0.00     0.009 C 
BRANCH   8   9
ATOM      9  C3' N4B d   1       3.550   5.437  -5.968  0.00  0.00     0.004 C 
ATOM     10  C4' N4B d   1       4.273   4.983  -4.735  0.00  0.00     0.003 C 
ENDBRANCH   8   9
ENDBRANCH   7   8
ENDBRANCH   1   7
TORSDOF 3
ENDMDL
