MODEL 1
REMARK minimizedAffinity 11.7610064
REMARK minimizedRMSD -1
REMARK  3 active torsions:
REMARK  status: ('A' for Active; 'I' for Inactive)
REMARK    1  A    between atoms: C3'_2  and  C2'_3 
REMARK    2  A    between atoms: C2'_3  and  C1'_4 
REMARK    3  A    between atoms: C1'_4  and  C1_5 
ROOT
ATOM      1  C1  N4B d   1      -0.706   3.404  -5.913  0.00  0.00    -0.075 A 
ATOM      2  C2  N4B d   1      -1.497   4.574  -5.915  0.00  0.00     0.002 A 
ATOM      3  C3  N4B d   1      -2.866   4.477  -5.946  0.00  0.00     0.002 A 
ATOM      4  C4  N4B d   1      -3.464   3.226  -5.994  0.00  0.00    -0.004 A 
ATOM      5  C5  N4B d   1      -2.693   2.101  -5.966  0.00  0.00     0.002 A 
ATOM      6  C6  N4B d   1      -1.316   2.184  -5.932  0.00  0.00     0.002 A 
ENDROOT
BRANCH   1   7
ATOM      7  C1' N4B d   1       0.797   3.461  -5.967  0.00  0.00     0.057 C 
BRANCH   7   8
ATOM      8  C2' N4B d   1       1.349   3.456  -4.545  0.00  0.00     0.009 C 
BRANCH   8   9
ATOM      9  C3' N4B d   1       0.388   2.807  -3.564  0.00  0.00     0.004 C 
ATOM     10  C4' N4B d   1       0.118   3.662  -2.363  0.00  0.00     0.003 C 
ENDBRANCH   8   9
ENDBRANCH   7   8
ENDBRANCH   1   7
TORSDOF 3
ENDMDL
