MODEL 1
REMARK minimizedAffinity 8.40738869
REMARK minimizedRMSD -1
REMARK  0 active torsions:
REMARK  status: ('A' for Active; 'I' for Inactive)
ROOT
ATOM      1  N1  IND d   1       0.689   3.420   0.265  0.00  0.00    -0.196 N 
ATOM      2  C2  IND d   1      -0.417   3.114  -0.477  0.00  0.00     0.054 A 
ATOM      3  C3  IND d   1      -1.172   2.193   0.161  0.00  0.00    -0.031 A 
ATOM      4  C4  IND d   1      -0.835   1.123   2.479  0.00  0.00     0.051 A 
ATOM      5  C5  IND d   1       0.051   1.061   3.518  0.00  0.00    -0.031 A 
ATOM      6  C6  IND d   1       1.217   1.798   3.527  0.00  0.00     0.015 A 
ATOM      7  C7  IND d   1       1.537   2.638   2.498  0.00  0.00    -0.016 A 
ATOM      8  C8  IND d   1       0.643   2.699   1.438  0.00  0.00    -0.047 A 
ATOM      9  C9  IND d   1      -0.521   1.921   1.404  0.00  0.00    -0.096 A 
ATOM     10  HN1 IND d   1       1.310   3.970   0.037  0.00  0.00     0.298 HD
ENDROOT
TORSDOF 0
ENDMDL
