MODEL 1
REMARK minimizedAffinity 13.9880142
REMARK minimizedRMSD -1
REMARK  0 active torsions:
REMARK  status: ('A' for Active; 'I' for Inactive)
ROOT
ATOM      1  N1  IND d   1       3.405  -1.220   0.025  0.00  0.00    -0.196 N 
ATOM      2  C2  IND d   1       2.510  -1.800   0.880  0.00  0.00     0.054 A 
ATOM      3  C3  IND d   1       2.748  -3.127   0.981  0.00  0.00    -0.031 A 
ATOM      4  C4  IND d   1       4.615  -4.540  -0.089  0.00  0.00     0.051 A 
ATOM      5  C5  IND d   1       5.650  -4.462  -0.977  0.00  0.00    -0.031 A 
ATOM      6  C6  IND d   1       5.999  -3.274  -1.587  0.00  0.00     0.015 A 
ATOM      7  C7  IND d   1       5.330  -2.113  -1.321  0.00  0.00    -0.016 A 
ATOM      8  C8  IND d   1       4.273  -2.191  -0.425  0.00  0.00    -0.047 A 
ATOM      9  C9  IND d   1       3.887  -3.402   0.164  0.00  0.00    -0.096 A 
ATOM     10  HN1 IND d   1       3.422  -0.389  -0.195  0.00  0.00     0.298 HD
ENDROOT
TORSDOF 0
ENDMDL
