MODEL 1
REMARK minimizedAffinity 9.58923721
REMARK minimizedRMSD -1
REMARK  0 active torsions:
REMARK  status: ('A' for Active; 'I' for Inactive)
ROOT
ATOM      1  N1  IND d   1      -4.027   0.664  -1.924  0.00  0.00    -0.196 N 
ATOM      2  C2  IND d   1      -3.569  -0.484  -1.340  0.00  0.00     0.054 A 
ATOM      3  C3  IND d   1      -2.295  -0.322  -0.917  0.00  0.00    -0.031 A 
ATOM      4  C4  IND d   1      -0.803   1.775  -0.991  0.00  0.00     0.051 A 
ATOM      5  C5  IND d   1      -0.769   3.057  -1.464  0.00  0.00    -0.031 A 
ATOM      6  C6  IND d   1      -1.842   3.619  -2.125  0.00  0.00     0.015 A 
ATOM      7  C7  IND d   1      -2.998   2.920  -2.329  0.00  0.00    -0.016 A 
ATOM      8  C8  IND d   1      -3.034   1.616  -1.857  0.00  0.00    -0.047 A 
ATOM      9  C9  IND d   1      -1.932   1.026  -1.223  0.00  0.00    -0.096 A 
ATOM     10  HN1 IND d   1      -4.804   0.773  -2.275  0.00  0.00     0.298 HD
ENDROOT
TORSDOF 0
ENDMDL
