MODEL 1
REMARK minimizedAffinity 7.7418642
REMARK minimizedRMSD -1
REMARK  0 active torsions:
REMARK  status: ('A' for Active; 'I' for Inactive)
ROOT
ATOM      1  N1  IND d   1       0.419   2.228  -0.556  0.00  0.00    -0.196 N 
ATOM      2  C2  IND d   1      -0.380   3.303  -0.285  0.00  0.00     0.054 A 
ATOM      3  C3  IND d   1      -1.683   2.965  -0.409  0.00  0.00    -0.031 A 
ATOM      4  C4  IND d   1      -2.735   0.677  -0.947  0.00  0.00     0.051 A 
ATOM      5  C5  IND d   1      -2.409  -0.600  -1.307  0.00  0.00    -0.031 A 
ATOM      6  C6  IND d   1      -1.097  -1.009  -1.435  0.00  0.00     0.015 A 
ATOM      7  C7  IND d   1      -0.058  -0.155  -1.195  0.00  0.00    -0.016 A 
ATOM      8  C8  IND d   1      -0.385   1.145  -0.836  0.00  0.00    -0.047 A 
ATOM      9  C9  IND d   1      -1.714   1.577  -0.746  0.00  0.00    -0.096 A 
ATOM     10  HN1 IND d   1       1.278   2.228  -0.551  0.00  0.00     0.298 HD
ENDROOT
TORSDOF 0
ENDMDL
