MODEL 1
REMARK minimizedAffinity 12.9398003
REMARK minimizedRMSD -1
REMARK  0 active torsions:
REMARK  status: ('A' for Active; 'I' for Inactive)
ROOT
ATOM      1  N1  IND d   1      -2.833  -2.119  -1.309  0.00  0.00    -0.196 N 
ATOM      2  C2  IND d   1      -1.848  -2.013  -2.251  0.00  0.00     0.054 A 
ATOM      3  C3  IND d   1      -1.755  -0.739  -2.693  0.00  0.00    -0.031 A 
ATOM      4  C4  IND d   1      -3.050   1.354  -1.936  0.00  0.00     0.051 A 
ATOM      5  C5  IND d   1      -4.077   1.750  -1.127  0.00  0.00    -0.031 A 
ATOM      6  C6  IND d   1      -4.754   0.860  -0.318  0.00  0.00     0.015 A 
ATOM      7  C7  IND d   1      -4.420  -0.464  -0.281  0.00  0.00    -0.016 A 
ATOM      8  C8  IND d   1      -3.382  -0.872  -1.107  0.00  0.00    -0.047 A 
ATOM      9  C9  IND d   1      -2.719   0.019  -1.961  0.00  0.00    -0.096 A 
ATOM     10  HN1 IND d   1      -3.070  -2.843  -0.911  0.00  0.00     0.298 HD
ENDROOT
TORSDOF 0
ENDMDL
