MODEL 1
REMARK minimizedAffinity 16.1494179
REMARK minimizedRMSD -1
REMARK  0 active torsions:
REMARK  status: ('A' for Active; 'I' for Inactive)
ROOT
ATOM      1  N1  IND d   1       0.429   0.104  -1.373  0.00  0.00    -0.196 N 
ATOM      2  C2  IND d   1       0.834  -1.121  -1.825  0.00  0.00     0.054 A 
ATOM      3  C3  IND d   1      -0.236  -1.915  -2.054  0.00  0.00    -0.031 A 
ATOM      4  C4  IND d   1      -2.746  -1.375  -1.855  0.00  0.00     0.051 A 
ATOM      5  C5  IND d   1      -3.608  -0.397  -1.446  0.00  0.00    -0.031 A 
ATOM      6  C6  IND d   1      -3.159   0.824  -0.985  0.00  0.00     0.015 A 
ATOM      7  C7  IND d   1      -1.826   1.118  -0.926  0.00  0.00    -0.016 A 
ATOM      8  C8  IND d   1      -0.948   0.124  -1.334  0.00  0.00    -0.047 A 
ATOM      9  C9  IND d   1      -1.395  -1.132  -1.763  0.00  0.00    -0.096 A 
ATOM     10  HN1 IND d   1       0.947   0.753  -1.151  0.00  0.00     0.298 HD
ENDROOT
TORSDOF 0
ENDMDL
