MODEL 1
REMARK minimizedAffinity 14.0664511
REMARK minimizedRMSD -1
REMARK  0 active torsions:
REMARK  status: ('A' for Active; 'I' for Inactive)
ROOT
ATOM      1  N1  IND d   1       0.853   0.240  -1.635  0.00  0.00    -0.196 N 
ATOM      2  C2  IND d   1       0.942  -0.993  -2.218  0.00  0.00     0.054 A 
ATOM      3  C3  IND d   1      -0.276  -1.578  -2.272  0.00  0.00    -0.031 A 
ATOM      4  C4  IND d   1      -2.567  -0.652  -1.553  0.00  0.00     0.051 A 
ATOM      5  C5  IND d   1      -3.151   0.417  -0.933  0.00  0.00    -0.031 A 
ATOM      6  C6  IND d   1      -2.415   1.504  -0.508  0.00  0.00     0.015 A 
ATOM      7  C7  IND d   1      -1.064   1.569  -0.700  0.00  0.00    -0.016 A 
ATOM      8  C8  IND d   1      -0.467   0.482  -1.323  0.00  0.00    -0.047 A 
ATOM      9  C9  IND d   1      -1.203  -0.643  -1.718  0.00  0.00    -0.096 A 
ATOM     10  HN1 IND d   1       1.510   0.774  -1.487  0.00  0.00     0.298 HD
ENDROOT
TORSDOF 0
ENDMDL
