MODEL 1
REMARK minimizedAffinity 13.0540428
REMARK minimizedRMSD -1
REMARK  0 active torsions:
REMARK  status: ('A' for Active; 'I' for Inactive)
ROOT
ATOM      1  N1  IND d   1       0.202   3.266   2.850  0.00  0.00    -0.196 N 
ATOM      2  C2  IND d   1      -0.371   2.133   3.356  0.00  0.00     0.054 A 
ATOM      3  C3  IND d   1      -0.951   1.417   2.367  0.00  0.00    -0.031 A 
ATOM      4  C4  IND d   1      -0.993   1.865  -0.168  0.00  0.00     0.051 A 
ATOM      5  C5  IND d   1      -0.635   2.795  -1.103  0.00  0.00    -0.031 A 
ATOM      6  C6  IND d   1       0.036   3.951  -0.762  0.00  0.00     0.015 A 
ATOM      7  C7  IND d   1       0.386   4.217   0.531  0.00  0.00    -0.016 A 
ATOM      8  C8  IND d   1       0.018   3.278   1.485  0.00  0.00    -0.047 A 
ATOM      9  C9  IND d   1      -0.701   2.123   1.151  0.00  0.00    -0.096 A 
ATOM     10  HN1 IND d   1       0.609   3.870   3.308  0.00  0.00     0.298 HD
ENDROOT
TORSDOF 0
ENDMDL
