MODEL 1
REMARK minimizedAffinity 3.41772699
REMARK minimizedRMSD -1
REMARK  0 active torsions:
REMARK  status: ('A' for Active; 'I' for Inactive)
ROOT
ATOM      1  N1  IND d   1      -5.990  -5.012   6.000  0.00  0.00    -0.196 N 
ATOM      2  C2  IND d   1      -5.065  -5.965   5.674  0.00  0.00     0.054 A 
ATOM      3  C3  IND d   1      -3.947  -5.387   5.181  0.00  0.00    -0.031 A 
ATOM      4  C4  IND d   1      -3.379  -2.890   4.914  0.00  0.00     0.051 A 
ATOM      5  C5  IND d   1      -3.922  -1.642   5.042  0.00  0.00    -0.031 A 
ATOM      6  C6  IND d   1      -5.206  -1.450   5.507  0.00  0.00     0.015 A 
ATOM      7  C7  IND d   1      -5.996  -2.503   5.875  0.00  0.00    -0.016 A 
ATOM      8  C8  IND d   1      -5.451  -3.772   5.740  0.00  0.00    -0.047 A 
ATOM      9  C9  IND d   1      -4.163  -3.975   5.228  0.00  0.00    -0.096 A 
ATOM     10  HN1 IND d   1      -6.776  -5.163   6.314  0.00  0.00     0.298 HD
ENDROOT
TORSDOF 0
ENDMDL
