MODEL 1
REMARK minimizedAffinity -2.46075392
REMARK minimizedRMSD -1
REMARK  0 active torsions:
REMARK  status: ('A' for Active; 'I' for Inactive)
ROOT
ATOM      1  C   UNL d   1       1.399   2.092  -0.254  0.00  0.00     0.020 A 
ATOM      2  C1  UNL d   1       2.182   1.153   0.417  0.00  0.00     0.020 A 
ATOM      3  C2  UNL d   1       1.627  -0.066   0.810  0.00  0.00     0.034 A 
ATOM      4  C3  UNL d   1       0.285  -0.351   0.532  0.00  0.00     0.017 A 
ATOM      5  C4  UNL d   1      -0.500   0.591  -0.142  0.00  0.00     0.017 A 
ATOM      6  C5  UNL d   1       0.061   1.811  -0.533  0.00  0.00     0.034 A 
ATOM      7 Cl   UNL d   1      -2.163   0.311  -0.520  0.00  0.00    -0.070 Cl
ATOM      8 Cl1  UNL d   1      -0.335  -1.880   1.047  0.00  0.00    -0.070 Cl
ENDROOT
TORSDOF 0
ENDMDL
