MODEL 1
REMARK minimizedAffinity 1.55930018
REMARK minimizedRMSD -1
REMARK  0 active torsions:
REMARK  status: ('A' for Active; 'I' for Inactive)
ROOT
ATOM      1  C   UNL d   1      -0.998   1.060  -0.728  0.00  0.00     0.020 A 
ATOM      2  C1  UNL d   1       0.084   1.933  -0.615  0.00  0.00     0.020 A 
ATOM      3  C2  UNL d   1       1.245   1.523   0.043  0.00  0.00     0.034 A 
ATOM      4  C3  UNL d   1       1.328   0.238   0.591  0.00  0.00     0.017 A 
ATOM      5  C4  UNL d   1       0.242  -0.637   0.478  0.00  0.00     0.017 A 
ATOM      6  C5  UNL d   1      -0.919  -0.222  -0.183  0.00  0.00     0.034 A 
ATOM      7 Cl   UNL d   1       0.269  -2.238   1.128  0.00  0.00    -0.070 Cl
ATOM      8 Cl1  UNL d   1       2.795  -0.201   1.392  0.00  0.00    -0.070 Cl
ENDROOT
TORSDOF 0
ENDMDL
