MODEL 1
REMARK minimizedAffinity -2.76793289
REMARK minimizedRMSD -1
REMARK  0 active torsions:
REMARK  status: ('A' for Active; 'I' for Inactive)
ROOT
ATOM      1  C   UNL d   1       2.428   1.219   0.568  0.00  0.00     0.020 A 
ATOM      2  C1  UNL d   1       1.288   1.709  -0.068  0.00  0.00     0.020 A 
ATOM      3  C2  UNL d   1       0.081   1.014   0.029  0.00  0.00     0.034 A 
ATOM      4  C3  UNL d   1       0.011  -0.175   0.764  0.00  0.00     0.017 A 
ATOM      5  C4  UNL d   1       1.156  -0.666   1.403  0.00  0.00     0.017 A 
ATOM      6  C5  UNL d   1       2.362   0.034   1.302  0.00  0.00     0.034 A 
ATOM      7 Cl   UNL d   1       1.147  -2.127   2.327  0.00  0.00    -0.070 Cl
ATOM      8 Cl1  UNL d   1      -1.515  -0.982   0.843  0.00  0.00    -0.070 Cl
ENDROOT
TORSDOF 0
ENDMDL
