MODEL 1
REMARK minimizedAffinity -5.59627485
REMARK minimizedRMSD -1
REMARK  0 active torsions:
REMARK  status: ('A' for Active; 'I' for Inactive)
ROOT
ATOM      1  C   UNL d   1       1.447  -2.302   1.898  0.00  0.00     0.020 A 
ATOM      2  C1  UNL d   1       2.644  -1.586   1.870  0.00  0.00     0.020 A 
ATOM      3  C2  UNL d   1       2.741  -0.418   1.112  0.00  0.00     0.034 A 
ATOM      4  C3  UNL d   1       1.640   0.038   0.378  0.00  0.00     0.017 A 
ATOM      5  C4  UNL d   1       0.440  -0.680   0.406  0.00  0.00     0.017 A 
ATOM      6  C5  UNL d   1       0.348  -1.850   1.168  0.00  0.00     0.034 A 
ATOM      7 Cl   UNL d   1      -0.961  -0.180  -0.473  0.00  0.00    -0.070 Cl
ATOM      8 Cl1  UNL d   1       1.832   1.491  -0.538  0.00  0.00    -0.070 Cl
ENDROOT
TORSDOF 0
ENDMDL
