MODEL 1
REMARK minimizedAffinity -4.9917593
REMARK minimizedRMSD -1
REMARK  0 active torsions:
REMARK  status: ('A' for Active; 'I' for Inactive)
ROOT
ATOM      1  C   UNL d   1       2.912  -1.113   1.500  0.00  0.00     0.020 A 
ATOM      2  C1  UNL d   1       2.840   0.068   0.762  0.00  0.00     0.020 A 
ATOM      3  C2  UNL d   1       1.632   0.452   0.176  0.00  0.00     0.034 A 
ATOM      4  C3  UNL d   1       0.491  -0.344   0.327  0.00  0.00     0.017 A 
ATOM      5  C4  UNL d   1       0.564  -1.529   1.068  0.00  0.00     0.017 A 
ATOM      6  C5  UNL d   1       1.776  -1.910   1.653  0.00  0.00     0.034 A 
ATOM      7 Cl   UNL d   1      -0.801  -2.564   1.299  0.00  0.00    -0.070 Cl
ATOM      8 Cl1  UNL d   1      -0.969   0.193  -0.425  0.00  0.00    -0.070 Cl
ENDROOT
TORSDOF 0
ENDMDL
