MODEL 1
REMARK minimizedAffinity -5.5896697
REMARK minimizedRMSD -1
REMARK  0 active torsions:
REMARK  status: ('A' for Active; 'I' for Inactive)
ROOT
ATOM      1  C   UNL d   1       3.396  -1.069   1.434  0.00  0.00     0.020 A 
ATOM      2  C1  UNL d   1       2.340  -1.883   1.842  0.00  0.00     0.020 A 
ATOM      3  C2  UNL d   1       1.030  -1.562   1.481  0.00  0.00     0.034 A 
ATOM      4  C3  UNL d   1       0.772  -0.423   0.710  0.00  0.00     0.017 A 
ATOM      5  C4  UNL d   1       1.833   0.394   0.301  0.00  0.00     0.017 A 
ATOM      6  C5  UNL d   1       3.142   0.067   0.665  0.00  0.00     0.034 A 
ATOM      7 Cl   UNL d   1       1.593   1.816  -0.653  0.00  0.00    -0.070 Cl
ATOM      8 Cl1  UNL d   1      -0.872  -0.085   0.299  0.00  0.00    -0.070 Cl
ENDROOT
TORSDOF 0
ENDMDL
