MODEL 1
REMARK minimizedAffinity -2.05270314
REMARK minimizedRMSD -1
REMARK  0 active torsions:
REMARK  status: ('A' for Active; 'I' for Inactive)
ROOT
ATOM      1  C   UNL d   1       1.283   2.035   0.399  0.00  0.00     0.020 A 
ATOM      2  C1  UNL d   1       2.183   1.161   1.008  0.00  0.00     0.020 A 
ATOM      3  C2  UNL d   1       1.795  -0.148   1.301  0.00  0.00     0.034 A 
ATOM      4  C3  UNL d   1       0.505  -0.588   0.984  0.00  0.00     0.017 A 
ATOM      5  C4  UNL d   1      -0.397   0.289   0.372  0.00  0.00     0.017 A 
ATOM      6  C5  UNL d   1      -0.004   1.599   0.081  0.00  0.00     0.034 A 
ATOM      7 Cl   UNL d   1      -2.006  -0.181  -0.050  0.00  0.00    -0.070 Cl
ATOM      8 Cl1  UNL d   1       0.094  -2.220   1.374  0.00  0.00    -0.070 Cl
ENDROOT
TORSDOF 0
ENDMDL
