MODEL 1
REMARK minimizedAffinity -1.64066279
REMARK minimizedRMSD -1
REMARK  0 active torsions:
REMARK  status: ('A' for Active; 'I' for Inactive)
ROOT
ATOM      1  C   UNL d   1       1.698   1.667  -0.059  0.00  0.00     0.020 A 
ATOM      2  C1  UNL d   1       1.989   0.936   1.092  0.00  0.00     0.020 A 
ATOM      3  C2  UNL d   1       1.139  -0.095   1.498  0.00  0.00     0.034 A 
ATOM      4  C3  UNL d   1      -0.006  -0.398   0.752  0.00  0.00     0.017 A 
ATOM      5  C4  UNL d   1      -0.297   0.336  -0.403  0.00  0.00     0.017 A 
ATOM      6  C5  UNL d   1       0.558   1.367  -0.805  0.00  0.00     0.034 A 
ATOM      7 Cl   UNL d   1      -1.691   0.021  -1.375  0.00  0.00    -0.070 Cl
ATOM      8 Cl1  UNL d   1      -1.012  -1.686   1.313  0.00  0.00    -0.070 Cl
ENDROOT
TORSDOF 0
ENDMDL
