MODEL 1
REMARK minimizedAffinity 1.84858596
REMARK minimizedRMSD -1
REMARK  0 active torsions:
REMARK  status: ('A' for Active; 'I' for Inactive)
ROOT
ATOM      1  C1  BNZ d   1       5.136  -2.736  -1.766  0.00  0.00     0.000 A 
ATOM      2  C2  BNZ d   1       4.289  -1.676  -1.577  0.00  0.00     0.000 A 
ATOM      3  C3  BNZ d   1       3.033  -1.866  -1.070  0.00  0.00     0.000 A 
ATOM      4  C4  BNZ d   1       2.613  -3.117  -0.791  0.00  0.00     0.000 A 
ATOM      5  C5  BNZ d   1       3.452  -4.196  -0.986  0.00  0.00     0.000 A 
ATOM      6  C6  BNZ d   1       4.728  -3.997  -1.460  0.00  0.00     0.000 A 
ENDROOT
TORSDOF 0
ENDMDL
