MODEL 1
REMARK minimizedAffinity -0.300957859
REMARK minimizedRMSD -1
REMARK  0 active torsions:
REMARK  status: ('A' for Active; 'I' for Inactive)
ROOT
ATOM      1  C1  BNZ d   1      -0.772   2.537   0.439  0.00  0.00     0.000 A 
ATOM      2  C2  BNZ d   1      -0.748   1.751   1.559  0.00  0.00     0.000 A 
ATOM      3  C3  BNZ d   1      -1.421   2.122   2.690  0.00  0.00     0.000 A 
ATOM      4  C4  BNZ d   1      -2.083   3.296   2.711  0.00  0.00     0.000 A 
ATOM      5  C5  BNZ d   1      -2.109   4.105   1.592  0.00  0.00     0.000 A 
ATOM      6  C6  BNZ d   1      -1.463   3.710   0.444  0.00  0.00     0.000 A 
ENDROOT
TORSDOF 0
ENDMDL
