MODEL 1
REMARK minimizedAffinity -3.54825568
REMARK minimizedRMSD -1
REMARK  0 active torsions:
REMARK  status: ('A' for Active; 'I' for Inactive)
ROOT
ATOM      1  C1  BNZ d   1      -1.650   2.894   2.411  0.00  0.00     0.000 A 
ATOM      2  C2  BNZ d   1      -1.156   1.776   3.030  0.00  0.00     0.000 A 
ATOM      3  C3  BNZ d   1      -0.358   0.897   2.353  0.00  0.00     0.000 A 
ATOM      4  C4  BNZ d   1      -0.089   1.113   1.049  0.00  0.00     0.000 A 
ATOM      5  C5  BNZ d   1      -0.588   2.230   0.409  0.00  0.00     0.000 A 
ATOM      6  C6  BNZ d   1      -1.358   3.134   1.104  0.00  0.00     0.000 A 
ENDROOT
TORSDOF 0
ENDMDL
