MODEL 1
REMARK minimizedAffinity -1.41399026
REMARK minimizedRMSD -1
REMARK  0 active torsions:
REMARK  status: ('A' for Active; 'I' for Inactive)
ROOT
ATOM      1  C1  BNZ d   1      -4.132   3.647  -2.956  0.00  0.00     0.000 A 
ATOM      2  C2  BNZ d   1      -4.104   4.840  -3.629  0.00  0.00     0.000 A 
ATOM      3  C3  BNZ d   1      -5.033   5.123  -4.591  0.00  0.00     0.000 A 
ATOM      4  C4  BNZ d   1      -5.963   4.199  -4.906  0.00  0.00     0.000 A 
ATOM      5  C5  BNZ d   1      -6.000   2.988  -4.244  0.00  0.00     0.000 A 
ATOM      6  C6  BNZ d   1      -5.087   2.722  -3.249  0.00  0.00     0.000 A 
ENDROOT
TORSDOF 0
ENDMDL
