MODEL 1
REMARK minimizedAffinity 1.29816258
REMARK minimizedRMSD -1
REMARK  0 active torsions:
REMARK  status: ('A' for Active; 'I' for Inactive)
ROOT
ATOM      1  C1  BNZ d   1       0.711   0.921   1.938  0.00  0.00     0.000 A 
ATOM      2  C2  BNZ d   1       1.077   0.203   0.831  0.00  0.00     0.000 A 
ATOM      3  C3  BNZ d   1       0.301   0.208  -0.294  0.00  0.00     0.000 A 
ATOM      4  C4  BNZ d   1      -0.858   0.897  -0.297  0.00  0.00     0.000 A 
ATOM      5  C5  BNZ d   1      -1.246   1.618   0.815  0.00  0.00     0.000 A 
ATOM      6  C6  BNZ d   1      -0.443   1.642   1.932  0.00  0.00     0.000 A 
ENDROOT
TORSDOF 0
ENDMDL
