MODEL 1
REMARK minimizedAffinity -4.19495583
REMARK minimizedRMSD -1
REMARK  1 active torsions:
REMARK  status: ('A' for Active; 'I' for Inactive)
REMARK    1  A    between atoms: C1_2  and  C2_3 
ROOT
ATOM      1  C2  UNL d   1       0.221  -0.393   1.005  0.00  0.00    -0.076 A 
ATOM      2  C3  UNL d   1       1.534  -0.884   0.896  0.00  0.00     0.004 A 
ATOM      3  C4  UNL d   1       2.316  -1.098   2.029  0.00  0.00    -0.003 A 
ATOM      4  C5  UNL d   1       1.799  -0.825   3.290  0.00  0.00     0.000 A 
ATOM      5  C6  UNL d   1       0.492  -0.354   3.419  0.00  0.00     0.000 A 
ATOM      6  C7  UNL d   1      -0.316  -0.148   2.287  0.00  0.00    -0.073 A 
ATOM      7  C8  UNL d   1      -1.715   0.367   2.484  0.00  0.00     0.078 C 
ENDROOT
BRANCH   1   8
ATOM      8  C1  UNL d   1      -0.571  -0.154  -0.261  0.00  0.00     0.053 C 
ATOM      9  C   UNL d   1       0.172  -0.609  -1.507  0.00  0.00     0.018 C 
ENDBRANCH   1   8
TORSDOF 1
ENDMDL
