MODEL 1
REMARK minimizedAffinity -2.08244133
REMARK minimizedRMSD -1
REMARK  1 active torsions:
REMARK  status: ('A' for Active; 'I' for Inactive)
REMARK    1  A    between atoms: C1_2  and  C2_3 
ROOT
ATOM      1  C2  UNL d   1      -0.055   0.222  -1.537  0.00  0.00    -0.076 A 
ATOM      2  C3  UNL d   1      -0.191   1.591  -1.249  0.00  0.00     0.004 A 
ATOM      3  C4  UNL d   1       0.170   2.560  -2.184  0.00  0.00    -0.003 A 
ATOM      4  C5  UNL d   1       0.672   2.175  -3.423  0.00  0.00     0.000 A 
ATOM      5  C6  UNL d   1       0.796   0.820  -3.732  0.00  0.00     0.000 A 
ATOM      6  C7  UNL d   1       0.422  -0.169  -2.806  0.00  0.00    -0.073 A 
ATOM      7  C8  UNL d   1       0.583  -1.614  -3.190  0.00  0.00     0.078 C 
ENDROOT
BRANCH   1   8
ATOM      8  C1  UNL d   1      -0.438  -0.783  -0.474  0.00  0.00     0.053 C 
ATOM      9  C   UNL d   1      -1.224  -0.154   0.666  0.00  0.00     0.018 C 
ENDBRANCH   1   8
TORSDOF 1
ENDMDL
