MODEL 1
REMARK minimizedAffinity -1.46883953
REMARK minimizedRMSD -1
REMARK  1 active torsions:
REMARK  status: ('A' for Active; 'I' for Inactive)
REMARK    1  A    between atoms: C1_2  and  C2_3 
ROOT
ATOM      1  C2  UNL d   1       0.363  -0.342  -2.102  0.00  0.00    -0.076 A 
ATOM      2  C3  UNL d   1      -0.637  -0.739  -1.197  0.00  0.00     0.004 A 
ATOM      3  C4  UNL d   1      -0.528  -0.454   0.163  0.00  0.00    -0.003 A 
ATOM      4  C5  UNL d   1       0.582   0.235   0.640  0.00  0.00     0.000 A 
ATOM      5  C6  UNL d   1       1.574   0.653  -0.247  0.00  0.00     0.000 A 
ATOM      6  C7  UNL d   1       1.472   0.387  -1.623  0.00  0.00    -0.073 A 
ATOM      7  C8  UNL d   1       2.574   0.856  -2.533  0.00  0.00     0.078 C 
ENDROOT
BRANCH   1   8
ATOM      8  C1  UNL d   1       0.203  -0.703  -3.562  0.00  0.00     0.053 C 
ATOM      9  C   UNL d   1      -0.519   0.376  -4.354  0.00  0.00     0.018 C 
ENDBRANCH   1   8
TORSDOF 1
ENDMDL
