MODEL 1
REMARK minimizedAffinity -1.82138348
REMARK minimizedRMSD -1
REMARK  1 active torsions:
REMARK  status: ('A' for Active; 'I' for Inactive)
REMARK    1  A    between atoms: C1_2  and  C2_3 
ROOT
ATOM      1  C2  UNL d   1      -0.715   0.023   1.403  0.00  0.00    -0.076 A 
ATOM      2  C3  UNL d   1      -1.372   0.697   2.447  0.00  0.00     0.004 A 
ATOM      3  C4  UNL d   1      -0.906   0.617   3.758  0.00  0.00    -0.003 A 
ATOM      4  C5  UNL d   1       0.225  -0.139   4.047  0.00  0.00     0.000 A 
ATOM      5  C6  UNL d   1       0.899  -0.800   3.022  0.00  0.00     0.000 A 
ATOM      6  C7  UNL d   1       0.452  -0.717   1.692  0.00  0.00    -0.073 A 
ATOM      7  C8  UNL d   1       1.215  -1.455   0.626  0.00  0.00     0.078 C 
ENDROOT
BRANCH   1   8
ATOM      8  C1  UNL d   1      -1.282   0.124   0.005  0.00  0.00     0.053 C 
ATOM      9  C   UNL d   1      -2.577  -0.656  -0.156  0.00  0.00     0.018 C 
ENDBRANCH   1   8
TORSDOF 1
ENDMDL
