MODEL 1
REMARK minimizedAffinity -5.27837658
REMARK minimizedRMSD -1
REMARK  1 active torsions:
REMARK  status: ('A' for Active; 'I' for Inactive)
REMARK    1  A    between atoms: C1_2  and  C2_3 
ROOT
ATOM      1  C2  UNL d   1       1.111  -0.604   0.055  0.00  0.00    -0.076 A 
ATOM      2  C3  UNL d   1       0.106  -1.277  -0.662  0.00  0.00     0.004 A 
ATOM      3  C4  UNL d   1      -0.995  -0.590  -1.171  0.00  0.00    -0.003 A 
ATOM      4  C5  UNL d   1      -1.108   0.782  -0.972  0.00  0.00     0.000 A 
ATOM      5  C6  UNL d   1      -0.112   1.468  -0.278  0.00  0.00     0.000 A 
ATOM      6  C7  UNL d   1       1.012   0.793   0.228  0.00  0.00    -0.073 A 
ATOM      7  C8  UNL d   1       2.053   1.582   0.974  0.00  0.00     0.078 C 
ENDROOT
BRANCH   1   8
ATOM      8  C1  UNL d   1       2.267  -1.407   0.608  0.00  0.00     0.053 C 
ATOM      9  C   UNL d   1       2.992  -2.200  -0.468  0.00  0.00     0.018 C 
ENDBRANCH   1   8
TORSDOF 1
ENDMDL
