MODEL 1
REMARK minimizedAffinity -3.76932883
REMARK minimizedRMSD -1
REMARK  1 active torsions:
REMARK  status: ('A' for Active; 'I' for Inactive)
REMARK    1  A    between atoms: C1_2  and  C2_3 
ROOT
ATOM      1  C2  UNL d   1      -0.972   0.585   0.072  0.00  0.00    -0.076 A 
ATOM      2  C3  UNL d   1      -1.034  -0.796   0.329  0.00  0.00     0.004 A 
ATOM      3  C4  UNL d   1       0.121  -1.575   0.349  0.00  0.00    -0.003 A 
ATOM      4  C5  UNL d   1       1.359  -0.986   0.112  0.00  0.00     0.000 A 
ATOM      5  C6  UNL d   1       1.441   0.385  -0.127  0.00  0.00     0.000 A 
ATOM      6  C7  UNL d   1       0.287   1.188  -0.135  0.00  0.00    -0.073 A 
ATOM      7  C8  UNL d   1       0.434   2.660  -0.404  0.00  0.00     0.078 C 
ENDROOT
BRANCH   1   8
ATOM      8  C1  UNL d   1      -2.261   1.374   0.036  0.00  0.00     0.053 C 
ATOM      9  C   UNL d   1      -3.490   0.480  -0.021  0.00  0.00     0.018 C 
ENDBRANCH   1   8
TORSDOF 1
ENDMDL
