MODEL 1
REMARK minimizedAffinity -5.63185549
REMARK minimizedRMSD -1
REMARK  1 active torsions:
REMARK  status: ('A' for Active; 'I' for Inactive)
REMARK    1  A    between atoms: C1_2  and  C2_3 
ROOT
ATOM      1  C2  UNL d   1       0.211   0.132  -0.107  0.00  0.00    -0.076 A 
ATOM      2  C3  UNL d   1      -0.005  -1.226  -0.401  0.00  0.00     0.004 A 
ATOM      3  C4  UNL d   1       0.963  -2.186  -0.110  0.00  0.00    -0.003 A 
ATOM      4  C5  UNL d   1       2.162  -1.804   0.480  0.00  0.00     0.000 A 
ATOM      5  C6  UNL d   1       2.387  -0.464   0.795  0.00  0.00     0.000 A 
ATOM      6  C7  UNL d   1       1.415   0.514   0.523  0.00  0.00    -0.073 A 
ATOM      7  C8  UNL d   1       1.712   1.945   0.877  0.00  0.00     0.078 C 
ENDROOT
BRANCH   1   8
ATOM      8  C1  UNL d   1      -0.863   1.132  -0.471  0.00  0.00     0.053 C 
ATOM      9  C   UNL d   1      -2.129   0.951   0.352  0.00  0.00     0.018 C 
ENDBRANCH   1   8
TORSDOF 1
ENDMDL
