MODEL 1
REMARK minimizedAffinity 25.8941135
REMARK minimizedRMSD -1
REMARK  0 active torsions:
REMARK  status: ('A' for Active; 'I' for Inactive)
ROOT
ATOM      1  C   UNL d   1      -4.339  -1.954  -2.434  0.00  0.00     0.124 A 
ATOM      2  C1  UNL d   1      -4.291  -2.177  -3.803  0.00  0.00     0.062 A 
ATOM      3  C2  UNL d   1      -4.146  -1.107  -4.682  0.00  0.00     0.162 A 
ATOM      4  C3  UNL d   1      -4.047   0.196  -4.194  0.00  0.00    -0.034 A 
ATOM      5  C4  UNL d   1      -4.098   0.412  -2.815  0.00  0.00     0.162 A 
ATOM      6  C5  UNL d   1      -4.242  -0.660  -1.942  0.00  0.00     0.062 A 
ATOM      7  F   UNL d   1      -4.289  -0.443  -0.619  0.00  0.00    -0.097 F 
ATOM      8  F1  UNL d   1      -4.006   1.652  -2.312  0.00  0.00    -0.096 F 
ATOM      9  I   UNL d   1      -3.830   1.799  -5.504  0.00  0.00    -0.060 I 
ATOM     10  F2  UNL d   1      -4.102  -1.351  -6.000  0.00  0.00    -0.096 F 
ATOM     11  F3  UNL d   1      -4.385  -3.426  -4.282  0.00  0.00    -0.097 F 
ATOM     12  F4  UNL d   1      -4.479  -2.985  -1.591  0.00  0.00    -0.092 F 
ENDROOT
TORSDOF 0
ENDMDL
