MODEL 1
REMARK minimizedAffinity 27.87216
REMARK minimizedRMSD -1
REMARK  0 active torsions:
REMARK  status: ('A' for Active; 'I' for Inactive)
ROOT
ATOM      1  C   UNL d   1      -0.525  -2.429   3.301  0.00  0.00     0.124 A 
ATOM      2  C1  UNL d   1      -0.563  -1.108   3.725  0.00  0.00     0.062 A 
ATOM      3  C2  UNL d   1      -1.748  -0.382   3.645  0.00  0.00     0.162 A 
ATOM      4  C3  UNL d   1      -2.905  -0.976   3.141  0.00  0.00    -0.034 A 
ATOM      5  C4  UNL d   1      -2.858  -2.305   2.716  0.00  0.00     0.162 A 
ATOM      6  C5  UNL d   1      -1.672  -3.026   2.797  0.00  0.00     0.062 A 
ATOM      7  F   UNL d   1      -1.636  -4.303   2.388  0.00  0.00    -0.097 F 
ATOM      8  F1  UNL d   1      -3.952  -2.907   2.226  0.00  0.00    -0.096 F 
ATOM      9  I   UNL d   1      -4.679   0.107   3.021  0.00  0.00    -0.060 I 
ATOM     10  F2  UNL d   1      -1.756   0.893   4.062  0.00  0.00    -0.096 F 
ATOM     11  F3  UNL d   1       0.544  -0.529   4.211  0.00  0.00    -0.097 F 
ATOM     12  F4  UNL d   1       0.617  -3.125   3.378  0.00  0.00    -0.092 F 
ENDROOT
TORSDOF 0
ENDMDL
