MODEL 1
REMARK minimizedAffinity 22.5239925
REMARK minimizedRMSD -1
REMARK  0 active torsions:
REMARK  status: ('A' for Active; 'I' for Inactive)
ROOT
ATOM      1  C   UNL d   1       0.414  -2.119   2.514  0.00  0.00     0.124 A 
ATOM      2  C1  UNL d   1       0.535  -0.810   2.959  0.00  0.00     0.062 A 
ATOM      3  C2  UNL d   1      -0.602  -0.053   3.225  0.00  0.00     0.162 A 
ATOM      4  C3  UNL d   1      -1.871  -0.603   3.047  0.00  0.00    -0.034 A 
ATOM      5  C4  UNL d   1      -1.986  -1.920   2.599  0.00  0.00     0.162 A 
ATOM      6  C5  UNL d   1      -0.846  -2.673   2.335  0.00  0.00     0.062 A 
ATOM      7  F   UNL d   1      -0.966  -3.938   1.905  0.00  0.00    -0.097 F 
ATOM      8  F1  UNL d   1      -3.191  -2.480   2.418  0.00  0.00    -0.096 F 
ATOM      9  I   UNL d   1      -3.574   0.526   3.444  0.00  0.00    -0.060 I 
ATOM     10  F2  UNL d   1      -0.454   1.210   3.653  0.00  0.00    -0.096 F 
ATOM     11  F3  UNL d   1       1.751  -0.273   3.132  0.00  0.00    -0.097 F 
ATOM     12  F4  UNL d   1       1.509  -2.846   2.258  0.00  0.00    -0.092 F 
ENDROOT
TORSDOF 0
ENDMDL
