MODEL 1
REMARK minimizedAffinity -2.12456441
REMARK minimizedRMSD -1
REMARK  0 active torsions:
REMARK  status: ('A' for Active; 'I' for Inactive)
ROOT
ATOM      1  C   UNL d   1       4.962  -2.379   2.444  0.00  0.00     0.124 A 
ATOM      2  C1  UNL d   1       4.730  -2.056   3.774  0.00  0.00     0.062 A 
ATOM      3  C2  UNL d   1       4.565  -3.064   4.720  0.00  0.00     0.162 A 
ATOM      4  C3  UNL d   1       4.633  -4.404   4.340  0.00  0.00    -0.034 A 
ATOM      5  C4  UNL d   1       4.866  -4.721   3.000  0.00  0.00     0.162 A 
ATOM      6  C5  UNL d   1       5.030  -3.710   2.059  0.00  0.00     0.062 A 
ATOM      7  F   UNL d   1       5.254  -4.023   0.774  0.00  0.00    -0.097 F 
ATOM      8  F1  UNL d   1       4.937  -5.999   2.601  0.00  0.00    -0.096 F 
ATOM      9  I   UNL d   1       4.388  -5.914   5.752  0.00  0.00    -0.060 I 
ATOM     10  F2  UNL d   1       4.343  -2.723   5.998  0.00  0.00    -0.096 F 
ATOM     11  F3  UNL d   1       4.663  -0.771   4.149  0.00  0.00    -0.097 F 
ATOM     12  F4  UNL d   1       5.119  -1.407   1.536  0.00  0.00    -0.092 F 
ENDROOT
TORSDOF 0
ENDMDL
