MODEL 1
REMARK minimizedAffinity 5.87750149
REMARK minimizedRMSD -1
REMARK  0 active torsions:
REMARK  status: ('A' for Active; 'I' for Inactive)
ROOT
ATOM      1  C   UNL d   1       1.883  -3.426   1.882  0.00  0.00     0.124 A 
ATOM      2  C1  UNL d   1       2.729  -4.524   1.812  0.00  0.00     0.062 A 
ATOM      3  C2  UNL d   1       3.439  -4.933   2.937  0.00  0.00     0.162 A 
ATOM      4  C3  UNL d   1       3.306  -4.244   4.143  0.00  0.00    -0.034 A 
ATOM      5  C4  UNL d   1       2.455  -3.139   4.205  0.00  0.00     0.162 A 
ATOM      6  C5  UNL d   1       1.747  -2.734   3.077  0.00  0.00     0.062 A 
ATOM      7  F   UNL d   1       0.931  -1.672   3.147  0.00  0.00    -0.097 F 
ATOM      8  F1  UNL d   1       2.304  -2.453   5.347  0.00  0.00    -0.096 F 
ATOM      9  I   UNL d   1       4.366  -4.852   5.827  0.00  0.00    -0.060 I 
ATOM     10  F2  UNL d   1       4.248  -5.999   2.841  0.00  0.00    -0.096 F 
ATOM     11  F3  UNL d   1       2.862  -5.193   0.658  0.00  0.00    -0.097 F 
ATOM     12  F4  UNL d   1       1.202  -3.033   0.798  0.00  0.00    -0.092 F 
ENDROOT
TORSDOF 0
ENDMDL
