MODEL 1
REMARK minimizedAffinity 20.2002525
REMARK minimizedRMSD -1
REMARK  0 active torsions:
REMARK  status: ('A' for Active; 'I' for Inactive)
ROOT
ATOM      1  C   UNL d   1       0.724   0.286  -0.428  0.00  0.00     0.124 A 
ATOM      2  C1  UNL d   1       1.918   0.680   0.161  0.00  0.00     0.062 A 
ATOM      3  C2  UNL d   1       2.593  -0.182   1.021  0.00  0.00     0.162 A 
ATOM      4  C3  UNL d   1       2.076  -1.448   1.296  0.00  0.00    -0.034 A 
ATOM      5  C4  UNL d   1       0.875  -1.837   0.701  0.00  0.00     0.162 A 
ATOM      6  C5  UNL d   1       0.204  -0.972  -0.157  0.00  0.00     0.062 A 
ATOM      7  F   UNL d   1      -0.949  -1.354  -0.725  0.00  0.00    -0.097 F 
ATOM      8  F1  UNL d   1       0.350  -3.047   0.944  0.00  0.00    -0.096 F 
ATOM      9  I   UNL d   1       3.082  -2.740   2.580  0.00  0.00    -0.060 I 
ATOM     10  F2  UNL d   1       3.744   0.225   1.575  0.00  0.00    -0.096 F 
ATOM     11  F3  UNL d   1       2.422   1.895  -0.097  0.00  0.00    -0.097 F 
ATOM     12  F4  UNL d   1       0.077   1.118  -1.253  0.00  0.00    -0.092 F 
ENDROOT
TORSDOF 0
ENDMDL
