MODEL 1
REMARK minimizedAffinity 10.7944393
REMARK minimizedRMSD -1
REMARK  0 active torsions:
REMARK  status: ('A' for Active; 'I' for Inactive)
ROOT
ATOM      1  C   UNL d   1       1.773  -2.976   2.782  0.00  0.00     0.124 A 
ATOM      2  C1  UNL d   1       2.132  -2.250   3.909  0.00  0.00     0.062 A 
ATOM      3  C2  UNL d   1       3.029  -2.785   4.830  0.00  0.00     0.162 A 
ATOM      4  C3  UNL d   1       3.575  -4.052   4.626  0.00  0.00    -0.034 A 
ATOM      5  C4  UNL d   1       3.209  -4.777   3.490  0.00  0.00     0.162 A 
ATOM      6  C5  UNL d   1       2.312  -4.238   2.574  0.00  0.00     0.062 A 
ATOM      7  F   UNL d   1       1.966  -4.941   1.485  0.00  0.00    -0.097 F 
ATOM      8  F1  UNL d   1       3.715  -5.998   3.264  0.00  0.00    -0.096 F 
ATOM      9  I   UNL d   1       4.917  -4.854   6.000  0.00  0.00    -0.060 I 
ATOM     10  F2  UNL d   1       3.358  -2.061   5.910  0.00  0.00    -0.096 F 
ATOM     11  F3  UNL d   1       1.612  -1.031   4.113  0.00  0.00    -0.097 F 
ATOM     12  F4  UNL d   1       0.909  -2.460   1.899  0.00  0.00    -0.092 F 
ENDROOT
TORSDOF 0
ENDMDL
