MODEL 1
REMARK minimizedAffinity 3.57389235
REMARK minimizedRMSD -1
REMARK  0 active torsions:
REMARK  status: ('A' for Active; 'I' for Inactive)
ROOT
ATOM      1  C   UNL d   1       2.232  -3.199   2.485  0.00  0.00     0.124 A 
ATOM      2  C1  UNL d   1       2.997  -4.323   2.208  0.00  0.00     0.062 A 
ATOM      3  C2  UNL d   1       3.762  -4.914   3.210  0.00  0.00     0.162 A 
ATOM      4  C3  UNL d   1       3.764  -4.382   4.499  0.00  0.00    -0.034 A 
ATOM      5  C4  UNL d   1       2.993  -3.251   4.770  0.00  0.00     0.162 A 
ATOM      6  C5  UNL d   1       2.231  -2.664   3.766  0.00  0.00     0.062 A 
ATOM      7  F   UNL d   1       1.492  -1.577   4.035  0.00  0.00    -0.097 F 
ATOM      8  F1  UNL d   1       2.973  -2.713   5.999  0.00  0.00    -0.096 F 
ATOM      9  I   UNL d   1       4.906  -5.263   6.000  0.00  0.00    -0.060 I 
ATOM     10  F2  UNL d   1       4.491  -6.000   2.913  0.00  0.00    -0.096 F 
ATOM     11  F3  UNL d   1       3.001  -4.842   0.971  0.00  0.00    -0.097 F 
ATOM     12  F4  UNL d   1       1.498  -2.632   1.519  0.00  0.00    -0.092 F 
ENDROOT
TORSDOF 0
ENDMDL
