MODEL 1
REMARK minimizedAffinity 1.90688002
REMARK minimizedRMSD -1
REMARK  1 active torsions:
REMARK  status: ('A' for Active; 'I' for Inactive)
REMARK    1  A    between atoms: C3_4  and  O_7 
ROOT
ATOM      1  C   UNL d   1       1.249  -5.982  -5.401  0.00  0.00    -0.033 A 
ATOM      2  C1  UNL d   1       1.361  -6.000  -4.009  0.00  0.00     0.039 A 
ATOM      3  C2  UNL d   1       0.218  -5.896  -3.214  0.00  0.00    -0.080 A 
ATOM      4  C3  UNL d   1      -1.029  -5.776  -3.821  0.00  0.00     0.150 A 
ATOM      5  C4  UNL d   1      -1.148  -5.761  -5.207  0.00  0.00    -0.007 A 
ATOM      6  C5  UNL d   1      -0.006  -5.864  -6.000  0.00  0.00     0.039 A 
ENDROOT
BRANCH   4   7
ATOM      7  O   UNL d   1      -2.172  -5.667  -3.086  0.00  0.00    -0.526 OA
ATOM      8  H5  UNL d   1      -1.933  -5.663  -2.144  0.00  0.00     0.418 HD
ENDBRANCH   4   7
TORSDOF 1
ENDMDL
