MODEL 1
REMARK minimizedAffinity 0.127007589
REMARK minimizedRMSD -1
REMARK  1 active torsions:
REMARK  status: ('A' for Active; 'I' for Inactive)
REMARK    1  A    between atoms: C3_4  and  O_7 
ROOT
ATOM      1  C   UNL d   1      -1.183  -5.999  -5.627  0.00  0.00    -0.033 A 
ATOM      2  C1  UNL d   1      -2.106  -5.997  -4.579  0.00  0.00     0.039 A 
ATOM      3  C2  UNL d   1      -1.662  -5.993  -3.255  0.00  0.00    -0.080 A 
ATOM      4  C3  UNL d   1      -0.295  -5.991  -2.994  0.00  0.00     0.150 A 
ATOM      5  C4  UNL d   1       0.630  -5.989  -4.033  0.00  0.00    -0.007 A 
ATOM      6  C5  UNL d   1       0.185  -5.994  -5.354  0.00  0.00     0.039 A 
ENDROOT
BRANCH   4   7
ATOM      7  O   UNL d   1       0.187  -5.993  -1.718  0.00  0.00    -0.526 OA
ATOM      8  H5  UNL d   1      -0.567  -6.023  -1.105  0.00  0.00     0.418 HD
ENDBRANCH   4   7
TORSDOF 1
ENDMDL
