MODEL 1
REMARK minimizedAffinity 0.823970973
REMARK minimizedRMSD -1
REMARK  1 active torsions:
REMARK  status: ('A' for Active; 'I' for Inactive)
REMARK    1  A    between atoms: C3_4  and  O_7 
ROOT
ATOM      1  C   UNL d   1      -1.236  -5.999  -3.678  0.00  0.00    -0.033 A 
ATOM      2  C1  UNL d   1       0.012  -5.995  -3.052  0.00  0.00     0.039 A 
ATOM      3  C2  UNL d   1       1.180  -5.986  -3.818  0.00  0.00    -0.080 A 
ATOM      4  C3  UNL d   1       1.085  -5.979  -5.207  0.00  0.00     0.150 A 
ATOM      5  C4  UNL d   1      -0.155  -5.979  -5.837  0.00  0.00    -0.007 A 
ATOM      6  C5  UNL d   1      -1.319  -5.990  -5.071  0.00  0.00     0.039 A 
ENDROOT
BRANCH   4   7
ATOM      7  O   UNL d   1       2.197  -5.975  -5.997  0.00  0.00    -0.526 OA
ATOM      8  H5  UNL d   1       2.981  -6.005  -5.424  0.00  0.00     0.418 HD
ENDBRANCH   4   7
TORSDOF 1
ENDMDL
