MODEL 1
REMARK minimizedAffinity 0.251870722
REMARK minimizedRMSD -1
REMARK  1 active torsions:
REMARK  status: ('A' for Active; 'I' for Inactive)
REMARK    1  A    between atoms: C3_4  and  O_7 
ROOT
ATOM      1  C   UNL d   1      -0.199  -5.980  -5.823  0.00  0.00    -0.033 A 
ATOM      2  C1  UNL d   1      -1.242  -5.994  -4.895  0.00  0.00     0.039 A 
ATOM      3  C2  UNL d   1      -0.961  -6.000  -3.527  0.00  0.00    -0.080 A 
ATOM      4  C3  UNL d   1       0.365  -5.990  -3.102  0.00  0.00     0.150 A 
ATOM      5  C4  UNL d   1       1.408  -5.972  -4.021  0.00  0.00    -0.007 A 
ATOM      6  C5  UNL d   1       1.126  -5.967  -5.386  0.00  0.00     0.039 A 
ENDROOT
BRANCH   4   7
ATOM      7  O   UNL d   1       0.688  -6.000  -1.777  0.00  0.00    -0.526 OA
ATOM      8  H5  UNL d   1      -0.134  -6.041  -1.260  0.00  0.00     0.418 HD
ENDBRANCH   4   7
TORSDOF 1
ENDMDL
