MODEL 1
REMARK minimizedAffinity 1.4434154
REMARK minimizedRMSD -1
REMARK  1 active torsions:
REMARK  status: ('A' for Active; 'I' for Inactive)
REMARK    1  A    between atoms: C3_4  and  O_7 
ROOT
ATOM      1  C   UNL d   1       5.512   4.694  -0.490  0.00  0.00    -0.033 A 
ATOM      2  C1  UNL d   1       4.931   5.346   0.599  0.00  0.00     0.039 A 
ATOM      3  C2  UNL d   1       3.606   5.079   0.950  0.00  0.00    -0.080 A 
ATOM      4  C3  UNL d   1       2.875   4.158   0.204  0.00  0.00     0.150 A 
ATOM      5  C4  UNL d   1       3.449   3.502  -0.879  0.00  0.00    -0.007 A 
ATOM      6  C5  UNL d   1       4.772   3.771  -1.228  0.00  0.00     0.039 A 
ENDROOT
BRANCH   4   7
ATOM      7  O   UNL d   1       1.577   3.868   0.505  0.00  0.00    -0.526 OA
ATOM      8  H5  UNL d   1       1.306   4.418   1.259  0.00  0.00     0.418 HD
ENDBRANCH   4   7
TORSDOF 1
ENDMDL
