MODEL 1
REMARK minimizedAffinity -3.32585025
REMARK minimizedRMSD -1
REMARK  1 active torsions:
REMARK  status: ('A' for Active; 'I' for Inactive)
REMARK    1  A    between atoms: C3_4  and  O_7 
ROOT
ATOM      1  C   UNL d   1       0.891  -5.720  -5.476  0.00  0.00    -0.033 A 
ATOM      2  C1  UNL d   1       1.078  -5.905  -4.105  0.00  0.00     0.039 A 
ATOM      3  C2  UNL d   1      -0.025  -6.000  -3.254  0.00  0.00    -0.080 A 
ATOM      4  C3  UNL d   1      -1.308  -5.910  -3.787  0.00  0.00     0.150 A 
ATOM      5  C4  UNL d   1      -1.502  -5.730  -5.152  0.00  0.00    -0.007 A 
ATOM      6  C5  UNL d   1      -0.400  -5.634  -6.000  0.00  0.00     0.039 A 
ENDROOT
BRANCH   4   7
ATOM      7  O   UNL d   1      -2.415  -5.993  -2.995  0.00  0.00    -0.526 OA
ATOM      8  H5  UNL d   1      -2.127  -6.088  -2.072  0.00  0.00     0.418 HD
ENDBRANCH   4   7
TORSDOF 1
ENDMDL
