MODEL 1
REMARK minimizedAffinity 3.15142226
REMARK minimizedRMSD -1
REMARK  1 active torsions:
REMARK  status: ('A' for Active; 'I' for Inactive)
REMARK    1  A    between atoms: C3_4  and  O_7 
ROOT
ATOM      1  C   UNL d   1       0.000   0.033   0.314  0.00  0.00    -0.033 A 
ATOM      2  C1  UNL d   1       1.286  -0.065   0.849  0.00  0.00     0.039 A 
ATOM      3  C2  UNL d   1       1.817  -1.315   1.171  0.00  0.00    -0.080 A 
ATOM      4  C3  UNL d   1       1.054  -2.459   0.952  0.00  0.00     0.150 A 
ATOM      5  C4  UNL d   1      -0.226  -2.369   0.416  0.00  0.00    -0.007 A 
ATOM      6  C5  UNL d   1      -0.755  -1.120   0.096  0.00  0.00     0.039 A 
ENDROOT
BRANCH   4   7
ATOM      7  O   UNL d   1       1.528  -3.701   1.255  0.00  0.00    -0.526 OA
ATOM      8  H5  UNL d   1       2.413  -3.606   1.645  0.00  0.00     0.418 HD
ENDBRANCH   4   7
TORSDOF 1
ENDMDL
