MODEL 1
REMARK minimizedAffinity -3.48391008
REMARK minimizedRMSD -1
REMARK  1 active torsions:
REMARK  status: ('A' for Active; 'I' for Inactive)
REMARK    1  A    between atoms: C3_4  and  O_7 
ROOT
ATOM      1  C   UNL d   1      -2.710  -5.999  -4.394  0.00  0.00    -0.033 A 
ATOM      2  C1  UNL d   1      -1.777  -5.960  -3.355  0.00  0.00     0.039 A 
ATOM      3  C2  UNL d   1      -0.422  -5.773  -3.638  0.00  0.00    -0.080 A 
ATOM      4  C3  UNL d   1      -0.015  -5.625  -4.961  0.00  0.00     0.150 A 
ATOM      5  C4  UNL d   1      -0.939  -5.659  -6.000  0.00  0.00    -0.007 A 
ATOM      6  C5  UNL d   1      -2.291  -5.847  -5.716  0.00  0.00     0.039 A 
ENDROOT
BRANCH   4   7
ATOM      7  O   UNL d   1       1.297  -5.445  -5.287  0.00  0.00    -0.526 OA
ATOM      8  H5  UNL d   1       1.823  -5.472  -4.470  0.00  0.00     0.418 HD
ENDBRANCH   4   7
TORSDOF 1
ENDMDL
