MODEL 1
REMARK minimizedAffinity 1.29054415
REMARK minimizedRMSD -1
REMARK  1 active torsions:
REMARK  status: ('A' for Active; 'I' for Inactive)
REMARK    1  A    between atoms: C3_4  and  O_7 
ROOT
ATOM      1  C   UNL d   1      -0.741  -5.990  -5.683  0.00  0.00    -0.033 A 
ATOM      2  C1  UNL d   1      -1.623  -5.980  -4.601  0.00  0.00     0.039 A 
ATOM      3  C2  UNL d   1      -1.129  -5.982  -3.295  0.00  0.00    -0.080 A 
ATOM      4  C3  UNL d   1       0.247  -5.993  -3.085  0.00  0.00     0.150 A 
ATOM      5  C4  UNL d   1       1.132  -5.999  -4.158  0.00  0.00    -0.007 A 
ATOM      6  C5  UNL d   1       0.637  -5.998  -5.462  0.00  0.00     0.039 A 
ENDROOT
BRANCH   4   7
ATOM      7  O   UNL d   1       0.776  -6.000  -1.829  0.00  0.00    -0.526 OA
ATOM      8  H5  UNL d   1       0.046  -6.023  -1.187  0.00  0.00     0.418 HD
ENDBRANCH   4   7
TORSDOF 1
ENDMDL
