MODEL 1
REMARK minimizedAffinity 8.15017414
REMARK minimizedRMSD -1
REMARK  1 active torsions:
REMARK  status: ('A' for Active; 'I' for Inactive)
REMARK    1  A    between atoms: C3_4  and  O_7 
ROOT
ATOM      1  C   UNL d   1      -5.222   0.458  -2.018  0.00  0.00    -0.033 A 
ATOM      2  C1  UNL d   1      -4.819   1.688  -2.541  0.00  0.00     0.039 A 
ATOM      3  C2  UNL d   1      -3.478   1.904  -2.866  0.00  0.00    -0.080 A 
ATOM      4  C3  UNL d   1      -2.553   0.884  -2.665  0.00  0.00     0.150 A 
ATOM      5  C4  UNL d   1      -2.949  -0.346  -2.148  0.00  0.00    -0.007 A 
ATOM      6  C5  UNL d   1      -4.287  -0.560  -1.823  0.00  0.00     0.039 A 
ENDROOT
BRANCH   4   7
ATOM      7  O   UNL d   1      -1.233   1.050  -2.963  0.00  0.00    -0.526 OA
ATOM      8  H5  UNL d   1      -1.102   1.957  -3.284  0.00  0.00     0.418 HD
ENDBRANCH   4   7
TORSDOF 1
ENDMDL
