MODEL 1
REMARK minimizedAffinity -1.12588406
REMARK minimizedRMSD -1
REMARK  1 active torsions:
REMARK  status: ('A' for Active; 'I' for Inactive)
REMARK    1  A    between atoms: C3_4  and  O_7 
ROOT
ATOM      1  C   UNL d   1      -0.843  -2.695   1.031  0.00  0.00    -0.033 A 
ATOM      2  C1  UNL d   1      -1.374  -1.519   1.564  0.00  0.00     0.039 A 
ATOM      3  C2  UNL d   1      -0.695  -0.310   1.404  0.00  0.00    -0.080 A 
ATOM      4  C3  UNL d   1       0.511  -0.290   0.710  0.00  0.00     0.150 A 
ATOM      5  C4  UNL d   1       1.044  -1.457   0.173  0.00  0.00    -0.007 A 
ATOM      6  C5  UNL d   1       0.365  -2.664   0.334  0.00  0.00     0.039 A 
ENDROOT
BRANCH   4   7
ATOM      7  O   UNL d   1       1.212   0.866   0.532  0.00  0.00    -0.526 OA
ATOM      8  H5  UNL d   1       0.738   1.586   0.981  0.00  0.00     0.418 HD
ENDBRANCH   4   7
TORSDOF 1
ENDMDL
