MODEL 1
REMARK minimizedAffinity -2.75962305
REMARK minimizedRMSD -1
REMARK  1 active torsions:
REMARK  status: ('A' for Active; 'I' for Inactive)
REMARK    1  A    between atoms: C3_4  and  O_7 
ROOT
ATOM      1  C   UNL d   1      -1.035  -1.950   1.188  0.00  0.00    -0.033 A 
ATOM      2  C1  UNL d   1      -0.043  -2.881   0.873  0.00  0.00     0.039 A 
ATOM      3  C2  UNL d   1       1.252  -2.451   0.579  0.00  0.00    -0.080 A 
ATOM      4  C3  UNL d   1       1.543  -1.090   0.604  0.00  0.00     0.150 A 
ATOM      5  C4  UNL d   1       0.561  -0.157   0.920  0.00  0.00    -0.007 A 
ATOM      6  C5  UNL d   1      -0.733  -0.588   1.213  0.00  0.00     0.039 A 
ENDROOT
BRANCH   4   7
ATOM      7  O   UNL d   1       2.791  -0.622   0.319  0.00  0.00    -0.526 OA
ATOM      8  H5  UNL d   1       3.358  -1.378   0.091  0.00  0.00     0.418 HD
ENDBRANCH   4   7
TORSDOF 1
ENDMDL
