MODEL 1
REMARK minimizedAffinity 0.565649509
REMARK minimizedRMSD -1
REMARK  1 active torsions:
REMARK  status: ('A' for Active; 'I' for Inactive)
REMARK    1  A    between atoms: C3_4  and  O_7 
ROOT
ATOM      1  C   UNL d   1      -1.384  -5.988  -5.988  0.00  0.00    -0.033 A 
ATOM      2  C1  UNL d   1      -2.292  -5.997  -4.927  0.00  0.00     0.039 A 
ATOM      3  C2  UNL d   1      -1.829  -6.000  -3.610  0.00  0.00    -0.080 A 
ATOM      4  C3  UNL d   1      -0.458  -5.992  -3.368  0.00  0.00     0.150 A 
ATOM      5  C4  UNL d   1       0.452  -5.979  -4.420  0.00  0.00    -0.007 A 
ATOM      6  C5  UNL d   1      -0.012  -5.977  -5.735  0.00  0.00     0.039 A 
ENDROOT
BRANCH   4   7
ATOM      7  O   UNL d   1       0.042  -5.999  -2.099  0.00  0.00    -0.526 OA
ATOM      8  H5  UNL d   1      -0.703  -6.037  -1.476  0.00  0.00     0.418 HD
ENDBRANCH   4   7
TORSDOF 1
ENDMDL
