MODEL 1
REMARK minimizedAffinity -0.178725168
REMARK minimizedRMSD -1
REMARK  1 active torsions:
REMARK  status: ('A' for Active; 'I' for Inactive)
REMARK    1  A    between atoms: C3_4  and  O_7 
ROOT
ATOM      1  C   UNL d   1      -2.136  -6.000  -1.854  0.00  0.00    -0.033 A 
ATOM      2  C1  UNL d   1      -0.741  -5.998  -1.921  0.00  0.00     0.039 A 
ATOM      3  C2  UNL d   1      -0.100  -5.992  -3.161  0.00  0.00    -0.080 A 
ATOM      4  C3  UNL d   1      -0.863  -5.987  -4.325  0.00  0.00     0.150 A 
ATOM      5  C4  UNL d   1      -2.252  -5.985  -4.266  0.00  0.00    -0.007 A 
ATOM      6  C5  UNL d   1      -2.892  -5.992  -3.027  0.00  0.00     0.039 A 
ENDROOT
BRANCH   4   7
ATOM      7  O   UNL d   1      -0.281  -5.986  -5.558  0.00  0.00    -0.526 OA
ATOM      8  H5  UNL d   1       0.683  -6.017  -5.443  0.00  0.00     0.418 HD
ENDBRANCH   4   7
TORSDOF 1
ENDMDL
