MODEL 1
REMARK minimizedAffinity -3.85383654
REMARK minimizedRMSD -1
REMARK  1 active torsions:
REMARK  status: ('A' for Active; 'I' for Inactive)
REMARK    1  A    between atoms: C3_4  and  O_7 
ROOT
ATOM      1  C   UNL d   1      -1.457  -5.959  -2.926  0.00  0.00    -0.033 A 
ATOM      2  C1  UNL d   1      -1.898  -5.966  -4.251  0.00  0.00     0.039 A 
ATOM      3  C2  UNL d   1      -0.996  -5.728  -5.290  0.00  0.00    -0.080 A 
ATOM      4  C3  UNL d   1       0.342  -5.486  -4.991  0.00  0.00     0.150 A 
ATOM      5  C4  UNL d   1       0.789  -5.481  -3.674  0.00  0.00    -0.007 A 
ATOM      6  C5  UNL d   1      -0.113  -5.718  -2.638  0.00  0.00     0.039 A 
ENDROOT
BRANCH   4   7
ATOM      7  O   UNL d   1       1.258  -5.244  -5.971  0.00  0.00    -0.526 OA
ATOM      8  H5  UNL d   1       0.801  -5.250  -6.829  0.00  0.00     0.418 HD
ENDBRANCH   4   7
TORSDOF 1
ENDMDL
