MODEL 1
REMARK minimizedAffinity 0.283257842
REMARK minimizedRMSD -1
REMARK  1 active torsions:
REMARK  status: ('A' for Active; 'I' for Inactive)
REMARK    1  A    between atoms: C3_4  and  O_7 
ROOT
ATOM      1  C   UNL d   1      -1.643  -5.999  -3.805  0.00  0.00    -0.033 A 
ATOM      2  C1  UNL d   1      -1.648  -5.999  -5.201  0.00  0.00     0.039 A 
ATOM      3  C2  UNL d   1      -0.442  -5.995  -5.905  0.00  0.00    -0.080 A 
ATOM      4  C3  UNL d   1       0.759  -5.991  -5.202  0.00  0.00     0.150 A 
ATOM      5  C4  UNL d   1       0.771  -5.995  -3.811  0.00  0.00    -0.007 A 
ATOM      6  C5  UNL d   1      -0.434  -5.998  -3.110  0.00  0.00     0.039 A 
ENDROOT
BRANCH   4   7
ATOM      7  O   UNL d   1       1.961  -5.982  -5.846  0.00  0.00    -0.526 OA
ATOM      8  H5  UNL d   1       1.798  -5.951  -6.803  0.00  0.00     0.418 HD
ENDBRANCH   4   7
TORSDOF 1
ENDMDL
