MODEL 1
REMARK minimizedAffinity -0.780570567
REMARK minimizedRMSD -1
REMARK  1 active torsions:
REMARK  status: ('A' for Active; 'I' for Inactive)
REMARK    1  A    between atoms: C3_4  and  O_7 
ROOT
ATOM      1  C   UNL d   1       0.343  -1.178   0.140  0.00  0.00    -0.033 A 
ATOM      2  C1  UNL d   1       0.841   0.072  -0.236  0.00  0.00     0.039 A 
ATOM      3  C2  UNL d   1       2.193   0.369  -0.057  0.00  0.00    -0.080 A 
ATOM      4  C3  UNL d   1       3.036  -0.591   0.497  0.00  0.00     0.150 A 
ATOM      5  C4  UNL d   1       2.548  -1.839   0.870  0.00  0.00    -0.007 A 
ATOM      6  C5  UNL d   1       1.197  -2.133   0.691  0.00  0.00     0.039 A 
ENDROOT
BRANCH   4   7
ATOM      7  O   UNL d   1       4.363  -0.345   0.695  0.00  0.00    -0.526 OA
ATOM      8  H5  UNL d   1       4.551   0.567   0.418  0.00  0.00     0.418 HD
ENDBRANCH   4   7
TORSDOF 1
ENDMDL
