MODEL 1
REMARK minimizedAffinity 0.393327564
REMARK minimizedRMSD -1
REMARK  1 active torsions:
REMARK  status: ('A' for Active; 'I' for Inactive)
REMARK    1  A    between atoms: C3_4  and  O_7 
ROOT
ATOM      1  C   UNL d   1       0.526  -5.993  -5.271  0.00  0.00    -0.033 A 
ATOM      2  C1  UNL d   1       0.542  -5.997  -3.875  0.00  0.00     0.039 A 
ATOM      3  C2  UNL d   1      -0.659  -6.000  -3.161  0.00  0.00    -0.080 A 
ATOM      4  C3  UNL d   1      -1.866  -6.000  -3.855  0.00  0.00     0.150 A 
ATOM      5  C4  UNL d   1      -1.889  -6.000  -5.246  0.00  0.00    -0.007 A 
ATOM      6  C5  UNL d   1      -0.689  -5.996  -5.956  0.00  0.00     0.039 A 
ENDROOT
BRANCH   4   7
ATOM      7  O   UNL d   1      -3.063  -5.998  -3.202  0.00  0.00    -0.526 OA
ATOM      8  H5  UNL d   1      -2.892  -5.968  -2.246  0.00  0.00     0.418 HD
ENDBRANCH   4   7
TORSDOF 1
ENDMDL
