MODEL 1
REMARK minimizedAffinity -0.581507087
REMARK minimizedRMSD -1
REMARK  0 active torsions:
REMARK  status: ('A' for Active; 'I' for Inactive)
ROOT
ATOM      1  C4' PXY d   1      -0.732   3.060  -0.530  0.00  0.00     0.077 C 
ATOM      2  C1' PXY d   1       0.287  -2.562  -1.407  0.00  0.00     0.077 C 
ATOM      3  C1  PXY d   1       0.007  -1.089  -1.179  0.00  0.00    -0.082 A 
ATOM      4  C2  PXY d   1       0.985  -0.209  -1.317  0.00  0.00     0.003 A 
ATOM      5  C3  PXY d   1       0.757   1.123  -1.084  0.00  0.00     0.003 A 
ATOM      6  C4  PXY d   1      -0.497   1.565  -0.758  0.00  0.00    -0.082 A 
ATOM      7  C5  PXY d   1      -1.503   0.674  -0.627  0.00  0.00     0.003 A 
ATOM      8  C6  PXY d   1      -1.242  -0.679  -0.827  0.00  0.00     0.003 A 
ENDROOT
TORSDOF 0
ENDMDL
