MODEL 1
REMARK minimizedAffinity 1.16843307
REMARK minimizedRMSD -1
REMARK  0 active torsions:
REMARK  status: ('A' for Active; 'I' for Inactive)
ROOT
ATOM      1  C4' PXY d   1      -0.580   5.934   0.092  0.00  0.00     0.077 C 
ATOM      2  C1' PXY d   1       0.525   1.050   2.980  0.00  0.00     0.077 C 
ATOM      3  C1  PXY d   1       0.248   2.333   2.222  0.00  0.00    -0.082 A 
ATOM      4  C2  PXY d   1      -0.923   2.934   2.358  0.00  0.00     0.003 A 
ATOM      5  C3  PXY d   1      -1.202   4.078   1.655  0.00  0.00     0.003 A 
ATOM      6  C4  PXY d   1      -0.253   4.642   0.845  0.00  0.00    -0.082 A 
ATOM      7  C5  PXY d   1       0.948   4.041   0.709  0.00  0.00     0.003 A 
ATOM      8  C6  PXY d   1       1.197   2.858   1.399  0.00  0.00     0.003 A 
ENDROOT
TORSDOF 0
ENDMDL
