MODEL 1
REMARK minimizedAffinity 4.8060708
REMARK minimizedRMSD -1
REMARK  0 active torsions:
REMARK  status: ('A' for Active; 'I' for Inactive)
ROOT
ATOM      1  C4' PXY d   1       1.243   5.473  -1.730  0.00  0.00     0.077 C 
ATOM      2  C1' PXY d   1      -3.988   3.070  -2.252  0.00  0.00     0.077 C 
ATOM      3  C1  PXY d   1      -2.615   3.694  -2.104  0.00  0.00    -0.082 A 
ATOM      4  C2  PXY d   1      -2.347   4.839  -2.710  0.00  0.00     0.003 A 
ATOM      5  C3  PXY d   1      -1.100   5.401  -2.613  0.00  0.00     0.003 A 
ATOM      6  C4  PXY d   1      -0.133   4.811  -1.844  0.00  0.00    -0.082 A 
ATOM      7  C5  PXY d   1      -0.401   3.648  -1.213  0.00  0.00     0.003 A 
ATOM      8  C6  PXY d   1      -1.661   3.073  -1.358  0.00  0.00     0.003 A 
ENDROOT
TORSDOF 0
ENDMDL
