MODEL 1
REMARK minimizedAffinity 5.14752293
REMARK minimizedRMSD -1
REMARK  0 active torsions:
REMARK  status: ('A' for Active; 'I' for Inactive)
ROOT
ATOM      1  C4' PXY d   1      -1.501   6.000  -2.663  0.00  0.00     0.077 C 
ATOM      2  C1' PXY d   1       0.952   2.191   0.927  0.00  0.00     0.077 C 
ATOM      3  C1  PXY d   1       0.317   3.199  -0.011  0.00  0.00    -0.082 A 
ATOM      4  C2  PXY d   1      -0.932   3.023  -0.412  0.00  0.00     0.003 A 
ATOM      5  C3  PXY d   1      -1.511   3.908  -1.284  0.00  0.00     0.003 A 
ATOM      6  C4  PXY d   1      -0.823   5.013  -1.710  0.00  0.00    -0.082 A 
ATOM      7  C5  PXY d   1       0.448   5.205  -1.297  0.00  0.00     0.003 A 
ATOM      8  C6  PXY d   1       1.031   4.273  -0.443  0.00  0.00     0.003 A 
ENDROOT
TORSDOF 0
ENDMDL
