MODEL 1
REMARK minimizedAffinity 8.32558632
REMARK minimizedRMSD -1
REMARK  0 active torsions:
REMARK  status: ('A' for Active; 'I' for Inactive)
ROOT
ATOM      1  C4' PXY d   1      -1.555   2.283  -0.966  0.00  0.00     0.077 C 
ATOM      2  C1' PXY d   1       1.588   2.423   3.884  0.00  0.00     0.077 C 
ATOM      3  C1  PXY d   1       0.775   2.389   2.605  0.00  0.00    -0.082 A 
ATOM      4  C2  PXY d   1      -0.523   2.644   2.648  0.00  0.00     0.003 A 
ATOM      5  C3  PXY d   1      -1.279   2.586   1.506  0.00  0.00     0.003 A 
ATOM      6  C4  PXY d   1      -0.692   2.315   0.299  0.00  0.00    -0.082 A 
ATOM      7  C5  PXY d   1       0.633   2.064   0.246  0.00  0.00     0.003 A 
ATOM      8  C6  PXY d   1       1.376   2.088   1.422  0.00  0.00     0.003 A 
ENDROOT
TORSDOF 0
ENDMDL
