MODEL 1
REMARK minimizedAffinity -0.37568742
REMARK minimizedRMSD -1
REMARK  0 active torsions:
REMARK  status: ('A' for Active; 'I' for Inactive)
ROOT
ATOM      1  C4' PXY d   1      -4.880   4.220  -5.998  0.00  0.00     0.077 C 
ATOM      2  C1' PXY d   1      -4.945   1.379  -0.965  0.00  0.00     0.077 C 
ATOM      3  C1  PXY d   1      -4.915   2.125  -2.284  0.00  0.00    -0.082 A 
ATOM      4  C2  PXY d   1      -6.000   2.755  -2.704  0.00  0.00     0.003 A 
ATOM      5  C3  PXY d   1      -6.000   3.409  -3.909  0.00  0.00     0.003 A 
ATOM      6  C4  PXY d   1      -4.862   3.462  -4.668  0.00  0.00    -0.082 A 
ATOM      7  C5  PXY d   1      -3.747   2.830  -4.242  0.00  0.00     0.003 A 
ATOM      8  C6  PXY d   1      -3.780   2.138  -3.035  0.00  0.00     0.003 A 
ENDROOT
TORSDOF 0
ENDMDL
