MODEL 1
REMARK minimizedAffinity 11.652441
REMARK minimizedRMSD -1
REMARK  3 active torsions:
REMARK  status: ('A' for Active; 'I' for Inactive)
REMARK    1  A    between atoms: C3'_2  and  C2'_3 
REMARK    2  A    between atoms: C2'_3  and  C1'_4 
REMARK    3  A    between atoms: C1'_4  and  C1_5 
ROOT
ATOM      1  C1  N4B d   1       1.985  -2.244   1.890  0.00  0.00    -0.075 A 
ATOM      2  C2  N4B d   1       2.357  -3.218   2.843  0.00  0.00     0.002 A 
ATOM      3  C3  N4B d   1       2.019  -3.050   4.164  0.00  0.00     0.002 A 
ATOM      4  C4  N4B d   1       1.329  -1.913   4.556  0.00  0.00    -0.004 A 
ATOM      5  C5  N4B d   1       0.951  -0.990   3.625  0.00  0.00     0.002 A 
ATOM      6  C6  N4B d   1       1.280  -1.147   2.294  0.00  0.00     0.002 A 
ENDROOT
BRANCH   1   7
ATOM      7  C1' N4B d   1       2.407  -2.341   0.449  0.00  0.00     0.057 C 
BRANCH   7   8
ATOM      8  C2' N4B d   1       3.855  -1.879   0.319  0.00  0.00     0.009 C 
BRANCH   8   9
ATOM      9  C3' N4B d   1       4.716  -2.903  -0.400  0.00  0.00     0.004 C 
ATOM     10  C4' N4B d   1       5.996  -3.196   0.324  0.00  0.00     0.003 C 
ENDBRANCH   8   9
ENDBRANCH   7   8
ENDBRANCH   1   7
TORSDOF 3
ENDMDL
