MODEL 1
REMARK minimizedAffinity 4.89342022
REMARK minimizedRMSD -1
REMARK  3 active torsions:
REMARK  status: ('A' for Active; 'I' for Inactive)
REMARK    1  A    between atoms: C3'_2  and  C2'_3 
REMARK    2  A    between atoms: C2'_3  and  C1'_4 
REMARK    3  A    between atoms: C1'_4  and  C1_5 
ROOT
ATOM      1  C1  N4B d   1      -3.872   2.777  -3.817  0.00  0.00    -0.075 A 
ATOM      2  C2  N4B d   1      -3.497   3.674  -4.841  0.00  0.00     0.002 A 
ATOM      3  C3  N4B d   1      -3.715   5.021  -4.687  0.00  0.00     0.002 A 
ATOM      4  C4  N4B d   1      -4.321   5.490  -3.532  0.00  0.00    -0.004 A 
ATOM      5  C5  N4B d   1      -4.657   4.620  -2.537  0.00  0.00     0.002 A 
ATOM      6  C6  N4B d   1      -4.440   3.264  -2.676  0.00  0.00     0.002 A 
ENDROOT
BRANCH   1   7
ATOM      7  C1' N4B d   1      -3.732   1.287  -3.976  0.00  0.00     0.057 C 
BRANCH   7   8
ATOM      8  C2' N4B d   1      -3.020   0.718  -2.752  0.00  0.00     0.009 C 
BRANCH   8   9
ATOM      9  C3' N4B d   1      -2.138   1.753  -2.075  0.00  0.00     0.004 C 
ATOM     10  C4' N4B d   1      -2.143   1.632  -0.580  0.00  0.00     0.003 C 
ENDBRANCH   8   9
ENDBRANCH   7   8
ENDBRANCH   1   7
TORSDOF 3
ENDMDL
