MODEL 1
REMARK minimizedAffinity 5.87295151
REMARK minimizedRMSD -1
REMARK  3 active torsions:
REMARK  status: ('A' for Active; 'I' for Inactive)
REMARK    1  A    between atoms: C3'_2  and  C2'_3 
REMARK    2  A    between atoms: C2'_3  and  C1'_4 
REMARK    3  A    between atoms: C1'_4  and  C1_5 
ROOT
ATOM      1  C1  N4B d   1       1.998  -1.919   3.234  0.00  0.00    -0.075 A 
ATOM      2  C2  N4B d   1       2.521  -3.094   3.817  0.00  0.00     0.002 A 
ATOM      3  C3  N4B d   1       2.370  -3.317   5.164  0.00  0.00     0.002 A 
ATOM      4  C4  N4B d   1       1.720  -2.375   5.947  0.00  0.00    -0.004 A 
ATOM      5  C5  N4B d   1       1.196  -1.255   5.371  0.00  0.00     0.002 A 
ATOM      6  C6  N4B d   1       1.336  -1.020   4.018  0.00  0.00     0.002 A 
ENDROOT
BRANCH   1   7
ATOM      7  C1' N4B d   1       2.212  -1.590   1.781  0.00  0.00     0.057 C 
BRANCH   7   8
ATOM      8  C2' N4B d   1       2.989  -2.725   1.120  0.00  0.00     0.009 C 
BRANCH   8   9
ATOM      9  C3' N4B d   1       4.040  -2.207   0.154  0.00  0.00     0.004 C 
ATOM     10  C4' N4B d   1       5.386  -2.831   0.372  0.00  0.00     0.003 C 
ENDBRANCH   8   9
ENDBRANCH   7   8
ENDBRANCH   1   7
TORSDOF 3
ENDMDL
