MODEL 1
REMARK minimizedAffinity 5.66928864
REMARK minimizedRMSD -1
REMARK  1 active torsions:
REMARK  status: ('A' for Active; 'I' for Inactive)
REMARK    1  A    between atoms: C1_2  and  C2_3 
ROOT
ATOM      1  C2  UNL d   1      -3.061   1.283  -2.031  0.00  0.00    -0.077 A 
ATOM      2  C3  UNL d   1      -3.186  -0.025  -2.518  0.00  0.00     0.002 A 
ATOM      3  C4  UNL d   1      -2.087  -0.887  -2.518  0.00  0.00     0.002 A 
ATOM      4  C5  UNL d   1      -0.857  -0.450  -2.030  0.00  0.00    -0.004 A 
ATOM      5  C6  UNL d   1      -0.723   0.851  -1.546  0.00  0.00     0.002 A 
ATOM      6  C7  UNL d   1      -1.820   1.713  -1.546  0.00  0.00     0.002 A 
ENDROOT
BRANCH   1   7
ATOM      7  C1  UNL d   1      -4.258   2.198  -1.984  0.00  0.00     0.055 C 
ATOM      8  C   UNL d   1      -4.007   3.478  -2.768  0.00  0.00     0.019 C 
ENDBRANCH   1   7
TORSDOF 1
ENDMDL
