MODEL 1
REMARK minimizedAffinity -0.392430633
REMARK minimizedRMSD -1
REMARK  1 active torsions:
REMARK  status: ('A' for Active; 'I' for Inactive)
REMARK    1  A    between atoms: C1_2  and  C2_3 
ROOT
ATOM      1  C2  UNL d   1       0.508   0.733   1.451  0.00  0.00    -0.077 A 
ATOM      2  C3  UNL d   1       0.122   1.191   0.183  0.00  0.00     0.002 A 
ATOM      3  C4  UNL d   1       0.090   2.559  -0.094  0.00  0.00     0.002 A 
ATOM      4  C5  UNL d   1       0.446   3.479   0.890  0.00  0.00    -0.004 A 
ATOM      5  C6  UNL d   1       0.829   3.034   2.154  0.00  0.00     0.002 A 
ATOM      6  C7  UNL d   1       0.860   1.667   2.433  0.00  0.00     0.002 A 
ENDROOT
BRANCH   1   7
ATOM      7  C1  UNL d   1       0.590  -0.744   1.736  0.00  0.00     0.055 C 
ATOM      8  C   UNL d   1       1.775  -1.069   2.634  0.00  0.00     0.019 C 
ENDBRANCH   1   7
TORSDOF 1
ENDMDL
