MODEL 1
REMARK minimizedAffinity 3.91567922
REMARK minimizedRMSD -1
REMARK  1 active torsions:
REMARK  status: ('A' for Active; 'I' for Inactive)
REMARK    1  A    between atoms: C1_2  and  C2_3 
ROOT
ATOM      1  C2  UNL d   1       2.145  -5.533  -1.767  0.00  0.00    -0.077 A 
ATOM      2  C3  UNL d   1       3.319  -5.918  -1.104  0.00  0.00     0.002 A 
ATOM      3  C4  UNL d   1       4.528  -5.997  -1.798  0.00  0.00     0.002 A 
ATOM      4  C5  UNL d   1       4.576  -5.689  -3.156  0.00  0.00    -0.004 A 
ATOM      5  C6  UNL d   1       3.413  -5.307  -3.824  0.00  0.00     0.002 A 
ATOM      6  C7  UNL d   1       2.203  -5.228  -3.133  0.00  0.00     0.002 A 
ENDROOT
BRANCH   1   7
ATOM      7  C1  UNL d   1       0.849  -5.399  -1.010  0.00  0.00     0.055 C 
ATOM      8  C   UNL d   1       0.148  -4.090  -1.340  0.00  0.00     0.019 C 
ENDBRANCH   1   7
TORSDOF 1
ENDMDL
