MODEL 1
REMARK minimizedAffinity 2.25955081
REMARK minimizedRMSD -1
REMARK  1 active torsions:
REMARK  status: ('A' for Active; 'I' for Inactive)
REMARK    1  A    between atoms: C1_2  and  C2_3 
ROOT
ATOM      1  C2  UNL d   1       0.213   3.085  -0.140  0.00  0.00    -0.077 A 
ATOM      2  C3  UNL d   1       0.451   2.679   1.180  0.00  0.00     0.002 A 
ATOM      3  C4  UNL d   1       0.184   1.367   1.575  0.00  0.00     0.002 A 
ATOM      4  C5  UNL d   1      -0.320   0.450   0.655  0.00  0.00    -0.004 A 
ATOM      5  C6  UNL d   1      -0.562   0.844  -0.660  0.00  0.00     0.002 A 
ATOM      6  C7  UNL d   1      -0.296   2.156  -1.056  0.00  0.00     0.002 A 
ENDROOT
BRANCH   1   7
ATOM      7  C1  UNL d   1       0.547   4.486  -0.581  0.00  0.00     0.055 C 
ATOM      8  C   UNL d   1      -0.018   4.782  -1.962  0.00  0.00     0.019 C 
ENDBRANCH   1   7
TORSDOF 1
ENDMDL
