MODEL 1
REMARK minimizedAffinity -3.47919226
REMARK minimizedRMSD -1
REMARK  1 active torsions:
REMARK  status: ('A' for Active; 'I' for Inactive)
REMARK    1  A    between atoms: C1_2  and  C2_3 
ROOT
ATOM      1  C2  UNL d   1      -0.345   2.492  -0.374  0.00  0.00    -0.077 A 
ATOM      2  C3  UNL d   1      -0.158   2.777   0.986  0.00  0.00     0.002 A 
ATOM      3  C4  UNL d   1       0.106   1.748   1.893  0.00  0.00     0.002 A 
ATOM      4  C5  UNL d   1       0.190   0.430   1.448  0.00  0.00    -0.004 A 
ATOM      5  C6  UNL d   1       0.004   0.137   0.098  0.00  0.00     0.002 A 
ATOM      6  C7  UNL d   1      -0.261   1.164  -0.809  0.00  0.00     0.002 A 
ENDROOT
BRANCH   1   7
ATOM      7  C1  UNL d   1      -0.581   3.606  -1.361  0.00  0.00     0.055 C 
ATOM      8  C   UNL d   1       0.132   4.882  -0.937  0.00  0.00     0.019 C 
ENDBRANCH   1   7
TORSDOF 1
ENDMDL
