MODEL 1
REMARK minimizedAffinity -4.85972023
REMARK minimizedRMSD -1
REMARK  1 active torsions:
REMARK  status: ('A' for Active; 'I' for Inactive)
REMARK    1  A    between atoms: C1_2  and  C2_3 
ROOT
ATOM      1  C2  UNL d   1       0.107   0.694   0.655  0.00  0.00    -0.077 A 
ATOM      2  C3  UNL d   1       0.705   1.754  -0.041  0.00  0.00     0.002 A 
ATOM      3  C4  UNL d   1       0.071   2.995  -0.117  0.00  0.00     0.002 A 
ATOM      4  C5  UNL d   1      -1.161   3.190   0.503  0.00  0.00    -0.004 A 
ATOM      5  C6  UNL d   1      -1.765   2.141   1.196  0.00  0.00     0.002 A 
ATOM      6  C7  UNL d   1      -1.133   0.899   1.272  0.00  0.00     0.002 A 
ENDROOT
BRANCH   1   7
ATOM      7  C1  UNL d   1       0.812  -0.632   0.780  0.00  0.00     0.055 C 
ATOM      8  C   UNL d   1       2.316  -0.447   0.928  0.00  0.00     0.019 C 
ENDBRANCH   1   7
TORSDOF 1
ENDMDL
