MODEL 1
REMARK minimizedAffinity -3.65279198
REMARK minimizedRMSD -1
REMARK  1 active torsions:
REMARK  status: ('A' for Active; 'I' for Inactive)
REMARK    1  A    between atoms: C1_2  and  C2_3 
ROOT
ATOM      1  C2  UNL d   1       0.642   1.693   0.001  0.00  0.00    -0.077 A 
ATOM      2  C3  UNL d   1       1.916   1.299   0.434  0.00  0.00     0.002 A 
ATOM      3  C4  UNL d   1       2.136  -0.004   0.885  0.00  0.00     0.002 A 
ATOM      4  C5  UNL d   1       1.090  -0.924   0.902  0.00  0.00    -0.004 A 
ATOM      5  C6  UNL d   1      -0.181  -0.541   0.475  0.00  0.00     0.002 A 
ATOM      6  C7  UNL d   1      -0.404   0.762   0.026  0.00  0.00     0.002 A 
ENDROOT
BRANCH   1   7
ATOM      7  C1  UNL d   1       0.414   3.083  -0.532  0.00  0.00     0.055 C 
ATOM      8  C   UNL d   1      -0.253   3.050  -1.899  0.00  0.00     0.019 C 
ENDBRANCH   1   7
TORSDOF 1
ENDMDL
