MODEL 1
REMARK minimizedAffinity -3.89960933
REMARK minimizedRMSD -1
REMARK  1 active torsions:
REMARK  status: ('A' for Active; 'I' for Inactive)
REMARK    1  A    between atoms: C1_2  and  C2_3 
ROOT
ATOM      1  C2  UNL d   1      -0.351  -1.484  -0.189  0.00  0.00    -0.077 A 
ATOM      2  C3  UNL d   1      -1.364  -0.763   0.458  0.00  0.00     0.002 A 
ATOM      3  C4  UNL d   1      -1.137   0.547   0.884  0.00  0.00     0.002 A 
ATOM      4  C5  UNL d   1       0.100   1.149   0.663  0.00  0.00    -0.004 A 
ATOM      5  C6  UNL d   1       1.115   0.439   0.022  0.00  0.00     0.002 A 
ATOM      6  C7  UNL d   1       0.890  -0.871  -0.403  0.00  0.00     0.002 A 
ENDROOT
BRANCH   1   7
ATOM      7  C1  UNL d   1      -0.610  -2.880  -0.693  0.00  0.00     0.055 C 
ATOM      8  C   UNL d   1      -0.148  -3.043  -2.134  0.00  0.00     0.019 C 
ENDBRANCH   1   7
TORSDOF 1
ENDMDL
