MODEL 1
REMARK minimizedAffinity -4.37164927
REMARK minimizedRMSD -1
REMARK  1 active torsions:
REMARK  status: ('A' for Active; 'I' for Inactive)
REMARK    1  A    between atoms: C1_2  and  C2_3 
ROOT
ATOM      1  C2  UNL d   1       0.074   1.016   0.013  0.00  0.00    -0.077 A 
ATOM      2  C3  UNL d   1       0.595   1.739  -1.069  0.00  0.00     0.002 A 
ATOM      3  C4  UNL d   1       0.570   3.135  -1.063  0.00  0.00     0.002 A 
ATOM      4  C5  UNL d   1       0.029   3.820   0.024  0.00  0.00    -0.004 A 
ATOM      5  C6  UNL d   1      -0.494   3.109   1.104  0.00  0.00     0.002 A 
ATOM      6  C7  UNL d   1      -0.470   1.714   1.099  0.00  0.00     0.002 A 
ENDROOT
BRANCH   1   7
ATOM      7  C1  UNL d   1       0.144  -0.488   0.030  0.00  0.00     0.055 C 
ATOM      8  C   UNL d   1       1.475  -0.974   0.586  0.00  0.00     0.019 C 
ENDBRANCH   1   7
TORSDOF 1
ENDMDL
