MODEL 1
REMARK minimizedAffinity -4.56373262
REMARK minimizedRMSD -1
REMARK  1 active torsions:
REMARK  status: ('A' for Active; 'I' for Inactive)
REMARK    1  A    between atoms: C1_2  and  C2_3 
ROOT
ATOM      1  C2  UNL d   1       0.095   1.443  -0.237  0.00  0.00    -0.077 A 
ATOM      2  C3  UNL d   1       1.186   0.589  -0.457  0.00  0.00     0.002 A 
ATOM      3  C4  UNL d   1       1.095  -0.768  -0.143  0.00  0.00     0.002 A 
ATOM      4  C5  UNL d   1      -0.085  -1.285   0.388  0.00  0.00    -0.004 A 
ATOM      5  C6  UNL d   1      -1.175  -0.444   0.612  0.00  0.00     0.002 A 
ATOM      6  C7  UNL d   1      -1.085   0.914   0.301  0.00  0.00     0.002 A 
ENDROOT
BRANCH   1   7
ATOM      7  C1  UNL d   1       0.175   2.897  -0.620  0.00  0.00     0.055 C 
ATOM      8  C   UNL d   1      -0.226   3.798   0.539  0.00  0.00     0.019 C 
ENDBRANCH   1   7
TORSDOF 1
ENDMDL
