MODEL 1
REMARK minimizedAffinity -4.58848238
REMARK minimizedRMSD -1
REMARK  1 active torsions:
REMARK  status: ('A' for Active; 'I' for Inactive)
REMARK    1  A    between atoms: C1_2  and  C2_3 
ROOT
ATOM      1  C2  UNL d   1      -0.414   0.067   0.132  0.00  0.00    -0.077 A 
ATOM      2  C3  UNL d   1       0.057   1.305  -0.326  0.00  0.00     0.002 A 
ATOM      3  C4  UNL d   1      -0.536   2.492   0.110  0.00  0.00     0.002 A 
ATOM      4  C5  UNL d   1      -1.600   2.452   1.009  0.00  0.00    -0.004 A 
ATOM      5  C6  UNL d   1      -2.077   1.225   1.469  0.00  0.00     0.002 A 
ATOM      6  C7  UNL d   1      -1.486   0.038   1.033  0.00  0.00     0.002 A 
ENDROOT
BRANCH   1   7
ATOM      7  C1  UNL d   1       0.256  -1.212  -0.298  0.00  0.00     0.055 C 
ATOM      8  C   UNL d   1      -0.633  -2.418  -0.034  0.00  0.00     0.019 C 
ENDBRANCH   1   7
TORSDOF 1
ENDMDL
