MODEL 1
REMARK minimizedAffinity -4.93429184
REMARK minimizedRMSD -1
REMARK  1 active torsions:
REMARK  status: ('A' for Active; 'I' for Inactive)
REMARK    1  A    between atoms: C1_2  and  C2_3 
ROOT
ATOM      1  C2  UNL d   1      -0.024   0.162   0.277  0.00  0.00    -0.077 A 
ATOM      2  C3  UNL d   1       0.567   0.708  -0.871  0.00  0.00     0.002 A 
ATOM      3  C4  UNL d   1       0.700   2.091  -1.008  0.00  0.00     0.002 A 
ATOM      4  C5  UNL d   1       0.248   2.939   0.001  0.00  0.00    -0.004 A 
ATOM      5  C6  UNL d   1      -0.343   2.406   1.146  0.00  0.00     0.002 A 
ATOM      6  C7  UNL d   1      -0.477   1.024   1.284  0.00  0.00     0.002 A 
ENDROOT
BRANCH   1   7
ATOM      7  C1  UNL d   1      -0.123  -1.331   0.448  0.00  0.00     0.055 C 
ATOM      8  C   UNL d   1       0.025  -2.052  -0.884  0.00  0.00     0.019 C 
ENDBRANCH   1   7
TORSDOF 1
ENDMDL
