MODEL 1
REMARK minimizedAffinity -5.1051054
REMARK minimizedRMSD -1
REMARK  1 active torsions:
REMARK  status: ('A' for Active; 'I' for Inactive)
REMARK    1  A    between atoms: C1_2  and  C2_3 
ROOT
ATOM      1  C2  UNL d   1      -0.111  -0.218   0.208  0.00  0.00    -0.077 A 
ATOM      2  C3  UNL d   1      -1.223   0.437   0.756  0.00  0.00     0.002 A 
ATOM      3  C4  UNL d   1      -1.235   1.829   0.873  0.00  0.00     0.002 A 
ATOM      4  C5  UNL d   1      -0.142   2.576   0.440  0.00  0.00    -0.004 A 
ATOM      5  C6  UNL d   1       0.969   1.933  -0.104  0.00  0.00     0.002 A 
ATOM      6  C7  UNL d   1       0.984   0.542  -0.220  0.00  0.00     0.002 A 
ENDROOT
BRANCH   1   7
ATOM      7  C1  UNL d   1      -0.116  -1.715   0.036  0.00  0.00     0.055 C 
ATOM      8  C   UNL d   1      -0.554  -2.109  -1.367  0.00  0.00     0.019 C 
ENDBRANCH   1   7
TORSDOF 1
ENDMDL
