MODEL 1
REMARK minimizedAffinity -3.32087755
REMARK minimizedRMSD -1
REMARK  1 active torsions:
REMARK  status: ('A' for Active; 'I' for Inactive)
REMARK    1  A    between atoms: C1_2  and  C2_3 
ROOT
ATOM      1  C2  UNL d   1      -0.553   0.274   0.023  0.00  0.00    -0.077 A 
ATOM      2  C3  UNL d   1       0.285   0.889  -0.917  0.00  0.00     0.002 A 
ATOM      3  C4  UNL d   1       0.410   2.280  -0.949  0.00  0.00     0.002 A 
ATOM      4  C5  UNL d   1      -0.296   3.065  -0.040  0.00  0.00    -0.004 A 
ATOM      5  C6  UNL d   1      -1.133   2.462   0.898  0.00  0.00     0.002 A 
ATOM      6  C7  UNL d   1      -1.261   1.073   0.930  0.00  0.00     0.002 A 
ENDROOT
BRANCH   1   7
ATOM      7  C1  UNL d   1      -0.652  -1.228   0.090  0.00  0.00     0.055 C 
ATOM      8  C   UNL d   1      -0.002  -1.880  -1.122  0.00  0.00     0.019 C 
ENDBRANCH   1   7
TORSDOF 1
ENDMDL
