MODEL 1
REMARK minimizedAffinity 7.98729515
REMARK minimizedRMSD -1
REMARK  1 active torsions:
REMARK  status: ('A' for Active; 'I' for Inactive)
REMARK    1  A    between atoms: C3_4  and  O_7 
ROOT
ATOM      1  C   UNL d   1      -1.314  -0.582   1.882  0.00  0.00    -0.033 A 
ATOM      2  C1  UNL d   1      -2.696  -0.625   1.693  0.00  0.00     0.039 A 
ATOM      3  C2  UNL d   1      -3.427   0.561   1.599  0.00  0.00    -0.080 A 
ATOM      4  C3  UNL d   1      -2.763   1.782   1.694  0.00  0.00     0.150 A 
ATOM      5  C4  UNL d   1      -1.386   1.832   1.878  0.00  0.00    -0.007 A 
ATOM      6  C5  UNL d   1      -0.658   0.646   1.973  0.00  0.00     0.039 A 
ENDROOT
BRANCH   4   7
ATOM      7  O   UNL d   1      -3.434   2.966   1.613  0.00  0.00    -0.526 OA
ATOM      8  H5  UNL d   1      -4.382   2.776   1.514  0.00  0.00     0.418 HD
ENDBRANCH   4   7
TORSDOF 1
ENDMDL
