MODEL 1
REMARK minimizedAffinity 4.16013193
REMARK minimizedRMSD -1
REMARK  1 active torsions:
REMARK  status: ('A' for Active; 'I' for Inactive)
REMARK    1  A    between atoms: C3_4  and  O_7 
ROOT
ATOM      1  C   UNL d   1      -4.134  -4.044   0.146  0.00  0.00    -0.033 A 
ATOM      2  C1  UNL d   1      -3.703  -5.321   0.509  0.00  0.00     0.039 A 
ATOM      3  C2  UNL d   1      -4.321  -5.995   1.564  0.00  0.00    -0.080 A 
ATOM      4  C3  UNL d   1      -5.369  -5.382   2.246  0.00  0.00     0.150 A 
ATOM      5  C4  UNL d   1      -5.806  -4.111   1.887  0.00  0.00    -0.007 A 
ATOM      6  C5  UNL d   1      -5.187  -3.439   0.834  0.00  0.00     0.039 A 
ENDROOT
BRANCH   4   7
ATOM      7  O   UNL d   1      -6.000  -5.998   3.285  0.00  0.00    -0.526 OA
ATOM      8  H5  UNL d   1      -5.572  -6.858   3.439  0.00  0.00     0.418 HD
ENDBRANCH   4   7
TORSDOF 1
ENDMDL
