MODEL 1
REMARK minimizedAffinity 14.9208059
REMARK minimizedRMSD -1
REMARK  1 active torsions:
REMARK  status: ('A' for Active; 'I' for Inactive)
REMARK    1  A    between atoms: C3_4  and  O_7 
ROOT
ATOM      1  C   UNL d   1      -5.898  -2.882   3.128  0.00  0.00    -0.033 A 
ATOM      2  C1  UNL d   1      -5.169  -1.707   2.938  0.00  0.00     0.039 A 
ATOM      3  C2  UNL d   1      -4.238  -1.298   3.895  0.00  0.00    -0.080 A 
ATOM      4  C3  UNL d   1      -4.046  -2.073   5.036  0.00  0.00     0.150 A 
ATOM      5  C4  UNL d   1      -4.766  -3.247   5.230  0.00  0.00    -0.007 A 
ATOM      6  C5  UNL d   1      -5.696  -3.653   4.273  0.00  0.00     0.039 A 
ENDROOT
BRANCH   4   7
ATOM      7  O   UNL d   1      -3.152  -1.712   6.000  0.00  0.00    -0.526 OA
ATOM      8  H5  UNL d   1      -2.749  -0.865   5.744  0.00  0.00     0.418 HD
ENDBRANCH   4   7
TORSDOF 1
ENDMDL
