MODEL 1
REMARK minimizedAffinity 12.8228178
REMARK minimizedRMSD -1
REMARK  1 active torsions:
REMARK  status: ('A' for Active; 'I' for Inactive)
REMARK    1  A    between atoms: C3_4  and  O_7 
ROOT
ATOM      1  C   UNL d   1      -3.292  -0.277   1.635  0.00  0.00    -0.033 A 
ATOM      2  C1  UNL d   1      -1.989  -0.768   1.531  0.00  0.00     0.039 A 
ATOM      3  C2  UNL d   1      -1.759  -2.026   0.969  0.00  0.00    -0.080 A 
ATOM      4  C3  UNL d   1      -2.837  -2.780   0.515  0.00  0.00     0.150 A 
ATOM      5  C4  UNL d   1      -4.137  -2.294   0.612  0.00  0.00    -0.007 A 
ATOM      6  C5  UNL d   1      -4.366  -1.039   1.174  0.00  0.00     0.039 A 
ENDROOT
BRANCH   4   7
ATOM      7  O   UNL d   1      -2.662  -4.014  -0.036  0.00  0.00    -0.526 OA
ATOM      8  H5  UNL d   1      -1.715  -4.230  -0.012  0.00  0.00     0.418 HD
ENDBRANCH   4   7
TORSDOF 1
ENDMDL
