MODEL 1
REMARK minimizedAffinity 6.05467653
REMARK minimizedRMSD -1
REMARK  1 active torsions:
REMARK  status: ('A' for Active; 'I' for Inactive)
REMARK    1  A    between atoms: C3_4  and  O_7 
ROOT
ATOM      1  C   UNL d   1      -1.443  -0.114   2.493  0.00  0.00    -0.033 A 
ATOM      2  C1  UNL d   1      -2.810  -0.090   2.772  0.00  0.00     0.039 A 
ATOM      3  C2  UNL d   1      -3.558   1.061   2.516  0.00  0.00    -0.080 A 
ATOM      4  C3  UNL d   1      -2.926   2.179   1.979  0.00  0.00     0.150 A 
ATOM      5  C4  UNL d   1      -1.565   2.161   1.694  0.00  0.00    -0.007 A 
ATOM      6  C5  UNL d   1      -0.820   1.011   1.952  0.00  0.00     0.039 A 
ENDROOT
BRANCH   4   7
ATOM      7  O   UNL d   1      -3.613   3.327   1.716  0.00  0.00    -0.526 OA
ATOM      8  H5  UNL d   1      -4.537   3.203   1.989  0.00  0.00     0.418 HD
ENDBRANCH   4   7
TORSDOF 1
ENDMDL
