MODEL 1
REMARK minimizedAffinity 7.52250862
REMARK minimizedRMSD -1
REMARK  1 active torsions:
REMARK  status: ('A' for Active; 'I' for Inactive)
REMARK    1  A    between atoms: C3_4  and  O_7 
ROOT
ATOM      1  C   UNL d   1      -6.000  -3.048  -5.102  0.00  0.00    -0.033 A 
ATOM      2  C1  UNL d   1      -4.890  -2.295  -4.715  0.00  0.00     0.039 A 
ATOM      3  C2  UNL d   1      -3.600  -2.767  -4.968  0.00  0.00    -0.080 A 
ATOM      4  C3  UNL d   1      -3.435  -3.993  -5.608  0.00  0.00     0.150 A 
ATOM      5  C4  UNL d   1      -4.537  -4.746  -5.999  0.00  0.00    -0.007 A 
ATOM      6  C5  UNL d   1      -5.823  -4.273  -5.746  0.00  0.00     0.039 A 
ENDROOT
BRANCH   4   7
ATOM      7  O   UNL d   1      -2.197  -4.497  -5.871  0.00  0.00    -0.526 OA
ATOM      8  H5  UNL d   1      -1.532  -3.882  -5.519  0.00  0.00     0.418 HD
ENDBRANCH   4   7
TORSDOF 1
ENDMDL
