MODEL 1
REMARK minimizedAffinity 6.34583378
REMARK minimizedRMSD -1
REMARK  1 active torsions:
REMARK  status: ('A' for Active; 'I' for Inactive)
REMARK    1  A    between atoms: C3_4  and  O_7 
ROOT
ATOM      1  C   UNL d   1      -1.259  -1.689  -5.809  0.00  0.00    -0.033 A 
ATOM      2  C1  UNL d   1      -0.293  -2.642  -5.479  0.00  0.00     0.039 A 
ATOM      3  C2  UNL d   1       0.810  -2.280  -4.704  0.00  0.00    -0.080 A 
ATOM      4  C3  UNL d   1       0.936  -0.965  -4.266  0.00  0.00     0.150 A 
ATOM      5  C4  UNL d   1      -0.025  -0.011  -4.588  0.00  0.00    -0.007 A 
ATOM      6  C5  UNL d   1      -1.126  -0.374  -5.362  0.00  0.00     0.039 A 
ENDROOT
BRANCH   4   7
ATOM      7  O   UNL d   1       1.998  -0.563  -3.512  0.00  0.00    -0.526 OA
ATOM      8  H5  UNL d   1       2.595  -1.321  -3.392  0.00  0.00     0.418 HD
ENDBRANCH   4   7
TORSDOF 1
ENDMDL
