MODEL 1
REMARK minimizedAffinity 2.56747603
REMARK minimizedRMSD -1
REMARK  1 active torsions:
REMARK  status: ('A' for Active; 'I' for Inactive)
REMARK    1  A    between atoms: C3_4  and  O_7 
ROOT
ATOM      1  C   UNL d   1      -6.000  -4.319  -5.965  0.00  0.00    -0.033 A 
ATOM      2  C1  UNL d   1      -5.740  -2.948  -5.945  0.00  0.00     0.039 A 
ATOM      3  C2  UNL d   1      -4.422  -2.485  -5.951  0.00  0.00    -0.080 A 
ATOM      4  C3  UNL d   1      -3.376  -3.403  -5.977  0.00  0.00     0.150 A 
ATOM      5  C4  UNL d   1      -3.628  -4.770  -6.000  0.00  0.00    -0.007 A 
ATOM      6  C5  UNL d   1      -4.944  -5.231  -5.994  0.00  0.00     0.039 A 
ENDROOT
BRANCH   4   7
ATOM      7  O   UNL d   1      -2.074  -2.999  -5.978  0.00  0.00    -0.526 OA
ATOM      8  H5  UNL d   1      -2.052  -2.029  -5.931  0.00  0.00     0.418 HD
ENDBRANCH   4   7
TORSDOF 1
ENDMDL
