MODEL 1
REMARK minimizedAffinity 8.99120998
REMARK minimizedRMSD -1
REMARK  1 active torsions:
REMARK  status: ('A' for Active; 'I' for Inactive)
REMARK    1  A    between atoms: C3_4  and  O_7 
ROOT
ATOM      1  C   UNL d   1       4.711   3.788  -4.550  0.00  0.00    -0.033 A 
ATOM      2  C1  UNL d   1       3.871   3.408  -5.598  0.00  0.00     0.039 A 
ATOM      3  C2  UNL d   1       2.708   4.135  -5.862  0.00  0.00    -0.080 A 
ATOM      4  C3  UNL d   1       2.399   5.239  -5.073  0.00  0.00     0.150 A 
ATOM      5  C4  UNL d   1       3.233   5.626  -4.030  0.00  0.00    -0.007 A 
ATOM      6  C5  UNL d   1       4.393   4.898  -3.767  0.00  0.00     0.039 A 
ENDROOT
BRANCH   4   7
ATOM      7  O   UNL d   1       1.273   5.976  -5.289  0.00  0.00    -0.526 OA
ATOM      8  H5  UNL d   1       0.778   5.574  -6.023  0.00  0.00     0.418 HD
ENDBRANCH   4   7
TORSDOF 1
ENDMDL
