MODEL 1
REMARK minimizedAffinity 8.31803131
REMARK minimizedRMSD -1
REMARK  1 active torsions:
REMARK  status: ('A' for Active; 'I' for Inactive)
REMARK    1  A    between atoms: C3_4  and  O_7 
ROOT
ATOM      1  C   UNL d   1      -0.712  -0.266   1.214  0.00  0.00    -0.033 A 
ATOM      2  C1  UNL d   1      -0.110   0.781   1.913  0.00  0.00     0.039 A 
ATOM      3  C2  UNL d   1      -0.835   1.938   2.202  0.00  0.00    -0.080 A 
ATOM      4  C3  UNL d   1      -2.161   2.035   1.788  0.00  0.00     0.150 A 
ATOM      5  C4  UNL d   1      -2.768   0.994   1.094  0.00  0.00    -0.007 A 
ATOM      6  C5  UNL d   1      -2.042  -0.160   0.805  0.00  0.00     0.039 A 
ENDROOT
BRANCH   4   7
ATOM      7  O   UNL d   1      -2.908   3.147   2.043  0.00  0.00    -0.526 OA
ATOM      8  H5  UNL d   1      -2.349   3.794   2.504  0.00  0.00     0.418 HD
ENDBRANCH   4   7
TORSDOF 1
ENDMDL
