MODEL 1
REMARK minimizedAffinity 5.44400978
REMARK minimizedRMSD -1
REMARK  1 active torsions:
REMARK  status: ('A' for Active; 'I' for Inactive)
REMARK    1  A    between atoms: C3_4  and  O_7 
ROOT
ATOM      1  C   UNL d   1       4.066   0.856  -5.989  0.00  0.00    -0.033 A 
ATOM      2  C1  UNL d   1       4.410  -0.458  -5.668  0.00  0.00     0.039 A 
ATOM      3  C2  UNL d   1       3.671  -1.162  -4.715  0.00  0.00    -0.080 A 
ATOM      4  C3  UNL d   1       2.592  -0.541  -4.092  0.00  0.00     0.150 A 
ATOM      5  C4  UNL d   1       2.241   0.767  -4.410  0.00  0.00    -0.007 A 
ATOM      6  C5  UNL d   1       2.981   1.469  -5.361  0.00  0.00     0.039 A 
ENDROOT
BRANCH   4   7
ATOM      7  O   UNL d   1       1.844  -1.185  -3.152  0.00  0.00    -0.526 OA
ATOM      8  H5  UNL d   1       2.220  -2.071  -3.014  0.00  0.00     0.418 HD
ENDBRANCH   4   7
TORSDOF 1
ENDMDL
