MODEL 1
REMARK minimizedAffinity 5.54673767
REMARK minimizedRMSD -1
REMARK  1 active torsions:
REMARK  status: ('A' for Active; 'I' for Inactive)
REMARK    1  A    between atoms: C3_4  and  O_7 
ROOT
ATOM      1  C   UNL d   1       2.620  -0.214  -4.284  0.00  0.00    -0.033 A 
ATOM      2  C1  UNL d   1       2.848   0.761  -3.310  0.00  0.00     0.039 A 
ATOM      3  C2  UNL d   1       3.313   2.025  -3.680  0.00  0.00    -0.080 A 
ATOM      4  C3  UNL d   1       3.543   2.301  -5.024  0.00  0.00     0.150 A 
ATOM      5  C4  UNL d   1       3.314   1.337  -6.000  0.00  0.00    -0.007 A 
ATOM      6  C5  UNL d   1       2.852   0.075  -5.629  0.00  0.00     0.039 A 
ENDROOT
BRANCH   4   7
ATOM      7  O   UNL d   1       4.001   3.519  -5.433  0.00  0.00    -0.526 OA
ATOM      8  H5  UNL d   1       4.141   4.074  -4.648  0.00  0.00     0.418 HD
ENDBRANCH   4   7
TORSDOF 1
ENDMDL
