MODEL 1
REMARK minimizedAffinity 5.06480932
REMARK minimizedRMSD -1
REMARK  1 active torsions:
REMARK  status: ('A' for Active; 'I' for Inactive)
REMARK    1  A    between atoms: C3_4  and  O_7 
ROOT
ATOM      1  C   UNL d   1      -2.783   1.066   1.526  0.00  0.00    -0.033 A 
ATOM      2  C1  UNL d   1      -2.811   0.415   2.761  0.00  0.00     0.039 A 
ATOM      3  C2  UNL d   1      -1.620   0.006   3.363  0.00  0.00    -0.080 A 
ATOM      4  C3  UNL d   1      -0.409   0.254   2.722  0.00  0.00     0.150 A 
ATOM      5  C4  UNL d   1      -0.374   0.906   1.493  0.00  0.00    -0.007 A 
ATOM      6  C5  UNL d   1      -1.565   1.313   0.893  0.00  0.00     0.039 A 
ENDROOT
BRANCH   4   7
ATOM      7  O   UNL d   1       0.779  -0.131   3.268  0.00  0.00    -0.526 OA
ATOM      8  H5  UNL d   1       0.598  -0.595   4.103  0.00  0.00     0.418 HD
ENDBRANCH   4   7
TORSDOF 1
ENDMDL
