MODEL 1
REMARK minimizedAffinity 10.8460836
REMARK minimizedRMSD -1
REMARK  1 active torsions:
REMARK  status: ('A' for Active; 'I' for Inactive)
REMARK    1  A    between atoms: C3_4  and  O_7 
ROOT
ATOM      1  C   UNL d   1      -1.059   1.333   2.082  0.00  0.00    -0.033 A 
ATOM      2  C1  UNL d   1      -2.289   1.945   2.331  0.00  0.00     0.039 A 
ATOM      3  C2  UNL d   1      -3.440   1.168   2.483  0.00  0.00    -0.080 A 
ATOM      4  C3  UNL d   1      -3.346  -0.217   2.385  0.00  0.00     0.150 A 
ATOM      5  C4  UNL d   1      -2.123  -0.834   2.140  0.00  0.00    -0.007 A 
ATOM      6  C5  UNL d   1      -0.976  -0.057   1.988  0.00  0.00     0.039 A 
ENDROOT
BRANCH   4   7
ATOM      7  O   UNL d   1      -4.442  -1.017   2.521  0.00  0.00    -0.526 OA
ATOM      8  H5  UNL d   1      -5.220  -0.451   2.658  0.00  0.00     0.418 HD
ENDBRANCH   4   7
TORSDOF 1
ENDMDL
