MODEL 1
REMARK minimizedAffinity 2.94207597
REMARK minimizedRMSD -1
REMARK  1 active torsions:
REMARK  status: ('A' for Active; 'I' for Inactive)
REMARK    1  A    between atoms: C3_4  and  O_7 
ROOT
ATOM      1  C   UNL d   1      -5.708  -2.275  -5.071  0.00  0.00    -0.033 A 
ATOM      2  C1  UNL d   1      -5.619  -1.121  -4.290  0.00  0.00     0.039 A 
ATOM      3  C2  UNL d   1      -5.714  -1.207  -2.900  0.00  0.00    -0.080 A 
ATOM      4  C3  UNL d   1      -5.897  -2.452  -2.303  0.00  0.00     0.150 A 
ATOM      5  C4  UNL d   1      -5.982  -3.606  -3.075  0.00  0.00    -0.007 A 
ATOM      6  C5  UNL d   1      -5.888  -3.518  -4.463  0.00  0.00     0.039 A 
ENDROOT
BRANCH   4   7
ATOM      7  O   UNL d   1      -6.000  -2.585  -0.950  0.00  0.00    -0.526 OA
ATOM      8  H5  UNL d   1      -5.952  -1.702  -0.549  0.00  0.00     0.418 HD
ENDBRANCH   4   7
TORSDOF 1
ENDMDL
