MODEL 1
REMARK minimizedAffinity 7.91687393
REMARK minimizedRMSD -1
REMARK  1 active torsions:
REMARK  status: ('A' for Active; 'I' for Inactive)
REMARK    1  A    between atoms: C3_4  and  O_7 
ROOT
ATOM      1  C   UNL d   1      -3.570  -1.211   0.400  0.00  0.00    -0.033 A 
ATOM      2  C1  UNL d   1      -3.620  -2.482  -0.175  0.00  0.00     0.039 A 
ATOM      3  C2  UNL d   1      -2.506  -3.321  -0.118  0.00  0.00    -0.080 A 
ATOM      4  C3  UNL d   1      -1.349  -2.878   0.518  0.00  0.00     0.150 A 
ATOM      5  C4  UNL d   1      -1.293  -1.615   1.097  0.00  0.00    -0.007 A 
ATOM      6  C5  UNL d   1      -2.407  -0.778   1.038  0.00  0.00     0.039 A 
ENDROOT
BRANCH   4   7
ATOM      7  O   UNL d   1      -0.235  -3.660   0.595  0.00  0.00    -0.526 OA
ATOM      8  H5  UNL d   1      -0.411  -4.493   0.127  0.00  0.00     0.418 HD
ENDBRANCH   4   7
TORSDOF 1
ENDMDL
