MODEL 1
REMARK minimizedAffinity 2.28432846
REMARK minimizedRMSD -1
REMARK  1 active torsions:
REMARK  status: ('A' for Active; 'I' for Inactive)
REMARK    1  A    between atoms: C3_4  and  O_7 
ROOT
ATOM      1  C   UNL d   1       0.190   1.095  -1.102  0.00  0.00    -0.033 A 
ATOM      2  C1  UNL d   1       0.004  -0.258  -0.810  0.00  0.00     0.039 A 
ATOM      3  C2  UNL d   1       0.340  -1.231  -1.753  0.00  0.00    -0.080 A 
ATOM      4  C3  UNL d   1       0.862  -0.838  -2.983  0.00  0.00     0.150 A 
ATOM      5  C4  UNL d   1       1.054   0.507  -3.279  0.00  0.00    -0.007 A 
ATOM      6  C5  UNL d   1       0.716   1.477  -2.336  0.00  0.00     0.039 A 
ENDROOT
BRANCH   4   7
ATOM      7  O   UNL d   1       1.200  -1.751  -3.937  0.00  0.00    -0.526 OA
ATOM      8  H5  UNL d   1       0.986  -2.639  -3.604  0.00  0.00     0.418 HD
ENDBRANCH   4   7
TORSDOF 1
ENDMDL
