MODEL 1
REMARK minimizedAffinity -1.25911951
REMARK minimizedRMSD -1
REMARK  1 active torsions:
REMARK  status: ('A' for Active; 'I' for Inactive)
REMARK    1  A    between atoms: C3_4  and  O_7 
ROOT
ATOM      1  C   UNL d   1       5.996   0.418  -3.894  0.00  0.00    -0.033 A 
ATOM      2  C1  UNL d   1       6.000  -0.741  -3.115  0.00  0.00     0.039 A 
ATOM      3  C2  UNL d   1       5.999  -1.996  -3.727  0.00  0.00    -0.080 A 
ATOM      4  C3  UNL d   1       5.996  -2.078  -5.117  0.00  0.00     0.150 A 
ATOM      5  C4  UNL d   1       5.996  -0.928  -5.899  0.00  0.00    -0.007 A 
ATOM      6  C5  UNL d   1       5.996   0.324  -5.286  0.00  0.00     0.039 A 
ENDROOT
BRANCH   4   7
ATOM      7  O   UNL d   1       5.990  -3.280  -5.760  0.00  0.00    -0.526 OA
ATOM      8  H5  UNL d   1       5.961  -3.986  -5.092  0.00  0.00     0.418 HD
ENDBRANCH   4   7
TORSDOF 1
ENDMDL
