MODEL 1
REMARK minimizedAffinity -4.87852192
REMARK minimizedRMSD -1
REMARK  1 active torsions:
REMARK  status: ('A' for Active; 'I' for Inactive)
REMARK    1  A    between atoms: C3_4  and  O_7 
ROOT
ATOM      1  C   UNL d   1      -3.739   5.385   3.918  0.00  0.00    -0.033 A 
ATOM      2  C1  UNL d   1      -3.563   4.195   3.209  0.00  0.00     0.039 A 
ATOM      3  C2  UNL d   1      -3.375   2.994   3.895  0.00  0.00    -0.080 A 
ATOM      4  C3  UNL d   1      -3.365   2.996   5.287  0.00  0.00     0.150 A 
ATOM      5  C4  UNL d   1      -3.543   4.177   5.999  0.00  0.00    -0.007 A 
ATOM      6  C5  UNL d   1      -3.730   5.376   5.313  0.00  0.00     0.039 A 
ENDROOT
BRANCH   4   7
ATOM      7  O   UNL d   1      -3.180   1.849   6.000  0.00  0.00    -0.526 OA
ATOM      8  H5  UNL d   1      -3.042   1.117   5.375  0.00  0.00     0.418 HD
ENDBRANCH   4   7
TORSDOF 1
ENDMDL
