MODEL 1
REMARK minimizedAffinity 0.0370720364
REMARK minimizedRMSD -1
REMARK  1 active torsions:
REMARK  status: ('A' for Active; 'I' for Inactive)
REMARK    1  A    between atoms: C3_4  and  O_7 
ROOT
ATOM      1  C   UNL d   1       5.274  -0.910   3.826  0.00  0.00    -0.033 A 
ATOM      2  C1  UNL d   1       4.191  -0.764   2.957  0.00  0.00     0.039 A 
ATOM      3  C2  UNL d   1       3.828   0.503   2.497  0.00  0.00    -0.080 A 
ATOM      4  C3  UNL d   1       4.556   1.615   2.910  0.00  0.00     0.150 A 
ATOM      5  C4  UNL d   1       5.639   1.477   3.772  0.00  0.00    -0.007 A 
ATOM      6  C5  UNL d   1       6.000   0.211   4.232  0.00  0.00     0.039 A 
ENDROOT
BRANCH   4   7
ATOM      7  O   UNL d   1       4.237   2.872   2.491  0.00  0.00    -0.526 OA
ATOM      8  H5  UNL d   1       3.451   2.817   1.923  0.00  0.00     0.418 HD
ENDBRANCH   4   7
TORSDOF 1
ENDMDL
