MODEL 1
REMARK minimizedAffinity 8.26806736
REMARK minimizedRMSD -1
REMARK  1 active torsions:
REMARK  status: ('A' for Active; 'I' for Inactive)
REMARK    1  A    between atoms: C3_4  and  O_7 
ROOT
ATOM      1  C   UNL d   1       0.723   1.047  -2.255  0.00  0.00    -0.033 A 
ATOM      2  C1  UNL d   1       0.213   0.191  -1.277  0.00  0.00     0.039 A 
ATOM      3  C2  UNL d   1       0.308  -1.192  -1.439  0.00  0.00    -0.080 A 
ATOM      4  C3  UNL d   1       0.915  -1.706  -2.581  0.00  0.00     0.150 A 
ATOM      5  C4  UNL d   1       1.428  -0.859  -3.558  0.00  0.00    -0.007 A 
ATOM      6  C5  UNL d   1       1.332   0.522  -3.395  0.00  0.00     0.039 A 
ENDROOT
BRANCH   4   7
ATOM      7  O   UNL d   1       1.026  -3.049  -2.786  0.00  0.00    -0.526 OA
ATOM      8  H5  UNL d   1       0.602  -3.510  -2.043  0.00  0.00     0.418 HD
ENDBRANCH   4   7
TORSDOF 1
ENDMDL
