MODEL 1
REMARK minimizedAffinity 1.04485941
REMARK minimizedRMSD -1
REMARK  1 active torsions:
REMARK  status: ('A' for Active; 'I' for Inactive)
REMARK    1  A    between atoms: C3_4  and  O_7 
ROOT
ATOM      1  C   UNL d   1      -4.508   0.010   5.239  0.00  0.00    -0.033 A 
ATOM      2  C1  UNL d   1      -3.352   0.243   4.491  0.00  0.00     0.039 A 
ATOM      3  C2  UNL d   1      -2.759   1.507   4.494  0.00  0.00    -0.080 A 
ATOM      4  C3  UNL d   1      -3.331   2.528   5.249  0.00  0.00     0.150 A 
ATOM      5  C4  UNL d   1      -4.480   2.302   5.999  0.00  0.00    -0.007 A 
ATOM      6  C5  UNL d   1      -5.071   1.039   5.994  0.00  0.00     0.039 A 
ENDROOT
BRANCH   4   7
ATOM      7  O   UNL d   1      -2.791   3.779   5.279  0.00  0.00    -0.526 OA
ATOM      8  H5  UNL d   1      -2.017   3.795   4.691  0.00  0.00     0.418 HD
ENDBRANCH   4   7
TORSDOF 1
ENDMDL
