MODEL 1
REMARK minimizedAffinity 3.67130852
REMARK minimizedRMSD -1
REMARK  1 active torsions:
REMARK  status: ('A' for Active; 'I' for Inactive)
REMARK    1  A    between atoms: C3_4  and  O_7 
ROOT
ATOM      1  C   UNL d   1       0.936   0.512  -1.159  0.00  0.00    -0.033 A 
ATOM      2  C1  UNL d   1       1.258   0.874  -2.468  0.00  0.00     0.039 A 
ATOM      3  C2  UNL d   1       2.200   1.876  -2.706  0.00  0.00    -0.080 A 
ATOM      4  C3  UNL d   1       2.813   2.508  -1.627  0.00  0.00     0.150 A 
ATOM      5  C4  UNL d   1       2.499   2.150  -0.320  0.00  0.00    -0.007 A 
ATOM      6  C5  UNL d   1       1.557   1.149  -0.084  0.00  0.00     0.039 A 
ENDROOT
BRANCH   4   7
ATOM      7  O   UNL d   1       3.735   3.495  -1.809  0.00  0.00    -0.526 OA
ATOM      8  H5  UNL d   1       3.830   3.656  -2.763  0.00  0.00     0.418 HD
ENDBRANCH   4   7
TORSDOF 1
ENDMDL
