MODEL 1
REMARK minimizedAffinity 4.96094751
REMARK minimizedRMSD -1
REMARK  1 active torsions:
REMARK  status: ('A' for Active; 'I' for Inactive)
REMARK    1  A    between atoms: C3_4  and  O_7 
ROOT
ATOM      1  C   UNL d   1       0.058   0.601  -1.072  0.00  0.00    -0.033 A 
ATOM      2  C1  UNL d   1       0.306  -0.734  -0.748  0.00  0.00     0.039 A 
ATOM      3  C2  UNL d   1       0.755  -1.620  -1.730  0.00  0.00    -0.080 A 
ATOM      4  C3  UNL d   1       0.953  -1.159  -3.028  0.00  0.00     0.150 A 
ATOM      5  C4  UNL d   1       0.712   0.171  -3.356  0.00  0.00    -0.007 A 
ATOM      6  C5  UNL d   1       0.263   1.054  -2.375  0.00  0.00     0.039 A 
ENDROOT
BRANCH   4   7
ATOM      7  O   UNL d   1       1.386  -1.987  -4.020  0.00  0.00    -0.526 OA
ATOM      8  H5  UNL d   1       1.483  -2.882  -3.654  0.00  0.00     0.418 HD
ENDBRANCH   4   7
TORSDOF 1
ENDMDL
