MODEL 1
REMARK minimizedAffinity 3.38161397
REMARK minimizedRMSD -1
REMARK  1 active torsions:
REMARK  status: ('A' for Active; 'I' for Inactive)
REMARK    1  A    between atoms: C3_4  and  O_7 
ROOT
ATOM      1  C   UNL d   1      -4.873   5.995   5.999  0.00  0.00    -0.033 A 
ATOM      2  C1  UNL d   1      -5.571   5.833   4.800  0.00  0.00     0.039 A 
ATOM      3  C2  UNL d   1      -4.875   5.677   3.600  0.00  0.00    -0.080 A 
ATOM      4  C3  UNL d   1      -3.483   5.683   3.612  0.00  0.00     0.150 A 
ATOM      5  C4  UNL d   1      -2.781   5.840   4.803  0.00  0.00    -0.007 A 
ATOM      6  C5  UNL d   1      -3.478   5.997   6.000  0.00  0.00     0.039 A 
ENDROOT
BRANCH   4   7
ATOM      7  O   UNL d   1      -2.759   5.539   2.465  0.00  0.00    -0.526 OA
ATOM      8  H5  UNL d   1      -3.377   5.469   1.719  0.00  0.00     0.418 HD
ENDBRANCH   4   7
TORSDOF 1
ENDMDL
