MODEL 1
REMARK minimizedAffinity 2.04505348
REMARK minimizedRMSD -1
REMARK  1 active torsions:
REMARK  status: ('A' for Active; 'I' for Inactive)
REMARK    1  A    between atoms: C3_4  and  O_7 
ROOT
ATOM      1  C   UNL d   1       4.003   5.256  -3.553  0.00  0.00    -0.033 A 
ATOM      2  C1  UNL d   1       3.367   4.804  -4.710  0.00  0.00     0.039 A 
ATOM      3  C2  UNL d   1       3.963   3.816  -5.496  0.00  0.00    -0.080 A 
ATOM      4  C3  UNL d   1       5.194   3.289  -5.113  0.00  0.00     0.150 A 
ATOM      5  C4  UNL d   1       5.831   3.732  -3.959  0.00  0.00    -0.007 A 
ATOM      6  C5  UNL d   1       5.234   4.719  -3.176  0.00  0.00     0.039 A 
ENDROOT
BRANCH   4   7
ATOM      7  O   UNL d   1       5.817   2.326  -5.850  0.00  0.00    -0.526 OA
ATOM      8  H5  UNL d   1       5.274   2.139  -6.634  0.00  0.00     0.418 HD
ENDBRANCH   4   7
TORSDOF 1
ENDMDL
