MODEL 1
REMARK minimizedAffinity 1.27668512
REMARK minimizedRMSD -1
REMARK  1 active torsions:
REMARK  status: ('A' for Active; 'I' for Inactive)
REMARK    1  A    between atoms: C3_4  and  O_7 
ROOT
ATOM      1  C   UNL d   1      -3.525  -1.682   3.353  0.00  0.00    -0.033 A 
ATOM      2  C1  UNL d   1      -2.536  -1.565   4.332  0.00  0.00     0.039 A 
ATOM      3  C2  UNL d   1      -2.564  -0.498   5.231  0.00  0.00    -0.080 A 
ATOM      4  C3  UNL d   1      -3.586   0.444   5.143  0.00  0.00     0.150 A 
ATOM      5  C4  UNL d   1      -4.577   0.332   4.173  0.00  0.00    -0.007 A 
ATOM      6  C5  UNL d   1      -4.546  -0.734   3.275  0.00  0.00     0.039 A 
ENDROOT
BRANCH   4   7
ATOM      7  O   UNL d   1      -3.653   1.506   5.996  0.00  0.00    -0.526 OA
ATOM      8  H5  UNL d   1      -2.887   1.469   6.593  0.00  0.00     0.418 HD
ENDBRANCH   4   7
TORSDOF 1
ENDMDL
