MODEL 1
REMARK minimizedAffinity 0.905393958
REMARK minimizedRMSD -1
REMARK  1 active torsions:
REMARK  status: ('A' for Active; 'I' for Inactive)
REMARK    1  A    between atoms: C3_4  and  O_7 
ROOT
ATOM      1  C   UNL d   1      -4.771   5.999   5.783  0.00  0.00    -0.033 A 
ATOM      2  C1  UNL d   1      -5.275   5.976   4.481  0.00  0.00     0.039 A 
ATOM      3  C2  UNL d   1      -4.400   5.957   3.393  0.00  0.00    -0.080 A 
ATOM      4  C3  UNL d   1      -3.027   5.961   3.620  0.00  0.00     0.150 A 
ATOM      5  C4  UNL d   1      -2.518   5.980   4.914  0.00  0.00    -0.007 A 
ATOM      6  C5  UNL d   1      -3.393   6.000   6.000  0.00  0.00     0.039 A 
ENDROOT
BRANCH   4   7
ATOM      7  O   UNL d   1      -2.134   5.948   2.589  0.00  0.00    -0.526 OA
ATOM      8  H5  UNL d   1      -2.629   5.965   1.753  0.00  0.00     0.418 HD
ENDBRANCH   4   7
TORSDOF 1
ENDMDL
