MODEL 1
REMARK minimizedAffinity -1.79455304
REMARK minimizedRMSD -1
REMARK  1 active torsions:
REMARK  status: ('A' for Active; 'I' for Inactive)
REMARK    1  A    between atoms: C3_4  and  O_7 
ROOT
ATOM      1  C   UNL d   1       1.525   2.470  -1.135  0.00  0.00    -0.033 A 
ATOM      2  C1  UNL d   1       2.342   1.807  -0.216  0.00  0.00     0.039 A 
ATOM      3  C2  UNL d   1       2.090   0.473   0.109  0.00  0.00    -0.080 A 
ATOM      4  C3  UNL d   1       1.021  -0.187  -0.491  0.00  0.00     0.150 A 
ATOM      5  C4  UNL d   1       0.206   0.466  -1.410  0.00  0.00    -0.007 A 
ATOM      6  C5  UNL d   1       0.458   1.799  -1.733  0.00  0.00     0.039 A 
ENDROOT
BRANCH   4   7
ATOM      7  O   UNL d   1       0.733  -1.487  -0.201  0.00  0.00    -0.526 OA
ATOM      8  H5  UNL d   1       1.363  -1.800   0.470  0.00  0.00     0.418 HD
ENDBRANCH   4   7
TORSDOF 1
ENDMDL
