MODEL 1
REMARK minimizedAffinity 5.06693316
REMARK minimizedRMSD -1
REMARK  1 active torsions:
REMARK  status: ('A' for Active; 'I' for Inactive)
REMARK    1  A    between atoms: C3_4  and  O_7 
ROOT
ATOM      1  C   UNL d   1       5.570   3.517  -4.481  0.00  0.00    -0.033 A 
ATOM      2  C1  UNL d   1       5.164   2.627  -5.477  0.00  0.00     0.039 A 
ATOM      3  C2  UNL d   1       3.871   2.705  -6.000  0.00  0.00    -0.080 A 
ATOM      4  C3  UNL d   1       2.997   3.676  -5.519  0.00  0.00     0.150 A 
ATOM      5  C4  UNL d   1       3.397   4.568  -4.529  0.00  0.00    -0.007 A 
ATOM      6  C5  UNL d   1       4.688   4.488  -4.008  0.00  0.00     0.039 A 
ENDROOT
BRANCH   4   7
ATOM      7  O   UNL d   1       1.725   3.788  -5.995  0.00  0.00    -0.526 OA
ATOM      8  H5  UNL d   1       1.580   3.088  -6.653  0.00  0.00     0.418 HD
ENDBRANCH   4   7
TORSDOF 1
ENDMDL
