MODEL 1
REMARK minimizedAffinity 3.61627889
REMARK minimizedRMSD -1
REMARK  1 active torsions:
REMARK  status: ('A' for Active; 'I' for Inactive)
REMARK    1  A    between atoms: C3_4  and  O_7 
ROOT
ATOM      1  C   UNL d   1      -5.186   5.968   6.000  0.00  0.00    -0.033 A 
ATOM      2  C1  UNL d   1      -3.794   5.973   5.895  0.00  0.00     0.039 A 
ATOM      3  C2  UNL d   1      -3.187   5.985   4.637  0.00  0.00    -0.080 A 
ATOM      4  C3  UNL d   1      -3.982   5.993   3.495  0.00  0.00     0.150 A 
ATOM      5  C4  UNL d   1      -5.370   5.991   3.592  0.00  0.00    -0.007 A 
ATOM      6  C5  UNL d   1      -5.974   5.978   4.849  0.00  0.00     0.039 A 
ENDROOT
BRANCH   4   7
ATOM      7  O   UNL d   1      -3.436   6.000   2.246  0.00  0.00    -0.526 OA
ATOM      8  H5  UNL d   1      -2.468   5.971   2.333  0.00  0.00     0.418 HD
ENDBRANCH   4   7
TORSDOF 1
ENDMDL
