MODEL 1
REMARK minimizedAffinity -4.65265799
REMARK minimizedRMSD -1
REMARK  1 active torsions:
REMARK  status: ('A' for Active; 'I' for Inactive)
REMARK    1  A    between atoms: C1_2  and  C2_3 
ROOT
ATOM      1  C2  UNL d   1       0.125  -0.276   0.219  0.00  0.00    -0.077 A 
ATOM      2  C3  UNL d   1       0.568  -0.195   1.546  0.00  0.00     0.002 A 
ATOM      3  C4  UNL d   1       1.645  -0.970   1.980  0.00  0.00     0.002 A 
ATOM      4  C5  UNL d   1       2.291  -1.828   1.091  0.00  0.00    -0.004 A 
ATOM      5  C6  UNL d   1       1.856  -1.918  -0.230  0.00  0.00     0.002 A 
ATOM      6  C7  UNL d   1       0.779  -1.144  -0.665  0.00  0.00     0.002 A 
ENDROOT
BRANCH   1   7
ATOM      7  C1  UNL d   1      -1.005   0.595  -0.263  0.00  0.00     0.055 C 
ATOM      8  C   UNL d   1      -2.114   0.689   0.775  0.00  0.00     0.019 C 
ENDBRANCH   1   7
TORSDOF 1
ENDMDL
