MODEL 1
REMARK minimizedAffinity -5.5428791
REMARK minimizedRMSD -1
REMARK  1 active torsions:
REMARK  status: ('A' for Active; 'I' for Inactive)
REMARK    1  A    between atoms: C1_2  and  C2_3 
ROOT
ATOM      1  C2  UNL d   1      -0.149  -0.060  -0.160  0.00  0.00    -0.077 A 
ATOM      2  C3  UNL d   1       1.041   0.077   0.568  0.00  0.00     0.002 A 
ATOM      3  C4  UNL d   1       2.016  -0.921   0.522  0.00  0.00     0.002 A 
ATOM      4  C5  UNL d   1       1.812  -2.061  -0.252  0.00  0.00    -0.004 A 
ATOM      5  C6  UNL d   1       0.631  -2.208  -0.978  0.00  0.00     0.002 A 
ATOM      6  C7  UNL d   1      -0.345  -1.212  -0.932  0.00  0.00     0.002 A 
ENDROOT
BRANCH   1   7
ATOM      7  C1  UNL d   1      -1.180   1.038  -0.151  0.00  0.00     0.055 C 
ATOM      8  C   UNL d   1      -2.419   0.628   0.631  0.00  0.00     0.019 C 
ENDBRANCH   1   7
TORSDOF 1
ENDMDL
