MODEL 1
REMARK minimizedAffinity -3.35885072
REMARK minimizedRMSD -1
REMARK  1 active torsions:
REMARK  status: ('A' for Active; 'I' for Inactive)
REMARK    1  A    between atoms: C1_2  and  C2_3 
ROOT
ATOM      1  C2  UNL d   1      -0.865   1.117   0.272  0.00  0.00    -0.077 A 
ATOM      2  C3  UNL d   1      -0.301  -0.163   0.179  0.00  0.00     0.002 A 
ATOM      3  C4  UNL d   1       1.086  -0.325   0.188  0.00  0.00     0.002 A 
ATOM      4  C5  UNL d   1       1.919   0.787   0.294  0.00  0.00    -0.004 A 
ATOM      5  C6  UNL d   1       1.367   2.064   0.385  0.00  0.00     0.002 A 
ATOM      6  C7  UNL d   1      -0.019   2.228   0.375  0.00  0.00     0.002 A 
ENDROOT
BRANCH   1   7
ATOM      7  C1  UNL d   1      -2.361   1.291   0.312  0.00  0.00     0.055 C 
ATOM      8  C   UNL d   1      -2.848   1.577   1.725  0.00  0.00     0.019 C 
ENDBRANCH   1   7
TORSDOF 1
ENDMDL
