MODEL 1
REMARK minimizedAffinity 11.2970247
REMARK minimizedRMSD -1
REMARK  1 active torsions:
REMARK  status: ('A' for Active; 'I' for Inactive)
REMARK    1  A    between atoms: C1_2  and  C2_3 
ROOT
ATOM      1  C2  UNL d   1       1.819   1.759   1.049  0.00  0.00    -0.076 A 
ATOM      2  C3  UNL d   1       2.211   2.291   2.290  0.00  0.00     0.004 A 
ATOM      3  C4  UNL d   1       1.266   2.620   3.260  0.00  0.00    -0.003 A 
ATOM      4  C5  UNL d   1      -0.087   2.422   3.005  0.00  0.00     0.000 A 
ATOM      5  C6  UNL d   1      -0.492   1.880   1.786  0.00  0.00     0.000 A 
ATOM      6  C7  UNL d   1       0.449   1.527   0.804  0.00  0.00    -0.073 A 
ATOM      7  C8  UNL d   1      -0.044   0.952  -0.495  0.00  0.00     0.078 C 
ENDROOT
BRANCH   1   8
ATOM      8  C1  UNL d   1       2.888   1.447   0.026  0.00  0.00     0.053 C 
ATOM      9  C   UNL d   1       3.439   0.037   0.171  0.00  0.00     0.018 C 
ENDBRANCH   1   8
TORSDOF 1
ENDMDL
