MODEL 1
REMARK minimizedAffinity -1.30802667
REMARK minimizedRMSD -1
REMARK  1 active torsions:
REMARK  status: ('A' for Active; 'I' for Inactive)
REMARK    1  A    between atoms: C1_2  and  C2_3 
ROOT
ATOM      1  C2  UNL d   1       1.604   1.520   1.087  0.00  0.00    -0.076 A 
ATOM      2  C3  UNL d   1       1.825   1.320   2.461  0.00  0.00     0.004 A 
ATOM      3  C4  UNL d   1       0.760   1.263   3.358  0.00  0.00    -0.003 A 
ATOM      4  C5  UNL d   1      -0.544   1.402   2.896  0.00  0.00     0.000 A 
ATOM      5  C6  UNL d   1      -0.783   1.583   1.534  0.00  0.00     0.000 A 
ATOM      6  C7  UNL d   1       0.279   1.627   0.614  0.00  0.00    -0.073 A 
ATOM      7  C8  UNL d   1      -0.036   1.831  -0.842  0.00  0.00     0.078 C 
ENDROOT
BRANCH   1   8
ATOM      8  C1  UNL d   1       2.800   1.601   0.165  0.00  0.00     0.053 C 
ATOM      9  C   UNL d   1       3.464   0.249  -0.047  0.00  0.00     0.018 C 
ENDBRANCH   1   8
TORSDOF 1
ENDMDL
