MODEL 1
REMARK minimizedAffinity -3.15892577
REMARK minimizedRMSD -1
REMARK  1 active torsions:
REMARK  status: ('A' for Active; 'I' for Inactive)
REMARK    1  A    between atoms: C1_2  and  C2_3 
ROOT
ATOM      1  C2  UNL d   1       2.638   0.507  -0.367  0.00  0.00    -0.076 A 
ATOM      2  C3  UNL d   1       3.202  -0.774  -0.495  0.00  0.00     0.004 A 
ATOM      3  C4  UNL d   1       2.401  -1.915  -0.495  0.00  0.00    -0.003 A 
ATOM      4  C5  UNL d   1       1.022  -1.793  -0.368  0.00  0.00     0.000 A 
ATOM      5  C6  UNL d   1       0.443  -0.529  -0.258  0.00  0.00     0.000 A 
ATOM      6  C7  UNL d   1       1.235   0.632  -0.272  0.00  0.00    -0.073 A 
ATOM      7  C8  UNL d   1       0.558   1.969  -0.144  0.00  0.00     0.078 C 
ENDROOT
BRANCH   1   8
ATOM      8  C1  UNL d   1       3.559   1.706  -0.345  0.00  0.00     0.053 C 
ATOM      9  C   UNL d   1       4.869   1.446  -1.072  0.00  0.00     0.018 C 
ENDBRANCH   1   8
TORSDOF 1
ENDMDL
