MODEL 1
REMARK minimizedAffinity 0.099139072
REMARK minimizedRMSD -1
REMARK  1 active torsions:
REMARK  status: ('A' for Active; 'I' for Inactive)
REMARK    1  A    between atoms: C1_2  and  C2_3 
ROOT
ATOM      1  C2  UNL d   1       1.922   1.591   0.453  0.00  0.00    -0.076 A 
ATOM      2  C3  UNL d   1       2.872   2.619   0.321  0.00  0.00     0.004 A 
ATOM      3  C4  UNL d   1       4.037   2.429  -0.420  0.00  0.00    -0.003 A 
ATOM      4  C5  UNL d   1       4.270   1.207  -1.042  0.00  0.00     0.000 A 
ATOM      5  C6  UNL d   1       3.330   0.182  -0.937  0.00  0.00     0.000 A 
ATOM      6  C7  UNL d   1       2.143   0.363  -0.206  0.00  0.00    -0.073 A 
ATOM      7  C8  UNL d   1       1.167  -0.778  -0.120  0.00  0.00     0.078 C 
ENDROOT
BRANCH   1   8
ATOM      8  C1  UNL d   1       0.690   1.847   1.293  0.00  0.00     0.053 C 
ATOM      9  C   UNL d   1       0.992   1.851   2.783  0.00  0.00     0.018 C 
ENDBRANCH   1   8
TORSDOF 1
ENDMDL
