MODEL 1
REMARK minimizedAffinity 2.67101526
REMARK minimizedRMSD -1
REMARK  1 active torsions:
REMARK  status: ('A' for Active; 'I' for Inactive)
REMARK    1  A    between atoms: C1_2  and  C2_3 
ROOT
ATOM      1  C2  UNL d   1       2.106   0.444  -0.396  0.00  0.00    -0.076 A 
ATOM      2  C3  UNL d   1       3.224   0.233  -1.222  0.00  0.00     0.004 A 
ATOM      3  C4  UNL d   1       4.251   1.173  -1.293  0.00  0.00    -0.003 A 
ATOM      4  C5  UNL d   1       4.177   2.339  -0.538  0.00  0.00     0.000 A 
ATOM      5  C6  UNL d   1       3.084   2.556   0.300  0.00  0.00     0.000 A 
ATOM      6  C7  UNL d   1       2.048   1.611   0.395  0.00  0.00    -0.073 A 
ATOM      7  C8  UNL d   1       0.890   1.900   1.311  0.00  0.00     0.078 C 
ENDROOT
BRANCH   1   8
ATOM      8  C1  UNL d   1       1.010  -0.597  -0.381  0.00  0.00     0.053 C 
ATOM      9  C   UNL d   1       1.550  -2.013  -0.510  0.00  0.00     0.018 C 
ENDBRANCH   1   8
TORSDOF 1
ENDMDL
