MODEL 1
REMARK minimizedAffinity 3.6685133
REMARK minimizedRMSD -1
REMARK  1 active torsions:
REMARK  status: ('A' for Active; 'I' for Inactive)
REMARK    1  A    between atoms: C1_2  and  C2_3 
ROOT
ATOM      1  C2  UNL d   1       0.632   0.599   0.709  0.00  0.00    -0.076 A 
ATOM      2  C3  UNL d   1       0.657  -0.806   0.758  0.00  0.00     0.004 A 
ATOM      3  C4  UNL d   1       0.189  -1.570  -0.310  0.00  0.00    -0.003 A 
ATOM      4  C5  UNL d   1      -0.310  -0.941  -1.445  0.00  0.00     0.000 A 
ATOM      5  C6  UNL d   1      -0.326   0.451  -1.519  0.00  0.00     0.000 A 
ATOM      6  C7  UNL d   1       0.157   1.236  -0.457  0.00  0.00    -0.073 A 
ATOM      7  C8  UNL d   1       0.111   2.734  -0.588  0.00  0.00     0.078 C 
ENDROOT
BRANCH   1   8
ATOM      8  C1  UNL d   1       1.128   1.374   1.908  0.00  0.00     0.053 C 
ATOM      9  C   UNL d   1       0.034   2.210   2.554  0.00  0.00     0.018 C 
ENDBRANCH   1   8
TORSDOF 1
ENDMDL
