MODEL 1
REMARK minimizedAffinity -5.62517405
REMARK minimizedRMSD -1
REMARK  1 active torsions:
REMARK  status: ('A' for Active; 'I' for Inactive)
REMARK    1  A    between atoms: C1_2  and  C2_3 
ROOT
ATOM      1  C2  UNL d   1      -0.869   1.264  -0.050  0.00  0.00    -0.077 A 
ATOM      2  C3  UNL d   1      -0.908   1.821  -1.336  0.00  0.00     0.002 A 
ATOM      3  C4  UNL d   1      -0.674   1.024  -2.459  0.00  0.00     0.002 A 
ATOM      4  C5  UNL d   1      -0.404  -0.334  -2.307  0.00  0.00    -0.004 A 
ATOM      5  C6  UNL d   1      -0.361  -0.897  -1.032  0.00  0.00     0.002 A 
ATOM      6  C7  UNL d   1      -0.594  -0.103   0.091  0.00  0.00     0.002 A 
ENDROOT
BRANCH   1   7
ATOM      7  C1  UNL d   1      -1.170   2.111   1.158  0.00  0.00     0.055 C 
ATOM      8  C   UNL d   1       0.060   2.277   2.038  0.00  0.00     0.019 C 
ENDBRANCH   1   7
TORSDOF 1
ENDMDL
