MODEL 1
REMARK minimizedAffinity -4.48244381
REMARK minimizedRMSD -1
REMARK  1 active torsions:
REMARK  status: ('A' for Active; 'I' for Inactive)
REMARK    1  A    between atoms: C1_2  and  C2_3 
ROOT
ATOM      1  C2  UNL d   1       0.126   0.268  -0.253  0.00  0.00    -0.077 A 
ATOM      2  C3  UNL d   1      -0.799   1.304  -0.441  0.00  0.00     0.002 A 
ATOM      3  C4  UNL d   1      -1.176   2.117   0.629  0.00  0.00     0.002 A 
ATOM      4  C5  UNL d   1      -0.631   1.905   1.893  0.00  0.00    -0.004 A 
ATOM      5  C6  UNL d   1       0.288   0.875   2.092  0.00  0.00     0.002 A 
ATOM      6  C7  UNL d   1       0.666   0.061   1.023  0.00  0.00     0.002 A 
ENDROOT
BRANCH   1   7
ATOM      7  C1  UNL d   1       0.572  -0.579  -1.417  0.00  0.00     0.055 C 
ATOM      8  C   UNL d   1       0.468  -2.062  -1.094  0.00  0.00     0.019 C 
ENDBRANCH   1   7
TORSDOF 1
ENDMDL
