MODEL 1
REMARK minimizedAffinity -3.37941885
REMARK minimizedRMSD -1
REMARK  1 active torsions:
REMARK  status: ('A' for Active; 'I' for Inactive)
REMARK    1  A    between atoms: C1_2  and  C2_3 
ROOT
ATOM      1  C2  UNL d   1       0.470   1.429   0.563  0.00  0.00    -0.077 A 
ATOM      2  C3  UNL d   1       0.668   0.201  -0.083  0.00  0.00     0.002 A 
ATOM      3  C4  UNL d   1       0.564   0.109  -1.472  0.00  0.00     0.002 A 
ATOM      4  C5  UNL d   1       0.267   1.241  -2.227  0.00  0.00    -0.004 A 
ATOM      5  C6  UNL d   1       0.066   2.467  -1.594  0.00  0.00     0.002 A 
ATOM      6  C7  UNL d   1       0.168   2.561  -0.205  0.00  0.00     0.002 A 
ENDROOT
BRANCH   1   7
ATOM      7  C1  UNL d   1       0.630   1.541   2.057  0.00  0.00     0.055 C 
ATOM      8  C   UNL d   1       1.593   0.491   2.590  0.00  0.00     0.019 C 
ENDBRANCH   1   7
TORSDOF 1
ENDMDL
