MODEL 1
REMARK minimizedAffinity -5.48742056
REMARK minimizedRMSD -1
REMARK  1 active torsions:
REMARK  status: ('A' for Active; 'I' for Inactive)
REMARK    1  A    between atoms: C1_2  and  C2_3 
ROOT
ATOM      1  C2  UNL d   1       0.130   0.236   0.328  0.00  0.00    -0.077 A 
ATOM      2  C3  UNL d   1      -0.877   1.180   0.085  0.00  0.00     0.002 A 
ATOM      3  C4  UNL d   1      -1.303   2.037   1.103  0.00  0.00     0.002 A 
ATOM      4  C5  UNL d   1      -0.724   1.960   2.368  0.00  0.00    -0.004 A 
ATOM      5  C6  UNL d   1       0.277   1.024   2.620  0.00  0.00     0.002 A 
ATOM      6  C7  UNL d   1       0.703   0.166   1.605  0.00  0.00     0.002 A 
ENDROOT
BRANCH   1   7
ATOM      7  C1  UNL d   1       0.625  -0.655  -0.781  0.00  0.00     0.055 C 
ATOM      8  C   UNL d   1       0.035  -2.053  -0.672  0.00  0.00     0.019 C 
ENDBRANCH   1   7
TORSDOF 1
ENDMDL
