MODEL 1
REMARK minimizedAffinity -0.534768164
REMARK minimizedRMSD -1
REMARK  1 active torsions:
REMARK  status: ('A' for Active; 'I' for Inactive)
REMARK    1  A    between atoms: C1_2  and  C2_3 
ROOT
ATOM      1  C2  UNL d   1      -0.613  -1.968  -1.489  0.00  0.00    -0.077 A 
ATOM      2  C3  UNL d   1      -0.702  -1.529  -0.161  0.00  0.00     0.002 A 
ATOM      3  C4  UNL d   1      -0.193  -0.281   0.206  0.00  0.00     0.002 A 
ATOM      4  C5  UNL d   1       0.404   0.538  -0.750  0.00  0.00    -0.004 A 
ATOM      5  C6  UNL d   1       0.499   0.109  -2.073  0.00  0.00     0.002 A 
ATOM      6  C7  UNL d   1      -0.008  -1.138  -2.441  0.00  0.00     0.002 A 
ENDROOT
BRANCH   1   7
ATOM      7  C1  UNL d   1      -1.205  -3.292  -1.897  0.00  0.00     0.055 C 
ATOM      8  C   UNL d   1      -1.090  -4.318  -0.779  0.00  0.00     0.019 C 
ENDBRANCH   1   7
TORSDOF 1
ENDMDL
