MODEL 1
REMARK minimizedAffinity -4.95655584
REMARK minimizedRMSD -1
REMARK  1 active torsions:
REMARK  status: ('A' for Active; 'I' for Inactive)
REMARK    1  A    between atoms: C1_2  and  C2_3 
ROOT
ATOM      1  C2  UNL d   1       0.844   0.105   1.720  0.00  0.00    -0.077 A 
ATOM      2  C3  UNL d   1       0.133   1.199   2.233  0.00  0.00     0.002 A 
ATOM      3  C4  UNL d   1      -0.874   1.804   1.479  0.00  0.00     0.002 A 
ATOM      4  C5  UNL d   1      -1.181   1.319   0.209  0.00  0.00    -0.004 A 
ATOM      5  C6  UNL d   1      -0.478   0.233  -0.311  0.00  0.00     0.002 A 
ATOM      6  C7  UNL d   1       0.529  -0.372   0.441  0.00  0.00     0.002 A 
ENDROOT
BRANCH   1   7
ATOM      7  C1  UNL d   1       1.897  -0.579   2.552  0.00  0.00     0.055 C 
ATOM      8  C   UNL d   1       1.523  -0.581   4.027  0.00  0.00     0.019 C 
ENDBRANCH   1   7
TORSDOF 1
ENDMDL
