MODEL 1
REMARK minimizedAffinity -4.93076611
REMARK minimizedRMSD -1
REMARK  1 active torsions:
REMARK  status: ('A' for Active; 'I' for Inactive)
REMARK    1  A    between atoms: C1_2  and  C2_3 
ROOT
ATOM      1  C2  UNL d   1       0.115   1.039  -0.045  0.00  0.00    -0.077 A 
ATOM      2  C3  UNL d   1       0.516  -0.002   0.804  0.00  0.00     0.002 A 
ATOM      3  C4  UNL d   1       0.281   0.076   2.178  0.00  0.00     0.002 A 
ATOM      4  C5  UNL d   1      -0.360   1.191   2.714  0.00  0.00    -0.004 A 
ATOM      5  C6  UNL d   1      -0.760   2.233   1.879  0.00  0.00     0.002 A 
ATOM      6  C7  UNL d   1      -0.525   2.157   0.505  0.00  0.00     0.002 A 
ENDROOT
BRANCH   1   7
ATOM      7  C1  UNL d   1       0.324   0.935  -1.533  0.00  0.00     0.055 C 
ATOM      8  C   UNL d   1      -0.120   2.204  -2.245  0.00  0.00     0.019 C 
ENDBRANCH   1   7
TORSDOF 1
ENDMDL
