MODEL 1
REMARK minimizedAffinity -5.21746397
REMARK minimizedRMSD -1
REMARK  1 active torsions:
REMARK  status: ('A' for Active; 'I' for Inactive)
REMARK    1  A    between atoms: C1_2  and  C2_3 
ROOT
ATOM      1  C2  UNL d   1       0.151   0.678   0.070  0.00  0.00    -0.077 A 
ATOM      2  C3  UNL d   1       0.397   0.679   1.450  0.00  0.00     0.002 A 
ATOM      3  C4  UNL d   1      -0.257   1.588   2.283  0.00  0.00     0.002 A 
ATOM      4  C5  UNL d   1      -1.164   2.499   1.747  0.00  0.00    -0.004 A 
ATOM      5  C6  UNL d   1      -1.415   2.508   0.375  0.00  0.00     0.002 A 
ATOM      6  C7  UNL d   1      -0.760   1.600  -0.459  0.00  0.00     0.002 A 
ENDROOT
BRANCH   1   7
ATOM      7  C1  UNL d   1       0.819  -0.334  -0.824  0.00  0.00     0.055 C 
ATOM      8  C   UNL d   1       0.207  -1.716  -0.649  0.00  0.00     0.019 C 
ENDBRANCH   1   7
TORSDOF 1
ENDMDL
