MODEL 1
REMARK minimizedAffinity -4.6096549
REMARK minimizedRMSD -1
REMARK  1 active torsions:
REMARK  status: ('A' for Active; 'I' for Inactive)
REMARK    1  A    between atoms: C1_2  and  C2_3 
ROOT
ATOM      1  C2  UNL d   1      -0.166   0.817  -1.760  0.00  0.00    -0.077 A 
ATOM      2  C3  UNL d   1       0.927   1.693  -1.694  0.00  0.00     0.002 A 
ATOM      3  C4  UNL d   1       0.786   3.029  -2.075  0.00  0.00     0.002 A 
ATOM      4  C5  UNL d   1      -0.446   3.501  -2.521  0.00  0.00    -0.004 A 
ATOM      5  C6  UNL d   1      -1.539   2.638  -2.593  0.00  0.00     0.002 A 
ATOM      6  C7  UNL d   1      -1.399   1.302  -2.213  0.00  0.00     0.002 A 
ENDROOT
BRANCH   1   7
ATOM      7  C1  UNL d   1      -0.028  -0.611  -1.302  0.00  0.00     0.055 C 
ATOM      8  C   UNL d   1       1.334  -1.181  -1.670  0.00  0.00     0.019 C 
ENDBRANCH   1   7
TORSDOF 1
ENDMDL
