MODEL 1
REMARK minimizedAffinity -5.04844618
REMARK minimizedRMSD -1
REMARK  1 active torsions:
REMARK  status: ('A' for Active; 'I' for Inactive)
REMARK    1  A    between atoms: C1_2  and  C2_3 
ROOT
ATOM      1  C2  UNL d   1       0.968  -0.240   0.616  0.00  0.00    -0.077 A 
ATOM      2  C3  UNL d   1       1.985  -1.047   0.088  0.00  0.00     0.002 A 
ATOM      3  C4  UNL d   1       2.712  -1.901   0.918  0.00  0.00     0.002 A 
ATOM      4  C5  UNL d   1       2.426  -1.961   2.281  0.00  0.00    -0.004 A 
ATOM      5  C6  UNL d   1       1.418  -1.161   2.816  0.00  0.00     0.002 A 
ATOM      6  C7  UNL d   1       0.691  -0.305   1.988  0.00  0.00     0.002 A 
ENDROOT
BRANCH   1   7
ATOM      7  C1  UNL d   1       0.150   0.647  -0.287  0.00  0.00     0.055 C 
ATOM      8  C   UNL d   1      -0.572  -0.164  -1.353  0.00  0.00     0.019 C 
ENDBRANCH   1   7
TORSDOF 1
ENDMDL
