MODEL 1
REMARK minimizedAffinity -6.37196732
REMARK minimizedRMSD -1
REMARK  1 active torsions:
REMARK  status: ('A' for Active; 'I' for Inactive)
REMARK    1  A    between atoms: C1_2  and  C2_3 
ROOT
ATOM      1  C2  UNL d   1       0.816  -0.295   0.569  0.00  0.00    -0.077 A 
ATOM      2  C3  UNL d   1       1.742  -1.266   0.164  0.00  0.00     0.002 A 
ATOM      3  C4  UNL d   1       2.529  -1.928   1.109  0.00  0.00     0.002 A 
ATOM      4  C5  UNL d   1       2.395  -1.630   2.463  0.00  0.00    -0.004 A 
ATOM      5  C6  UNL d   1       1.478  -0.664   2.875  0.00  0.00     0.002 A 
ATOM      6  C7  UNL d   1       0.691  -0.000   1.933  0.00  0.00     0.002 A 
ENDROOT
BRANCH   1   7
ATOM      7  C1  UNL d   1      -0.069   0.385  -0.443  0.00  0.00     0.055 C 
ATOM      8  C   UNL d   1      -0.208  -0.451  -1.707  0.00  0.00     0.019 C 
ENDBRANCH   1   7
TORSDOF 1
ENDMDL
