MODEL 1
REMARK minimizedAffinity -3.39725542
REMARK minimizedRMSD -1
REMARK  1 active torsions:
REMARK  status: ('A' for Active; 'I' for Inactive)
REMARK    1  A    between atoms: C1_2  and  C2_3 
ROOT
ATOM      1  C2  UNL d   1      -0.178  -0.239   0.053  0.00  0.00    -0.077 A 
ATOM      2  C3  UNL d   1       1.080  -0.761   0.384  0.00  0.00     0.002 A 
ATOM      3  C4  UNL d   1       1.496  -0.811   1.716  0.00  0.00     0.002 A 
ATOM      4  C5  UNL d   1       0.658  -0.345   2.727  0.00  0.00    -0.004 A 
ATOM      5  C6  UNL d   1      -0.595   0.177   2.408  0.00  0.00     0.002 A 
ATOM      6  C7  UNL d   1      -1.011   0.230   1.077  0.00  0.00     0.002 A 
ENDROOT
BRANCH   1   7
ATOM      7  C1  UNL d   1      -0.648  -0.229  -1.378  0.00  0.00     0.055 C 
ATOM      8  C   UNL d   1      -0.724   1.189  -1.926  0.00  0.00     0.019 C 
ENDBRANCH   1   7
TORSDOF 1
ENDMDL
