MODEL 1
REMARK minimizedAffinity 0.304529816
REMARK minimizedRMSD -1
REMARK  0 active torsions:
REMARK  status: ('A' for Active; 'I' for Inactive)
ROOT
ATOM      1  C1  BNZ d   1       0.195  -5.969  -5.997  0.00  0.00     0.000 A 
ATOM      2  C2  BNZ d   1       1.148  -5.963  -5.013  0.00  0.00     0.000 A 
ATOM      3  C3  BNZ d   1       0.791  -5.998  -3.694  0.00  0.00     0.000 A 
ATOM      4  C4  BNZ d   1      -0.516  -6.000  -3.360  0.00  0.00     0.000 A 
ATOM      5  C5  BNZ d   1      -1.488  -5.997  -4.340  0.00  0.00     0.000 A 
ATOM      6  C6  BNZ d   1      -1.125  -6.000  -5.667  0.00  0.00     0.000 A 
ENDROOT
TORSDOF 0
ENDMDL
