MODEL 1
REMARK minimizedAffinity -1.06143808
REMARK minimizedRMSD -1
REMARK  0 active torsions:
REMARK  status: ('A' for Active; 'I' for Inactive)
ROOT
ATOM      1  C1  BNZ d   1      -1.272  -6.000  -2.901  0.00  0.00     0.000 A 
ATOM      2  C2  BNZ d   1       0.092  -5.987  -3.015  0.00  0.00     0.000 A 
ATOM      3  C3  BNZ d   1       0.692  -5.956  -4.243  0.00  0.00     0.000 A 
ATOM      4  C4  BNZ d   1      -0.071  -5.978  -5.354  0.00  0.00     0.000 A 
ATOM      5  C5  BNZ d   1      -1.448  -6.000  -5.256  0.00  0.00     0.000 A 
ATOM      6  C6  BNZ d   1      -2.049  -5.992  -4.018  0.00  0.00     0.000 A 
ENDROOT
TORSDOF 0
ENDMDL
