MODEL 1
REMARK minimizedAffinity 0.16982466
REMARK minimizedRMSD -1
REMARK  0 active torsions:
REMARK  status: ('A' for Active; 'I' for Inactive)
ROOT
ATOM      1  C1  BNZ d   1       0.740  -5.999  -3.496  0.00  0.00     0.000 A 
ATOM      2  C2  BNZ d   1       1.530  -5.992  -4.615  0.00  0.00     0.000 A 
ATOM      3  C3  BNZ d   1       0.974  -5.964  -5.863  0.00  0.00     0.000 A 
ATOM      4  C4  BNZ d   1      -0.368  -5.983  -5.992  0.00  0.00     0.000 A 
ATOM      5  C5  BNZ d   1      -1.178  -6.000  -4.874  0.00  0.00     0.000 A 
ATOM      6  C6  BNZ d   1      -0.615  -5.989  -3.618  0.00  0.00     0.000 A 
ENDROOT
TORSDOF 0
ENDMDL
