MODEL 1
REMARK minimizedAffinity 0.856406868
REMARK minimizedRMSD -1
REMARK  0 active torsions:
REMARK  status: ('A' for Active; 'I' for Inactive)
ROOT
ATOM      1  C1  BNZ d   1       5.078   3.890  -1.388  0.00  0.00     0.000 A 
ATOM      2  C2  BNZ d   1       3.878   3.345  -1.016  0.00  0.00     0.000 A 
ATOM      3  C3  BNZ d   1       3.203   3.818   0.075  0.00  0.00     0.000 A 
ATOM      4  C4  BNZ d   1       3.747   4.806   0.814  0.00  0.00     0.000 A 
ATOM      5  C5  BNZ d   1       4.960   5.360   0.457  0.00  0.00     0.000 A 
ATOM      6  C6  BNZ d   1       5.618   4.908  -0.664  0.00  0.00     0.000 A 
ENDROOT
TORSDOF 0
ENDMDL
