MODEL 1
REMARK minimizedAffinity -3.23232579
REMARK minimizedRMSD -1
REMARK  0 active torsions:
REMARK  status: ('A' for Active; 'I' for Inactive)
ROOT
ATOM      1  C1  BNZ d   1       0.132  -5.995  -3.186  0.00  0.00     0.000 A 
ATOM      2  C2  BNZ d   1       1.039  -5.838  -4.199  0.00  0.00     0.000 A 
ATOM      3  C3  BNZ d   1       0.624  -5.613  -5.482  0.00  0.00     0.000 A 
ATOM      4  C4  BNZ d   1      -0.696  -5.586  -5.756  0.00  0.00     0.000 A 
ATOM      5  C5  BNZ d   1      -1.624  -5.752  -4.747  0.00  0.00     0.000 A 
ATOM      6  C6  BNZ d   1      -1.202  -5.939  -3.451  0.00  0.00     0.000 A 
ENDROOT
TORSDOF 0
ENDMDL
