MODEL 1
REMARK minimizedAffinity 1.59669495
REMARK minimizedRMSD -1
REMARK  0 active torsions:
REMARK  status: ('A' for Active; 'I' for Inactive)
ROOT
ATOM      1  C1  BNZ d   1       0.191  -2.455   0.576  0.00  0.00     0.000 A 
ATOM      2  C2  BNZ d   1      -0.738  -1.579   0.082  0.00  0.00     0.000 A 
ATOM      3  C3  BNZ d   1      -0.497  -0.233   0.077  0.00  0.00     0.000 A 
ATOM      4  C4  BNZ d   1       0.653   0.236   0.601  0.00  0.00     0.000 A 
ATOM      5  C5  BNZ d   1       1.596  -0.634   1.112  0.00  0.00     0.000 A 
ATOM      6  C6  BNZ d   1       1.367  -1.990   1.080  0.00  0.00     0.000 A 
ENDROOT
TORSDOF 0
ENDMDL
