MODEL 1
REMARK minimizedAffinity -3.2574451
REMARK minimizedRMSD -1
REMARK  0 active torsions:
REMARK  status: ('A' for Active; 'I' for Inactive)
ROOT
ATOM      1  C1  BNZ d   1      -2.236  -5.753  -5.941  0.00  0.00     0.000 A 
ATOM      2  C2  BNZ d   1      -0.885  -5.536  -5.998  0.00  0.00     0.000 A 
ATOM      3  C3  BNZ d   1      -0.122  -5.573  -4.865  0.00  0.00     0.000 A 
ATOM      4  C4  BNZ d   1      -0.715  -5.788  -3.673  0.00  0.00     0.000 A 
ATOM      5  C5  BNZ d   1      -2.077  -5.999  -3.598  0.00  0.00     0.000 A 
ATOM      6  C6  BNZ d   1      -2.836  -6.000  -4.745  0.00  0.00     0.000 A 
ENDROOT
TORSDOF 0
ENDMDL
