MODEL 1
REMARK minimizedAffinity -0.930811286
REMARK minimizedRMSD -1
REMARK  0 active torsions:
REMARK  status: ('A' for Active; 'I' for Inactive)
ROOT
ATOM      1  C1  BNZ d   1      -1.077  -5.991  -5.664  0.00  0.00     0.000 A 
ATOM      2  C2  BNZ d   1      -1.590  -6.000  -4.395  0.00  0.00     0.000 A 
ATOM      3  C3  BNZ d   1      -0.765  -5.984  -3.306  0.00  0.00     0.000 A 
ATOM      4  C4  BNZ d   1       0.572  -5.999  -3.487  0.00  0.00     0.000 A 
ATOM      5  C5  BNZ d   1       1.105  -6.000  -4.760  0.00  0.00     0.000 A 
ATOM      6  C6  BNZ d   1       0.271  -5.976  -5.854  0.00  0.00     0.000 A 
ENDROOT
TORSDOF 0
ENDMDL
