MODEL 1
REMARK minimizedAffinity 0.515508711
REMARK minimizedRMSD -1
REMARK  0 active torsions:
REMARK  status: ('A' for Active; 'I' for Inactive)
ROOT
ATOM      1  C1  BNZ d   1       0.217  -5.988  -3.657  0.00  0.00     0.000 A 
ATOM      2  C2  BNZ d   1      -1.142  -5.986  -3.489  0.00  0.00     0.000 A 
ATOM      3  C3  BNZ d   1      -1.980  -5.999  -4.569  0.00  0.00     0.000 A 
ATOM      4  C4  BNZ d   1      -1.460  -5.974  -5.813  0.00  0.00     0.000 A 
ATOM      5  C5  BNZ d   1      -0.092  -5.966  -5.998  0.00  0.00     0.000 A 
ATOM      6  C6  BNZ d   1       0.749  -5.992  -4.910  0.00  0.00     0.000 A 
ENDROOT
TORSDOF 0
ENDMDL
