MODEL 1
REMARK minimizedAffinity -1.04072821
REMARK minimizedRMSD -1
REMARK  0 active torsions:
REMARK  status: ('A' for Active; 'I' for Inactive)
ROOT
ATOM      1  C1  BNZ d   1      -0.283  -1.178  -0.057  0.00  0.00     0.000 A 
ATOM      2  C2  BNZ d   1      -0.058  -2.431   0.448  0.00  0.00     0.000 A 
ATOM      3  C3  BNZ d   1       1.189  -2.803   0.867  0.00  0.00     0.000 A 
ATOM      4  C4  BNZ d   1       2.216  -1.938   0.743  0.00  0.00     0.000 A 
ATOM      5  C5  BNZ d   1       2.007  -0.674   0.227  0.00  0.00     0.000 A 
ATOM      6  C6  BNZ d   1       0.743  -0.290  -0.157  0.00  0.00     0.000 A 
ENDROOT
TORSDOF 0
ENDMDL
