MODEL 1
REMARK minimizedAffinity -3.28306055
REMARK minimizedRMSD -1
REMARK  0 active torsions:
REMARK  status: ('A' for Active; 'I' for Inactive)
ROOT
ATOM      1  C1  BNZ d   1       0.645  -2.731   0.845  0.00  0.00     0.000 A 
ATOM      2  C2  BNZ d   1       1.657  -1.938   0.371  0.00  0.00     0.000 A 
ATOM      3  C3  BNZ d   1       1.537  -0.577   0.368  0.00  0.00     0.000 A 
ATOM      4  C4  BNZ d   1       0.391  -0.011   0.802  0.00  0.00     0.000 A 
ATOM      5  C5  BNZ d   1      -0.641  -0.797   1.274  0.00  0.00     0.000 A 
ATOM      6  C6  BNZ d   1      -0.502  -2.166   1.311  0.00  0.00     0.000 A 
ENDROOT
TORSDOF 0
ENDMDL
