MODEL 1
REMARK minimizedAffinity 0.74807322
REMARK minimizedRMSD -1
REMARK  0 active torsions:
REMARK  status: ('A' for Active; 'I' for Inactive)
ROOT
ATOM      1  C1  BNZ d   1      -1.725  -5.981  -5.770  0.00  0.00     0.000 A 
ATOM      2  C2  BNZ d   1      -0.364  -5.976  -5.924  0.00  0.00     0.000 A 
ATOM      3  C3  BNZ d   1       0.463  -6.000  -4.836  0.00  0.00     0.000 A 
ATOM      4  C4  BNZ d   1      -0.070  -5.989  -3.597  0.00  0.00     0.000 A 
ATOM      5  C5  BNZ d   1      -1.440  -5.984  -3.426  0.00  0.00     0.000 A 
ATOM      6  C6  BNZ d   1      -2.270  -5.999  -4.523  0.00  0.00     0.000 A 
ENDROOT
TORSDOF 0
ENDMDL
