MODEL 1
REMARK minimizedAffinity -0.0890084207
REMARK minimizedRMSD -1
REMARK  0 active torsions:
REMARK  status: ('A' for Active; 'I' for Inactive)
ROOT
ATOM      1  C1  BNZ d   1      -1.487  -5.980  -1.643  0.00  0.00     0.000 A 
ATOM      2  C2  BNZ d   1      -0.343  -5.967  -2.397  0.00  0.00     0.000 A 
ATOM      3  C3  BNZ d   1      -0.406  -5.936  -3.762  0.00  0.00     0.000 A 
ATOM      4  C4  BNZ d   1      -1.608  -5.959  -4.372  0.00  0.00     0.000 A 
ATOM      5  C5  BNZ d   1      -2.770  -5.983  -3.626  0.00  0.00     0.000 A 
ATOM      6  C6  BNZ d   1      -2.704  -5.974  -2.251  0.00  0.00     0.000 A 
ENDROOT
TORSDOF 0
ENDMDL
