MODEL 1
REMARK minimizedAffinity -3.45583391
REMARK minimizedRMSD -1
REMARK  0 active torsions:
REMARK  status: ('A' for Active; 'I' for Inactive)
ROOT
ATOM      1  C1  BNZ d   1      -1.442  -5.825  -4.429  0.00  0.00     0.000 A 
ATOM      2  C2  BNZ d   1      -0.672  -5.579  -5.534  0.00  0.00     0.000 A 
ATOM      3  C3  BNZ d   1       0.677  -5.391  -5.419  0.00  0.00     0.000 A 
ATOM      4  C4  BNZ d   1       1.247  -5.409  -4.197  0.00  0.00     0.000 A 
ATOM      5  C5  BNZ d   1       0.483  -5.647  -3.072  0.00  0.00     0.000 A 
ATOM      6  C6  BNZ d   1      -0.869  -5.874  -3.195  0.00  0.00     0.000 A 
ENDROOT
TORSDOF 0
ENDMDL
