MODEL 1
REMARK minimizedAffinity 2.47003794
REMARK minimizedRMSD -1
REMARK  0 active torsions:
REMARK  status: ('A' for Active; 'I' for Inactive)
ROOT
ATOM      1  C1  BNZ d   1       2.004  -2.781   0.783  0.00  0.00     0.000 A 
ATOM      2  C2  BNZ d   1       2.534  -1.518   0.785  0.00  0.00     0.000 A 
ATOM      3  C3  BNZ d   1       1.723  -0.418   0.740  0.00  0.00     0.000 A 
ATOM      4  C4  BNZ d   1       0.387  -0.583   0.653  0.00  0.00     0.000 A 
ATOM      5  C5  BNZ d   1      -0.162  -1.850   0.640  0.00  0.00     0.000 A 
ATOM      6  C6  BNZ d   1       0.656  -2.954   0.725  0.00  0.00     0.000 A 
ENDROOT
TORSDOF 0
ENDMDL
