MODEL 1
REMARK minimizedAffinity -0.706893802
REMARK minimizedRMSD -1
REMARK  0 active torsions:
REMARK  status: ('A' for Active; 'I' for Inactive)
ROOT
ATOM      1  C1  BNZ d   1       1.884   0.398  -0.244  0.00  0.00     0.000 A 
ATOM      2  C2  BNZ d   1       0.652  -0.174  -0.413  0.00  0.00     0.000 A 
ATOM      3  C3  BNZ d   1       0.374  -1.406   0.111  0.00  0.00     0.000 A 
ATOM      4  C4  BNZ d   1       1.340  -2.080   0.768  0.00  0.00     0.000 A 
ATOM      5  C5  BNZ d   1       2.590  -1.520   0.939  0.00  0.00     0.000 A 
ATOM      6  C6  BNZ d   1       2.854  -0.264   0.444  0.00  0.00     0.000 A 
ENDROOT
TORSDOF 0
ENDMDL
