MODEL 1
REMARK minimizedAffinity -0.0903447643
REMARK minimizedRMSD -1
REMARK  0 active torsions:
REMARK  status: ('A' for Active; 'I' for Inactive)
ROOT
ATOM      1  C1  BNZ d   1      -1.163  -5.998  -3.600  0.00  0.00     0.000 A 
ATOM      2  C2  BNZ d   1      -1.838  -5.997  -4.792  0.00  0.00     0.000 A 
ATOM      3  C3  BNZ d   1      -1.162  -5.996  -5.980  0.00  0.00     0.000 A 
ATOM      4  C4  BNZ d   1       0.186  -5.954  -5.975  0.00  0.00     0.000 A 
ATOM      5  C5  BNZ d   1       0.881  -5.945  -4.782  0.00  0.00     0.000 A 
ATOM      6  C6  BNZ d   1       0.198  -5.986  -3.588  0.00  0.00     0.000 A 
ENDROOT
TORSDOF 0
ENDMDL
