MODEL 1
REMARK minimizedAffinity -0.954248428
REMARK minimizedRMSD -1
REMARK  0 active torsions:
REMARK  status: ('A' for Active; 'I' for Inactive)
ROOT
ATOM      1  C1  BNZ d   1       0.598  -5.988  -3.634  0.00  0.00     0.000 A 
ATOM      2  C2  BNZ d   1      -0.771  -6.000  -3.657  0.00  0.00     0.000 A 
ATOM      3  C3  BNZ d   1      -1.451  -5.972  -4.843  0.00  0.00     0.000 A 
ATOM      4  C4  BNZ d   1      -0.763  -5.891  -6.000  0.00  0.00     0.000 A 
ATOM      5  C5  BNZ d   1       0.617  -5.869  -5.992  0.00  0.00     0.000 A 
ATOM      6  C6  BNZ d   1       1.299  -5.937  -4.799  0.00  0.00     0.000 A 
ENDROOT
TORSDOF 0
ENDMDL
