MODEL 1
REMARK minimizedAffinity -2.28425741
REMARK minimizedRMSD -1
REMARK  0 active torsions:
REMARK  status: ('A' for Active; 'I' for Inactive)
ROOT
ATOM      1  C   UNL d   1       1.759  -1.485   2.935  0.00  0.00     0.020 A 
ATOM      2  C1  UNL d   1       0.555  -0.788   2.846  0.00  0.00     0.020 A 
ATOM      3  C2  UNL d   1       0.081  -0.369   1.601  0.00  0.00     0.034 A 
ATOM      4  C3  UNL d   1       0.813  -0.647   0.440  0.00  0.00     0.017 A 
ATOM      5  C4  UNL d   1       2.021  -1.347   0.531  0.00  0.00     0.017 A 
ATOM      6  C5  UNL d   1       2.490  -1.764   1.780  0.00  0.00     0.034 A 
ATOM      7 Cl   UNL d   1       2.979  -1.727  -0.857  0.00  0.00    -0.070 Cl
ATOM      8 Cl1  UNL d   1       0.167  -0.099  -1.066  0.00  0.00    -0.070 Cl
ENDROOT
TORSDOF 0
ENDMDL
