MODEL 1
REMARK minimizedAffinity -4.2549448
REMARK minimizedRMSD -1
REMARK  0 active torsions:
REMARK  status: ('A' for Active; 'I' for Inactive)
ROOT
ATOM      1  C   UNL d   1       1.737  -0.641   2.712  0.00  0.00     0.020 A 
ATOM      2  C1  UNL d   1       2.503  -0.534   1.552  0.00  0.00     0.020 A 
ATOM      3  C2  UNL d   1       1.878  -0.328   0.320  0.00  0.00     0.034 A 
ATOM      4  C3  UNL d   1       0.484  -0.228   0.246  0.00  0.00     0.017 A 
ATOM      5  C4  UNL d   1      -0.284  -0.335   1.411  0.00  0.00     0.017 A 
ATOM      6  C5  UNL d   1       0.347  -0.542   2.642  0.00  0.00     0.034 A 
ATOM      7 Cl   UNL d   1      -2.008  -0.222   1.399  0.00  0.00    -0.070 Cl
ATOM      8 Cl1  UNL d   1      -0.221   0.028  -1.311  0.00  0.00    -0.070 Cl
ENDROOT
TORSDOF 0
ENDMDL
