MODEL 1
REMARK minimizedAffinity -4.74206924
REMARK minimizedRMSD -1
REMARK  0 active torsions:
REMARK  status: ('A' for Active; 'I' for Inactive)
ROOT
ATOM      1  C   UNL d   1       2.761  -1.834   1.150  0.00  0.00     0.020 A 
ATOM      2  C1  UNL d   1       2.198  -1.625   2.408  0.00  0.00     0.020 A 
ATOM      3  C2  UNL d   1       1.009  -0.903   2.530  0.00  0.00     0.034 A 
ATOM      4  C3  UNL d   1       0.378  -0.389   1.391  0.00  0.00     0.017 A 
ATOM      5  C4  UNL d   1       0.944  -0.600   0.128  0.00  0.00     0.017 A 
ATOM      6  C5  UNL d   1       2.135  -1.323   0.013  0.00  0.00     0.034 A 
ATOM      7 Cl   UNL d   1       0.225   0.004  -1.323  0.00  0.00    -0.070 Cl
ATOM      8 Cl1  UNL d   1      -1.090   0.494   1.615  0.00  0.00    -0.070 Cl
ENDROOT
TORSDOF 0
ENDMDL
