MODEL 1
REMARK minimizedAffinity -3.19458556
REMARK minimizedRMSD -1
REMARK  0 active torsions:
REMARK  status: ('A' for Active; 'I' for Inactive)
ROOT
ATOM      1  C   UNL d   1       2.659  -1.904   0.895  0.00  0.00     0.020 A 
ATOM      2  C1  UNL d   1       2.261  -1.871   2.231  0.00  0.00     0.020 A 
ATOM      3  C2  UNL d   1       1.113  -1.167   2.600  0.00  0.00     0.034 A 
ATOM      4  C3  UNL d   1       0.358  -0.494   1.632  0.00  0.00     0.017 A 
ATOM      5  C4  UNL d   1       0.758  -0.529   0.292  0.00  0.00     0.017 A 
ATOM      6  C5  UNL d   1       1.909  -1.235  -0.072  0.00  0.00     0.034 A 
ATOM      7 Cl   UNL d   1      -0.122   0.277  -0.959  0.00  0.00    -0.070 Cl
ATOM      8 Cl1  UNL d   1      -1.051   0.356   2.160  0.00  0.00    -0.070 Cl
ENDROOT
TORSDOF 0
ENDMDL
