MODEL 1
REMARK minimizedAffinity -5.9818759
REMARK minimizedRMSD -1
REMARK  0 active torsions:
REMARK  status: ('A' for Active; 'I' for Inactive)
ROOT
ATOM      1  C   UNL d   1       1.522  -1.146   2.475  0.00  0.00     0.020 A 
ATOM      2  C1  UNL d   1       2.308  -0.896   1.351  0.00  0.00     0.020 A 
ATOM      3  C2  UNL d   1       1.718  -0.418   0.179  0.00  0.00     0.034 A 
ATOM      4  C3  UNL d   1       0.338  -0.188   0.128  0.00  0.00     0.017 A 
ATOM      5  C4  UNL d   1      -0.450  -0.439   1.257  0.00  0.00     0.017 A 
ATOM      6  C5  UNL d   1       0.146  -0.918   2.428  0.00  0.00     0.034 A 
ATOM      7 Cl   UNL d   1      -2.159  -0.180   1.272  0.00  0.00    -0.070 Cl
ATOM      8 Cl1  UNL d   1      -0.324   0.404  -1.354  0.00  0.00    -0.070 Cl
ENDROOT
TORSDOF 0
ENDMDL
