MODEL 1
REMARK minimizedAffinity -5.49067545
REMARK minimizedRMSD -1
REMARK  0 active torsions:
REMARK  status: ('A' for Active; 'I' for Inactive)
ROOT
ATOM      1  C   UNL d   1       1.452  -0.915   3.129  0.00  0.00     0.020 A 
ATOM      2  C1  UNL d   1       0.298  -0.186   2.847  0.00  0.00     0.020 A 
ATOM      3  C2  UNL d   1      -0.089   0.023   1.521  0.00  0.00     0.034 A 
ATOM      4  C3  UNL d   1       0.679  -0.496   0.473  0.00  0.00     0.017 A 
ATOM      5  C4  UNL d   1       1.838  -1.228   0.758  0.00  0.00     0.017 A 
ATOM      6  C5  UNL d   1       2.221  -1.434   2.087  0.00  0.00     0.034 A 
ATOM      7 Cl   UNL d   1       2.838  -1.900  -0.482  0.00  0.00    -0.070 Cl
ATOM      8 Cl1  UNL d   1       0.141  -0.199  -1.142  0.00  0.00    -0.070 Cl
ENDROOT
TORSDOF 0
ENDMDL
