MODEL 1
REMARK minimizedAffinity -5.30594587
REMARK minimizedRMSD -1
REMARK  0 active torsions:
REMARK  status: ('A' for Active; 'I' for Inactive)
ROOT
ATOM      1  C   UNL d   1      -0.570   0.412   0.687  0.00  0.00     0.020 A 
ATOM      2  C1  UNL d   1      -0.582   0.241   2.071  0.00  0.00     0.020 A 
ATOM      3  C2  UNL d   1       0.428  -0.496   2.692  0.00  0.00     0.034 A 
ATOM      4  C3  UNL d   1       1.454  -1.065   1.930  0.00  0.00     0.017 A 
ATOM      5  C4  UNL d   1       1.466  -0.893   0.542  0.00  0.00     0.017 A 
ATOM      6  C5  UNL d   1       0.452  -0.154  -0.076  0.00  0.00     0.034 A 
ATOM      7 Cl   UNL d   1       2.700  -1.566  -0.465  0.00  0.00    -0.070 Cl
ATOM      8 Cl1  UNL d   1       2.671  -1.964   2.766  0.00  0.00    -0.070 Cl
ENDROOT
TORSDOF 0
ENDMDL
