MODEL 1
REMARK minimizedAffinity -4.53876925
REMARK minimizedRMSD -1
REMARK  0 active torsions:
REMARK  status: ('A' for Active; 'I' for Inactive)
ROOT
ATOM      1  C   UNL d   1       1.897  -1.156   1.508  0.00  0.00     0.020 A 
ATOM      2  C1  UNL d   1       1.086  -1.335   2.628  0.00  0.00     0.020 A 
ATOM      3  C2  UNL d   1      -0.236  -0.885   2.612  0.00  0.00     0.034 A 
ATOM      4  C3  UNL d   1      -0.751  -0.253   1.475  0.00  0.00     0.017 A 
ATOM      5  C4  UNL d   1       0.064  -0.074   0.351  0.00  0.00     0.017 A 
ATOM      6  C5  UNL d   1       1.387  -0.527   0.372  0.00  0.00     0.034 A 
ATOM      7 Cl   UNL d   1      -0.501   0.696  -1.090  0.00  0.00    -0.070 Cl
ATOM      8 Cl1  UNL d   1      -2.394   0.278   1.525  0.00  0.00    -0.070 Cl
ENDROOT
TORSDOF 0
ENDMDL
