MODEL 1
REMARK minimizedAffinity 7.88719606
REMARK minimizedRMSD -1
REMARK  2 active torsions:
REMARK  status: ('A' for Active; 'I' for Inactive)
REMARK    1  A    between atoms: C1_2  and  C2_3 
REMARK    2  A    between atoms: C2_3  and  C3_4 
ROOT
ATOM      1  C3  UNL d   1       4.784  -3.984  -2.541  0.00  0.00    -0.075 A 
ATOM      2  C4  UNL d   1       3.752  -4.880  -2.229  0.00  0.00     0.002 A 
ATOM      3  C5  UNL d   1       3.595  -5.355  -0.927  0.00  0.00     0.002 A 
ATOM      4  C6  UNL d   1       4.472  -4.949   0.076  0.00  0.00    -0.004 A 
ATOM      5  C7  UNL d   1       5.512  -4.072  -0.226  0.00  0.00     0.002 A 
ATOM      6  C8  UNL d   1       5.668  -3.592  -1.527  0.00  0.00     0.002 A 
ENDROOT
BRANCH   1   7
ATOM      7  C2  UNL d   1       4.942  -3.443  -3.942  0.00  0.00     0.056 C 
BRANCH   7   8
ATOM      8  C1  UNL d   1       3.668  -2.811  -4.513  0.00  0.00     0.007 C 
ATOM      9  C   UNL d   1       3.077  -3.597  -5.676  0.00  0.00     0.009 C 
ENDBRANCH   7   8
ENDBRANCH   1   7
TORSDOF 2
ENDMDL
