MODEL 1
REMARK minimizedAffinity 0.587706387
REMARK minimizedRMSD -1
REMARK  2 active torsions:
REMARK  status: ('A' for Active; 'I' for Inactive)
REMARK    1  A    between atoms: C1_2  and  C2_3 
REMARK    2  A    between atoms: C2_3  and  C3_4 
ROOT
ATOM      1  C3  UNL d   1      -0.497   1.470  -1.536  0.00  0.00    -0.075 A 
ATOM      2  C4  UNL d   1      -1.585   0.774  -2.084  0.00  0.00     0.002 A 
ATOM      3  C5  UNL d   1      -1.431   0.026  -3.251  0.00  0.00     0.002 A 
ATOM      4  C6  UNL d   1      -0.194  -0.029  -3.890  0.00  0.00    -0.004 A 
ATOM      5  C7  UNL d   1       0.889   0.671  -3.363  0.00  0.00     0.002 A 
ATOM      6  C8  UNL d   1       0.739   1.418  -2.193  0.00  0.00     0.002 A 
ENDROOT
BRANCH   1   7
ATOM      7  C2  UNL d   1      -0.649   2.258  -0.257  0.00  0.00     0.056 C 
BRANCH   7   8
ATOM      8  C1  UNL d   1      -1.662   1.661   0.726  0.00  0.00     0.007 C 
ATOM      9  C   UNL d   1      -1.321   1.942   2.183  0.00  0.00     0.009 C 
ENDBRANCH   7   8
ENDBRANCH   1   7
TORSDOF 2
ENDMDL
