MODEL 1
REMARK minimizedAffinity 0.735933542
REMARK minimizedRMSD -1
REMARK  2 active torsions:
REMARK  status: ('A' for Active; 'I' for Inactive)
REMARK    1  A    between atoms: C1_2  and  C2_3 
REMARK    2  A    between atoms: C2_3  and  C3_4 
ROOT
ATOM      1  C3  UNL d   1      -0.262   1.363  -1.436  0.00  0.00    -0.075 A 
ATOM      2  C4  UNL d   1      -1.283   0.416  -1.603  0.00  0.00     0.002 A 
ATOM      3  C5  UNL d   1      -1.362  -0.342  -2.772  0.00  0.00     0.002 A 
ATOM      4  C6  UNL d   1      -0.429  -0.157  -3.790  0.00  0.00    -0.004 A 
ATOM      5  C7  UNL d   1       0.579   0.793  -3.642  0.00  0.00     0.002 A 
ATOM      6  C8  UNL d   1       0.663   1.549  -2.472  0.00  0.00     0.002 A 
ENDROOT
BRANCH   1   7
ATOM      7  C2  UNL d   1      -0.153   2.165  -0.162  0.00  0.00     0.056 C 
BRANCH   7   8
ATOM      8  C1  UNL d   1      -1.456   2.240   0.641  0.00  0.00     0.007 C 
ATOM      9  C   UNL d   1      -1.233   2.265   2.147  0.00  0.00     0.009 C 
ENDBRANCH   7   8
ENDBRANCH   1   7
TORSDOF 2
ENDMDL
