MODEL 1
REMARK minimizedAffinity 6.35521412
REMARK minimizedRMSD -1
REMARK  2 active torsions:
REMARK  status: ('A' for Active; 'I' for Inactive)
REMARK    1  A    between atoms: C1_2  and  C2_3 
REMARK    2  A    between atoms: C2_3  and  C3_4 
ROOT
ATOM      1  C3  UNL d   1      -0.258   2.653  -0.177  0.00  0.00    -0.075 A 
ATOM      2  C4  UNL d   1      -0.307   1.464   0.565  0.00  0.00     0.002 A 
ATOM      3  C5  UNL d   1      -0.855   1.452   1.848  0.00  0.00     0.002 A 
ATOM      4  C6  UNL d   1      -1.352   2.627   2.408  0.00  0.00    -0.004 A 
ATOM      5  C7  UNL d   1      -1.294   3.817   1.686  0.00  0.00     0.002 A 
ATOM      6  C8  UNL d   1      -0.749   3.831   0.400  0.00  0.00     0.002 A 
ENDROOT
BRANCH   1   7
ATOM      7  C2  UNL d   1       0.307   2.667  -1.577  0.00  0.00     0.056 C 
BRANCH   7   8
ATOM      8  C1  UNL d   1       0.705   1.284  -2.103  0.00  0.00     0.007 C 
ATOM      9  C   UNL d   1       0.782   1.218  -3.623  0.00  0.00     0.009 C 
ENDBRANCH   7   8
ENDBRANCH   1   7
TORSDOF 2
ENDMDL
