MODEL 1
REMARK minimizedAffinity 11.874177
REMARK minimizedRMSD -1
REMARK  2 active torsions:
REMARK  status: ('A' for Active; 'I' for Inactive)
REMARK    1  A    between atoms: C1_2  and  C2_3 
REMARK    2  A    between atoms: C2_3  and  C3_4 
ROOT
ATOM      1  C3  UNL d   1       1.509  -3.383  -3.408  0.00  0.00    -0.075 A 
ATOM      2  C4  UNL d   1       1.151  -2.450  -2.424  0.00  0.00     0.002 A 
ATOM      3  C5  UNL d   1       1.200  -2.792  -1.072  0.00  0.00     0.002 A 
ATOM      4  C6  UNL d   1       1.596  -4.071  -0.688  0.00  0.00    -0.004 A 
ATOM      5  C7  UNL d   1       1.937  -5.012  -1.658  0.00  0.00     0.002 A 
ATOM      6  C8  UNL d   1       1.893  -4.671  -3.011  0.00  0.00     0.002 A 
ENDROOT
BRANCH   1   7
ATOM      7  C2  UNL d   1       1.486  -3.010  -4.871  0.00  0.00     0.056 C 
BRANCH   7   8
ATOM      8  C1  UNL d   1       0.955  -4.116  -5.789  0.00  0.00     0.007 C 
ATOM      9  C   UNL d   1       1.949  -5.251  -5.998  0.00  0.00     0.009 C 
ENDBRANCH   7   8
ENDBRANCH   1   7
TORSDOF 2
ENDMDL
