MODEL 1
REMARK minimizedAffinity 6.12547207
REMARK minimizedRMSD -1
REMARK  2 active torsions:
REMARK  status: ('A' for Active; 'I' for Inactive)
REMARK    1  A    between atoms: C1_2  and  C2_3 
REMARK    2  A    between atoms: C2_3  and  C3_4 
ROOT
ATOM      1  C3  UNL d   1      -0.763   2.810   1.511  0.00  0.00    -0.075 A 
ATOM      2  C4  UNL d   1      -2.003   2.245   1.841  0.00  0.00     0.002 A 
ATOM      3  C5  UNL d   1      -2.122   1.383   2.931  0.00  0.00     0.002 A 
ATOM      4  C6  UNL d   1      -1.002   1.066   3.697  0.00  0.00    -0.004 A 
ATOM      5  C7  UNL d   1       0.239   1.607   3.368  0.00  0.00     0.002 A 
ATOM      6  C8  UNL d   1       0.359   2.474   2.280  0.00  0.00     0.002 A 
ENDROOT
BRANCH   1   7
ATOM      7  C2  UNL d   1      -0.634   3.767   0.350  0.00  0.00     0.056 C 
BRANCH   7   8
ATOM      8  C1  UNL d   1       0.044   3.163  -0.884  0.00  0.00     0.007 C 
ATOM      9  C   UNL d   1      -0.696   3.461  -2.182  0.00  0.00     0.009 C 
ENDBRANCH   7   8
ENDBRANCH   1   7
TORSDOF 2
ENDMDL
