MODEL 1
REMARK minimizedAffinity 4.14591408
REMARK minimizedRMSD -1
REMARK  2 active torsions:
REMARK  status: ('A' for Active; 'I' for Inactive)
REMARK    1  A    between atoms: C1_2  and  C2_3 
REMARK    2  A    between atoms: C2_3  and  C3_4 
ROOT
ATOM      1  C3  UNL d   1      -1.295   5.320   0.444  0.00  0.00    -0.075 A 
ATOM      2  C4  UNL d   1      -0.859   4.004   0.655  0.00  0.00     0.002 A 
ATOM      3  C5  UNL d   1       0.007   3.391  -0.251  0.00  0.00     0.002 A 
ATOM      4  C6  UNL d   1       0.440   4.080  -1.381  0.00  0.00    -0.004 A 
ATOM      5  C7  UNL d   1       0.000   5.382  -1.610  0.00  0.00     0.002 A 
ATOM      6  C8  UNL d   1      -0.863   6.000  -0.703  0.00  0.00     0.002 A 
ENDROOT
BRANCH   1   7
ATOM      7  C2  UNL d   1      -2.209   6.000   1.436  0.00  0.00     0.056 C 
BRANCH   7   8
ATOM      8  C1  UNL d   1      -3.689   5.639   1.269  0.00  0.00     0.007 C 
ATOM      9  C   UNL d   1      -4.534   5.995   2.485  0.00  0.00     0.009 C 
ENDBRANCH   7   8
ENDBRANCH   1   7
TORSDOF 2
ENDMDL
