MODEL 1
REMARK minimizedAffinity 13.8496704
REMARK minimizedRMSD -1
REMARK  2 active torsions:
REMARK  status: ('A' for Active; 'I' for Inactive)
REMARK    1  A    between atoms: C1_2  and  C2_3 
REMARK    2  A    between atoms: C2_3  and  C3_4 
ROOT
ATOM      1  C3  UNL d   1       1.909  -4.266  -0.850  0.00  0.00    -0.075 A 
ATOM      2  C4  UNL d   1       3.123  -4.966  -0.825  0.00  0.00     0.002 A 
ATOM      3  C5  UNL d   1       3.469  -5.823  -1.869  0.00  0.00     0.002 A 
ATOM      4  C6  UNL d   1       2.602  -5.999  -2.946  0.00  0.00    -0.004 A 
ATOM      5  C7  UNL d   1       1.385  -5.322  -2.973  0.00  0.00     0.002 A 
ATOM      6  C8  UNL d   1       1.039  -4.460  -1.931  0.00  0.00     0.002 A 
ENDROOT
BRANCH   1   7
ATOM      7  C2  UNL d   1       1.542  -3.314   0.263  0.00  0.00     0.056 C 
BRANCH   7   8
ATOM      8  C1  UNL d   1       2.740  -2.817   1.079  0.00  0.00     0.007 C 
ATOM      9  C   UNL d   1       3.182  -1.409   0.703  0.00  0.00     0.009 C 
ENDBRANCH   7   8
ENDBRANCH   1   7
TORSDOF 2
ENDMDL
