MODEL 1
REMARK minimizedAffinity 6.87707996
REMARK minimizedRMSD -1
REMARK  2 active torsions:
REMARK  status: ('A' for Active; 'I' for Inactive)
REMARK    1  A    between atoms: C1_2  and  C2_3 
REMARK    2  A    between atoms: C2_3  and  C3_4 
ROOT
ATOM      1  C3  UNL d   1       2.235  -4.034  -0.590  0.00  0.00    -0.075 A 
ATOM      2  C4  UNL d   1       1.348  -4.130  -1.672  0.00  0.00     0.002 A 
ATOM      3  C5  UNL d   1       1.525  -5.111  -2.648  0.00  0.00     0.002 A 
ATOM      4  C6  UNL d   1       2.595  -5.999  -2.561  0.00  0.00    -0.004 A 
ATOM      5  C7  UNL d   1       3.492  -5.902  -1.500  0.00  0.00     0.002 A 
ATOM      6  C8  UNL d   1       3.315  -4.924  -0.519  0.00  0.00     0.002 A 
ENDROOT
BRANCH   1   7
ATOM      7  C2  UNL d   1       2.032  -2.994   0.486  0.00  0.00     0.056 C 
BRANCH   7   8
ATOM      8  C1  UNL d   1       2.962  -1.782   0.366  0.00  0.00     0.007 C 
ATOM      9  C   UNL d   1       4.170  -1.859   1.290  0.00  0.00     0.009 C 
ENDBRANCH   7   8
ENDBRANCH   1   7
TORSDOF 2
ENDMDL
