MODEL 1
REMARK minimizedAffinity 13.8126488
REMARK minimizedRMSD -1
REMARK  2 active torsions:
REMARK  status: ('A' for Active; 'I' for Inactive)
REMARK    1  A    between atoms: C1_2  and  C2_3 
REMARK    2  A    between atoms: C2_3  and  C3_4 
ROOT
ATOM      1  C3  UNL d   1      -1.479   1.903  -1.654  0.00  0.00    -0.075 A 
ATOM      2  C4  UNL d   1      -1.327   1.614  -0.290  0.00  0.00     0.002 A 
ATOM      3  C5  UNL d   1      -0.250   2.134   0.428  0.00  0.00     0.002 A 
ATOM      4  C6  UNL d   1       0.692   2.939  -0.208  0.00  0.00    -0.004 A 
ATOM      5  C7  UNL d   1       0.560   3.219  -1.567  0.00  0.00     0.002 A 
ATOM      6  C8  UNL d   1      -0.519   2.704  -2.287  0.00  0.00     0.002 A 
ENDROOT
BRANCH   1   7
ATOM      7  C2  UNL d   1      -2.658   1.368  -2.431  0.00  0.00     0.056 C 
BRANCH   7   8
ATOM      8  C1  UNL d   1      -3.097  -0.039  -2.008  0.00  0.00     0.007 C 
ATOM      9  C   UNL d   1      -4.370  -0.045  -1.173  0.00  0.00     0.009 C 
ENDBRANCH   7   8
ENDBRANCH   1   7
TORSDOF 2
ENDMDL
