MODEL 1
REMARK minimizedAffinity 17.5766964
REMARK minimizedRMSD -1
REMARK  2 active torsions:
REMARK  status: ('A' for Active; 'I' for Inactive)
REMARK    1  A    between atoms: C1_2  and  C2_3 
REMARK    2  A    between atoms: C2_3  and  C3_4 
ROOT
ATOM      1  C3  UNL d   1       4.547  -2.758   1.854  0.00  0.00    -0.075 A 
ATOM      2  C4  UNL d   1       3.404  -3.098   1.116  0.00  0.00     0.002 A 
ATOM      3  C5  UNL d   1       2.291  -2.257   1.106  0.00  0.00     0.002 A 
ATOM      4  C6  UNL d   1       2.302  -1.073   1.839  0.00  0.00    -0.004 A 
ATOM      5  C7  UNL d   1       3.426  -0.733   2.589  0.00  0.00     0.002 A 
ATOM      6  C8  UNL d   1       4.543  -1.570   2.598  0.00  0.00     0.002 A 
ENDROOT
BRANCH   1   7
ATOM      7  C2  UNL d   1       5.766  -3.649   1.846  0.00  0.00     0.056 C 
BRANCH   7   8
ATOM      8  C1  UNL d   1       5.476  -5.099   1.443  0.00  0.00     0.007 C 
ATOM      9  C   UNL d   1       5.160  -6.000   2.629  0.00  0.00     0.009 C 
ENDBRANCH   7   8
ENDBRANCH   1   7
TORSDOF 2
ENDMDL
