MODEL 1
REMARK minimizedAffinity 8.85442734
REMARK minimizedRMSD -1
REMARK  2 active torsions:
REMARK  status: ('A' for Active; 'I' for Inactive)
REMARK    1  A    between atoms: C1_2  and  C2_3 
REMARK    2  A    between atoms: C2_3  and  C3_4 
ROOT
ATOM      1  C3  UNL d   1      -0.705   3.308  -1.870  0.00  0.00    -0.075 A 
ATOM      2  C4  UNL d   1      -1.254   2.276  -1.095  0.00  0.00     0.002 A 
ATOM      3  C5  UNL d   1      -0.641   1.880   0.094  0.00  0.00     0.002 A 
ATOM      4  C6  UNL d   1       0.532   2.502   0.517  0.00  0.00    -0.004 A 
ATOM      5  C7  UNL d   1       1.095   3.516  -0.253  0.00  0.00     0.002 A 
ATOM      6  C8  UNL d   1       0.481   3.918  -1.441  0.00  0.00     0.002 A 
ENDROOT
BRANCH   1   7
ATOM      7  C2  UNL d   1      -1.379   3.761  -3.143  0.00  0.00     0.056 C 
BRANCH   7   8
ATOM      8  C1  UNL d   1      -1.921   2.615  -4.004  0.00  0.00     0.007 C 
ATOM      9  C   UNL d   1      -1.264   2.531  -5.375  0.00  0.00     0.009 C 
ENDBRANCH   7   8
ENDBRANCH   1   7
TORSDOF 2
ENDMDL
