MODEL 1
REMARK minimizedAffinity 4.224895
REMARK minimizedRMSD -1
REMARK  2 active torsions:
REMARK  status: ('A' for Active; 'I' for Inactive)
REMARK    1  A    between atoms: C1_2  and  C2_3 
REMARK    2  A    between atoms: C2_3  and  C3_4 
ROOT
ATOM      1  C3  UNL d   1      -2.381   2.611   1.072  0.00  0.00    -0.075 A 
ATOM      2  C4  UNL d   1      -1.613   2.533   2.244  0.00  0.00     0.002 A 
ATOM      3  C5  UNL d   1      -0.355   1.931   2.228  0.00  0.00     0.002 A 
ATOM      4  C6  UNL d   1       0.146   1.390   1.046  0.00  0.00    -0.004 A 
ATOM      5  C7  UNL d   1      -0.614   1.446  -0.120  0.00  0.00     0.002 A 
ATOM      6  C8  UNL d   1      -1.871   2.053  -0.108  0.00  0.00     0.002 A 
ENDROOT
BRANCH   1   7
ATOM      7  C2  UNL d   1      -3.730   3.288   1.076  0.00  0.00     0.056 C 
BRANCH   7   8
ATOM      8  C1  UNL d   1      -3.793   4.559   0.222  0.00  0.00     0.007 C 
ATOM      9  C   UNL d   1      -4.907   5.509   0.639  0.00  0.00     0.009 C 
ENDBRANCH   7   8
ENDBRANCH   1   7
TORSDOF 2
ENDMDL
