MODEL 1
REMARK minimizedAffinity 16.1748352
REMARK minimizedRMSD -1
REMARK  2 active torsions:
REMARK  status: ('A' for Active; 'I' for Inactive)
REMARK    1  A    between atoms: C1_2  and  C2_3 
REMARK    2  A    between atoms: C2_3  and  C3_4 
ROOT
ATOM      1  C3  UNL d   1       2.255  -4.101  -1.192  0.00  0.00    -0.075 A 
ATOM      2  C4  UNL d   1       3.246  -5.054  -0.915  0.00  0.00     0.002 A 
ATOM      3  C5  UNL d   1       3.615  -5.993  -1.878  0.00  0.00     0.002 A 
ATOM      4  C6  UNL d   1       2.991  -6.000  -3.124  0.00  0.00    -0.004 A 
ATOM      5  C7  UNL d   1       1.994  -5.069  -3.404  0.00  0.00     0.002 A 
ATOM      6  C8  UNL d   1       1.626  -4.124  -2.444  0.00  0.00     0.002 A 
ENDROOT
BRANCH   1   7
ATOM      7  C2  UNL d   1       1.873  -3.062  -0.165  0.00  0.00     0.056 C 
BRANCH   7   8
ATOM      8  C1  UNL d   1       2.925  -1.967   0.036  0.00  0.00     0.007 C 
ATOM      9  C   UNL d   1       3.034  -1.497   1.481  0.00  0.00     0.009 C 
ENDBRANCH   7   8
ENDBRANCH   1   7
TORSDOF 2
ENDMDL
