MODEL 1
REMARK minimizedAffinity 7.89430523
REMARK minimizedRMSD -1
REMARK  2 active torsions:
REMARK  status: ('A' for Active; 'I' for Inactive)
REMARK    1  A    between atoms: C1_2  and  C2_3 
REMARK    2  A    between atoms: C2_3  and  C3_4 
ROOT
ATOM      1  C3  UNL d   1      -0.970   2.619  -1.100  0.00  0.00    -0.075 A 
ATOM      2  C4  UNL d   1      -1.777   1.483  -0.938  0.00  0.00     0.002 A 
ATOM      3  C5  UNL d   1      -2.603   1.048  -1.975  0.00  0.00     0.002 A 
ATOM      4  C6  UNL d   1      -2.642   1.747  -3.179  0.00  0.00    -0.004 A 
ATOM      5  C7  UNL d   1      -1.857   2.887  -3.344  0.00  0.00     0.002 A 
ATOM      6  C8  UNL d   1      -1.026   3.322  -2.311  0.00  0.00     0.002 A 
ENDROOT
BRANCH   1   7
ATOM      7  C2  UNL d   1      -0.051   3.078   0.007  0.00  0.00     0.056 C 
BRANCH   7   8
ATOM      8  C1  UNL d   1       1.196   3.821  -0.484  0.00  0.00     0.007 C 
ATOM      9  C   UNL d   1       1.691   4.877   0.495  0.00  0.00     0.009 C 
ENDBRANCH   7   8
ENDBRANCH   1   7
TORSDOF 2
ENDMDL
