MODEL 1
REMARK minimizedAffinity -3.56549525
REMARK minimizedRMSD -1
REMARK  0 active torsions:
REMARK  status: ('A' for Active; 'I' for Inactive)
ROOT
ATOM      1  C   UNL d   1       1.237   2.165   1.183  0.00  0.00     0.124 A 
ATOM      2  C1  UNL d   1       1.794   1.521   0.087  0.00  0.00     0.062 A 
ATOM      3  C2  UNL d   1       1.124   0.461  -0.517  0.00  0.00     0.162 A 
ATOM      4  C3  UNL d   1      -0.112   0.038  -0.027  0.00  0.00    -0.034 A 
ATOM      5  C4  UNL d   1      -0.665   0.690   1.077  0.00  0.00     0.162 A 
ATOM      6  C5  UNL d   1       0.008   1.749   1.677  0.00  0.00     0.062 A 
ATOM      7  F   UNL d   1      -0.531   2.370   2.736  0.00  0.00    -0.097 F 
ATOM      8  F1  UNL d   1      -1.852   0.310   1.573  0.00  0.00    -0.096 F 
ATOM      9  I   UNL d   1      -1.117  -1.546  -0.927  0.00  0.00    -0.060 I 
ATOM     10  F2  UNL d   1       1.686  -0.143  -1.575  0.00  0.00    -0.096 F 
ATOM     11  F3  UNL d   1       2.981   1.920  -0.391  0.00  0.00    -0.097 F 
ATOM     12  F4  UNL d   1       1.884   3.184   1.763  0.00  0.00    -0.092 F 
ENDROOT
TORSDOF 0
ENDMDL
