MODEL 1
REMARK minimizedAffinity -2.61892676
REMARK minimizedRMSD -1
REMARK  0 active torsions:
REMARK  status: ('A' for Active; 'I' for Inactive)
ROOT
ATOM      1  C   UNL d   1       2.203   2.193   0.712  0.00  0.00     0.124 A 
ATOM      2  C1  UNL d   1       0.874   2.073   1.092  0.00  0.00     0.062 A 
ATOM      3  C2  UNL d   1       0.115   0.992   0.654  0.00  0.00     0.162 A 
ATOM      4  C3  UNL d   1       0.684   0.021  -0.170  0.00  0.00    -0.034 A 
ATOM      5  C4  UNL d   1       2.021   0.148  -0.549  0.00  0.00     0.162 A 
ATOM      6  C5  UNL d   1       2.776   1.231  -0.108  0.00  0.00     0.062 A 
ATOM      7  F   UNL d   1       4.060   1.345  -0.477  0.00  0.00    -0.097 F 
ATOM      8  F1  UNL d   1       2.599  -0.767  -1.340  0.00  0.00    -0.096 F 
ATOM      9  I   UNL d   1      -0.448  -1.597  -0.828  0.00  0.00    -0.060 I 
ATOM     10  F2  UNL d   1      -1.167   0.902   1.037  0.00  0.00    -0.096 F 
ATOM     11  F3  UNL d   1       0.319   3.002   1.884  0.00  0.00    -0.097 F 
ATOM     12  F4  UNL d   1       2.931   3.235   1.134  0.00  0.00    -0.092 F 
ENDROOT
TORSDOF 0
ENDMDL
