MODEL 1
REMARK minimizedAffinity 3.68423986
REMARK minimizedRMSD -1
REMARK  0 active torsions:
REMARK  status: ('A' for Active; 'I' for Inactive)
ROOT
ATOM      1  C   UNL d   1       0.574  -0.298   0.036  0.00  0.00     0.124 A 
ATOM      2  C1  UNL d   1      -0.438   0.649  -0.039  0.00  0.00     0.062 A 
ATOM      3  C2  UNL d   1      -1.628   0.350  -0.696  0.00  0.00     0.162 A 
ATOM      4  C3  UNL d   1      -1.814  -0.902  -1.282  0.00  0.00    -0.034 A 
ATOM      5  C4  UNL d   1      -0.791  -1.848  -1.203  0.00  0.00     0.162 A 
ATOM      6  C5  UNL d   1       0.397  -1.545  -0.545  0.00  0.00     0.062 A 
ATOM      7  F   UNL d   1       1.373  -2.461  -0.474  0.00  0.00    -0.097 F 
ATOM      8  F1  UNL d   1      -0.936  -3.062  -1.756  0.00  0.00    -0.096 F 
ATOM      9  I   UNL d   1      -3.592  -1.352  -2.265  0.00  0.00    -0.060 I 
ATOM     10  F2  UNL d   1      -2.589   1.285  -0.753  0.00  0.00    -0.096 F 
ATOM     11  F3  UNL d   1      -0.269   1.855   0.521  0.00  0.00    -0.097 F 
ATOM     12  F4  UNL d   1       1.719  -0.008   0.668  0.00  0.00    -0.092 F 
ENDROOT
TORSDOF 0
ENDMDL
