MODEL 1
REMARK minimizedAffinity 0.146198004
REMARK minimizedRMSD -1
REMARK  0 active torsions:
REMARK  status: ('A' for Active; 'I' for Inactive)
ROOT
ATOM      1  C   UNL d   1       0.013   1.291   1.551  0.00  0.00     0.124 A 
ATOM      2  C1  UNL d   1       0.525   1.989   0.466  0.00  0.00     0.062 A 
ATOM      3  C2  UNL d   1       0.493   1.427  -0.806  0.00  0.00     0.162 A 
ATOM      4  C3  UNL d   1      -0.055   0.159  -1.002  0.00  0.00    -0.034 A 
ATOM      5  C4  UNL d   1      -0.567  -0.538   0.094  0.00  0.00     0.162 A 
ATOM      6  C5  UNL d   1      -0.533   0.029   1.364  0.00  0.00     0.062 A 
ATOM      7  F   UNL d   1      -1.028  -0.647   2.411  0.00  0.00    -0.097 F 
ATOM      8  F1  UNL d   1      -1.101  -1.759  -0.059  0.00  0.00    -0.096 F 
ATOM      9  I   UNL d   1      -0.104  -0.686  -2.904  0.00  0.00    -0.060 I 
ATOM     10  F2  UNL d   1       0.995   2.124  -1.836  0.00  0.00    -0.096 F 
ATOM     11  F3  UNL d   1       1.053   3.208   0.645  0.00  0.00    -0.097 F 
ATOM     12  F4  UNL d   1       0.045   1.834   2.775  0.00  0.00    -0.092 F 
ENDROOT
TORSDOF 0
ENDMDL
