MODEL 1
REMARK minimizedAffinity -3.90587354
REMARK minimizedRMSD -1
REMARK  0 active torsions:
REMARK  status: ('A' for Active; 'I' for Inactive)
ROOT
ATOM      1  C   UNL d   1      -0.242   1.508   1.739  0.00  0.00     0.124 A 
ATOM      2  C1  UNL d   1       0.651   1.971   0.781  0.00  0.00     0.062 A 
ATOM      3  C2  UNL d   1       0.892   1.226  -0.369  0.00  0.00     0.162 A 
ATOM      4  C3  UNL d   1       0.238   0.010  -0.570  0.00  0.00    -0.034 A 
ATOM      5  C4  UNL d   1      -0.657  -0.449   0.398  0.00  0.00     0.162 A 
ATOM      6  C5  UNL d   1      -0.894   0.299   1.546  0.00  0.00     0.062 A 
ATOM      7  F   UNL d   1      -1.757  -0.150   2.470  0.00  0.00    -0.097 F 
ATOM      8  F1  UNL d   1      -1.302  -1.614   0.237  0.00  0.00    -0.096 F 
ATOM      9  I   UNL d   1       0.596  -1.107  -2.289  0.00  0.00    -0.060 I 
ATOM     10  F2  UNL d   1       1.759   1.697  -1.277  0.00  0.00    -0.096 F 
ATOM     11  F3  UNL d   1       1.284   3.139   0.966  0.00  0.00    -0.097 F 
ATOM     12  F4  UNL d   1      -0.471   2.227   2.845  0.00  0.00    -0.092 F 
ENDROOT
TORSDOF 0
ENDMDL
