MODEL 1
REMARK minimizedAffinity -0.790679812
REMARK minimizedRMSD -1
REMARK  0 active torsions:
REMARK  status: ('A' for Active; 'I' for Inactive)
ROOT
ATOM      1  C   UNL d   1       0.583  -1.244  -1.456  0.00  0.00     0.124 A 
ATOM      2  C1  UNL d   1       1.843  -0.717  -1.208  0.00  0.00     0.062 A 
ATOM      3  C2  UNL d   1       2.005   0.299  -0.271  0.00  0.00     0.162 A 
ATOM      4  C3  UNL d   1       0.903   0.795   0.427  0.00  0.00    -0.034 A 
ATOM      5  C4  UNL d   1      -0.361   0.261   0.171  0.00  0.00     0.162 A 
ATOM      6  C5  UNL d   1      -0.517  -0.755  -0.767  0.00  0.00     0.062 A 
ATOM      7  F   UNL d   1      -1.735  -1.262  -1.005  0.00  0.00    -0.097 F 
ATOM      8  F1  UNL d   1      -1.441   0.714   0.824  0.00  0.00    -0.096 F 
ATOM      9  I   UNL d   1       1.141   2.314   1.829  0.00  0.00    -0.060 I 
ATOM     10  F2  UNL d   1       3.234   0.789  -0.051  0.00  0.00    -0.096 F 
ATOM     11  F3  UNL d   1       2.908  -1.187  -1.874  0.00  0.00    -0.097 F 
ATOM     12  F4  UNL d   1       0.430  -2.221  -2.360  0.00  0.00    -0.092 F 
ENDROOT
TORSDOF 0
ENDMDL
