MODEL 1
REMARK minimizedAffinity 2.5656004
REMARK minimizedRMSD -1
REMARK  0 active torsions:
REMARK  status: ('A' for Active; 'I' for Inactive)
ROOT
ATOM      1  C   UNL d   1       1.441   0.692   1.055  0.00  0.00     0.124 A 
ATOM      2  C1  UNL d   1       0.097   0.882   1.344  0.00  0.00     0.062 A 
ATOM      3  C2  UNL d   1      -0.875   0.161   0.656  0.00  0.00     0.162 A 
ATOM      4  C3  UNL d   1      -0.506  -0.758  -0.326  0.00  0.00    -0.034 A 
ATOM      5  C4  UNL d   1       0.848  -0.942  -0.612  0.00  0.00     0.162 A 
ATOM      6  C5  UNL d   1       1.815  -0.219   0.078  0.00  0.00     0.062 A 
ATOM      7  F   UNL d   1       3.114  -0.404  -0.202  0.00  0.00    -0.097 F 
ATOM      8  F1  UNL d   1       1.237  -1.818  -1.551  0.00  0.00    -0.096 F 
ATOM      9  I   UNL d   1      -1.957  -1.838  -1.356  0.00  0.00    -0.060 I 
ATOM     10  F2  UNL d   1      -2.167   0.364   0.956  0.00  0.00    -0.096 F 
ATOM     11  F3  UNL d   1      -0.267   1.763   2.287  0.00  0.00    -0.097 F 
ATOM     12  F4  UNL d   1       2.374   1.388   1.717  0.00  0.00    -0.092 F 
ENDROOT
TORSDOF 0
ENDMDL
