MODEL 1
REMARK minimizedAffinity -0.0150527954
REMARK minimizedRMSD -1
REMARK  0 active torsions:
REMARK  status: ('A' for Active; 'I' for Inactive)
ROOT
ATOM      1  C   UNL d   1       1.007   1.066   0.896  0.00  0.00     0.124 A 
ATOM      2  C1  UNL d   1       1.378   0.097  -0.026  0.00  0.00     0.062 A 
ATOM      3  C2  UNL d   1       0.407  -0.647  -0.689  0.00  0.00     0.162 A 
ATOM      4  C3  UNL d   1      -0.946  -0.425  -0.433  0.00  0.00    -0.034 A 
ATOM      5  C4  UNL d   1      -1.312   0.551   0.496  0.00  0.00     0.162 A 
ATOM      6  C5  UNL d   1      -0.337   1.292   1.155  0.00  0.00     0.062 A 
ATOM      7  F   UNL d   1      -0.698   2.228   2.045  0.00  0.00    -0.097 F 
ATOM      8  F1  UNL d   1      -2.604   0.790   0.765  0.00  0.00    -0.096 F 
ATOM      9  I   UNL d   1      -2.402  -1.536  -1.422  0.00  0.00    -0.060 I 
ATOM     10  F2  UNL d   1       0.795  -1.577  -1.574  0.00  0.00    -0.096 F 
ATOM     11  F3  UNL d   1       2.677  -0.124  -0.278  0.00  0.00    -0.097 F 
ATOM     12  F4  UNL d   1       1.944   1.781   1.533  0.00  0.00    -0.092 F 
ENDROOT
TORSDOF 0
ENDMDL
