MODEL 1
REMARK minimizedAffinity -4.23361921
REMARK minimizedRMSD -1
REMARK  0 active torsions:
REMARK  status: ('A' for Active; 'I' for Inactive)
ROOT
ATOM      1  C   UNL d   1      -0.676  -1.369  -1.356  0.00  0.00     0.124 A 
ATOM      2  C1  UNL d   1      -1.579  -0.370  -1.019  0.00  0.00     0.062 A 
ATOM      3  C2  UNL d   1      -1.212   0.633  -0.127  0.00  0.00     0.162 A 
ATOM      4  C3  UNL d   1       0.065   0.643   0.434  0.00  0.00    -0.034 A 
ATOM      5  C4  UNL d   1       0.968  -0.366   0.091  0.00  0.00     0.162 A 
ATOM      6  C5  UNL d   1       0.596  -1.366  -0.801  0.00  0.00     0.062 A 
ATOM      7  F   UNL d   1       1.469  -2.330  -1.125  0.00  0.00    -0.097 F 
ATOM      8  F1  UNL d   1       2.203  -0.386   0.612  0.00  0.00    -0.096 F 
ATOM      9  I   UNL d   1       0.618   2.142   1.769  0.00  0.00    -0.060 I 
ATOM     10  F2  UNL d   1      -2.104   1.586   0.181  0.00  0.00    -0.096 F 
ATOM     11  F3  UNL d   1      -2.809  -0.372  -1.553  0.00  0.00    -0.097 F 
ATOM     12  F4  UNL d   1      -1.032  -2.334  -2.214  0.00  0.00    -0.092 F 
ENDROOT
TORSDOF 0
ENDMDL
