MODEL 1
REMARK minimizedAffinity -2.78925395
REMARK minimizedRMSD -1
REMARK  0 active torsions:
REMARK  status: ('A' for Active; 'I' for Inactive)
ROOT
ATOM      1  C   UNL d   1       1.802   1.588   1.218  0.00  0.00     0.124 A 
ATOM      2  C1  UNL d   1       2.258   0.999   0.047  0.00  0.00     0.062 A 
ATOM      3  C2  UNL d   1       1.511  -0.001  -0.570  0.00  0.00     0.162 A 
ATOM      4  C3  UNL d   1       0.300  -0.417  -0.018  0.00  0.00    -0.034 A 
ATOM      5  C4  UNL d   1      -0.152   0.180   1.161  0.00  0.00     0.162 A 
ATOM      6  C5  UNL d   1       0.598   1.178   1.774  0.00  0.00     0.062 A 
ATOM      7  F   UNL d   1       0.156   1.746   2.905  0.00  0.00    -0.097 F 
ATOM      8  F1  UNL d   1      -1.312  -0.197   1.718  0.00  0.00    -0.096 F 
ATOM      9  I   UNL d   1      -0.819  -1.912  -0.938  0.00  0.00    -0.060 I 
ATOM     10  F2  UNL d   1       1.976  -0.553  -1.701  0.00  0.00    -0.096 F 
ATOM     11  F3  UNL d   1       3.421   1.392  -0.491  0.00  0.00    -0.097 F 
ATOM     12  F4  UNL d   1       2.522   2.549   1.810  0.00  0.00    -0.092 F 
ENDROOT
TORSDOF 0
ENDMDL
