MODEL 1
REMARK minimizedAffinity 4.32699728
REMARK minimizedRMSD -1
REMARK  0 active torsions:
REMARK  status: ('A' for Active; 'I' for Inactive)
ROOT
ATOM      1  C   UNL d   1       1.369   0.997   0.955  0.00  0.00     0.124 A 
ATOM      2  C1  UNL d   1       1.752   0.206  -0.119  0.00  0.00     0.062 A 
ATOM      3  C2  UNL d   1       0.827  -0.634  -0.733  0.00  0.00     0.162 A 
ATOM      4  C3  UNL d   1      -0.489  -0.687  -0.275  0.00  0.00    -0.034 A 
ATOM      5  C4  UNL d   1      -0.866   0.111   0.806  0.00  0.00     0.162 A 
ATOM      6  C5  UNL d   1       0.062   0.949   1.417  0.00  0.00     0.062 A 
ATOM      7  F   UNL d   1      -0.309   1.713   2.455  0.00  0.00    -0.097 F 
ATOM      8  F1  UNL d   1      -2.123   0.086   1.272  0.00  0.00    -0.096 F 
ATOM      9  I   UNL d   1      -1.874  -1.942  -1.191  0.00  0.00    -0.060 I 
ATOM     10  F2  UNL d   1       1.224  -1.388  -1.770  0.00  0.00    -0.096 F 
ATOM     11  F3  UNL d   1       3.015   0.250  -0.567  0.00  0.00    -0.097 F 
ATOM     12  F4  UNL d   1       2.261   1.804   1.545  0.00  0.00    -0.092 F 
ENDROOT
TORSDOF 0
ENDMDL
