MODEL 1
REMARK minimizedAffinity 1.48999488
REMARK minimizedRMSD -1
REMARK  0 active torsions:
REMARK  status: ('A' for Active; 'I' for Inactive)
ROOT
ATOM      1  C   UNL d   1       1.310   2.081   0.998  0.00  0.00     0.124 A 
ATOM      2  C1  UNL d   1       1.797   1.292  -0.035  0.00  0.00     0.062 A 
ATOM      3  C2  UNL d   1       0.999   0.296  -0.591  0.00  0.00     0.162 A 
ATOM      4  C3  UNL d   1      -0.295   0.083  -0.115  0.00  0.00    -0.034 A 
ATOM      5  C4  UNL d   1      -0.777   0.880   0.925  0.00  0.00     0.162 A 
ATOM      6  C5  UNL d   1       0.024   1.875   1.477  0.00  0.00     0.062 A 
ATOM      7  F   UNL d   1      -0.448   2.636   2.475  0.00  0.00    -0.097 F 
ATOM      8  F1  UNL d   1      -2.016   0.703   1.406  0.00  0.00    -0.096 F 
ATOM      9  I   UNL d   1      -1.491  -1.405  -0.943  0.00  0.00    -0.060 I 
ATOM     10  F2  UNL d   1       1.495  -0.452  -1.588  0.00  0.00    -0.096 F 
ATOM     11  F3  UNL d   1       3.039   1.489  -0.499  0.00  0.00    -0.097 F 
ATOM     12  F4  UNL d   1       2.080   3.038   1.531  0.00  0.00    -0.092 F 
ENDROOT
TORSDOF 0
ENDMDL
