MODEL 1
REMARK minimizedAffinity -1.64565516
REMARK minimizedRMSD -1
REMARK  0 active torsions:
REMARK  status: ('A' for Active; 'I' for Inactive)
ROOT
ATOM      1  C   UNL d   1       1.551   1.888   0.959  0.00  0.00     0.124 A 
ATOM      2  C1  UNL d   1       2.199   1.216  -0.068  0.00  0.00     0.062 A 
ATOM      3  C2  UNL d   1       1.626   0.080  -0.632  0.00  0.00     0.162 A 
ATOM      4  C3  UNL d   1       0.397  -0.391  -0.172  0.00  0.00    -0.034 A 
ATOM      5  C4  UNL d   1      -0.249   0.289   0.862  0.00  0.00     0.162 A 
ATOM      6  C5  UNL d   1       0.328   1.424   1.423  0.00  0.00     0.062 A 
ATOM      7  F   UNL d   1      -0.301   2.071   2.415  0.00  0.00    -0.097 F 
ATOM      8  F1  UNL d   1      -1.432  -0.137   1.328  0.00  0.00    -0.096 F 
ATOM      9  I   UNL d   1      -0.463  -2.089  -1.014  0.00  0.00    -0.060 I 
ATOM     10  F2  UNL d   1       2.275  -0.549  -1.623  0.00  0.00    -0.096 F 
ATOM     11  F3  UNL d   1       3.381   1.662  -0.517  0.00  0.00    -0.097 F 
ATOM     12  F4  UNL d   1       2.104   2.980   1.502  0.00  0.00    -0.092 F 
ENDROOT
TORSDOF 0
ENDMDL
