MODEL 1
REMARK minimizedAffinity 2.05102777
REMARK minimizedRMSD -1
REMARK  0 active torsions:
REMARK  status: ('A' for Active; 'I' for Inactive)
ROOT
ATOM      1  C   UNL d   1      -0.684  -1.089   0.211  0.00  0.00     0.124 A 
ATOM      2  C1  UNL d   1       0.259  -0.566  -0.662  0.00  0.00     0.062 A 
ATOM      3  C2  UNL d   1       0.834   0.676  -0.410  0.00  0.00     0.162 A 
ATOM      4  C3  UNL d   1       0.468   1.404   0.723  0.00  0.00    -0.034 A 
ATOM      5  C4  UNL d   1      -0.482   0.872   1.596  0.00  0.00     0.162 A 
ATOM      6  C5  UNL d   1      -1.054  -0.370   1.339  0.00  0.00     0.062 A 
ATOM      7  F   UNL d   1      -1.965  -0.874   2.184  0.00  0.00    -0.097 F 
ATOM      8  F1  UNL d   1      -0.857   1.544   2.694  0.00  0.00    -0.096 F 
ATOM      9  I   UNL d   1       1.325   3.262   1.104  0.00  0.00    -0.060 I 
ATOM     10  F2  UNL d   1       1.743   1.158  -1.271  0.00  0.00    -0.096 F 
ATOM     11  F3  UNL d   1       0.617  -1.258  -1.754  0.00  0.00    -0.097 F 
ATOM     12  F4  UNL d   1      -1.237  -2.284  -0.035  0.00  0.00    -0.092 F 
ENDROOT
TORSDOF 0
ENDMDL
