MODEL 1
REMARK minimizedAffinity 0.792445362
REMARK minimizedRMSD -1
REMARK  0 active torsions:
REMARK  status: ('A' for Active; 'I' for Inactive)
ROOT
ATOM      1  C   UNL d   1       0.168  -1.629  -0.748  0.00  0.00     0.124 A 
ATOM      2  C1  UNL d   1      -0.858  -1.039  -0.023  0.00  0.00     0.062 A 
ATOM      3  C2  UNL d   1      -0.671   0.206   0.570  0.00  0.00     0.162 A 
ATOM      4  C3  UNL d   1       0.548   0.871   0.439  0.00  0.00    -0.034 A 
ATOM      5  C4  UNL d   1       1.576   0.271  -0.290  0.00  0.00     0.162 A 
ATOM      6  C5  UNL d   1       1.384  -0.973  -0.881  0.00  0.00     0.062 A 
ATOM      7  F   UNL d   1       2.377  -1.542  -1.580  0.00  0.00    -0.097 F 
ATOM      8  F1  UNL d   1       2.761   0.883  -0.435  0.00  0.00    -0.096 F 
ATOM      9  I   UNL d   1       0.832   2.733   1.324  0.00  0.00    -0.060 I 
ATOM     10  F2  UNL d   1      -1.680   0.752   1.264  0.00  0.00    -0.096 F 
ATOM     11  F3  UNL d   1      -2.034  -1.671   0.108  0.00  0.00    -0.097 F 
ATOM     12  F4  UNL d   1      -0.014  -2.828  -1.316  0.00  0.00    -0.092 F 
ENDROOT
TORSDOF 0
ENDMDL
