MODEL 1
REMARK minimizedAffinity -3.29904222
REMARK minimizedRMSD -1
REMARK  0 active torsions:
REMARK  status: ('A' for Active; 'I' for Inactive)
ROOT
ATOM      1  C   UNL d   1       1.603   1.781   0.930  0.00  0.00     0.124 A 
ATOM      2  C1  UNL d   1       2.008   0.852  -0.018  0.00  0.00     0.062 A 
ATOM      3  C2  UNL d   1       1.080  -0.012  -0.592  0.00  0.00     0.162 A 
ATOM      4  C3  UNL d   1      -0.263   0.049  -0.220  0.00  0.00    -0.034 A 
ATOM      5  C4  UNL d   1      -0.662   0.985   0.736  0.00  0.00     0.162 A 
ATOM      6  C5  UNL d   1       0.269   1.847   1.306  0.00  0.00     0.062 A 
ATOM      7  F   UNL d   1      -0.124   2.744   2.222  0.00  0.00    -0.097 F 
ATOM      8  F1  UNL d   1      -1.945   1.071   1.117  0.00  0.00    -0.096 F 
ATOM      9  I   UNL d   1      -1.653  -1.242  -1.075  0.00  0.00    -0.060 I 
ATOM     10  F2  UNL d   1       1.499  -0.900  -1.506  0.00  0.00    -0.096 F 
ATOM     11  F3  UNL d   1       3.297   0.786  -0.383  0.00  0.00    -0.097 F 
ATOM     12  F4  UNL d   1       2.499   2.611   1.481  0.00  0.00    -0.092 F 
ENDROOT
TORSDOF 0
ENDMDL
