MODEL 1
REMARK minimizedAffinity 2.37233686
REMARK minimizedRMSD -1
REMARK  0 active torsions:
REMARK  status: ('A' for Active; 'I' for Inactive)
ROOT
ATOM      1  C   UNL d   1       1.176   2.182   1.239  0.00  0.00     0.124 A 
ATOM      2  C1  UNL d   1       0.106   1.521   1.824  0.00  0.00     0.062 A 
ATOM      3  C2  UNL d   1      -0.430   0.386   1.222  0.00  0.00     0.162 A 
ATOM      4  C3  UNL d   1       0.105  -0.096   0.027  0.00  0.00    -0.034 A 
ATOM      5  C4  UNL d   1       1.181   0.576  -0.556  0.00  0.00     0.162 A 
ATOM      6  C5  UNL d   1       1.713   1.709   0.050  0.00  0.00     0.062 A 
ATOM      7  F   UNL d   1       2.747   2.347  -0.517  0.00  0.00    -0.097 F 
ATOM      8  F1  UNL d   1       1.720   0.140  -1.704  0.00  0.00    -0.096 F 
ATOM      9  I   UNL d   1      -0.693  -1.792  -0.876  0.00  0.00    -0.060 I 
ATOM     10  F2  UNL d   1      -1.464  -0.233   1.810  0.00  0.00    -0.096 F 
ATOM     11  F3  UNL d   1      -0.415   1.976   2.973  0.00  0.00    -0.097 F 
ATOM     12  F4  UNL d   1       1.689   3.275   1.820  0.00  0.00    -0.092 F 
ENDROOT
TORSDOF 0
ENDMDL
