MODEL 1
REMARK minimizedAffinity 3.12151313
REMARK minimizedRMSD -1
REMARK  0 active torsions:
REMARK  status: ('A' for Active; 'I' for Inactive)
ROOT
ATOM      1  C   UNL d   1       1.022   2.326   1.290  0.00  0.00     0.124 A 
ATOM      2  C1  UNL d   1       1.107   2.332  -0.096  0.00  0.00     0.062 A 
ATOM      3  C2  UNL d   1       0.387   1.407  -0.845  0.00  0.00     0.162 A 
ATOM      4  C3  UNL d   1      -0.427   0.468  -0.211  0.00  0.00    -0.034 A 
ATOM      5  C4  UNL d   1      -0.507   0.467   1.182  0.00  0.00     0.162 A 
ATOM      6  C5  UNL d   1       0.215   1.394   1.927  0.00  0.00     0.062 A 
ATOM      7  F   UNL d   1       0.131   1.387   3.266  0.00  0.00    -0.097 F 
ATOM      8  F1  UNL d   1      -1.280  -0.421   1.824  0.00  0.00    -0.096 F 
ATOM      9  I   UNL d   1      -1.506  -0.917  -1.329  0.00  0.00    -0.060 I 
ATOM     10  F2  UNL d   1       0.488   1.436  -2.183  0.00  0.00    -0.096 F 
ATOM     11  F3  UNL d   1       1.887   3.231  -0.714  0.00  0.00    -0.097 F 
ATOM     12  F4  UNL d   1       1.717   3.217   2.009  0.00  0.00    -0.092 F 
ENDROOT
TORSDOF 0
ENDMDL
