MODEL 1
REMARK minimizedAffinity -5.41149473
REMARK minimizedRMSD -1
REMARK  3 active torsions:
REMARK  status: ('A' for Active; 'I' for Inactive)
REMARK    1  A    between atoms: C3'_2  and  C2'_3 
REMARK    2  A    between atoms: C2'_3  and  C1'_4 
REMARK    3  A    between atoms: C1'_4  and  C1_5 
ROOT
ATOM      1  C1  N4B d   1      -0.446   0.212  -0.310  0.00  0.00    -0.075 A 
ATOM      2  C2  N4B d   1       0.617   0.897  -0.938  0.00  0.00     0.002 A 
ATOM      3  C3  N4B d   1       1.783   0.233  -1.231  0.00  0.00     0.002 A 
ATOM      4  C4  N4B d   1       1.915  -1.104  -0.889  0.00  0.00    -0.004 A 
ATOM      5  C5  N4B d   1       0.874  -1.765  -0.305  0.00  0.00     0.002 A 
ATOM      6  C6  N4B d   1      -0.305  -1.112  -0.009  0.00  0.00     0.002 A 
ENDROOT
BRANCH   1   7
ATOM      7  C1' N4B d   1      -1.708   0.917   0.108  0.00  0.00     0.057 C 
BRANCH   7   8
ATOM      8  C2' N4B d   1      -2.168   0.365   1.454  0.00  0.00     0.009 C 
BRANCH   8   9
ATOM      9  C3' N4B d   1      -2.225   1.444   2.521  0.00  0.00     0.004 C 
ATOM     10  C4' N4B d   1      -2.074   0.896   3.909  0.00  0.00     0.003 C 
ENDBRANCH   8   9
ENDBRANCH   7   8
ENDBRANCH   1   7
TORSDOF 3
ENDMDL
