MODEL 1
REMARK minimizedAffinity 0.574829519
REMARK minimizedRMSD -1
REMARK  3 active torsions:
REMARK  status: ('A' for Active; 'I' for Inactive)
REMARK    1  A    between atoms: C3'_2  and  C2'_3 
REMARK    2  A    between atoms: C2'_3  and  C1'_4 
REMARK    3  A    between atoms: C1'_4  and  C1_5 
ROOT
ATOM      1  C1  N4B d   1       0.860  -0.059   0.432  0.00  0.00    -0.075 A 
ATOM      2  C2  N4B d   1       0.106  -1.173   0.002  0.00  0.00     0.002 A 
ATOM      3  C3  N4B d   1       0.599  -1.999  -0.977  0.00  0.00     0.002 A 
ATOM      4  C4  N4B d   1       1.831  -1.722  -1.552  0.00  0.00    -0.004 A 
ATOM      5  C5  N4B d   1       2.564  -0.659  -1.113  0.00  0.00     0.002 A 
ATOM      6  C6  N4B d   1       2.082   0.178  -0.127  0.00  0.00     0.002 A 
ENDROOT
BRANCH   1   7
ATOM      7  C1' N4B d   1       0.324   0.922   1.439  0.00  0.00     0.057 C 
BRANCH   7   8
ATOM      8  C2' N4B d   1      -0.153   0.163   2.673  0.00  0.00     0.009 C 
BRANCH   8   9
ATOM      9  C3' N4B d   1      -1.338   0.844   3.337  0.00  0.00     0.004 C 
ATOM     10  C4' N4B d   1      -2.529  -0.058   3.467  0.00  0.00     0.003 C 
ENDBRANCH   8   9
ENDBRANCH   7   8
ENDBRANCH   1   7
TORSDOF 3
ENDMDL
