MODEL 1
REMARK minimizedAffinity -5.93496895
REMARK minimizedRMSD -1
REMARK  3 active torsions:
REMARK  status: ('A' for Active; 'I' for Inactive)
REMARK    1  A    between atoms: C3'_2  and  C2'_3 
REMARK    2  A    between atoms: C2'_3  and  C1'_4 
REMARK    3  A    between atoms: C1'_4  and  C1_5 
ROOT
ATOM      1  C1  N4B d   1      -0.061   0.327  -0.199  0.00  0.00    -0.075 A 
ATOM      2  C2  N4B d   1       1.029   1.039  -0.746  0.00  0.00     0.002 A 
ATOM      3  C3  N4B d   1       2.155   0.366  -1.153  0.00  0.00     0.002 A 
ATOM      4  C4  N4B d   1       2.221  -1.011  -1.007  0.00  0.00    -0.004 A 
ATOM      5  C5  N4B d   1       1.154  -1.695  -0.501  0.00  0.00     0.002 A 
ATOM      6  C6  N4B d   1       0.014  -1.032  -0.092  0.00  0.00     0.002 A 
ENDROOT
BRANCH   1   7
ATOM      7  C1' N4B d   1      -1.278   1.028   0.340  0.00  0.00     0.057 C 
BRANCH   7   8
ATOM      8  C2' N4B d   1      -1.701   0.364   1.646  0.00  0.00     0.009 C 
BRANCH   8   9
ATOM      9  C3' N4B d   1      -2.114   1.383   2.694  0.00  0.00     0.004 C 
ATOM     10  C4' N4B d   1      -1.822   0.929   4.093  0.00  0.00     0.003 C 
ENDBRANCH   8   9
ENDBRANCH   7   8
ENDBRANCH   1   7
TORSDOF 3
ENDMDL
