MODEL 1
REMARK minimizedAffinity -3.97562814
REMARK minimizedRMSD -1
REMARK  3 active torsions:
REMARK  status: ('A' for Active; 'I' for Inactive)
REMARK    1  A    between atoms: C3'_2  and  C2'_3 
REMARK    2  A    between atoms: C2'_3  and  C1'_4 
REMARK    3  A    between atoms: C1'_4  and  C1_5 
ROOT
ATOM      1  C1  N4B d   1      -1.704   0.236   1.633  0.00  0.00    -0.075 A 
ATOM      2  C2  N4B d   1      -0.669   0.621   2.513  0.00  0.00     0.002 A 
ATOM      3  C3  N4B d   1      -0.962   0.966   3.809  0.00  0.00     0.002 A 
ATOM      4  C4  N4B d   1      -2.280   0.952   4.241  0.00  0.00    -0.004 A 
ATOM      5  C5  N4B d   1      -3.271   0.554   3.393  0.00  0.00     0.002 A 
ATOM      6  C6  N4B d   1      -2.990   0.201   2.088  0.00  0.00     0.002 A 
ENDROOT
BRANCH   1   7
ATOM      7  C1' N4B d   1      -1.443  -0.067   0.183  0.00  0.00     0.057 C 
BRANCH   7   8
ATOM      8  C2' N4B d   1       0.064  -0.115  -0.055  0.00  0.00     0.009 C 
BRANCH   8   9
ATOM      9  C3' N4B d   1       0.593  -1.539  -0.061  0.00  0.00     0.004 C 
ATOM     10  C4' N4B d   1       1.789  -1.710  -0.951  0.00  0.00     0.003 C 
ENDBRANCH   8   9
ENDBRANCH   7   8
ENDBRANCH   1   7
TORSDOF 3
ENDMDL
