MODEL 1
REMARK minimizedAffinity -5.30691195
REMARK minimizedRMSD -1
REMARK  3 active torsions:
REMARK  status: ('A' for Active; 'I' for Inactive)
REMARK    1  A    between atoms: C3'_2  and  C2'_3 
REMARK    2  A    between atoms: C2'_3  and  C1'_4 
REMARK    3  A    between atoms: C1'_4  and  C1_5 
ROOT
ATOM      1  C1  N4B d   1       0.483  -0.868  -0.271  0.00  0.00    -0.075 A 
ATOM      2  C2  N4B d   1       0.989  -1.638  -1.341  0.00  0.00     0.002 A 
ATOM      3  C3  N4B d   1       2.255  -1.402  -1.818  0.00  0.00     0.002 A 
ATOM      4  C4  N4B d   1       3.023  -0.394  -1.256  0.00  0.00    -0.004 A 
ATOM      5  C5  N4B d   1       2.537   0.328  -0.205  0.00  0.00     0.002 A 
ATOM      6  C6  N4B d   1       1.268   0.099   0.287  0.00  0.00     0.002 A 
ENDROOT
BRANCH   1   7
ATOM      7  C1' N4B d   1      -0.926  -1.032   0.228  0.00  0.00     0.057 C 
BRANCH   7   8
ATOM      8  C2' N4B d   1      -1.462   0.327   0.670  0.00  0.00     0.009 C 
BRANCH   8   9
ATOM      9  C3' N4B d   1      -2.284   0.227   1.944  0.00  0.00     0.004 C 
ATOM     10  C4' N4B d   1      -1.698   1.016   3.077  0.00  0.00     0.003 C 
ENDBRANCH   8   9
ENDBRANCH   7   8
ENDBRANCH   1   7
TORSDOF 3
ENDMDL
