MODEL 1
REMARK minimizedAffinity -5.8835969
REMARK minimizedRMSD -1
REMARK  3 active torsions:
REMARK  status: ('A' for Active; 'I' for Inactive)
REMARK    1  A    between atoms: C3'_2  and  C2'_3 
REMARK    2  A    between atoms: C2'_3  and  C1'_4 
REMARK    3  A    between atoms: C1'_4  and  C1_5 
ROOT
ATOM      1  C1  N4B d   1       0.691  -0.368  -0.656  0.00  0.00    -0.075 A 
ATOM      2  C2  N4B d   1       1.931  -1.034  -0.546  0.00  0.00     0.002 A 
ATOM      3  C3  N4B d   1       2.982  -0.665  -1.349  0.00  0.00     0.002 A 
ATOM      4  C4  N4B d   1       2.812   0.351  -2.278  0.00  0.00    -0.004 A 
ATOM      5  C5  N4B d   1       1.618   1.007  -2.360  0.00  0.00     0.002 A 
ATOM      6  C6  N4B d   1       0.555   0.649  -1.556  0.00  0.00     0.002 A 
ENDROOT
BRANCH   1   7
ATOM      7  C1' N4B d   1      -0.512  -0.794   0.141  0.00  0.00     0.057 C 
BRANCH   7   8
ATOM      8  C2' N4B d   1      -1.310   0.443   0.542  0.00  0.00     0.009 C 
BRANCH   8   9
ATOM      9  C3' N4B d   1      -1.991   0.268   1.889  0.00  0.00     0.004 C 
ATOM     10  C4' N4B d   1      -1.826   1.460   2.783  0.00  0.00     0.003 C 
ENDBRANCH   8   9
ENDBRANCH   7   8
ENDBRANCH   1   7
TORSDOF 3
ENDMDL
