MODEL 1
REMARK minimizedAffinity -3.73219705
REMARK minimizedRMSD -1
REMARK  3 active torsions:
REMARK  status: ('A' for Active; 'I' for Inactive)
REMARK    1  A    between atoms: C3'_2  and  C2'_3 
REMARK    2  A    between atoms: C2'_3  and  C1'_4 
REMARK    3  A    between atoms: C1'_4  and  C1_5 
ROOT
ATOM      1  C1  N4B d   1      -0.852  -0.648   0.955  0.00  0.00    -0.075 A 
ATOM      2  C2  N4B d   1      -0.270   0.074   2.020  0.00  0.00     0.002 A 
ATOM      3  C3  N4B d   1      -1.070   0.713   2.935  0.00  0.00     0.002 A 
ATOM      4  C4  N4B d   1      -2.448   0.660   2.796  0.00  0.00    -0.004 A 
ATOM      5  C5  N4B d   1      -3.004  -0.061   1.779  0.00  0.00     0.002 A 
ATOM      6  C6  N4B d   1      -2.212  -0.711   0.854  0.00  0.00     0.002 A 
ENDROOT
BRANCH   1   7
ATOM      7  C1' N4B d   1      -0.018  -1.291  -0.119  0.00  0.00     0.057 C 
BRANCH   7   8
ATOM      8  C2' N4B d   1       0.977  -0.268  -0.660  0.00  0.00     0.009 C 
BRANCH   8   9
ATOM      9  C3' N4B d   1       1.950  -0.889  -1.647  0.00  0.00     0.004 C 
ATOM     10  C4' N4B d   1       2.081  -0.094  -2.912  0.00  0.00     0.003 C 
ENDBRANCH   8   9
ENDBRANCH   7   8
ENDBRANCH   1   7
TORSDOF 3
ENDMDL
