MODEL 1
REMARK minimizedAffinity -4.1393981
REMARK minimizedRMSD -1
REMARK  3 active torsions:
REMARK  status: ('A' for Active; 'I' for Inactive)
REMARK    1  A    between atoms: C3'_2  and  C2'_3 
REMARK    2  A    between atoms: C2'_3  and  C1'_4 
REMARK    3  A    between atoms: C1'_4  and  C1_5 
ROOT
ATOM      1  C1  N4B d   1       0.230  -0.394  -0.069  0.00  0.00    -0.075 A 
ATOM      2  C2  N4B d   1       1.073   0.732  -0.193  0.00  0.00     0.002 A 
ATOM      3  C3  N4B d   1       2.277   0.620  -0.844  0.00  0.00     0.002 A 
ATOM      4  C4  N4B d   1       2.667  -0.607  -1.359  0.00  0.00    -0.004 A 
ATOM      5  C5  N4B d   1       1.836  -1.684  -1.257  0.00  0.00     0.002 A 
ATOM      6  C6  N4B d   1       0.621  -1.585  -0.610  0.00  0.00     0.002 A 
ENDROOT
BRANCH   1   7
ATOM      7  C1' N4B d   1      -1.057  -0.341   0.708  0.00  0.00     0.057 C 
BRANCH   7   8
ATOM      8  C2' N4B d   1      -0.916   0.670   1.841  0.00  0.00     0.009 C 
BRANCH   8   9
ATOM      9  C3' N4B d   1      -1.680   0.242   3.083  0.00  0.00     0.004 C 
ATOM     10  C4' N4B d   1      -1.697   1.299   4.147  0.00  0.00     0.003 C 
ENDBRANCH   8   9
ENDBRANCH   7   8
ENDBRANCH   1   7
TORSDOF 3
ENDMDL
