MODEL 1
REMARK minimizedAffinity -6.3576951
REMARK minimizedRMSD -1
REMARK  3 active torsions:
REMARK  status: ('A' for Active; 'I' for Inactive)
REMARK    1  A    between atoms: C3'_2  and  C2'_3 
REMARK    2  A    between atoms: C2'_3  and  C1'_4 
REMARK    3  A    between atoms: C1'_4  and  C1_5 
ROOT
ATOM      1  C1  N4B d   1      -0.019  -0.285  -0.111  0.00  0.00    -0.075 A 
ATOM      2  C2  N4B d   1       0.132  -1.643  -0.468  0.00  0.00     0.002 A 
ATOM      3  C3  N4B d   1       1.279  -2.064  -1.094  0.00  0.00     0.002 A 
ATOM      4  C4  N4B d   1       2.277  -1.147  -1.389  0.00  0.00    -0.004 A 
ATOM      5  C5  N4B d   1       2.134   0.158  -1.019  0.00  0.00     0.002 A 
ATOM      6  C6  N4B d   1       0.988   0.595  -0.385  0.00  0.00     0.002 A 
ENDROOT
BRANCH   1   7
ATOM      7  C1' N4B d   1      -1.291   0.240   0.497  0.00  0.00     0.057 C 
BRANCH   7   8
ATOM      8  C2' N4B d   1      -0.962   0.961   1.801  0.00  0.00     0.009 C 
BRANCH   8   9
ATOM      9  C3' N4B d   1      -2.187   1.128   2.683  0.00  0.00     0.004 C 
ATOM     10  C4' N4B d   1      -2.016   0.508   4.038  0.00  0.00     0.003 C 
ENDBRANCH   8   9
ENDBRANCH   7   8
ENDBRANCH   1   7
TORSDOF 3
ENDMDL
