MODEL 1
REMARK minimizedAffinity -1.045017
REMARK minimizedRMSD -1
REMARK  3 active torsions:
REMARK  status: ('A' for Active; 'I' for Inactive)
REMARK    1  A    between atoms: C3'_2  and  C2'_3 
REMARK    2  A    between atoms: C2'_3  and  C1'_4 
REMARK    3  A    between atoms: C1'_4  and  C1_5 
ROOT
ATOM      1  C1  N4B d   1       5.605   0.226   5.241  0.00  0.00    -0.075 A 
ATOM      2  C2  N4B d   1       5.255   0.205   3.872  0.00  0.00     0.002 A 
ATOM      3  C3  N4B d   1       4.980  -0.989   3.252  0.00  0.00     0.002 A 
ATOM      4  C4  N4B d   1       5.066  -2.172   3.972  0.00  0.00    -0.004 A 
ATOM      5  C5  N4B d   1       5.380  -2.141   5.299  0.00  0.00     0.002 A 
ATOM      6  C6  N4B d   1       5.655  -0.947   5.936  0.00  0.00     0.002 A 
ENDROOT
BRANCH   1   7
ATOM      7  C1' N4B d   1       5.998   1.498   5.940  0.00  0.00     0.057 C 
BRANCH   7   8
ATOM      8  C2' N4B d   1       5.121   2.639   5.434  0.00  0.00     0.009 C 
BRANCH   8   9
ATOM      9  C3' N4B d   1       5.930   3.695   4.700  0.00  0.00     0.004 C 
ATOM     10  C4' N4B d   1       5.807   3.589   3.210  0.00  0.00     0.003 C 
ENDBRANCH   8   9
ENDBRANCH   7   8
ENDBRANCH   1   7
TORSDOF 3
ENDMDL
