MODEL 1
REMARK minimizedAffinity 15.2753391
REMARK minimizedRMSD -1
REMARK  0 active torsions:
REMARK  status: ('A' for Active; 'I' for Inactive)
ROOT
ATOM      1  C4' PXY d   1       1.685  -3.811   1.147  0.00  0.00     0.077 C 
ATOM      2  C1' PXY d   1       1.626   1.838   2.372  0.00  0.00     0.077 C 
ATOM      3  C1  PXY d   1       1.647   0.359   2.039  0.00  0.00    -0.082 A 
ATOM      4  C2  PXY d   1       0.797  -0.459   2.640  0.00  0.00     0.003 A 
ATOM      5  C3  PXY d   1       0.824  -1.804   2.374  0.00  0.00     0.003 A 
ATOM      6  C4  PXY d   1       1.694  -2.309   1.445  0.00  0.00    -0.082 A 
ATOM      7  C5  PXY d   1       2.556  -1.480   0.821  0.00  0.00     0.003 A 
ATOM      8  C6  PXY d   1       2.541  -0.124   1.135  0.00  0.00     0.003 A 
ENDROOT
TORSDOF 0
ENDMDL
