MODEL 1
REMARK minimizedAffinity 7.15488768
REMARK minimizedRMSD -1
REMARK  0 active torsions:
REMARK  status: ('A' for Active; 'I' for Inactive)
ROOT
ATOM      1  C4' PXY d   1       6.000  -2.610   2.078  0.00  0.00     0.077 C 
ATOM      2  C1' PXY d   1       0.564  -0.743   1.457  0.00  0.00     0.077 C 
ATOM      3  C1  PXY d   1       1.993  -1.227   1.608  0.00  0.00    -0.082 A 
ATOM      4  C2  PXY d   1       2.260  -2.230   2.429  0.00  0.00     0.003 A 
ATOM      5  C3  PXY d   1       3.550  -2.660   2.602  0.00  0.00     0.003 A 
ATOM      6  C4  PXY d   1       4.571  -2.093   1.887  0.00  0.00    -0.082 A 
ATOM      7  C5  PXY d   1       4.305  -1.077   1.039  0.00  0.00     0.003 A 
ATOM      8  C6  PXY d   1       2.994  -0.627   0.909  0.00  0.00     0.003 A 
ENDROOT
TORSDOF 0
ENDMDL
