MODEL 1
REMARK minimizedAffinity 14.3735247
REMARK minimizedRMSD -1
REMARK  0 active torsions:
REMARK  status: ('A' for Active; 'I' for Inactive)
ROOT
ATOM      1  C4' PXY d   1       5.649  -2.414   1.719  0.00  0.00     0.077 C 
ATOM      2  C1' PXY d   1       0.129  -0.784   1.190  0.00  0.00     0.077 C 
ATOM      3  C1  PXY d   1       1.574  -1.217   1.340  0.00  0.00    -0.082 A 
ATOM      4  C2  PXY d   1       2.528  -0.534   0.730  0.00  0.00     0.003 A 
ATOM      5  C3  PXY d   1       3.837  -0.931   0.829  0.00  0.00     0.003 A 
ATOM      6  C4  PXY d   1       4.178  -2.007   1.604  0.00  0.00    -0.082 A 
ATOM      7  C5  PXY d   1       3.211  -2.703   2.238  0.00  0.00     0.003 A 
ATOM      8  C6  PXY d   1       1.884  -2.308   2.091  0.00  0.00     0.003 A 
ENDROOT
TORSDOF 0
ENDMDL
