MODEL 1
REMARK minimizedAffinity 3.37411404
REMARK minimizedRMSD -1
REMARK  0 active torsions:
REMARK  status: ('A' for Active; 'I' for Inactive)
ROOT
ATOM      1  C4' PXY d   1       0.002  -0.755   1.873  0.00  0.00     0.077 C 
ATOM      2  C1' PXY d   1       2.404  -6.000   2.243  0.00  0.00     0.077 C 
ATOM      3  C1  PXY d   1       1.773  -4.624   2.159  0.00  0.00    -0.082 A 
ATOM      4  C2  PXY d   1       1.127  -4.266   1.061  0.00  0.00     0.003 A 
ATOM      5  C3  PXY d   1       0.579  -3.014   0.956  0.00  0.00     0.003 A 
ATOM      6  C4  PXY d   1       0.646  -2.138   2.006  0.00  0.00    -0.082 A 
ATOM      7  C5  PXY d   1       1.294  -2.499   3.133  0.00  0.00     0.003 A 
ATOM      8  C6  PXY d   1       1.880  -3.760   3.205  0.00  0.00     0.003 A 
ENDROOT
TORSDOF 0
ENDMDL
