MODEL 1
REMARK minimizedAffinity 7.87031698
REMARK minimizedRMSD -1
REMARK  0 active torsions:
REMARK  status: ('A' for Active; 'I' for Inactive)
ROOT
ATOM      1  C4' PXY d   1      -5.999   4.554   0.374  0.00  0.00     0.077 C 
ATOM      2  C1' PXY d   1      -0.738   3.014   2.210  0.00  0.00     0.077 C 
ATOM      3  C1  PXY d   1      -2.122   3.417   1.741  0.00  0.00    -0.082 A 
ATOM      4  C2  PXY d   1      -2.463   3.233   0.475  0.00  0.00     0.003 A 
ATOM      5  C3  PXY d   1      -3.699   3.621   0.027  0.00  0.00     0.003 A 
ATOM      6  C4  PXY d   1      -4.615   4.154   0.894  0.00  0.00    -0.082 A 
ATOM      7  C5  PXY d   1      -4.279   4.334   2.189  0.00  0.00     0.003 A 
ATOM      8  C6  PXY d   1      -3.005   3.971   2.615  0.00  0.00     0.003 A 
ENDROOT
TORSDOF 0
ENDMDL
