MODEL 1
REMARK minimizedAffinity 15.935298
REMARK minimizedRMSD -1
REMARK  0 active torsions:
REMARK  status: ('A' for Active; 'I' for Inactive)
ROOT
ATOM      1  C4' PXY d   1       2.569  -4.175   1.909  0.00  0.00     0.077 C 
ATOM      2  C1' PXY d   1       0.939   1.371   1.960  0.00  0.00     0.077 C 
ATOM      3  C1  PXY d   1       1.366  -0.084   1.959  0.00  0.00    -0.082 A 
ATOM      4  C2  PXY d   1       2.075  -0.558   0.948  0.00  0.00     0.003 A 
ATOM      5  C3  PXY d   1       2.442  -1.878   0.916  0.00  0.00     0.003 A 
ATOM      6  C4  PXY d   1       2.125  -2.711   1.956  0.00  0.00    -0.082 A 
ATOM      7  C5  PXY d   1       1.411  -2.233   2.997  0.00  0.00     0.003 A 
ATOM      8  C6  PXY d   1       1.013  -0.899   2.990  0.00  0.00     0.003 A 
ENDROOT
TORSDOF 0
ENDMDL
