MODEL 1
REMARK minimizedAffinity 14.271554
REMARK minimizedRMSD -1
REMARK  0 active torsions:
REMARK  status: ('A' for Active; 'I' for Inactive)
ROOT
ATOM      1  C4' PXY d   1      -5.998   4.511  -0.042  0.00  0.00     0.077 C 
ATOM      2  C1' PXY d   1      -3.128   0.239  -2.674  0.00  0.00     0.077 C 
ATOM      3  C1  PXY d   1      -3.891   1.357  -1.992  0.00  0.00    -0.082 A 
ATOM      4  C2  PXY d   1      -3.227   2.308  -1.355  0.00  0.00     0.003 A 
ATOM      5  C3  PXY d   1      -3.902   3.309  -0.705  0.00  0.00     0.003 A 
ATOM      6  C4  PXY d   1      -5.269   3.368  -0.753  0.00  0.00    -0.082 A 
ATOM      7  C5  PXY d   1      -5.953   2.407  -1.410  0.00  0.00     0.003 A 
ATOM      8  C6  PXY d   1      -5.251   1.376  -2.028  0.00  0.00     0.003 A 
ENDROOT
TORSDOF 0
ENDMDL
