MODEL 1
REMARK minimizedAffinity 12.1379175
REMARK minimizedRMSD -1
REMARK  0 active torsions:
REMARK  status: ('A' for Active; 'I' for Inactive)
ROOT
ATOM      1  C4' PXY d   1      -4.198   3.562   1.973  0.00  0.00     0.077 C 
ATOM      2  C1' PXY d   1      -2.641   1.203  -3.069  0.00  0.00     0.077 C 
ATOM      3  C1  PXY d   1      -3.043   1.812  -1.741  0.00  0.00    -0.082 A 
ATOM      4  C2  PXY d   1      -4.117   2.581  -1.672  0.00  0.00     0.003 A 
ATOM      5  C3  PXY d   1      -4.477   3.166  -0.485  0.00  0.00     0.003 A 
ATOM      6  C4  PXY d   1      -3.760   2.918   0.655  0.00  0.00    -0.082 A 
ATOM      7  C5  PXY d   1      -2.668   2.126   0.595  0.00  0.00     0.003 A 
ATOM      8  C6  PXY d   1      -2.296   1.575  -0.628  0.00  0.00     0.003 A 
ENDROOT
TORSDOF 0
ENDMDL
