MODEL 1
REMARK minimizedAffinity 7.16004705
REMARK minimizedRMSD -1
REMARK  0 active torsions:
REMARK  status: ('A' for Active; 'I' for Inactive)
ROOT
ATOM      1  C4' PXY d   1       2.072  -3.792   2.201  0.00  0.00     0.077 C 
ATOM      2  C1' PXY d   1       1.185   1.920   2.209  0.00  0.00     0.077 C 
ATOM      3  C1  PXY d   1       1.426   0.424   2.196  0.00  0.00    -0.082 A 
ATOM      4  C2  PXY d   1       0.543  -0.385   2.759  0.00  0.00     0.003 A 
ATOM      5  C3  PXY d   1       0.760  -1.739   2.784  0.00  0.00     0.003 A 
ATOM      6  C4  PXY d   1       1.866  -2.275   2.182  0.00  0.00    -0.082 A 
ATOM      7  C5  PXY d   1       2.767  -1.457   1.596  0.00  0.00     0.003 A 
ATOM      8  C6  PXY d   1       2.548  -0.082   1.617  0.00  0.00     0.003 A 
ENDROOT
TORSDOF 0
ENDMDL
