MODEL 1
REMARK minimizedAffinity 9.31514359
REMARK minimizedRMSD -1
REMARK  0 active torsions:
REMARK  status: ('A' for Active; 'I' for Inactive)
ROOT
ATOM      1  C4' PXY d   1       1.904   1.254   1.998  0.00  0.00     0.077 C 
ATOM      2  C1' PXY d   1       0.173  -3.113   5.367  0.00  0.00     0.077 C 
ATOM      3  C1  PXY d   1       0.628  -1.976   4.474  0.00  0.00    -0.082 A 
ATOM      4  C2  PXY d   1       1.110  -0.870   5.017  0.00  0.00     0.003 A 
ATOM      5  C3  PXY d   1       1.497   0.180   4.225  0.00  0.00     0.003 A 
ATOM      6  C4  PXY d   1       1.440   0.077   2.861  0.00  0.00    -0.082 A 
ATOM      7  C5  PXY d   1       0.960  -1.053   2.299  0.00  0.00     0.003 A 
ATOM      8  C6  PXY d   1       0.534  -2.092   3.122  0.00  0.00     0.003 A 
ENDROOT
TORSDOF 0
ENDMDL
