MODEL 1
REMARK minimizedAffinity 12.7192488
REMARK minimizedRMSD -1
REMARK  0 active torsions:
REMARK  status: ('A' for Active; 'I' for Inactive)
ROOT
ATOM      1  C4' PXY d   1       1.532  -3.020   0.754  0.00  0.00     0.077 C 
ATOM      2  C1' PXY d   1       2.912   2.461   1.966  0.00  0.00     0.077 C 
ATOM      3  C1  PXY d   1       2.542   1.023   1.658  0.00  0.00    -0.082 A 
ATOM      4  C2  PXY d   1       3.380   0.265   0.970  0.00  0.00     0.003 A 
ATOM      5  C3  PXY d   1       3.047  -1.028   0.656  0.00  0.00     0.003 A 
ATOM      6  C4  PXY d   1       1.868  -1.566   1.096  0.00  0.00    -0.082 A 
ATOM      7  C5  PXY d   1       1.012  -0.802   1.807  0.00  0.00     0.003 A 
ATOM      8  C6  PXY d   1       1.350   0.520   2.081  0.00  0.00     0.003 A 
ENDROOT
TORSDOF 0
ENDMDL
