MODEL 1
REMARK minimizedAffinity -1.06898487
REMARK minimizedRMSD -1
REMARK  0 active torsions:
REMARK  status: ('A' for Active; 'I' for Inactive)
ROOT
ATOM      1  C4' PXY d   1       2.847   4.143  -1.496  0.00  0.00     0.077 C 
ATOM      2  C1' PXY d   1       5.999   6.000  -5.972  0.00  0.00     0.077 C 
ATOM      3  C1  PXY d   1       5.183   5.515  -4.790  0.00  0.00    -0.082 A 
ATOM      4  C2  PXY d   1       4.144   4.721  -4.994  0.00  0.00     0.003 A 
ATOM      5  C3  PXY d   1       3.376   4.298  -3.940  0.00  0.00     0.003 A 
ATOM      6  C4  PXY d   1       3.706   4.650  -2.658  0.00  0.00    -0.082 A 
ATOM      7  C5  PXY d   1       4.770   5.451  -2.441  0.00  0.00     0.003 A 
ATOM      8  C6  PXY d   1       5.512   5.902  -3.528  0.00  0.00     0.003 A 
ENDROOT
TORSDOF 0
ENDMDL
