MODEL 1
REMARK minimizedAffinity -1.30460203
REMARK minimizedRMSD -1
REMARK  0 active torsions:
REMARK  status: ('A' for Active; 'I' for Inactive)
ROOT
ATOM      1  N1  IND d   1      -2.626   0.736   0.289  0.00  0.00    -0.196 N 
ATOM      2  C2  IND d   1      -3.452   0.977   1.351  0.00  0.00     0.054 A 
ATOM      3  C3  IND d   1      -2.767   0.876   2.512  0.00  0.00    -0.031 A 
ATOM      4  C4  IND d   1      -0.262   0.425   2.898  0.00  0.00     0.051 A 
ATOM      5  C5  IND d   1       0.890   0.106   2.236  0.00  0.00    -0.031 A 
ATOM      6  C6  IND d   1       0.930  -0.019   0.862  0.00  0.00     0.015 A 
ATOM      7  C7  IND d   1      -0.183   0.182   0.096  0.00  0.00    -0.016 A 
ATOM      8  C8  IND d   1      -1.356   0.499   0.766  0.00  0.00    -0.047 A 
ATOM      9  C9  IND d   1      -1.412   0.586   2.163  0.00  0.00    -0.096 A 
ATOM     10  HN1 IND d   1      -2.861   0.733  -0.539  0.00  0.00     0.298 HD
ENDROOT
TORSDOF 0
ENDMDL
