MODEL 1
REMARK minimizedAffinity -5.05734873
REMARK minimizedRMSD -1
REMARK  0 active torsions:
REMARK  status: ('A' for Active; 'I' for Inactive)
ROOT
ATOM      1  N1  IND d   1       1.113   0.017   2.134  0.00  0.00    -0.196 N 
ATOM      2  C2  IND d   1       1.622  -0.070   0.868  0.00  0.00     0.054 A 
ATOM      3  C3  IND d   1       0.645   0.120  -0.046  0.00  0.00    -0.031 A 
ATOM      4  C4  IND d   1      -1.840   0.690   0.310  0.00  0.00     0.051 A 
ATOM      5  C5  IND d   1      -2.781   0.838   1.290  0.00  0.00    -0.031 A 
ATOM      6  C6  IND d   1      -2.466   0.720   2.628  0.00  0.00     0.015 A 
ATOM      7  C7  IND d   1      -1.189   0.460   3.039  0.00  0.00    -0.016 A 
ATOM      8  C8  IND d   1      -0.232   0.302   2.046  0.00  0.00    -0.047 A 
ATOM      9  C9  IND d   1      -0.554   0.378   0.685  0.00  0.00    -0.096 A 
ATOM     10  HN1 IND d   1       1.558  -0.089   2.862  0.00  0.00     0.298 HD
ENDROOT
TORSDOF 0
ENDMDL
