MODEL 1
REMARK minimizedAffinity -3.44603992
REMARK minimizedRMSD -1
REMARK  0 active torsions:
REMARK  status: ('A' for Active; 'I' for Inactive)
ROOT
ATOM      1  N1  IND d   1      -2.690   0.538   0.713  0.00  0.00    -0.196 N 
ATOM      2  C2  IND d   1      -3.376   0.864   1.850  0.00  0.00     0.054 A 
ATOM      3  C3  IND d   1      -2.553   0.830   2.922  0.00  0.00    -0.031 A 
ATOM      4  C4  IND d   1      -0.024   0.363   3.028  0.00  0.00     0.051 A 
ATOM      5  C5  IND d   1       1.034  -0.021   2.253  0.00  0.00    -0.031 A 
ATOM      6  C6  IND d   1       0.903  -0.240   0.897  0.00  0.00     0.015 A 
ATOM      7  C7  IND d   1      -0.294  -0.071   0.261  0.00  0.00    -0.016 A 
ATOM      8  C8  IND d   1      -1.372   0.311   1.046  0.00  0.00    -0.047 A 
ATOM      9  C9  IND d   1      -1.255   0.493   2.430  0.00  0.00    -0.096 A 
ATOM     10  HN1 IND d   1      -3.025   0.483  -0.077  0.00  0.00     0.298 HD
ENDROOT
TORSDOF 0
ENDMDL
