MODEL 1
REMARK minimizedAffinity 1.84943831
REMARK minimizedRMSD -1
REMARK  0 active torsions:
REMARK  status: ('A' for Active; 'I' for Inactive)
ROOT
ATOM      1  N1  IND d   1      -1.418   0.331  -0.792  0.00  0.00    -0.196 N 
ATOM      2  C2  IND d   1      -0.286   0.047  -1.504  0.00  0.00     0.054 A 
ATOM      3  C3  IND d   1       0.787   0.004  -0.684  0.00  0.00    -0.031 A 
ATOM      4  C4  IND d   1       0.903   0.267   1.874  0.00  0.00     0.051 A 
ATOM      5  C5  IND d   1       0.134   0.572   2.961  0.00  0.00    -0.031 A 
ATOM      6  C6  IND d   1      -1.220   0.816   2.851  0.00  0.00     0.015 A 
ATOM      7  C7  IND d   1      -1.860   0.750   1.646  0.00  0.00    -0.016 A 
ATOM      8  C8  IND d   1      -1.081   0.447   0.539  0.00  0.00    -0.047 A 
ATOM      9  C9  IND d   1       0.301   0.241   0.638  0.00  0.00    -0.096 A 
ATOM     10  HN1 IND d   1      -2.208   0.421  -1.120  0.00  0.00     0.298 HD
ENDROOT
TORSDOF 0
ENDMDL
