MODEL 1
REMARK minimizedAffinity -0.142801315
REMARK minimizedRMSD -1
REMARK  0 active torsions:
REMARK  status: ('A' for Active; 'I' for Inactive)
ROOT
ATOM      1  N1  IND d   1      -0.977   0.508  -1.096  0.00  0.00    -0.196 N 
ATOM      2  C2  IND d   1       0.030   0.338  -2.005  0.00  0.00     0.054 A 
ATOM      3  C3  IND d   1       1.200   0.096  -1.371  0.00  0.00    -0.031 A 
ATOM      4  C4  IND d   1       1.673  -0.168   1.145  0.00  0.00     0.051 A 
ATOM      5  C5  IND d   1       1.076  -0.064   2.370  0.00  0.00    -0.031 A 
ATOM      6  C6  IND d   1      -0.264   0.240   2.505  0.00  0.00     0.015 A 
ATOM      7  C7  IND d   1      -1.062   0.440   1.415  0.00  0.00    -0.016 A 
ATOM      8  C8  IND d   1      -0.458   0.342   0.169  0.00  0.00    -0.047 A 
ATOM      9  C9  IND d   1       0.910   0.076   0.027  0.00  0.00    -0.096 A 
ATOM     10  HN1 IND d   1      -1.796   0.687  -1.283  0.00  0.00     0.298 HD
ENDROOT
TORSDOF 0
ENDMDL
