MODEL 1
REMARK minimizedAffinity -1.29412115
REMARK minimizedRMSD -1
REMARK  0 active torsions:
REMARK  status: ('A' for Active; 'I' for Inactive)
ROOT
ATOM      1  N1  IND d   1      -1.112   0.178  -0.744  0.00  0.00    -0.196 N 
ATOM      2  C2  IND d   1       0.209  -0.163  -0.839  0.00  0.00     0.054 A 
ATOM      3  C3  IND d   1       0.763  -0.245   0.392  0.00  0.00    -0.031 A 
ATOM      4  C4  IND d   1      -0.337   0.040   2.702  0.00  0.00     0.051 A 
ATOM      5  C5  IND d   1      -1.515   0.392   3.298  0.00  0.00    -0.031 A 
ATOM      6  C6  IND d   1      -2.643   0.693   2.563  0.00  0.00     0.015 A 
ATOM      7  C7  IND d   1      -2.637   0.643   1.197  0.00  0.00    -0.016 A 
ATOM      8  C8  IND d   1      -1.440   0.294   0.588  0.00  0.00    -0.047 A 
ATOM      9  C9  IND d   1      -0.281   0.028   1.328  0.00  0.00    -0.096 A 
ATOM     10  HN1 IND d   1      -1.647   0.299  -1.406  0.00  0.00     0.298 HD
ENDROOT
TORSDOF 0
ENDMDL
