MODEL 1
REMARK minimizedAffinity -1.91044009
REMARK minimizedRMSD -1
REMARK  0 active torsions:
REMARK  status: ('A' for Active; 'I' for Inactive)
ROOT
ATOM      1  N1  IND d   1       0.483   0.792  -0.981  0.00  0.00    -0.196 N 
ATOM      2  C2  IND d   1       0.538   0.114   0.205  0.00  0.00     0.054 A 
ATOM      3  C3  IND d   1       0.894  -1.173  -0.006  0.00  0.00    -0.031 A 
ATOM      4  C4  IND d   1       1.534  -2.354  -2.202  0.00  0.00     0.051 A 
ATOM      5  C5  IND d   1       1.599  -2.156  -3.553  0.00  0.00    -0.031 A 
ATOM      6  C6  IND d   1       1.291  -0.939  -4.127  0.00  0.00     0.015 A 
ATOM      7  C7  IND d   1       0.917   0.132  -3.367  0.00  0.00    -0.016 A 
ATOM      8  C8  IND d   1       0.843  -0.067  -1.995  0.00  0.00    -0.047 A 
ATOM      9  C9  IND d   1       1.113  -1.312  -1.411  0.00  0.00    -0.096 A 
ATOM     10  HN1 IND d   1       0.261   1.618  -1.077  0.00  0.00     0.298 HD
ENDROOT
TORSDOF 0
ENDMDL
