MODEL 1
REMARK minimizedAffinity -0.818658531
REMARK minimizedRMSD -1
REMARK  0 active torsions:
REMARK  status: ('A' for Active; 'I' for Inactive)
ROOT
ATOM      1  N1  IND d   1       0.841  -1.983  -2.282  0.00  0.00    -0.196 N 
ATOM      2  C2  IND d   1       1.203  -1.243  -3.373  0.00  0.00     0.054 A 
ATOM      3  C3  IND d   1       1.291   0.066  -3.045  0.00  0.00    -0.031 A 
ATOM      4  C4  IND d   1       0.983   1.203  -0.756  0.00  0.00     0.051 A 
ATOM      5  C5  IND d   1       0.612   0.945   0.533  0.00  0.00    -0.031 A 
ATOM      6  C6  IND d   1       0.294  -0.328   0.960  0.00  0.00     0.015 A 
ATOM      7  C7  IND d   1       0.347  -1.398   0.112  0.00  0.00    -0.016 A 
ATOM      8  C8  IND d   1       0.717  -1.138  -1.201  0.00  0.00    -0.047 A 
ATOM      9  C9  IND d   1       0.999   0.158  -1.650  0.00  0.00    -0.096 A 
ATOM     10  HN1 IND d   1       0.713  -2.833  -2.272  0.00  0.00     0.298 HD
ENDROOT
TORSDOF 0
ENDMDL
