MODEL 1
REMARK minimizedAffinity -2.09506083
REMARK minimizedRMSD -1
REMARK  0 active torsions:
REMARK  status: ('A' for Active; 'I' for Inactive)
ROOT
ATOM      1  N1  IND d   1       1.587   0.064   2.178  0.00  0.00    -0.196 N 
ATOM      2  C2  IND d   1       1.932  -0.252   0.893  0.00  0.00     0.054 A 
ATOM      3  C3  IND d   1       0.838  -0.247   0.098  0.00  0.00    -0.031 A 
ATOM      4  C4  IND d   1      -1.599   0.352   0.673  0.00  0.00     0.051 A 
ATOM      5  C5  IND d   1      -2.410   0.671   1.725  0.00  0.00    -0.031 A 
ATOM      6  C6  IND d   1      -1.920   0.809   3.008  0.00  0.00     0.015 A 
ATOM      7  C7  IND d   1      -0.593   0.644   3.285  0.00  0.00    -0.016 A 
ATOM      8  C8  IND d   1       0.233   0.314   2.220  0.00  0.00    -0.047 A 
ATOM      9  C9  IND d   1      -0.265   0.131   0.924  0.00  0.00    -0.096 A 
ATOM     10  HN1 IND d   1       2.126   0.102   2.847  0.00  0.00     0.298 HD
ENDROOT
TORSDOF 0
ENDMDL
