MODEL 1
REMARK minimizedAffinity -3.62020898
REMARK minimizedRMSD -1
REMARK  0 active torsions:
REMARK  status: ('A' for Active; 'I' for Inactive)
ROOT
ATOM      1  N1  IND d   1      -2.513   0.873   0.643  0.00  0.00    -0.196 N 
ATOM      2  C2  IND d   1      -2.920   1.078   1.932  0.00  0.00     0.054 A 
ATOM      3  C3  IND d   1      -1.901   0.846   2.790  0.00  0.00    -0.031 A 
ATOM      4  C4  IND d   1       0.546   0.219   2.292  0.00  0.00     0.051 A 
ATOM      5  C5  IND d   1       1.385  -0.115   1.266  0.00  0.00    -0.031 A 
ATOM      6  C6  IND d   1       0.960  -0.135  -0.047  0.00  0.00     0.015 A 
ATOM      7  C7  IND d   1      -0.323   0.192  -0.385  0.00  0.00    -0.016 A 
ATOM      8  C8  IND d   1      -1.180   0.525   0.655  0.00  0.00    -0.047 A 
ATOM      9  C9  IND d   1      -0.766   0.505   1.993  0.00  0.00    -0.096 A 
ATOM     10  HN1 IND d   1      -3.006   0.949  -0.057  0.00  0.00     0.298 HD
ENDROOT
TORSDOF 0
ENDMDL
