MODEL 1
REMARK minimizedAffinity -2.55338407
REMARK minimizedRMSD -1
REMARK  0 active torsions:
REMARK  status: ('A' for Active; 'I' for Inactive)
ROOT
ATOM      1  N1  IND d   1      -0.879   0.370  -0.968  0.00  0.00    -0.196 N 
ATOM      2  C2  IND d   1       0.474   0.176  -0.935  0.00  0.00     0.054 A 
ATOM      3  C3  IND d   1       0.936   0.298   0.330  0.00  0.00    -0.031 A 
ATOM      4  C4  IND d   1      -0.364   0.714   2.513  0.00  0.00     0.051 A 
ATOM      5  C5  IND d   1      -1.616   0.992   2.985  0.00  0.00    -0.031 A 
ATOM      6  C6  IND d   1      -2.709   1.076   2.147  0.00  0.00     0.015 A 
ATOM      7  C7  IND d   1      -2.592   0.873   0.801  0.00  0.00    -0.016 A 
ATOM      8  C8  IND d   1      -1.321   0.597   0.317  0.00  0.00    -0.047 A 
ATOM      9  C9  IND d   1      -0.201   0.553   1.157  0.00  0.00    -0.096 A 
ATOM     10  HN1 IND d   1      -1.371   0.353  -1.673  0.00  0.00     0.298 HD
ENDROOT
TORSDOF 0
ENDMDL
