MODEL 1
REMARK minimizedAffinity -5.32211113
REMARK minimizedRMSD -1
REMARK  0 active torsions:
REMARK  status: ('A' for Active; 'I' for Inactive)
ROOT
ATOM      1  N1  IND d   1       2.233  -1.792  -2.510  0.00  0.00    -0.196 N 
ATOM      2  C2  IND d   1       1.597  -1.428  -3.664  0.00  0.00     0.054 A 
ATOM      3  C3  IND d   1       0.582  -0.577  -3.394  0.00  0.00    -0.031 A 
ATOM      4  C4  IND d   1      -0.150   0.433  -1.143  0.00  0.00     0.051 A 
ATOM      5  C5  IND d   1       0.104   0.372   0.199  0.00  0.00    -0.031 A 
ATOM      6  C6  IND d   1       1.103  -0.427   0.716  0.00  0.00     0.015 A 
ATOM      7  C7  IND d   1       1.896  -1.190  -0.094  0.00  0.00    -0.016 A 
ATOM      8  C8  IND d   1       1.636  -1.136  -1.456  0.00  0.00    -0.047 A 
ATOM      9  C9  IND d   1       0.596  -0.360  -1.983  0.00  0.00    -0.096 A 
ATOM     10  HN1 IND d   1       2.895  -2.338  -2.452  0.00  0.00     0.298 HD
ENDROOT
TORSDOF 0
ENDMDL
