MODEL 1
REMARK minimizedAffinity -0.0208680965
REMARK minimizedRMSD -1
REMARK  0 active torsions:
REMARK  status: ('A' for Active; 'I' for Inactive)
ROOT
ATOM      1  N1  IND d   1      -0.347   0.125  -0.910  0.00  0.00    -0.196 N 
ATOM      2  C2  IND d   1       0.949   0.032  -0.485  0.00  0.00     0.054 A 
ATOM      3  C3  IND d   1       1.033   0.308   0.836  0.00  0.00    -0.031 A 
ATOM      4  C4  IND d   1      -0.844   0.837   2.517  0.00  0.00     0.051 A 
ATOM      5  C5  IND d   1      -2.189   1.068   2.593  0.00  0.00    -0.031 A 
ATOM      6  C6  IND d   1      -3.005   0.993   1.483  0.00  0.00     0.015 A 
ATOM      7  C7  IND d   1      -2.507   0.671   0.253  0.00  0.00    -0.016 A 
ATOM      8  C8  IND d   1      -1.140   0.442   0.170  0.00  0.00    -0.047 A 
ATOM      9  C9  IND d   1      -0.300   0.559   1.285  0.00  0.00    -0.096 A 
ATOM     10  HN1 IND d   1      -0.620   0.005  -1.716  0.00  0.00     0.298 HD
ENDROOT
TORSDOF 0
ENDMDL
