MODEL 1
REMARK minimizedAffinity -3.68860483
REMARK minimizedRMSD -1
REMARK  0 active torsions:
REMARK  status: ('A' for Active; 'I' for Inactive)
ROOT
ATOM      1  N1  IND d   1       1.423  -2.186  -2.651  0.00  0.00    -0.196 N 
ATOM      2  C2  IND d   1       1.154  -1.549  -3.830  0.00  0.00     0.054 A 
ATOM      3  C3  IND d   1       0.653  -0.316  -3.595  0.00  0.00    -0.031 A 
ATOM      4  C4  IND d   1       0.285   0.900  -1.355  0.00  0.00     0.051 A 
ATOM      5  C5  IND d   1       0.349   0.711  -0.004  0.00  0.00    -0.031 A 
ATOM      6  C6  IND d   1       0.786  -0.477   0.546  0.00  0.00     0.015 A 
ATOM      7  C7  IND d   1       1.187  -1.521  -0.239  0.00  0.00    -0.016 A 
ATOM      8  C8  IND d   1       1.117  -1.334  -1.612  0.00  0.00    -0.047 A 
ATOM      9  C9  IND d   1       0.635  -0.146  -2.176  0.00  0.00    -0.096 A 
ATOM     10  HN1 IND d   1       1.731  -2.985  -2.571  0.00  0.00     0.298 HD
ENDROOT
TORSDOF 0
ENDMDL
