MODEL 1
REMARK minimizedAffinity -4.11602354
REMARK minimizedRMSD -1
REMARK  0 active torsions:
REMARK  status: ('A' for Active; 'I' for Inactive)
ROOT
ATOM      1  N1  IND d   1      -2.256   0.903   0.376  0.00  0.00    -0.196 N 
ATOM      2  C2  IND d   1      -2.994   0.890   1.527  0.00  0.00     0.054 A 
ATOM      3  C3  IND d   1      -2.217   0.555   2.580  0.00  0.00    -0.031 A 
ATOM      4  C4  IND d   1       0.314   0.087   2.663  0.00  0.00     0.051 A 
ATOM      5  C5  IND d   1       1.409  -0.055   1.858  0.00  0.00    -0.031 A 
ATOM      6  C6  IND d   1       1.338   0.121   0.491  0.00  0.00     0.015 A 
ATOM      7  C7  IND d   1       0.166   0.459  -0.123  0.00  0.00    -0.016 A 
ATOM      8  C8  IND d   1      -0.950   0.597   0.689  0.00  0.00    -0.047 A 
ATOM      9  C9  IND d   1      -0.893   0.378   2.072  0.00  0.00    -0.096 A 
ATOM     10  HN1 IND d   1      -2.557   1.074  -0.411  0.00  0.00     0.298 HD
ENDROOT
TORSDOF 0
ENDMDL
