MODEL 1
REMARK minimizedAffinity -2.23743439
REMARK minimizedRMSD -1
REMARK  0 active torsions:
REMARK  status: ('A' for Active; 'I' for Inactive)
ROOT
ATOM      1  N1  IND d   1      -2.632   0.461   0.347  0.00  0.00    -0.196 N 
ATOM      2  C2  IND d   1      -3.257   0.746   1.529  0.00  0.00     0.054 A 
ATOM      3  C3  IND d   1      -2.369   0.723   2.548  0.00  0.00    -0.031 A 
ATOM      4  C4  IND d   1       0.176   0.340   2.492  0.00  0.00     0.051 A 
ATOM      5  C5  IND d   1       1.196   0.005   1.647  0.00  0.00    -0.031 A 
ATOM      6  C6  IND d   1       0.989  -0.196   0.298  0.00  0.00     0.015 A 
ATOM      7  C7  IND d   1      -0.250  -0.059  -0.261  0.00  0.00    -0.016 A 
ATOM      8  C8  IND d   1      -1.290   0.274   0.595  0.00  0.00    -0.047 A 
ATOM      9  C9  IND d   1      -1.093   0.439   1.973  0.00  0.00    -0.096 A 
ATOM     10  HN1 IND d   1      -3.013   0.406  -0.422  0.00  0.00     0.298 HD
ENDROOT
TORSDOF 0
ENDMDL
