MODEL 1
REMARK minimizedAffinity -5.07488155
REMARK minimizedRMSD -1
REMARK  0 active torsions:
REMARK  status: ('A' for Active; 'I' for Inactive)
ROOT
ATOM      1  N1  IND d   1       1.720  -2.126  -2.237  0.00  0.00    -0.196 N 
ATOM      2  C2  IND d   1       1.202  -1.560  -3.369  0.00  0.00     0.054 A 
ATOM      3  C3  IND d   1       0.428  -0.498  -3.052  0.00  0.00    -0.031 A 
ATOM      4  C4  IND d   1      -0.048   0.550  -0.749  0.00  0.00     0.051 A 
ATOM      5  C5  IND d   1       0.173   0.362   0.587  0.00  0.00    -0.031 A 
ATOM      6  C6  IND d   1       0.939  -0.685   1.059  0.00  0.00     0.015 A 
ATOM      7  C7  IND d   1       1.524  -1.580   0.208  0.00  0.00    -0.016 A 
ATOM      8  C8  IND d   1       1.296  -1.396  -1.148  0.00  0.00    -0.047 A 
ATOM      9  C9  IND d   1       0.485  -0.361  -1.631  0.00  0.00    -0.096 A 
ATOM     10  HN1 IND d   1       2.225  -2.821  -2.210  0.00  0.00     0.298 HD
ENDROOT
TORSDOF 0
ENDMDL
