MODEL 1
REMARK minimizedAffinity 2.75645161
REMARK minimizedRMSD -1
REMARK  1 active torsions:
REMARK  status: ('A' for Active; 'I' for Inactive)
REMARK    1  A    between atoms: C3_4  and  O_7 
ROOT
ATOM      1  C   UNL d   1       2.628   0.754   1.334  0.00  0.00    -0.033 A 
ATOM      2  C1  UNL d   1       1.629   1.573   1.862  0.00  0.00     0.039 A 
ATOM      3  C2  UNL d   1       1.075   2.592   1.084  0.00  0.00    -0.080 A 
ATOM      4  C3  UNL d   1       1.530   2.780  -0.219  0.00  0.00     0.150 A 
ATOM      5  C4  UNL d   1       2.523   1.965  -0.752  0.00  0.00    -0.007 A 
ATOM      6  C5  UNL d   1       3.074   0.949   0.026  0.00  0.00     0.039 A 
ENDROOT
BRANCH   4   7
ATOM      7  O   UNL d   1       1.023   3.765  -1.014  0.00  0.00    -0.526 OA
ATOM      8  H5  UNL d   1       0.366   4.266  -0.503  0.00  0.00     0.418 HD
ENDBRANCH   4   7
TORSDOF 1
ENDMDL
