MODEL 1
REMARK minimizedAffinity 7.06058121
REMARK minimizedRMSD -1
REMARK  1 active torsions:
REMARK  status: ('A' for Active; 'I' for Inactive)
REMARK    1  A    between atoms: C3_4  and  O_7 
ROOT
ATOM      1  C   UNL d   1      -3.935   2.622  -2.313  0.00  0.00    -0.033 A 
ATOM      2  C1  UNL d   1      -3.231   2.628  -3.518  0.00  0.00     0.039 A 
ATOM      3  C2  UNL d   1      -3.911   2.808  -4.725  0.00  0.00    -0.080 A 
ATOM      4  C3  UNL d   1      -5.292   2.980  -4.712  0.00  0.00     0.150 A 
ATOM      5  C4  UNL d   1      -6.000   2.979  -3.514  0.00  0.00    -0.007 A 
ATOM      6  C5  UNL d   1      -5.319   2.799  -2.310  0.00  0.00     0.039 A 
ENDROOT
BRANCH   4   7
ATOM      7  O   UNL d   1      -6.000   3.154  -5.864  0.00  0.00    -0.526 OA
ATOM      8  H5  UNL d   1      -5.384   3.103  -6.614  0.00  0.00     0.418 HD
ENDBRANCH   4   7
TORSDOF 1
ENDMDL
