MODEL 1
REMARK minimizedAffinity 1.64022148
REMARK minimizedRMSD -1
REMARK  1 active torsions:
REMARK  status: ('A' for Active; 'I' for Inactive)
REMARK    1  A    between atoms: C3_4  and  O_7 
ROOT
ATOM      1  C   UNL d   1      -0.931  -1.094  -0.659  0.00  0.00    -0.033 A 
ATOM      2  C1  UNL d   1      -0.007  -1.497   0.308  0.00  0.00     0.039 A 
ATOM      3  C2  UNL d   1       0.994  -2.413  -0.020  0.00  0.00    -0.080 A 
ATOM      4  C3  UNL d   1       1.061  -2.918  -1.316  0.00  0.00     0.150 A 
ATOM      5  C4  UNL d   1       0.145  -2.519  -2.284  0.00  0.00    -0.007 A 
ATOM      6  C5  UNL d   1      -0.854  -1.604  -1.955  0.00  0.00     0.039 A 
ENDROOT
BRANCH   4   7
ATOM      7  O   UNL d   1       2.017  -3.818  -1.682  0.00  0.00    -0.526 OA
ATOM      8  H5  UNL d   1       2.561  -4.023  -0.903  0.00  0.00     0.418 HD
ENDBRANCH   4   7
TORSDOF 1
ENDMDL
