MODEL 1
REMARK minimizedAffinity 3.14639688
REMARK minimizedRMSD -1
REMARK  1 active torsions:
REMARK  status: ('A' for Active; 'I' for Inactive)
REMARK    1  A    between atoms: C3_4  and  O_7 
ROOT
ATOM      1  C   UNL d   1       6.000   6.000  -2.729  0.00  0.00    -0.033 A 
ATOM      2  C1  UNL d   1       5.582   5.937  -1.398  0.00  0.00     0.039 A 
ATOM      3  C2  UNL d   1       4.310   5.453  -1.086  0.00  0.00    -0.080 A 
ATOM      4  C3  UNL d   1       3.467   5.035  -2.112  0.00  0.00     0.150 A 
ATOM      5  C4  UNL d   1       3.879   5.091  -3.440  0.00  0.00    -0.007 A 
ATOM      6  C5  UNL d   1       5.149   5.575  -3.750  0.00  0.00     0.039 A 
ENDROOT
BRANCH   4   7
ATOM      7  O   UNL d   1       2.215   4.560  -1.857  0.00  0.00    -0.526 OA
ATOM      8  H5  UNL d   1       2.058   4.606  -0.899  0.00  0.00     0.418 HD
ENDBRANCH   4   7
TORSDOF 1
ENDMDL
