MODEL 1
REMARK minimizedAffinity 3.11343408
REMARK minimizedRMSD -1
REMARK  1 active torsions:
REMARK  status: ('A' for Active; 'I' for Inactive)
REMARK    1  A    between atoms: C3_4  and  O_7 
ROOT
ATOM      1  C   UNL d   1       0.933   4.771  -1.247  0.00  0.00    -0.033 A 
ATOM      2  C1  UNL d   1       0.303   4.017  -0.256  0.00  0.00     0.039 A 
ATOM      3  C2  UNL d   1       0.973   2.947   0.342  0.00  0.00    -0.080 A 
ATOM      4  C3  UNL d   1       2.271   2.645  -0.059  0.00  0.00     0.150 A 
ATOM      5  C4  UNL d   1       2.906   3.395  -1.044  0.00  0.00    -0.007 A 
ATOM      6  C5  UNL d   1       2.235   4.461  -1.640  0.00  0.00     0.039 A 
ENDROOT
BRANCH   4   7
ATOM      7  O   UNL d   1       2.963   1.607   0.491  0.00  0.00    -0.526 OA
ATOM      8  H5  UNL d   1       2.389   1.162   1.136  0.00  0.00     0.418 HD
ENDBRANCH   4   7
TORSDOF 1
ENDMDL
