MODEL 1
REMARK minimizedAffinity -0.804083884
REMARK minimizedRMSD -1
REMARK  1 active torsions:
REMARK  status: ('A' for Active; 'I' for Inactive)
REMARK    1  A    between atoms: C3_4  and  O_7 
ROOT
ATOM      1  C   UNL d   1       3.075  -1.614  -1.333  0.00  0.00    -0.033 A 
ATOM      2  C1  UNL d   1       1.744  -1.996  -1.513  0.00  0.00     0.039 A 
ATOM      3  C2  UNL d   1       1.409  -2.924  -2.501  0.00  0.00    -0.080 A 
ATOM      4  C3  UNL d   1       2.414  -3.463  -3.300  0.00  0.00     0.150 A 
ATOM      5  C4  UNL d   1       3.742  -3.090  -3.124  0.00  0.00    -0.007 A 
ATOM      6  C5  UNL d   1       4.074  -2.163  -2.137  0.00  0.00     0.039 A 
ENDROOT
BRANCH   4   7
ATOM      7  O   UNL d   1       2.135  -4.368  -4.281  0.00  0.00    -0.526 OA
ATOM      8  H5  UNL d   1       1.174  -4.509  -4.306  0.00  0.00     0.418 HD
ENDBRANCH   4   7
TORSDOF 1
ENDMDL
