MODEL 1
REMARK minimizedAffinity 1.61917615
REMARK minimizedRMSD -1
REMARK  1 active torsions:
REMARK  status: ('A' for Active; 'I' for Inactive)
REMARK    1  A    between atoms: C3_4  and  O_7 
ROOT
ATOM      1  C   UNL d   1       3.001   1.769   0.032  0.00  0.00    -0.033 A 
ATOM      2  C1  UNL d   1       2.047   2.171   0.969  0.00  0.00     0.039 A 
ATOM      3  C2  UNL d   1       1.301   1.216   1.662  0.00  0.00    -0.080 A 
ATOM      4  C3  UNL d   1       1.519  -0.136   1.410  0.00  0.00     0.150 A 
ATOM      5  C4  UNL d   1       2.470  -0.543   0.480  0.00  0.00    -0.007 A 
ATOM      6  C5  UNL d   1       3.214   0.412  -0.211  0.00  0.00     0.039 A 
ENDROOT
BRANCH   4   7
ATOM      7  O   UNL d   1       0.812  -1.105   2.058  0.00  0.00    -0.526 OA
ATOM      8  H5  UNL d   1       0.171  -0.675   2.648  0.00  0.00     0.418 HD
ENDBRANCH   4   7
TORSDOF 1
ENDMDL
