MODEL 1
REMARK minimizedAffinity 1.3727721
REMARK minimizedRMSD -1
REMARK  1 active torsions:
REMARK  status: ('A' for Active; 'I' for Inactive)
REMARK    1  A    between atoms: C3_4  and  O_7 
ROOT
ATOM      1  C   UNL d   1       3.083   1.730   1.955  0.00  0.00    -0.033 A 
ATOM      2  C1  UNL d   1       2.563   1.523   3.234  0.00  0.00     0.039 A 
ATOM      3  C2  UNL d   1       2.108   0.257   3.608  0.00  0.00    -0.080 A 
ATOM      4  C3  UNL d   1       2.180  -0.792   2.695  0.00  0.00     0.150 A 
ATOM      5  C4  UNL d   1       2.701  -0.594   1.421  0.00  0.00    -0.007 A 
ATOM      6  C5  UNL d   1       3.154   0.671   1.049  0.00  0.00     0.039 A 
ENDROOT
BRANCH   4   7
ATOM      7  O   UNL d   1       1.744  -2.044   3.013  0.00  0.00    -0.526 OA
ATOM      8  H5  UNL d   1       1.384  -2.025   3.915  0.00  0.00     0.418 HD
ENDBRANCH   4   7
TORSDOF 1
ENDMDL
