MODEL 1
REMARK minimizedAffinity 6.09691525
REMARK minimizedRMSD -1
REMARK  1 active torsions:
REMARK  status: ('A' for Active; 'I' for Inactive)
REMARK    1  A    between atoms: C3_4  and  O_7 
ROOT
ATOM      1  C   UNL d   1       1.201  -2.959  -1.289  0.00  0.00    -0.033 A 
ATOM      2  C1  UNL d   1       1.177  -2.446   0.009  0.00  0.00     0.039 A 
ATOM      3  C2  UNL d   1       0.096  -1.671   0.434  0.00  0.00    -0.080 A 
ATOM      4  C3  UNL d   1      -0.953  -1.419  -0.446  0.00  0.00     0.150 A 
ATOM      5  C4  UNL d   1      -0.937  -1.930  -1.739  0.00  0.00    -0.007 A 
ATOM      6  C5  UNL d   1       0.144  -2.703  -2.163  0.00  0.00     0.039 A 
ENDROOT
BRANCH   4   7
ATOM      7  O   UNL d   1      -2.027  -0.664  -0.077  0.00  0.00    -0.526 OA
ATOM      8  H5  UNL d   1      -1.887  -0.354   0.833  0.00  0.00     0.418 HD
ENDBRANCH   4   7
TORSDOF 1
ENDMDL
