MODEL 1
REMARK minimizedAffinity 3.27369475
REMARK minimizedRMSD -1
REMARK  1 active torsions:
REMARK  status: ('A' for Active; 'I' for Inactive)
REMARK    1  A    between atoms: C3_4  and  O_7 
ROOT
ATOM      1  C   UNL d   1      -5.999   3.228   1.457  0.00  0.00    -0.033 A 
ATOM      2  C1  UNL d   1      -5.359   2.633   2.545  0.00  0.00     0.039 A 
ATOM      3  C2  UNL d   1      -4.126   2.001   2.372  0.00  0.00    -0.080 A 
ATOM      4  C3  UNL d   1      -3.545   1.971   1.108  0.00  0.00     0.150 A 
ATOM      5  C4  UNL d   1      -4.176   2.564   0.019  0.00  0.00    -0.007 A 
ATOM      6  C5  UNL d   1      -5.407   3.195   0.194  0.00  0.00     0.039 A 
ENDROOT
BRANCH   4   7
ATOM      7  O   UNL d   1      -2.346   1.361   0.889  0.00  0.00    -0.526 OA
ATOM      8  H5  UNL d   1      -2.042   0.970   1.725  0.00  0.00     0.418 HD
ENDBRANCH   4   7
TORSDOF 1
ENDMDL
