MODEL 1
REMARK minimizedAffinity 0.196510702
REMARK minimizedRMSD -1
REMARK  1 active torsions:
REMARK  status: ('A' for Active; 'I' for Inactive)
REMARK    1  A    between atoms: C3_4  and  O_7 
ROOT
ATOM      1  C   UNL d   1      -1.455  -1.298  -2.218  0.00  0.00    -0.033 A 
ATOM      2  C1  UNL d   1      -2.005  -0.755  -1.055  0.00  0.00     0.039 A 
ATOM      3  C2  UNL d   1      -1.287  -0.790   0.142  0.00  0.00    -0.080 A 
ATOM      4  C3  UNL d   1      -0.021  -1.369   0.162  0.00  0.00     0.150 A 
ATOM      5  C4  UNL d   1       0.535  -1.907  -0.994  0.00  0.00    -0.007 A 
ATOM      6  C5  UNL d   1      -0.184  -1.872  -2.187  0.00  0.00     0.039 A 
ENDROOT
BRANCH   4   7
ATOM      7  O   UNL d   1       0.716  -1.430   1.307  0.00  0.00    -0.526 OA
ATOM      8  H5  UNL d   1       0.193  -1.046   2.031  0.00  0.00     0.418 HD
ENDBRANCH   4   7
TORSDOF 1
ENDMDL
