MODEL 1
REMARK minimizedAffinity -5.36561012
REMARK minimizedRMSD -1
REMARK  0 active torsions:
REMARK  status: ('A' for Active; 'I' for Inactive)
ROOT
ATOM      1  C   UNL d   1       1.878  -1.413   0.428  0.00  0.00     0.020 A 
ATOM      2  C1  UNL d   1       2.711  -0.362   0.809  0.00  0.00     0.020 A 
ATOM      3  C2  UNL d   1       2.273   0.958   0.684  0.00  0.00     0.034 A 
ATOM      4  C3  UNL d   1       0.997   1.231   0.176  0.00  0.00     0.017 A 
ATOM      5  C4  UNL d   1       0.161   0.175  -0.207  0.00  0.00     0.017 A 
ATOM      6  C5  UNL d   1       0.605  -1.144  -0.079  0.00  0.00     0.034 A 
ATOM      7 Cl   UNL d   1      -1.425   0.433  -0.842  0.00  0.00    -0.070 Cl
ATOM      8 Cl1  UNL d   1       0.521   2.887   0.049  0.00  0.00    -0.070 Cl
ENDROOT
TORSDOF 0
ENDMDL
