MODEL 1
REMARK minimizedAffinity -4.37941456
REMARK minimizedRMSD -1
REMARK  0 active torsions:
REMARK  status: ('A' for Active; 'I' for Inactive)
ROOT
ATOM      1  C   UNL d   1       2.252   1.180   0.095  0.00  0.00     0.020 A 
ATOM      2  C1  UNL d   1       2.976   0.305   0.904  0.00  0.00     0.020 A 
ATOM      3  C2  UNL d   1       2.393  -0.888   1.338  0.00  0.00     0.034 A 
ATOM      4  C3  UNL d   1       1.083  -1.208   0.964  0.00  0.00     0.017 A 
ATOM      5  C4  UNL d   1       0.357  -0.328   0.152  0.00  0.00     0.017 A 
ATOM      6  C5  UNL d   1       0.946   0.864  -0.280  0.00  0.00     0.034 A 
ATOM      7 Cl   UNL d   1      -1.264  -0.655  -0.351  0.00  0.00    -0.070 Cl
ATOM      8 Cl1  UNL d   1       0.425  -2.700   1.536  0.00  0.00    -0.070 Cl
ENDROOT
TORSDOF 0
ENDMDL
