MODEL 1
REMARK minimizedAffinity -4.79966354
REMARK minimizedRMSD -1
REMARK  0 active torsions:
REMARK  status: ('A' for Active; 'I' for Inactive)
ROOT
ATOM      1  C   UNL d   1       1.860   1.562   0.084  0.00  0.00     0.020 A 
ATOM      2  C1  UNL d   1       2.718   0.878   0.944  0.00  0.00     0.020 A 
ATOM      3  C2  UNL d   1       2.339  -0.360   1.469  0.00  0.00     0.034 A 
ATOM      4  C3  UNL d   1       1.100  -0.917   1.134  0.00  0.00     0.017 A 
ATOM      5  C4  UNL d   1       0.240  -0.229   0.270  0.00  0.00     0.017 A 
ATOM      6  C5  UNL d   1       0.623   1.010  -0.252  0.00  0.00     0.034 A 
ATOM      7 Cl   UNL d   1      -1.306  -0.853  -0.189  0.00  0.00    -0.070 Cl
ATOM      8 Cl1  UNL d   1       0.697  -2.451   1.819  0.00  0.00    -0.070 Cl
ENDROOT
TORSDOF 0
ENDMDL
