MODEL 1
REMARK minimizedAffinity -2.0671072
REMARK minimizedRMSD -1
REMARK  0 active torsions:
REMARK  status: ('A' for Active; 'I' for Inactive)
ROOT
ATOM      1  C   UNL d   1       2.368   1.832   0.495  0.00  0.00     0.020 A 
ATOM      2  C1  UNL d   1       3.038   0.869   1.249  0.00  0.00     0.020 A 
ATOM      3  C2  UNL d   1       2.405  -0.334   1.568  0.00  0.00     0.034 A 
ATOM      4  C3  UNL d   1       1.097  -0.578   1.133  0.00  0.00     0.017 A 
ATOM      5  C4  UNL d   1       0.425   0.388   0.375  0.00  0.00     0.017 A 
ATOM      6  C5  UNL d   1       1.064   1.591   0.059  0.00  0.00     0.034 A 
ATOM      7 Cl   UNL d   1      -1.189   0.159  -0.198  0.00  0.00    -0.070 Cl
ATOM      8 Cl1  UNL d   1       0.376  -2.088   1.563  0.00  0.00    -0.070 Cl
ENDROOT
TORSDOF 0
ENDMDL
