MODEL 1
REMARK minimizedAffinity -5.64503527
REMARK minimizedRMSD -1
REMARK  0 active torsions:
REMARK  status: ('A' for Active; 'I' for Inactive)
ROOT
ATOM      1  C   UNL d   1       2.347  -1.033   0.571  0.00  0.00     0.020 A 
ATOM      2  C1  UNL d   1       3.007   0.147   0.911  0.00  0.00     0.020 A 
ATOM      3  C2  UNL d   1       2.333   1.369   0.842  0.00  0.00     0.034 A 
ATOM      4  C3  UNL d   1       0.995   1.413   0.432  0.00  0.00     0.017 A 
ATOM      5  C4  UNL d   1       0.334   0.227   0.091  0.00  0.00     0.017 A 
ATOM      6  C5  UNL d   1       1.013  -0.993   0.162  0.00  0.00     0.034 A 
ATOM      7 Cl   UNL d   1      -1.316   0.202  -0.423  0.00  0.00    -0.070 Cl
ATOM      8 Cl1  UNL d   1       0.224   2.958   0.370  0.00  0.00    -0.070 Cl
ENDROOT
TORSDOF 0
ENDMDL
