MODEL 1
REMARK minimizedAffinity -2.35077024
REMARK minimizedRMSD -1
REMARK  0 active torsions:
REMARK  status: ('A' for Active; 'I' for Inactive)
ROOT
ATOM      1  C   UNL d   1      -1.502  -0.002  -0.288  0.00  0.00     0.020 A 
ATOM      2  C1  UNL d   1      -0.576   1.011  -0.534  0.00  0.00     0.020 A 
ATOM      3  C2  UNL d   1       0.771   0.818  -0.219  0.00  0.00     0.034 A 
ATOM      4  C3  UNL d   1       1.195  -0.391   0.344  0.00  0.00     0.017 A 
ATOM      5  C4  UNL d   1       0.265  -1.408   0.590  0.00  0.00     0.017 A 
ATOM      6  C5  UNL d   1      -1.082  -1.209   0.273  0.00  0.00     0.034 A 
ATOM      7 Cl   UNL d   1       0.714  -2.926   1.283  0.00  0.00    -0.070 Cl
ATOM      8 Cl1  UNL d   1       2.876  -0.562   0.707  0.00  0.00    -0.070 Cl
ENDROOT
TORSDOF 0
ENDMDL
