MODEL 1
REMARK minimizedAffinity -4.56562662
REMARK minimizedRMSD -1
REMARK  0 active torsions:
REMARK  status: ('A' for Active; 'I' for Inactive)
ROOT
ATOM      1  C   UNL d   1       3.098  -0.981   1.919  0.00  0.00     0.020 A 
ATOM      2  C1  UNL d   1       2.113  -1.951   2.097  0.00  0.00     0.020 A 
ATOM      3  C2  UNL d   1       0.930  -1.891   1.356  0.00  0.00     0.034 A 
ATOM      4  C3  UNL d   1       0.730  -0.857   0.434  0.00  0.00     0.017 A 
ATOM      5  C4  UNL d   1       1.719   0.116   0.255  0.00  0.00     0.017 A 
ATOM      6  C5  UNL d   1       2.901   0.051   1.000  0.00  0.00     0.034 A 
ATOM      7 Cl   UNL d   1       1.544   1.421  -0.864  0.00  0.00    -0.070 Cl
ATOM      8 Cl1  UNL d   1      -0.756  -0.845  -0.448  0.00  0.00    -0.070 Cl
ENDROOT
TORSDOF 0
ENDMDL
