MODEL 1
REMARK minimizedAffinity -4.41332817
REMARK minimizedRMSD -1
REMARK  0 active torsions:
REMARK  status: ('A' for Active; 'I' for Inactive)
ROOT
ATOM      1  C   UNL d   1       2.368  -1.309   0.494  0.00  0.00     0.020 A 
ATOM      2  C1  UNL d   1       3.047  -0.236   1.070  0.00  0.00     0.020 A 
ATOM      3  C2  UNL d   1       2.433   1.016   1.152  0.00  0.00     0.034 A 
ATOM      4  C3  UNL d   1       1.136   1.197   0.659  0.00  0.00     0.017 A 
ATOM      5  C4  UNL d   1       0.455   0.119   0.081  0.00  0.00     0.017 A 
ATOM      6  C5  UNL d   1       1.075  -1.131   0.001  0.00  0.00     0.034 A 
ATOM      7 Cl   UNL d   1      -1.147   0.266  -0.550  0.00  0.00    -0.070 Cl
ATOM      8 Cl1  UNL d   1       0.438   2.772   0.794  0.00  0.00    -0.070 Cl
ENDROOT
TORSDOF 0
ENDMDL
