MODEL 1
REMARK minimizedAffinity 19.3686256
REMARK minimizedRMSD -1
REMARK  0 active torsions:
REMARK  status: ('A' for Active; 'I' for Inactive)
ROOT
ATOM      1  C   UNL d   1      -1.440  -3.931   2.234  0.00  0.00     0.124 A 
ATOM      2  C1  UNL d   1      -0.913  -4.542   1.105  0.00  0.00     0.062 A 
ATOM      3  C2  UNL d   1      -0.839  -3.845  -0.098  0.00  0.00     0.162 A 
ATOM      4  C3  UNL d   1      -1.292  -2.529  -0.178  0.00  0.00    -0.034 A 
ATOM      5  C4  UNL d   1      -1.822  -1.921   0.962  0.00  0.00     0.162 A 
ATOM      6  C5  UNL d   1      -1.894  -2.621   2.162  0.00  0.00     0.062 A 
ATOM      7  F   UNL d   1      -2.404  -2.029   3.252  0.00  0.00    -0.097 F 
ATOM      8  F1  UNL d   1      -2.267  -0.656   0.920  0.00  0.00    -0.096 F 
ATOM      9  I   UNL d   1      -1.183  -1.484  -1.974  0.00  0.00    -0.060 I 
ATOM     10  F2  UNL d   1      -0.325  -4.461  -1.173  0.00  0.00    -0.096 F 
ATOM     11  F3  UNL d   1      -0.475  -5.807   1.172  0.00  0.00    -0.097 F 
ATOM     12  F4  UNL d   1      -1.511  -4.603   3.390  0.00  0.00    -0.092 F 
ENDROOT
TORSDOF 0
ENDMDL
