MODEL 1
REMARK minimizedAffinity 22.5254307
REMARK minimizedRMSD -1
REMARK  0 active torsions:
REMARK  status: ('A' for Active; 'I' for Inactive)
ROOT
ATOM      1  C   UNL d   1      -1.218  -4.147   2.494  0.00  0.00     0.124 A 
ATOM      2  C1  UNL d   1      -1.771  -2.880   2.367  0.00  0.00     0.062 A 
ATOM      3  C2  UNL d   1      -1.713  -2.209   1.149  0.00  0.00     0.162 A 
ATOM      4  C3  UNL d   1      -1.099  -2.804   0.047  0.00  0.00    -0.034 A 
ATOM      5  C4  UNL d   1      -0.544  -4.077   0.182  0.00  0.00     0.162 A 
ATOM      6  C5  UNL d   1      -0.605  -4.744   1.401  0.00  0.00     0.062 A 
ATOM      7  F   UNL d   1      -0.069  -5.967   1.521  0.00  0.00    -0.097 F 
ATOM      8  F1  UNL d   1       0.054  -4.678  -0.858  0.00  0.00    -0.096 F 
ATOM      9  I   UNL d   1      -1.010  -1.803  -1.776  0.00  0.00    -0.060 I 
ATOM     10  F2  UNL d   1      -2.256  -0.986   1.056  0.00  0.00    -0.096 F 
ATOM     11  F3  UNL d   1      -2.363  -2.300   3.421  0.00  0.00    -0.097 F 
ATOM     12  F4  UNL d   1      -1.274  -4.790   3.667  0.00  0.00    -0.092 F 
ENDROOT
TORSDOF 0
ENDMDL
