MODEL 1
REMARK minimizedAffinity 11.3180437
REMARK minimizedRMSD -1
REMARK  0 active torsions:
REMARK  status: ('A' for Active; 'I' for Inactive)
ROOT
ATOM      1  C   UNL d   1      -0.506  -4.016  -0.424  0.00  0.00     0.124 A 
ATOM      2  C1  UNL d   1      -0.549  -4.801   0.719  0.00  0.00     0.062 A 
ATOM      3  C2  UNL d   1      -1.227  -4.355   1.850  0.00  0.00     0.162 A 
ATOM      4  C3  UNL d   1      -1.869  -3.116   1.842  0.00  0.00    -0.034 A 
ATOM      5  C4  UNL d   1      -1.821  -2.332   0.689  0.00  0.00     0.162 A 
ATOM      6  C5  UNL d   1      -1.142  -2.782  -0.439  0.00  0.00     0.062 A 
ATOM      7  F   UNL d   1      -1.101  -2.022  -1.542  0.00  0.00    -0.097 F 
ATOM      8  F1  UNL d   1      -2.427  -1.136   0.648  0.00  0.00    -0.096 F 
ATOM      9  I   UNL d   1      -2.884  -2.446   3.531  0.00  0.00    -0.060 I 
ATOM     10  F2  UNL d   1      -1.252  -5.135   2.941  0.00  0.00    -0.096 F 
ATOM     11  F3  UNL d   1       0.065  -5.993   0.735  0.00  0.00    -0.097 F 
ATOM     12  F4  UNL d   1       0.148  -4.447  -1.511  0.00  0.00    -0.092 F 
ENDROOT
TORSDOF 0
ENDMDL
