MODEL 1
REMARK minimizedAffinity 33.2705917
REMARK minimizedRMSD -1
REMARK  0 active torsions:
REMARK  status: ('A' for Active; 'I' for Inactive)
ROOT
ATOM      1  C   UNL d   1      -2.093  -2.031   1.411  0.00  0.00     0.124 A 
ATOM      2  C1  UNL d   1      -2.019  -2.537   2.702  0.00  0.00     0.062 A 
ATOM      3  C2  UNL d   1      -1.255  -3.670   2.967  0.00  0.00     0.162 A 
ATOM      4  C3  UNL d   1      -0.558  -4.305   1.939  0.00  0.00    -0.034 A 
ATOM      5  C4  UNL d   1      -0.639  -3.792   0.643  0.00  0.00     0.162 A 
ATOM      6  C5  UNL d   1      -1.403  -2.659   0.384  0.00  0.00     0.062 A 
ATOM      7  F   UNL d   1      -1.474  -2.172  -0.864  0.00  0.00    -0.097 F 
ATOM      8  F1  UNL d   1       0.019  -4.378  -0.368  0.00  0.00    -0.096 F 
ATOM      9  I   UNL d   1       0.585  -6.000   2.331  0.00  0.00    -0.060 I 
ATOM     10  F2  UNL d   1      -1.202  -4.137   4.223  0.00  0.00    -0.096 F 
ATOM     11  F3  UNL d   1      -2.685  -1.933   3.696  0.00  0.00    -0.097 F 
ATOM     12  F4  UNL d   1      -2.829  -0.942   1.159  0.00  0.00    -0.092 F 
ENDROOT
TORSDOF 0
ENDMDL
