MODEL 1
REMARK minimizedAffinity 24.4634972
REMARK minimizedRMSD -1
REMARK  0 active torsions:
REMARK  status: ('A' for Active; 'I' for Inactive)
ROOT
ATOM      1  C   UNL d   1      -1.939   2.398  -4.098  0.00  0.00     0.124 A 
ATOM      2  C1  UNL d   1      -0.745   3.035  -4.405  0.00  0.00     0.062 A 
ATOM      3  C2  UNL d   1       0.467   2.486  -3.996  0.00  0.00     0.162 A 
ATOM      4  C3  UNL d   1       0.491   1.291  -3.276  0.00  0.00    -0.034 A 
ATOM      5  C4  UNL d   1      -0.714   0.657  -2.970  0.00  0.00     0.162 A 
ATOM      6  C5  UNL d   1      -1.923   1.210  -3.381  0.00  0.00     0.062 A 
ATOM      7  F   UNL d   1      -3.076   0.594  -3.083  0.00  0.00    -0.097 F 
ATOM      8  F1  UNL d   1      -0.728  -0.493  -2.279  0.00  0.00    -0.096 F 
ATOM      9  I   UNL d   1       2.301   0.466  -2.663  0.00  0.00    -0.060 I 
ATOM     10  F2  UNL d   1       1.606   3.123  -4.307  0.00  0.00    -0.096 F 
ATOM     11  F3  UNL d   1      -0.758   4.184  -5.097  0.00  0.00    -0.097 F 
ATOM     12  F4  UNL d   1      -3.104   2.930  -4.491  0.00  0.00    -0.092 F 
ENDROOT
TORSDOF 0
ENDMDL
