MODEL 1
REMARK minimizedAffinity 26.3408165
REMARK minimizedRMSD -1
REMARK  0 active torsions:
REMARK  status: ('A' for Active; 'I' for Inactive)
ROOT
ATOM      1  C   UNL d   1      -2.310   2.401  -4.078  0.00  0.00     0.124 A 
ATOM      2  C1  UNL d   1      -2.432   1.110  -3.582  0.00  0.00     0.062 A 
ATOM      3  C2  UNL d   1      -1.299   0.397  -3.199  0.00  0.00     0.162 A 
ATOM      4  C3  UNL d   1      -0.034   0.974  -3.311  0.00  0.00    -0.034 A 
ATOM      5  C4  UNL d   1       0.081   2.272  -3.812  0.00  0.00     0.162 A 
ATOM      6  C5  UNL d   1      -1.054   2.980  -4.192  0.00  0.00     0.062 A 
ATOM      7  F   UNL d   1      -0.934   4.227  -4.672  0.00  0.00    -0.097 F 
ATOM      8  F1  UNL d   1       1.282   2.856  -3.932  0.00  0.00    -0.096 F 
ATOM      9  I   UNL d   1       1.662  -0.089  -2.741  0.00  0.00    -0.060 I 
ATOM     10  F2  UNL d   1      -1.446  -0.848  -2.723  0.00  0.00    -0.096 F 
ATOM     11  F3  UNL d   1      -3.644   0.548  -3.471  0.00  0.00    -0.097 F 
ATOM     12  F4  UNL d   1      -3.401   3.084  -4.446  0.00  0.00    -0.092 F 
ENDROOT
TORSDOF 0
ENDMDL
