MODEL 1
REMARK minimizedAffinity 38.9603806
REMARK minimizedRMSD -1
REMARK  0 active torsions:
REMARK  status: ('A' for Active; 'I' for Inactive)
ROOT
ATOM      1  C   UNL d   1       3.376   2.784   0.316  0.00  0.00     0.124 A 
ATOM      2  C1  UNL d   1       4.333   3.738  -0.003  0.00  0.00     0.062 A 
ATOM      3  C2  UNL d   1       5.083   3.614  -1.169  0.00  0.00     0.162 A 
ATOM      4  C3  UNL d   1       4.878   2.533  -2.026  0.00  0.00    -0.034 A 
ATOM      5  C4  UNL d   1       3.915   1.577  -1.697  0.00  0.00     0.162 A 
ATOM      6  C5  UNL d   1       3.169   1.705  -0.531  0.00  0.00     0.062 A 
ATOM      7  F   UNL d   1       2.245   0.782  -0.224  0.00  0.00    -0.097 F 
ATOM      8  F1  UNL d   1       3.693   0.524  -2.498  0.00  0.00    -0.096 F 
ATOM      9  I   UNL d   1       5.997   2.344  -3.770  0.00  0.00    -0.060 I 
ATOM     10  F2  UNL d   1       6.000   4.551  -1.453  0.00  0.00    -0.096 F 
ATOM     11  F3  UNL d   1       4.536   4.782   0.814  0.00  0.00    -0.097 F 
ATOM     12  F4  UNL d   1       2.657   2.905   1.440  0.00  0.00    -0.092 F 
ENDROOT
TORSDOF 0
ENDMDL
