MODEL 1
REMARK minimizedAffinity 17.3261642
REMARK minimizedRMSD -1
REMARK  0 active torsions:
REMARK  status: ('A' for Active; 'I' for Inactive)
ROOT
ATOM      1  C   UNL d   1      -1.022   2.018  -4.057  0.00  0.00     0.124 A 
ATOM      2  C1  UNL d   1      -0.963   0.698  -3.632  0.00  0.00     0.062 A 
ATOM      3  C2  UNL d   1       0.268   0.068  -3.473  0.00  0.00     0.162 A 
ATOM      4  C3  UNL d   1       1.451   0.758  -3.738  0.00  0.00    -0.034 A 
ATOM      5  C4  UNL d   1       1.384   2.086  -4.166  0.00  0.00     0.162 A 
ATOM      6  C5  UNL d   1       0.151   2.710  -4.324  0.00  0.00     0.062 A 
ATOM      7  F   UNL d   1       0.095   3.985  -4.734  0.00  0.00    -0.097 F 
ATOM      8  F1  UNL d   1       2.501   2.779  -4.430  0.00  0.00    -0.096 F 
ATOM      9  I   UNL d   1       3.294  -0.179  -3.501  0.00  0.00    -0.060 I 
ATOM     10  F2  UNL d   1       0.296  -1.208  -3.061  0.00  0.00    -0.096 F 
ATOM     11  F3  UNL d   1      -2.094   0.026  -3.375  0.00  0.00    -0.097 F 
ATOM     12  F4  UNL d   1      -2.208   2.620  -4.211  0.00  0.00    -0.092 F 
ENDROOT
TORSDOF 0
ENDMDL
