MODEL 1
REMARK minimizedAffinity 29.4176407
REMARK minimizedRMSD -1
REMARK  0 active torsions:
REMARK  status: ('A' for Active; 'I' for Inactive)
ROOT
ATOM      1  C   UNL d   1      -1.037  -3.084  -1.973  0.00  0.00     0.124 A 
ATOM      2  C1  UNL d   1      -1.530  -1.914  -1.413  0.00  0.00     0.062 A 
ATOM      3  C2  UNL d   1      -1.675  -1.806  -0.033  0.00  0.00     0.162 A 
ATOM      4  C3  UNL d   1      -1.326  -2.871   0.797  0.00  0.00    -0.034 A 
ATOM      5  C4  UNL d   1      -0.831  -4.045   0.226  0.00  0.00     0.162 A 
ATOM      6  C5  UNL d   1      -0.688  -4.148  -1.154  0.00  0.00     0.062 A 
ATOM      7  F   UNL d   1      -0.211  -5.280  -1.693  0.00  0.00    -0.097 F 
ATOM      8  F1  UNL d   1      -0.485  -5.089   0.995  0.00  0.00    -0.096 F 
ATOM      9  I   UNL d   1      -1.541  -2.714   2.861  0.00  0.00    -0.060 I 
ATOM     10  F2  UNL d   1      -2.154  -0.664   0.481  0.00  0.00    -0.096 F 
ATOM     11  F3  UNL d   1      -1.868  -0.885  -2.203  0.00  0.00    -0.097 F 
ATOM     12  F4  UNL d   1      -0.899  -3.186  -3.302  0.00  0.00    -0.092 F 
ENDROOT
TORSDOF 0
ENDMDL
