MODEL 1
REMARK minimizedAffinity 29.5945053
REMARK minimizedRMSD -1
REMARK  0 active torsions:
REMARK  status: ('A' for Active; 'I' for Inactive)
ROOT
ATOM      1  C   UNL d   1      -1.330  -4.113   2.513  0.00  0.00     0.124 A 
ATOM      2  C1  UNL d   1      -1.906  -2.872   2.282  0.00  0.00     0.062 A 
ATOM      3  C2  UNL d   1      -1.883  -2.315   1.007  0.00  0.00     0.162 A 
ATOM      4  C3  UNL d   1      -1.283  -3.001  -0.050  0.00  0.00    -0.034 A 
ATOM      5  C4  UNL d   1      -0.705  -4.248   0.190  0.00  0.00     0.162 A 
ATOM      6  C5  UNL d   1      -0.730  -4.800   1.467  0.00  0.00     0.062 A 
ATOM      7  F   UNL d   1      -0.173  -6.000   1.687  0.00  0.00    -0.097 F 
ATOM      8  F1  UNL d   1      -0.119  -4.934  -0.803  0.00  0.00    -0.096 F 
ATOM      9  I   UNL d   1      -1.247  -2.172  -1.958  0.00  0.00    -0.060 I 
ATOM     10  F2  UNL d   1      -2.448  -1.114   0.813  0.00  0.00    -0.096 F 
ATOM     11  F3  UNL d   1      -2.485  -2.205   3.291  0.00  0.00    -0.097 F 
ATOM     12  F4  UNL d   1      -1.352  -4.646   3.741  0.00  0.00    -0.092 F 
ENDROOT
TORSDOF 0
ENDMDL
