MODEL 1
REMARK minimizedAffinity 19.1143742
REMARK minimizedRMSD -1
REMARK  0 active torsions:
REMARK  status: ('A' for Active; 'I' for Inactive)
ROOT
ATOM      1  C   UNL d   1      -1.412  -4.138   2.641  0.00  0.00     0.124 A 
ATOM      2  C1  UNL d   1      -2.001  -2.908   2.382  0.00  0.00     0.062 A 
ATOM      3  C2  UNL d   1      -1.926  -2.350   1.109  0.00  0.00     0.162 A 
ATOM      4  C3  UNL d   1      -1.260  -3.022   0.084  0.00  0.00    -0.034 A 
ATOM      5  C4  UNL d   1      -0.669  -4.258   0.352  0.00  0.00     0.162 A 
ATOM      6  C5  UNL d   1      -0.747  -4.812   1.626  0.00  0.00     0.062 A 
ATOM      7  F   UNL d   1      -0.177  -6.000   1.875  0.00  0.00    -0.097 F 
ATOM      8  F1  UNL d   1      -0.021  -4.932  -0.610  0.00  0.00    -0.096 F 
ATOM      9  I   UNL d   1      -1.145  -2.192  -1.821  0.00  0.00    -0.060 I 
ATOM     10  F2  UNL d   1      -2.504  -1.160   0.887  0.00  0.00    -0.096 F 
ATOM     11  F3  UNL d   1      -2.644  -2.254   3.360  0.00  0.00    -0.097 F 
ATOM     12  F4  UNL d   1      -1.485  -4.672   3.867  0.00  0.00    -0.092 F 
ENDROOT
TORSDOF 0
ENDMDL
