MODEL 1
REMARK minimizedAffinity 25.311409
REMARK minimizedRMSD -1
REMARK  0 active torsions:
REMARK  status: ('A' for Active; 'I' for Inactive)
ROOT
ATOM      1  C   UNL d   1      -1.374  -4.056   2.393  0.00  0.00     0.124 A 
ATOM      2  C1  UNL d   1      -0.832  -4.695   1.286  0.00  0.00     0.062 A 
ATOM      3  C2  UNL d   1      -0.795  -4.049   0.054  0.00  0.00     0.162 A 
ATOM      4  C3  UNL d   1      -1.301  -2.756  -0.078  0.00  0.00    -0.034 A 
ATOM      5  C4  UNL d   1      -1.845  -2.121   1.039  0.00  0.00     0.162 A 
ATOM      6  C5  UNL d   1      -1.880  -2.770   2.268  0.00  0.00     0.062 A 
ATOM      7  F   UNL d   1      -2.404  -2.152   3.336  0.00  0.00    -0.097 F 
ATOM      8  F1  UNL d   1      -2.340  -0.877   0.947  0.00  0.00    -0.096 F 
ATOM      9  I   UNL d   1      -1.247  -1.787  -1.920  0.00  0.00    -0.060 I 
ATOM     10  F2  UNL d   1      -0.265  -4.690  -0.998  0.00  0.00    -0.096 F 
ATOM     11  F3  UNL d   1      -0.343  -5.938   1.404  0.00  0.00    -0.097 F 
ATOM     12  F4  UNL d   1      -1.409  -4.680   3.577  0.00  0.00    -0.092 F 
ENDROOT
TORSDOF 0
ENDMDL
