MODEL 1
REMARK minimizedAffinity 31.4832535
REMARK minimizedRMSD -1
REMARK  0 active torsions:
REMARK  status: ('A' for Active; 'I' for Inactive)
ROOT
ATOM      1  C   UNL d   1      -0.773  -3.576  -1.963  0.00  0.00     0.124 A 
ATOM      2  C1  UNL d   1      -0.339  -4.615  -1.152  0.00  0.00     0.062 A 
ATOM      3  C2  UNL d   1      -0.347  -4.472   0.233  0.00  0.00     0.162 A 
ATOM      4  C3  UNL d   1      -0.790  -3.285   0.815  0.00  0.00    -0.034 A 
ATOM      5  C4  UNL d   1      -1.224  -2.244  -0.007  0.00  0.00     0.162 A 
ATOM      6  C5  UNL d   1      -1.215  -2.392  -1.391  0.00  0.00     0.062 A 
ATOM      7  F   UNL d   1      -1.634  -1.386  -2.173  0.00  0.00    -0.097 F 
ATOM      8  F1  UNL d   1      -1.657  -1.089   0.520  0.00  0.00    -0.096 F 
ATOM      9  I   UNL d   1      -0.802  -3.067   2.885  0.00  0.00    -0.060 I 
ATOM     10  F2  UNL d   1       0.078  -5.493   0.992  0.00  0.00    -0.096 F 
ATOM     11  F3  UNL d   1       0.089  -5.760  -1.703  0.00  0.00    -0.097 F 
ATOM     12  F4  UNL d   1      -0.764  -3.716  -3.295  0.00  0.00    -0.092 F 
ENDROOT
TORSDOF 0
ENDMDL
