MODEL 1
REMARK minimizedAffinity 10.8325834
REMARK minimizedRMSD -1
REMARK  0 active torsions:
REMARK  status: ('A' for Active; 'I' for Inactive)
ROOT
ATOM      1  C   UNL d   1      -1.516  -4.157   2.398  0.00  0.00     0.124 A 
ATOM      2  C1  UNL d   1      -2.039  -2.879   2.263  0.00  0.00     0.062 A 
ATOM      3  C2  UNL d   1      -1.935  -2.205   1.050  0.00  0.00     0.162 A 
ATOM      4  C3  UNL d   1      -1.307  -2.809  -0.039  0.00  0.00    -0.034 A 
ATOM      5  C4  UNL d   1      -0.783  -4.095   0.105  0.00  0.00     0.162 A 
ATOM      6  C5  UNL d   1      -0.889  -4.764   1.320  0.00  0.00     0.062 A 
ATOM      7  F   UNL d   1      -0.383  -5.999   1.449  0.00  0.00    -0.097 F 
ATOM      8  F1  UNL d   1      -0.172  -4.705  -0.922  0.00  0.00    -0.096 F 
ATOM      9  I   UNL d   1      -1.149  -1.805  -1.856  0.00  0.00    -0.060 I 
ATOM     10  F2  UNL d   1      -2.449  -0.970   0.947  0.00  0.00    -0.096 F 
ATOM     11  F3  UNL d   1      -2.645  -2.290   3.304  0.00  0.00    -0.097 F 
ATOM     12  F4  UNL d   1      -1.617  -4.803   3.568  0.00  0.00    -0.092 F 
ENDROOT
TORSDOF 0
ENDMDL
