MODEL 1
REMARK minimizedAffinity 33.6666489
REMARK minimizedRMSD -1
REMARK  0 active torsions:
REMARK  status: ('A' for Active; 'I' for Inactive)
ROOT
ATOM      1  C   UNL d   1      -1.450  -3.824   2.727  0.00  0.00     0.124 A 
ATOM      2  C1  UNL d   1      -2.245  -2.701   2.546  0.00  0.00     0.062 A 
ATOM      3  C2  UNL d   1      -2.285  -2.064   1.310  0.00  0.00     0.162 A 
ATOM      4  C3  UNL d   1      -1.528  -2.548   0.243  0.00  0.00    -0.034 A 
ATOM      5  C4  UNL d   1      -0.730  -3.678   0.433  0.00  0.00     0.162 A 
ATOM      6  C5  UNL d   1      -0.693  -4.311   1.671  0.00  0.00     0.062 A 
ATOM      7  F   UNL d   1       0.076  -5.396   1.844  0.00  0.00    -0.097 F 
ATOM      8  F1  UNL d   1       0.011  -4.170  -0.571  0.00  0.00    -0.096 F 
ATOM      9  I   UNL d   1      -1.585  -1.598  -1.607  0.00  0.00    -0.060 I 
ATOM     10  F2  UNL d   1      -3.062  -0.980   1.163  0.00  0.00    -0.096 F 
ATOM     11  F3  UNL d   1      -2.976  -2.228   3.566  0.00  0.00    -0.097 F 
ATOM     12  F4  UNL d   1      -1.412  -4.435   3.918  0.00  0.00    -0.092 F 
ENDROOT
TORSDOF 0
ENDMDL
