MODEL 1
REMARK minimizedAffinity -5.49141693
REMARK minimizedRMSD -1
REMARK  1 active torsions:
REMARK  status: ('A' for Active; 'I' for Inactive)
REMARK    1  A    between atoms: C3_4  and  O_7 
ROOT
ATOM      1  C   UNL d   1       2.487  -0.733  -1.553  0.00  0.00    -0.033 A 
ATOM      2  C1  UNL d   1       1.926   0.540  -1.670  0.00  0.00     0.039 A 
ATOM      3  C2  UNL d   1       0.753   0.854  -0.981  0.00  0.00    -0.080 A 
ATOM      4  C3  UNL d   1       0.152  -0.112  -0.178  0.00  0.00     0.150 A 
ATOM      5  C4  UNL d   1       0.708  -1.381  -0.053  0.00  0.00    -0.007 A 
ATOM      6  C5  UNL d   1       1.879  -1.693  -0.743  0.00  0.00     0.039 A 
ENDROOT
BRANCH   4   7
ATOM      7  O   UNL d   1      -0.996   0.147   0.510  0.00  0.00    -0.526 OA
ATOM      8  H5  UNL d   1      -1.280   1.054   0.305  0.00  0.00     0.418 HD
ENDBRANCH   4   7
TORSDOF 1
ENDMDL
