MODEL 1
REMARK minimizedAffinity -4.47019339
REMARK minimizedRMSD -1
REMARK  1 active torsions:
REMARK  status: ('A' for Active; 'I' for Inactive)
REMARK    1  A    between atoms: C3_4  and  O_7 
ROOT
ATOM      1  C   UNL d   1       0.583   1.727  -1.267  0.00  0.00    -0.033 A 
ATOM      2  C1  UNL d   1       0.998   0.820  -0.291  0.00  0.00     0.039 A 
ATOM      3  C2  UNL d   1       2.037  -0.072  -0.561  0.00  0.00    -0.080 A 
ATOM      4  C3  UNL d   1       2.652  -0.047  -1.810  0.00  0.00     0.150 A 
ATOM      5  C4  UNL d   1       2.246   0.856  -2.787  0.00  0.00    -0.007 A 
ATOM      6  C5  UNL d   1       1.207   1.746  -2.515  0.00  0.00     0.039 A 
ENDROOT
BRANCH   4   7
ATOM      7  O   UNL d   1       3.667  -0.902  -2.122  0.00  0.00    -0.526 OA
ATOM      8  H5  UNL d   1       3.821  -1.487  -1.362  0.00  0.00     0.418 HD
ENDBRANCH   4   7
TORSDOF 1
ENDMDL
