MODEL 1
REMARK minimizedAffinity -5.21025658
REMARK minimizedRMSD -1
REMARK  1 active torsions:
REMARK  status: ('A' for Active; 'I' for Inactive)
REMARK    1  A    between atoms: C3_4  and  O_7 
ROOT
ATOM      1  C   UNL d   1       0.480   1.372  -1.207  0.00  0.00    -0.033 A 
ATOM      2  C1  UNL d   1       1.406   1.605  -2.226  0.00  0.00     0.039 A 
ATOM      3  C2  UNL d   1       2.487   0.738  -2.401  0.00  0.00    -0.080 A 
ATOM      4  C3  UNL d   1       2.629  -0.357  -1.553  0.00  0.00     0.150 A 
ATOM      5  C4  UNL d   1       1.708  -0.597  -0.538  0.00  0.00    -0.007 A 
ATOM      6  C5  UNL d   1       0.630   0.270  -0.364  0.00  0.00     0.039 A 
ENDROOT
BRANCH   4   7
ATOM      7  O   UNL d   1       3.670  -1.227  -1.682  0.00  0.00    -0.526 OA
ATOM      8  H5  UNL d   1       4.241  -0.920  -2.405  0.00  0.00     0.418 HD
ENDBRANCH   4   7
TORSDOF 1
ENDMDL
