MODEL 1
REMARK minimizedAffinity -4.3568902
REMARK minimizedRMSD -1
REMARK  1 active torsions:
REMARK  status: ('A' for Active; 'I' for Inactive)
REMARK    1  A    between atoms: C3_4  and  O_7 
ROOT
ATOM      1  C   UNL d   1      -0.382  -0.176   0.054  0.00  0.00    -0.033 A 
ATOM      2  C1  UNL d   1       0.096  -1.485   0.144  0.00  0.00     0.039 A 
ATOM      3  C2  UNL d   1       1.395  -1.786  -0.270  0.00  0.00    -0.080 A 
ATOM      4  C3  UNL d   1       2.205  -0.771  -0.772  0.00  0.00     0.150 A 
ATOM      5  C4  UNL d   1       1.737   0.536  -0.861  0.00  0.00    -0.007 A 
ATOM      6  C5  UNL d   1       0.439   0.835  -0.447  0.00  0.00     0.039 A 
ENDROOT
BRANCH   4   7
ATOM      7  O   UNL d   1       3.477  -1.018  -1.193  0.00  0.00    -0.526 OA
ATOM      8  H5  UNL d   1       3.654  -1.969  -1.099  0.00  0.00     0.418 HD
ENDBRANCH   4   7
TORSDOF 1
ENDMDL
