MODEL 1
REMARK minimizedAffinity -4.77919102
REMARK minimizedRMSD -1
REMARK  1 active torsions:
REMARK  status: ('A' for Active; 'I' for Inactive)
REMARK    1  A    between atoms: C3_4  and  O_7 
ROOT
ATOM      1  C   UNL d   1       2.901   1.112  -2.384  0.00  0.00    -0.033 A 
ATOM      2  C1  UNL d   1       1.773   1.644  -1.756  0.00  0.00     0.039 A 
ATOM      3  C2  UNL d   1       1.071   0.885  -0.818  0.00  0.00    -0.080 A 
ATOM      4  C3  UNL d   1       1.506  -0.402  -0.516  0.00  0.00     0.150 A 
ATOM      5  C4  UNL d   1       2.631  -0.938  -1.135  0.00  0.00    -0.007 A 
ATOM      6  C5  UNL d   1       3.331  -0.179  -2.073  0.00  0.00     0.039 A 
ENDROOT
BRANCH   4   7
ATOM      7  O   UNL d   1       0.850  -1.182   0.389  0.00  0.00    -0.526 OA
ATOM      8  H5  UNL d   1       0.077  -0.693   0.714  0.00  0.00     0.418 HD
ENDBRANCH   4   7
TORSDOF 1
ENDMDL
