MODEL 1
REMARK minimizedAffinity -5.53659868
REMARK minimizedRMSD -1
REMARK  1 active torsions:
REMARK  status: ('A' for Active; 'I' for Inactive)
REMARK    1  A    between atoms: C3_4  and  O_7 
ROOT
ATOM      1  C   UNL d   1       2.237  -0.770  -1.239  0.00  0.00    -0.033 A 
ATOM      2  C1  UNL d   1       2.352   0.298  -2.131  0.00  0.00     0.039 A 
ATOM      3  C2  UNL d   1       1.279   1.172  -2.319  0.00  0.00    -0.080 A 
ATOM      4  C3  UNL d   1       0.099   0.967  -1.609  0.00  0.00     0.150 A 
ATOM      5  C4  UNL d   1      -0.021  -0.092  -0.716  0.00  0.00    -0.007 A 
ATOM      6  C5  UNL d   1       1.051  -0.965  -0.531  0.00  0.00     0.039 A 
ENDROOT
BRANCH   4   7
ATOM      7  O   UNL d   1      -0.976   1.791  -1.762  0.00  0.00    -0.526 OA
ATOM      8  H5  UNL d   1      -0.758   2.461  -2.431  0.00  0.00     0.418 HD
ENDBRANCH   4   7
TORSDOF 1
ENDMDL
