MODEL 1
REMARK minimizedAffinity -1.82295585
REMARK minimizedRMSD -1
REMARK  1 active torsions:
REMARK  status: ('A' for Active; 'I' for Inactive)
REMARK    1  A    between atoms: C3_4  and  O_7 
ROOT
ATOM      1  C   UNL d   1       1.442  -1.576  -0.622  0.00  0.00    -0.033 A 
ATOM      2  C1  UNL d   1       0.492  -2.163   0.216  0.00  0.00     0.039 A 
ATOM      3  C2  UNL d   1      -0.519  -1.384   0.782  0.00  0.00    -0.080 A 
ATOM      4  C3  UNL d   1      -0.569  -0.021   0.501  0.00  0.00     0.150 A 
ATOM      5  C4  UNL d   1       0.372   0.569  -0.336  0.00  0.00    -0.007 A 
ATOM      6  C5  UNL d   1       1.381  -0.210  -0.899  0.00  0.00     0.039 A 
ENDROOT
BRANCH   4   7
ATOM      7  O   UNL d   1      -1.535   0.781   1.033  0.00  0.00    -0.526 OA
ATOM      8  H5  UNL d   1      -2.097   0.242   1.614  0.00  0.00     0.418 HD
ENDBRANCH   4   7
TORSDOF 1
ENDMDL
