MODEL 1
REMARK minimizedAffinity -4.56224537
REMARK minimizedRMSD -1
REMARK  1 active torsions:
REMARK  status: ('A' for Active; 'I' for Inactive)
REMARK    1  A    between atoms: C3_4  and  O_7 
ROOT
ATOM      1  C   UNL d   1       2.763  -0.961  -1.624  0.00  0.00    -0.033 A 
ATOM      2  C1  UNL d   1       2.130  -1.959  -0.880  0.00  0.00     0.039 A 
ATOM      3  C2  UNL d   1       1.076  -1.631  -0.024  0.00  0.00    -0.080 A 
ATOM      4  C3  UNL d   1       0.665  -0.305   0.076  0.00  0.00     0.150 A 
ATOM      5  C4  UNL d   1       1.288   0.693  -0.665  0.00  0.00    -0.007 A 
ATOM      6  C5  UNL d   1       2.341   0.364  -1.518  0.00  0.00     0.039 A 
ENDROOT
BRANCH   4   7
ATOM      7  O   UNL d   1      -0.356   0.064   0.902  0.00  0.00    -0.526 OA
ATOM      8  H5  UNL d   1      -0.672  -0.725   1.372  0.00  0.00     0.418 HD
ENDBRANCH   4   7
TORSDOF 1
ENDMDL
