MODEL 1
REMARK minimizedAffinity -3.81567335
REMARK minimizedRMSD -1
REMARK  3 active torsions:
REMARK  status: ('A' for Active; 'I' for Inactive)
REMARK    1  A    between atoms: C3'_2  and  C2'_3 
REMARK    2  A    between atoms: C2'_3  and  C1'_4 
REMARK    3  A    between atoms: C1'_4  and  C1_5 
ROOT
ATOM      1  C1  N4B d   1       1.416   2.203  -1.164  0.00  0.00    -0.075 A 
ATOM      2  C2  N4B d   1       0.988   2.056  -2.501  0.00  0.00     0.002 A 
ATOM      3  C3  N4B d   1       0.611   0.821  -2.970  0.00  0.00     0.002 A 
ATOM      4  C4  N4B d   1       0.672  -0.280  -2.128  0.00  0.00    -0.004 A 
ATOM      5  C5  N4B d   1       1.063  -0.124  -0.830  0.00  0.00     0.002 A 
ATOM      6  C6  N4B d   1       1.440   1.111  -0.345  0.00  0.00     0.002 A 
ENDROOT
BRANCH   1   7
ATOM      7  C1' N4B d   1       1.919   3.517  -0.631  0.00  0.00     0.057 C 
BRANCH   7   8
ATOM      8  C2' N4B d   1       1.578   4.624  -1.624  0.00  0.00     0.009 C 
BRANCH   8   9
ATOM      9  C3' N4B d   1       2.058   5.983  -1.147  0.00  0.00     0.004 C 
ATOM     10  C4' N4B d   1       2.397   6.000   0.314  0.00  0.00     0.003 C 
ENDBRANCH   8   9
ENDBRANCH   7   8
ENDBRANCH   1   7
TORSDOF 3
ENDMDL
