MODEL 1
REMARK minimizedAffinity 2.54486942
REMARK minimizedRMSD -1
REMARK  3 active torsions:
REMARK  status: ('A' for Active; 'I' for Inactive)
REMARK    1  A    between atoms: C3'_2  and  C2'_3 
REMARK    2  A    between atoms: C2'_3  and  C1'_4 
REMARK    3  A    between atoms: C1'_4  and  C1_5 
ROOT
ATOM      1  C1  N4B d   1       1.283   1.727  -1.563  0.00  0.00    -0.075 A 
ATOM      2  C2  N4B d   1       0.783   0.600  -2.251  0.00  0.00     0.002 A 
ATOM      3  C3  N4B d   1       0.693  -0.612  -1.611  0.00  0.00     0.002 A 
ATOM      4  C4  N4B d   1       1.112  -0.724  -0.293  0.00  0.00    -0.004 A 
ATOM      5  C5  N4B d   1       1.569   0.375   0.372  0.00  0.00     0.002 A 
ATOM      6  C6  N4B d   1       1.662   1.600  -0.258  0.00  0.00     0.002 A 
ENDROOT
BRANCH   1   7
ATOM      7  C1' N4B d   1       1.480   3.052  -2.247  0.00  0.00     0.057 C 
BRANCH   7   8
ATOM      8  C2' N4B d   1       2.529   3.857  -1.485  0.00  0.00     0.009 C 
BRANCH   8   9
ATOM      9  C3' N4B d   1       2.203   5.340  -1.466  0.00  0.00     0.004 C 
ATOM     10  C4' N4B d   1       2.572   5.999  -0.170  0.00  0.00     0.003 C 
ENDBRANCH   8   9
ENDBRANCH   7   8
ENDBRANCH   1   7
TORSDOF 3
ENDMDL
