MODEL 1
REMARK minimizedAffinity 6.90879917
REMARK minimizedRMSD -1
REMARK  3 active torsions:
REMARK  status: ('A' for Active; 'I' for Inactive)
REMARK    1  A    between atoms: C3'_2  and  C2'_3 
REMARK    2  A    between atoms: C2'_3  and  C1'_4 
REMARK    3  A    between atoms: C1'_4  and  C1_5 
ROOT
ATOM      1  C1  N4B d   1       1.838   2.167  -1.586  0.00  0.00    -0.075 A 
ATOM      2  C2  N4B d   1       2.275   1.173  -0.682  0.00  0.00     0.002 A 
ATOM      3  C3  N4B d   1       1.472   0.092  -0.410  0.00  0.00     0.002 A 
ATOM      4  C4  N4B d   1       0.228  -0.007  -1.013  0.00  0.00    -0.004 A 
ATOM      5  C5  N4B d   1      -0.176   0.944  -1.905  0.00  0.00     0.002 A 
ATOM      6  C6  N4B d   1       0.622   2.034  -2.190  0.00  0.00     0.002 A 
ENDROOT
BRANCH   1   7
ATOM      7  C1' N4B d   1       2.643   3.410  -1.849  0.00  0.00     0.057 C 
BRANCH   7   8
ATOM      8  C2' N4B d   1       1.697   4.554  -2.203  0.00  0.00     0.009 C 
BRANCH   8   9
ATOM      9  C3' N4B d   1       2.271   5.906  -1.816  0.00  0.00     0.004 C 
ATOM     10  C4' N4B d   1       2.611   5.997  -0.358  0.00  0.00     0.003 C 
ENDBRANCH   8   9
ENDBRANCH   7   8
ENDBRANCH   1   7
TORSDOF 3
ENDMDL
