MODEL 1
REMARK minimizedAffinity 2.92457843
REMARK minimizedRMSD -1
REMARK  3 active torsions:
REMARK  status: ('A' for Active; 'I' for Inactive)
REMARK    1  A    between atoms: C3'_2  and  C2'_3 
REMARK    2  A    between atoms: C2'_3  and  C1'_4 
REMARK    3  A    between atoms: C1'_4  and  C1_5 
ROOT
ATOM      1  C1  N4B d   1       1.080  -0.397  -2.041  0.00  0.00    -0.075 A 
ATOM      2  C2  N4B d   1       1.272   0.960  -2.380  0.00  0.00     0.002 A 
ATOM      3  C3  N4B d   1       1.490   1.890  -1.393  0.00  0.00     0.002 A 
ATOM      4  C4  N4B d   1       1.502   1.492  -0.065  0.00  0.00    -0.004 A 
ATOM      5  C5  N4B d   1       1.342   0.175   0.252  0.00  0.00     0.002 A 
ATOM      6  C6  N4B d   1       1.126  -0.772  -0.729  0.00  0.00     0.002 A 
ENDROOT
BRANCH   1   7
ATOM      7  C1' N4B d   1       0.753  -1.437  -3.078  0.00  0.00     0.057 C 
BRANCH   7   8
ATOM      8  C2' N4B d   1       2.039  -1.867  -3.778  0.00  0.00     0.009 C 
BRANCH   8   9
ATOM      9  C3' N4B d   1       1.892  -1.860  -5.290  0.00  0.00     0.004 C 
ATOM     10  C4' N4B d   1       3.164  -2.218  -5.998  0.00  0.00     0.003 C 
ENDBRANCH   8   9
ENDBRANCH   7   8
ENDBRANCH   1   7
TORSDOF 3
ENDMDL
