MODEL 1
REMARK minimizedAffinity 9.08961868
REMARK minimizedRMSD -1
REMARK  3 active torsions:
REMARK  status: ('A' for Active; 'I' for Inactive)
REMARK    1  A    between atoms: C3'_2  and  C2'_3 
REMARK    2  A    between atoms: C2'_3  and  C1'_4 
REMARK    3  A    between atoms: C1'_4  and  C1_5 
ROOT
ATOM      1  C1  N4B d   1      -3.028   3.013   2.077  0.00  0.00    -0.075 A 
ATOM      2  C2  N4B d   1      -3.756   1.889   2.526  0.00  0.00     0.002 A 
ATOM      3  C3  N4B d   1      -3.402   1.265   3.697  0.00  0.00     0.002 A 
ATOM      4  C4  N4B d   1      -2.317   1.733   4.423  0.00  0.00    -0.004 A 
ATOM      5  C5  N4B d   1      -1.635   2.834   3.996  0.00  0.00     0.002 A 
ATOM      6  C6  N4B d   1      -1.982   3.474   2.823  0.00  0.00     0.002 A 
ENDROOT
BRANCH   1   7
ATOM      7  C1' N4B d   1      -3.323   3.676   0.760  0.00  0.00     0.057 C 
BRANCH   7   8
ATOM      8  C2' N4B d   1      -3.028   2.695  -0.371  0.00  0.00     0.009 C 
BRANCH   8   9
ATOM      9  C3' N4B d   1      -3.052   3.373  -1.731  0.00  0.00     0.004 C 
ATOM     10  C4' N4B d   1      -2.393   2.552  -2.800  0.00  0.00     0.003 C 
ENDBRANCH   8   9
ENDBRANCH   7   8
ENDBRANCH   1   7
TORSDOF 3
ENDMDL
