MODEL 1
REMARK minimizedAffinity 13.1867743
REMARK minimizedRMSD -1
REMARK  3 active torsions:
REMARK  status: ('A' for Active; 'I' for Inactive)
REMARK    1  A    between atoms: C3'_2  and  C2'_3 
REMARK    2  A    between atoms: C2'_3  and  C1'_4 
REMARK    3  A    between atoms: C1'_4  and  C1_5 
ROOT
ATOM      1  C1  N4B d   1       0.018   1.974  -1.810  0.00  0.00    -0.075 A 
ATOM      2  C2  N4B d   1      -1.375   2.129  -1.637  0.00  0.00     0.002 A 
ATOM      3  C3  N4B d   1      -2.084   2.951  -2.478  0.00  0.00     0.002 A 
ATOM      4  C4  N4B d   1      -1.422   3.639  -3.484  0.00  0.00    -0.004 A 
ATOM      5  C5  N4B d   1      -0.081   3.464  -3.660  0.00  0.00     0.002 A 
ATOM      6  C6  N4B d   1       0.644   2.638  -2.825  0.00  0.00     0.002 A 
ENDROOT
BRANCH   1   7
ATOM      7  C1' N4B d   1       0.850   1.154  -0.862  0.00  0.00     0.057 C 
BRANCH   7   8
ATOM      8  C2' N4B d   1       1.742   2.084  -0.045  0.00  0.00     0.009 C 
BRANCH   8   9
ATOM      9  C3' N4B d   1       1.685   1.767   1.439  0.00  0.00     0.004 C 
ATOM     10  C4' N4B d   1       2.707   0.752   1.856  0.00  0.00     0.003 C 
ENDBRANCH   8   9
ENDBRANCH   7   8
ENDBRANCH   1   7
TORSDOF 3
ENDMDL
