MODEL 1
REMARK minimizedAffinity 3.90871453
REMARK minimizedRMSD -1
REMARK  3 active torsions:
REMARK  status: ('A' for Active; 'I' for Inactive)
REMARK    1  A    between atoms: C3'_2  and  C2'_3 
REMARK    2  A    between atoms: C2'_3  and  C1'_4 
REMARK    3  A    between atoms: C1'_4  and  C1_5 
ROOT
ATOM      1  C1  N4B d   1       1.443   1.455  -0.416  0.00  0.00    -0.075 A 
ATOM      2  C2  N4B d   1       0.918   0.364  -1.143  0.00  0.00     0.002 A 
ATOM      3  C3  N4B d   1       0.850   0.420  -2.514  0.00  0.00     0.002 A 
ATOM      4  C4  N4B d   1       1.282   1.560  -3.175  0.00  0.00    -0.004 A 
ATOM      5  C5  N4B d   1       1.811   2.600  -2.468  0.00  0.00     0.002 A 
ATOM      6  C6  N4B d   1       1.889   2.555  -1.090  0.00  0.00     0.002 A 
ENDROOT
BRANCH   1   7
ATOM      7  C1' N4B d   1       1.457   1.474   1.088  0.00  0.00     0.057 C 
BRANCH   7   8
ATOM      8  C2' N4B d   1       0.607   2.641   1.582  0.00  0.00     0.009 C 
BRANCH   8   9
ATOM      9  C3' N4B d   1      -0.879   2.356   1.452  0.00  0.00     0.004 C 
ATOM     10  C4' N4B d   1      -1.646   2.692   2.696  0.00  0.00     0.003 C 
ENDBRANCH   8   9
ENDBRANCH   7   8
ENDBRANCH   1   7
TORSDOF 3
ENDMDL
