MODEL 1
REMARK minimizedAffinity 4.45869255
REMARK minimizedRMSD -1
REMARK  3 active torsions:
REMARK  status: ('A' for Active; 'I' for Inactive)
REMARK    1  A    between atoms: C3'_2  and  C2'_3 
REMARK    2  A    between atoms: C2'_3  and  C1'_4 
REMARK    3  A    between atoms: C1'_4  and  C1_5 
ROOT
ATOM      1  C1  N4B d   1       1.308   1.609  -0.958  0.00  0.00    -0.075 A 
ATOM      2  C2  N4B d   1       1.014   0.321  -1.456  0.00  0.00     0.002 A 
ATOM      3  C3  N4B d   1       1.011  -0.759  -0.608  0.00  0.00     0.002 A 
ATOM      4  C4  N4B d   1       1.316  -0.579   0.733  0.00  0.00    -0.004 A 
ATOM      5  C5  N4B d   1       1.574   0.672   1.211  0.00  0.00     0.002 A 
ATOM      6  C6  N4B d   1       1.576   1.767   0.371  0.00  0.00     0.002 A 
ENDROOT
BRANCH   1   7
ATOM      7  C1' N4B d   1       1.407   2.807  -1.862  0.00  0.00     0.057 C 
BRANCH   7   8
ATOM      8  C2' N4B d   1       2.552   3.698  -1.389  0.00  0.00     0.009 C 
BRANCH   8   9
ATOM      9  C3' N4B d   1       2.180   5.170  -1.430  0.00  0.00     0.004 C 
ATOM     10  C4' N4B d   1       2.974   5.997  -0.462  0.00  0.00     0.003 C 
ENDBRANCH   8   9
ENDBRANCH   7   8
ENDBRANCH   1   7
TORSDOF 3
ENDMDL
