MODEL 1
REMARK minimizedAffinity 8.49851704
REMARK minimizedRMSD -1
REMARK  1 active torsions:
REMARK  status: ('A' for Active; 'I' for Inactive)
REMARK    1  A    between atoms: C1_2  and  C2_3 
ROOT
ATOM      1  C2  UNL d   1      -1.207  -1.707   2.503  0.00  0.00    -0.081 A 
ATOM      2  C3  UNL d   1      -1.028  -0.342   2.248  0.00  0.00     0.006 A 
ATOM      3  C4  UNL d   1       0.219   0.257   2.442  0.00  0.00     0.002 A 
ATOM      4  C5  UNL d   1       1.309  -0.500   2.887  0.00  0.00    -0.080 A 
ATOM      5  C6  UNL d   1       2.660   0.124   3.070  0.00  0.00     0.076 C 
ATOM      6  C7  UNL d   1       1.125  -1.860   3.159  0.00  0.00     0.002 A 
ATOM      7  C8  UNL d   1      -0.122  -2.459   2.966  0.00  0.00     0.006 A 
ENDROOT
BRANCH   1   8
ATOM      8  C1  UNL d   1      -2.534  -2.369   2.233  0.00  0.00     0.054 C 
ATOM      9  C   UNL d   1      -3.693  -1.437   2.556  0.00  0.00     0.018 C 
ENDBRANCH   1   8
TORSDOF 1
ENDMDL
