MODEL 1
REMARK minimizedAffinity 3.81388092
REMARK minimizedRMSD -1
REMARK  1 active torsions:
REMARK  status: ('A' for Active; 'I' for Inactive)
REMARK    1  A    between atoms: C1_2  and  C2_3 
ROOT
ATOM      1  C2  UNL d   1       4.913   3.817   2.738  0.00  0.00    -0.081 A 
ATOM      2  C3  UNL d   1       4.216   3.252   1.663  0.00  0.00     0.006 A 
ATOM      3  C4  UNL d   1       4.062   3.961   0.469  0.00  0.00     0.002 A 
ATOM      4  C5  UNL d   1       4.609   5.241   0.327  0.00  0.00    -0.080 A 
ATOM      5  C6  UNL d   1       4.477   5.999  -0.960  0.00  0.00     0.076 C 
ATOM      6  C7  UNL d   1       5.290   5.812   1.407  0.00  0.00     0.002 A 
ATOM      7  C8  UNL d   1       5.444   5.104   2.602  0.00  0.00     0.006 A 
ENDROOT
BRANCH   1   8
ATOM      8  C1  UNL d   1       5.136   3.030   4.004  0.00  0.00     0.054 C 
ATOM      9  C   UNL d   1       5.998   1.802   3.748  0.00  0.00     0.018 C 
ENDBRANCH   1   8
TORSDOF 1
ENDMDL
