MODEL 1
REMARK minimizedAffinity 10.3875713
REMARK minimizedRMSD -1
REMARK  1 active torsions:
REMARK  status: ('A' for Active; 'I' for Inactive)
REMARK    1  A    between atoms: C1_2  and  C2_3 
ROOT
ATOM      1  C2  UNL d   1      -3.686   1.179   1.709  0.00  0.00    -0.081 A 
ATOM      2  C3  UNL d   1      -3.484  -0.160   2.067  0.00  0.00     0.006 A 
ATOM      3  C4  UNL d   1      -2.265  -0.571   2.611  0.00  0.00     0.002 A 
ATOM      4  C5  UNL d   1      -1.231   0.350   2.814  0.00  0.00    -0.080 A 
ATOM      5  C6  UNL d   1       0.071  -0.073   3.426  0.00  0.00     0.076 C 
ATOM      6  C7  UNL d   1      -1.427   1.684   2.440  0.00  0.00     0.002 A 
ATOM      7  C8  UNL d   1      -2.645   2.096   1.895  0.00  0.00     0.006 A 
ENDROOT
BRANCH   1   8
ATOM      8  C1  UNL d   1      -5.021   1.638   1.182  0.00  0.00     0.054 C 
ATOM      9  C   UNL d   1      -5.082   1.536  -0.336  0.00  0.00     0.018 C 
ENDBRANCH   1   8
TORSDOF 1
ENDMDL
