MODEL 1
REMARK minimizedAffinity 21.7878094
REMARK minimizedRMSD -1
REMARK  1 active torsions:
REMARK  status: ('A' for Active; 'I' for Inactive)
REMARK    1  A    between atoms: C1_2  and  C2_3 
ROOT
ATOM      1  C2  UNL d   1       4.180   3.206   4.670  0.00  0.00    -0.081 A 
ATOM      2  C3  UNL d   1       4.738   1.926   4.575  0.00  0.00     0.006 A 
ATOM      3  C4  UNL d   1       5.290   1.482   3.371  0.00  0.00     0.002 A 
ATOM      4  C5  UNL d   1       5.301   2.314   2.246  0.00  0.00    -0.080 A 
ATOM      5  C6  UNL d   1       5.919   1.861   0.956  0.00  0.00     0.076 C 
ATOM      6  C7  UNL d   1       4.728   3.587   2.336  0.00  0.00     0.002 A 
ATOM      7  C8  UNL d   1       4.175   4.030   3.539  0.00  0.00     0.006 A 
ENDROOT
BRANCH   1   8
ATOM      8  C1  UNL d   1       3.641   3.712   5.984  0.00  0.00     0.054 C 
ATOM      9  C   UNL d   1       2.119   3.700   6.000  0.00  0.00     0.018 C 
ENDBRANCH   1   8
TORSDOF 1
ENDMDL
