MODEL 1
REMARK minimizedAffinity 11.3413372
REMARK minimizedRMSD -1
REMARK  1 active torsions:
REMARK  status: ('A' for Active; 'I' for Inactive)
REMARK    1  A    between atoms: C1_2  and  C2_3 
ROOT
ATOM      1  C2  UNL d   1       1.785  -1.897  -4.606  0.00  0.00    -0.081 A 
ATOM      2  C3  UNL d   1       2.933  -1.279  -4.094  0.00  0.00     0.006 A 
ATOM      3  C4  UNL d   1       4.169  -1.928  -4.146  0.00  0.00     0.002 A 
ATOM      4  C5  UNL d   1       4.279  -3.201  -4.716  0.00  0.00    -0.080 A 
ATOM      5  C6  UNL d   1       5.605  -3.896  -4.805  0.00  0.00     0.076 C 
ATOM      6  C7  UNL d   1       3.130  -3.825  -5.212  0.00  0.00     0.002 A 
ATOM      7  C8  UNL d   1       1.894  -3.177  -5.160  0.00  0.00     0.006 A 
ENDROOT
BRANCH   1   8
ATOM      8  C1  UNL d   1       0.463  -1.173  -4.610  0.00  0.00     0.054 C 
ATOM      9  C   UNL d   1      -0.112  -1.063  -3.206  0.00  0.00     0.018 C 
ENDBRANCH   1   8
TORSDOF 1
ENDMDL
