MODEL 1
REMARK minimizedAffinity 22.4410572
REMARK minimizedRMSD -1
REMARK  1 active torsions:
REMARK  status: ('A' for Active; 'I' for Inactive)
REMARK    1  A    between atoms: C1_2  and  C2_3 
ROOT
ATOM      1  C2  UNL d   1      -1.432  -0.345   2.301  0.00  0.00    -0.081 A 
ATOM      2  C3  UNL d   1      -0.431  -1.029   1.601  0.00  0.00     0.006 A 
ATOM      3  C4  UNL d   1       0.835  -0.462   1.441  0.00  0.00     0.002 A 
ATOM      4  C5  UNL d   1       1.124   0.794   1.986  0.00  0.00    -0.080 A 
ATOM      5  C6  UNL d   1       2.489   1.402   1.848  0.00  0.00     0.076 C 
ATOM      6  C7  UNL d   1       0.119   1.485   2.670  0.00  0.00     0.002 A 
ATOM      7  C8  UNL d   1      -1.148   0.919   2.829  0.00  0.00     0.006 A 
ENDROOT
BRANCH   1   8
ATOM      8  C1  UNL d   1      -2.779  -0.982   2.530  0.00  0.00     0.054 C 
ATOM      9  C   UNL d   1      -3.157  -1.905   1.381  0.00  0.00     0.018 C 
ENDBRANCH   1   8
TORSDOF 1
ENDMDL
