MODEL 1
REMARK minimizedAffinity 14.4215336
REMARK minimizedRMSD -1
REMARK  2 active torsions:
REMARK  status: ('A' for Active; 'I' for Inactive)
REMARK    1  A    between atoms: C2'_3  and  C1'_4 
REMARK    2  A    between atoms: C1'_4  and  C1_5 
ROOT
ATOM      1  C1  I4B d   1       4.951  -4.340  -3.367  0.00  0.00    -0.075 A 
ATOM      2  C2  I4B d   1       3.724  -4.186  -2.771  0.00  0.00     0.003 A 
ATOM      3  C3  I4B d   1       3.256  -2.895  -2.425  0.00  0.00     0.002 A 
ATOM      4  C4  I4B d   1       4.063  -1.798  -2.645  0.00  0.00    -0.004 A 
ATOM      5  C5  I4B d   1       5.297  -1.953  -3.270  0.00  0.00     0.002 A 
ATOM      6  C6  I4B d   1       5.739  -3.230  -3.645  0.00  0.00     0.003 A 
ENDROOT
BRANCH   1   7
ATOM      7  C1' I4B d   1       5.428  -5.720  -3.690  0.00  0.00     0.060 C 
BRANCH   7   8
ATOM      8  C2' I4B d   1       5.122  -5.991  -5.149  0.00  0.00    -0.013 C 
ATOM      9  C4' I4B d   1       3.637  -5.998  -5.402  0.00  0.00     0.013 C 
ATOM     10  C3' I4B d   1       5.806  -4.938  -5.968  0.00  0.00     0.013 C 
ENDBRANCH   7   8
ENDBRANCH   1   7
TORSDOF 2
ENDMDL
