MODEL 1
REMARK minimizedAffinity 7.63627863
REMARK minimizedRMSD -1
REMARK  2 active torsions:
REMARK  status: ('A' for Active; 'I' for Inactive)
REMARK    1  A    between atoms: C2'_3  and  C1'_4 
REMARK    2  A    between atoms: C1'_4  and  C1_5 
ROOT
ATOM      1  C1  I4B d   1       5.587  -2.481  -4.406  0.00  0.00    -0.075 A 
ATOM      2  C2  I4B d   1       4.812  -1.722  -3.566  0.00  0.00     0.003 A 
ATOM      3  C3  I4B d   1       4.435  -0.408  -3.937  0.00  0.00     0.002 A 
ATOM      4  C4  I4B d   1       4.893   0.120  -5.126  0.00  0.00    -0.004 A 
ATOM      5  C5  I4B d   1       5.660  -0.659  -5.987  0.00  0.00     0.002 A 
ATOM      6  C6  I4B d   1       5.999  -1.973  -5.631  0.00  0.00     0.003 A 
ENDROOT
BRANCH   1   7
ATOM      7  C1' I4B d   1       5.994  -3.852  -3.968  0.00  0.00     0.060 C 
BRANCH   7   8
ATOM      8  C2' I4B d   1       5.189  -4.856  -4.768  0.00  0.00    -0.013 C 
ATOM      9  C4' I4B d   1       5.997  -5.421  -5.906  0.00  0.00     0.013 C 
ATOM     10  C3' I4B d   1       4.740  -5.939  -3.833  0.00  0.00     0.013 C 
ENDBRANCH   7   8
ENDBRANCH   1   7
TORSDOF 2
ENDMDL
