MODEL 1
REMARK minimizedAffinity 13.1233988
REMARK minimizedRMSD -1
REMARK  2 active torsions:
REMARK  status: ('A' for Active; 'I' for Inactive)
REMARK    1  A    between atoms: C2'_3  and  C1'_4 
REMARK    2  A    between atoms: C1'_4  and  C1_5 
ROOT
ATOM      1  C1  I4B d   1       4.065   5.656  -2.348  0.00  0.00    -0.075 A 
ATOM      2  C2  I4B d   1       3.326   5.307  -3.450  0.00  0.00     0.003 A 
ATOM      3  C3  I4B d   1       3.927   5.286  -4.733  0.00  0.00     0.002 A 
ATOM      4  C4  I4B d   1       5.245   5.668  -4.872  0.00  0.00    -0.004 A 
ATOM      5  C5  I4B d   1       5.999   6.000  -3.750  0.00  0.00     0.002 A 
ATOM      6  C6  I4B d   1       5.409   5.982  -2.478  0.00  0.00     0.003 A 
ENDROOT
BRANCH   1   7
ATOM      7  C1' I4B d   1       3.391   5.700  -1.013  0.00  0.00     0.060 C 
BRANCH   7   8
ATOM      8  C2' I4B d   1       2.527   4.462  -0.886  0.00  0.00    -0.013 C 
ATOM      9  C4' I4B d   1       2.620   3.871   0.496  0.00  0.00     0.013 C 
ATOM     10  C3' I4B d   1       1.115   4.846  -1.216  0.00  0.00     0.013 C 
ENDBRANCH   7   8
ENDBRANCH   1   7
TORSDOF 2
ENDMDL
