MODEL 1
REMARK minimizedAffinity 8.3796339
REMARK minimizedRMSD -1
REMARK  2 active torsions:
REMARK  status: ('A' for Active; 'I' for Inactive)
REMARK    1  A    between atoms: C2'_3  and  C1'_4 
REMARK    2  A    between atoms: C1'_4  and  C1_5 
ROOT
ATOM      1  C1  I4B d   1       3.795   5.877  -1.980  0.00  0.00    -0.075 A 
ATOM      2  C2  I4B d   1       5.155   5.975  -1.827  0.00  0.00     0.003 A 
ATOM      3  C3  I4B d   1       6.000   6.000  -2.963  0.00  0.00     0.002 A 
ATOM      4  C4  I4B d   1       5.449   5.873  -4.222  0.00  0.00    -0.004 A 
ATOM      5  C5  I4B d   1       4.068   5.796  -4.376  0.00  0.00     0.002 A 
ATOM      6  C6  I4B d   1       3.234   5.810  -3.249  0.00  0.00     0.003 A 
ENDROOT
BRANCH   1   7
ATOM      7  C1' I4B d   1       2.934   5.820  -0.757  0.00  0.00     0.060 C 
BRANCH   7   8
ATOM      8  C2' I4B d   1       2.125   4.541  -0.815  0.00  0.00    -0.013 C 
ATOM      9  C4' I4B d   1       2.189   3.796   0.493  0.00  0.00     0.013 C 
ATOM     10  C3' I4B d   1       0.711   4.903  -1.163  0.00  0.00     0.013 C 
ENDBRANCH   7   8
ENDBRANCH   1   7
TORSDOF 2
ENDMDL
