MODEL 1
REMARK minimizedAffinity 7.50101376
REMARK minimizedRMSD -1
REMARK  2 active torsions:
REMARK  status: ('A' for Active; 'I' for Inactive)
REMARK    1  A    between atoms: C2'_3  and  C1'_4 
REMARK    2  A    between atoms: C1'_4  and  C1_5 
ROOT
ATOM      1  C1  I4B d   1       3.803  -4.539   5.439  0.00  0.00    -0.075 A 
ATOM      2  C2  I4B d   1       5.026  -5.033   5.061  0.00  0.00     0.003 A 
ATOM      3  C3  I4B d   1       5.999  -4.171   4.499  0.00  0.00     0.002 A 
ATOM      4  C4  I4B d   1       5.690  -2.843   4.287  0.00  0.00    -0.004 A 
ATOM      5  C5  I4B d   1       4.458  -2.340   4.693  0.00  0.00     0.002 A 
ATOM      6  C6  I4B d   1       3.512  -3.190   5.284  0.00  0.00     0.003 A 
ENDROOT
BRANCH   1   7
ATOM      7  C1' I4B d   1       2.787  -5.483   6.000  0.00  0.00     0.060 C 
BRANCH   7   8
ATOM      8  C2' I4B d   1       1.419  -4.858   5.819  0.00  0.00    -0.013 C 
ATOM      9  C4' I4B d   1       1.293  -4.202   4.469  0.00  0.00     0.013 C 
ATOM     10  C3' I4B d   1       0.390  -5.935   5.996  0.00  0.00     0.013 C 
ENDBRANCH   7   8
ENDBRANCH   1   7
TORSDOF 2
ENDMDL
