MODEL 1
REMARK minimizedAffinity 13.4188452
REMARK minimizedRMSD -1
REMARK  2 active torsions:
REMARK  status: ('A' for Active; 'I' for Inactive)
REMARK    1  A    between atoms: C2'_3  and  C1'_4 
REMARK    2  A    between atoms: C1'_4  and  C1_5 
ROOT
ATOM      1  C1  I4B d   1      -5.207   2.554   0.425  0.00  0.00    -0.075 A 
ATOM      2  C2  I4B d   1      -3.836   2.551   0.348  0.00  0.00     0.003 A 
ATOM      3  C3  I4B d   1      -3.056   2.762   1.511  0.00  0.00     0.002 A 
ATOM      4  C4  I4B d   1      -3.684   3.022   2.712  0.00  0.00    -0.004 A 
ATOM      5  C5  I4B d   1      -5.073   3.002   2.793  0.00  0.00     0.002 A 
ATOM      6  C6  I4B d   1      -5.840   2.754   1.645  0.00  0.00     0.003 A 
ENDROOT
BRANCH   1   7
ATOM      7  C1' I4B d   1      -5.999   2.360  -0.828  0.00  0.00     0.060 C 
BRANCH   7   8
ATOM      8  C2' I4B d   1      -5.512   3.368  -1.850  0.00  0.00    -0.013 C 
ATOM      9  C4' I4B d   1      -5.996   3.019  -3.233  0.00  0.00     0.013 C 
ATOM     10  C3' I4B d   1      -5.999   4.723  -1.431  0.00  0.00     0.013 C 
ENDBRANCH   7   8
ENDBRANCH   1   7
TORSDOF 2
ENDMDL
