MODEL 1
REMARK minimizedAffinity -5.64853144
REMARK minimizedRMSD -1
REMARK  1 active torsions:
REMARK  status: ('A' for Active; 'I' for Inactive)
REMARK    1  A    between atoms: C1_2  and  C2_3 
ROOT
ATOM      1  C2  UNL d   1      -0.523   0.470   0.910  0.00  0.00    -0.073 A 
ATOM      2  C3  UNL d   1      -0.178   1.587   1.679  0.00  0.00    -0.002 A 
ATOM      3  C4  UNL d   1      -0.894   1.894   2.837  0.00  0.00     0.004 A 
ATOM      4  C5  UNL d   1      -1.956   1.084   3.241  0.00  0.00    -0.004 A 
ATOM      5  C6  UNL d   1      -2.308  -0.043   2.492  0.00  0.00    -0.075 A 
ATOM      6  C7  UNL d   1      -3.450  -0.922   2.911  0.00  0.00     0.076 C 
ATOM      7  C8  UNL d   1      -1.586  -0.343   1.329  0.00  0.00     0.001 A 
ENDROOT
BRANCH   1   8
ATOM      8  C1  UNL d   1       0.252   0.131  -0.338  0.00  0.00     0.053 C 
ATOM      9  C   UNL d   1       0.988  -1.193  -0.209  0.00  0.00     0.018 C 
ENDBRANCH   1   8
TORSDOF 1
ENDMDL
