MODEL 1
REMARK minimizedAffinity -3.60894966
REMARK minimizedRMSD -1
REMARK  1 active torsions:
REMARK  status: ('A' for Active; 'I' for Inactive)
REMARK    1  A    between atoms: C1_2  and  C2_3 
ROOT
ATOM      1  C2  UNL d   1      -0.336   0.045  -0.189  0.00  0.00    -0.073 A 
ATOM      2  C3  UNL d   1       0.249  -1.183   0.139  0.00  0.00    -0.002 A 
ATOM      3  C4  UNL d   1       1.307  -1.686  -0.619  0.00  0.00     0.004 A 
ATOM      4  C5  UNL d   1       1.795  -0.963  -1.708  0.00  0.00    -0.004 A 
ATOM      5  C6  UNL d   1       1.232   0.272  -2.045  0.00  0.00    -0.075 A 
ATOM      6  C7  UNL d   1       1.745   1.060  -3.214  0.00  0.00     0.076 C 
ATOM      7  C8  UNL d   1       0.168   0.768  -1.280  0.00  0.00     0.001 A 
ENDROOT
BRANCH   1   8
ATOM      8  C1  UNL d   1      -1.474   0.595   0.631  0.00  0.00     0.053 C 
ATOM      9  C   UNL d   1      -1.260   0.378   2.121  0.00  0.00     0.018 C 
ENDBRANCH   1   8
TORSDOF 1
ENDMDL
