MODEL 1
REMARK minimizedAffinity -3.34572554
REMARK minimizedRMSD -1
REMARK  1 active torsions:
REMARK  status: ('A' for Active; 'I' for Inactive)
REMARK    1  A    between atoms: C1_2  and  C2_3 
ROOT
ATOM      1  C2  UNL d   1       1.482  -0.072  -1.777  0.00  0.00    -0.073 A 
ATOM      2  C3  UNL d   1       1.824  -1.400  -1.495  0.00  0.00    -0.002 A 
ATOM      3  C4  UNL d   1       1.215  -2.076  -0.438  0.00  0.00     0.004 A 
ATOM      4  C5  UNL d   1       0.253  -1.436   0.344  0.00  0.00    -0.004 A 
ATOM      5  C6  UNL d   1      -0.111  -0.113   0.071  0.00  0.00    -0.075 A 
ATOM      6  C7  UNL d   1      -1.142   0.591   0.904  0.00  0.00     0.076 C 
ATOM      7  C8  UNL d   1       0.508   0.560  -0.991  0.00  0.00     0.001 A 
ENDROOT
BRANCH   1   8
ATOM      8  C1  UNL d   1       2.133   0.660  -2.922  0.00  0.00     0.053 C 
ATOM      9  C   UNL d   1       1.454   1.990  -3.207  0.00  0.00     0.018 C 
ENDBRANCH   1   8
TORSDOF 1
ENDMDL
