MODEL 1
REMARK minimizedAffinity -3.75036788
REMARK minimizedRMSD -1
REMARK  1 active torsions:
REMARK  status: ('A' for Active; 'I' for Inactive)
REMARK    1  A    between atoms: C1_2  and  C2_3 
ROOT
ATOM      1  C2  UNL d   1      -0.992  -0.022   0.763  0.00  0.00    -0.073 A 
ATOM      2  C3  UNL d   1      -1.216   1.137   0.011  0.00  0.00    -0.002 A 
ATOM      3  C4  UNL d   1      -0.335   1.497  -1.009  0.00  0.00     0.004 A 
ATOM      4  C5  UNL d   1       0.775   0.700  -1.292  0.00  0.00    -0.004 A 
ATOM      5  C6  UNL d   1       1.009  -0.469  -0.560  0.00  0.00    -0.075 A 
ATOM      6  C7  UNL d   1       2.199  -1.336  -0.850  0.00  0.00     0.076 C 
ATOM      7  C8  UNL d   1       0.120  -0.822   0.465  0.00  0.00     0.001 A 
ENDROOT
BRANCH   1   8
ATOM      8  C1  UNL d   1      -1.945  -0.419   1.860  0.00  0.00     0.053 C 
ATOM      9  C   UNL d   1      -1.886   0.539   3.040  0.00  0.00     0.018 C 
ENDBRANCH   1   8
TORSDOF 1
ENDMDL
