MODEL 1
REMARK minimizedAffinity -2.50277686
REMARK minimizedRMSD -1
REMARK  1 active torsions:
REMARK  status: ('A' for Active; 'I' for Inactive)
REMARK    1  A    between atoms: C1_2  and  C2_3 
ROOT
ATOM      1  C2  UNL d   1      -0.098   0.016   0.811  0.00  0.00    -0.073 A 
ATOM      2  C3  UNL d   1       0.149  -1.281   1.274  0.00  0.00    -0.002 A 
ATOM      3  C4  UNL d   1       0.817  -2.203   0.467  0.00  0.00     0.004 A 
ATOM      4  C5  UNL d   1       1.250  -1.835  -0.807  0.00  0.00    -0.004 A 
ATOM      5  C6  UNL d   1       1.023  -0.540  -1.283  0.00  0.00    -0.075 A 
ATOM      6  C7  UNL d   1       1.481  -0.130  -2.652  0.00  0.00     0.076 C 
ATOM      7  C8  UNL d   1       0.349   0.379  -0.467  0.00  0.00     0.001 A 
ENDROOT
BRANCH   1   8
ATOM      8  C1  UNL d   1      -0.814   1.017   1.682  0.00  0.00     0.053 C 
ATOM      9  C   UNL d   1      -2.034   0.414   2.359  0.00  0.00     0.018 C 
ENDBRANCH   1   8
TORSDOF 1
ENDMDL
