MODEL 1
REMARK minimizedAffinity -0.15231216
REMARK minimizedRMSD -1
REMARK  1 active torsions:
REMARK  status: ('A' for Active; 'I' for Inactive)
REMARK    1  A    between atoms: C1_2  and  C2_3 
ROOT
ATOM      1  C2  UNL d   1      -0.908   0.606   1.841  0.00  0.00    -0.073 A 
ATOM      2  C3  UNL d   1      -1.805   1.099   0.887  0.00  0.00    -0.002 A 
ATOM      3  C4  UNL d   1      -1.771   0.623  -0.425  0.00  0.00     0.004 A 
ATOM      4  C5  UNL d   1      -0.846  -0.355  -0.793  0.00  0.00    -0.004 A 
ATOM      5  C6  UNL d   1       0.050  -0.869   0.150  0.00  0.00    -0.075 A 
ATOM      6  C7  UNL d   1       1.051  -1.919  -0.230  0.00  0.00     0.076 C 
ATOM      7  C8  UNL d   1       0.011  -0.383   1.464  0.00  0.00     0.001 A 
ENDROOT
BRANCH   1   8
ATOM      8  C1  UNL d   1      -0.945   1.113   3.260  0.00  0.00     0.053 C 
ATOM      9  C   UNL d   1      -1.957   2.234   3.439  0.00  0.00     0.018 C 
ENDBRANCH   1   8
TORSDOF 1
ENDMDL
