MODEL 1
REMARK minimizedAffinity -4.36064816
REMARK minimizedRMSD -1
REMARK  1 active torsions:
REMARK  status: ('A' for Active; 'I' for Inactive)
REMARK    1  A    between atoms: C1_2  and  C2_3 
ROOT
ATOM      1  C2  UNL d   1      -0.736  -0.026   1.498  0.00  0.00    -0.073 A 
ATOM      2  C3  UNL d   1      -0.380  -0.260   2.831  0.00  0.00    -0.002 A 
ATOM      3  C4  UNL d   1      -0.953   0.494   3.856  0.00  0.00     0.004 A 
ATOM      4  C5  UNL d   1      -1.891   1.483   3.560  0.00  0.00    -0.004 A 
ATOM      5  C6  UNL d   1      -2.268   1.723   2.235  0.00  0.00    -0.075 A 
ATOM      6  C7  UNL d   1      -3.274   2.785   1.900  0.00  0.00     0.076 C 
ATOM      7  C8  UNL d   1      -1.687   0.964   1.211  0.00  0.00     0.001 A 
ENDROOT
BRANCH   1   8
ATOM      8  C1  UNL d   1      -0.125  -0.842   0.388  0.00  0.00     0.053 C 
ATOM      9  C   UNL d   1       0.372   0.030  -0.754  0.00  0.00     0.018 C 
ENDBRANCH   1   8
TORSDOF 1
ENDMDL
