MODEL 1
REMARK minimizedAffinity 0.113170967
REMARK minimizedRMSD -1
REMARK  1 active torsions:
REMARK  status: ('A' for Active; 'I' for Inactive)
REMARK    1  A    between atoms: C1_2  and  C2_3 
ROOT
ATOM      1  C2  UNL d   1       1.370   0.077  -2.287  0.00  0.00    -0.073 A 
ATOM      2  C3  UNL d   1       2.397  -0.870  -2.360  0.00  0.00    -0.002 A 
ATOM      3  C4  UNL d   1       2.484  -1.890  -1.411  0.00  0.00     0.004 A 
ATOM      4  C5  UNL d   1       1.543  -1.976  -0.385  0.00  0.00    -0.004 A 
ATOM      5  C6  UNL d   1       0.502  -1.045  -0.303  0.00  0.00    -0.075 A 
ATOM      6  C7  UNL d   1      -0.517  -1.123   0.795  0.00  0.00     0.076 C 
ATOM      7  C8  UNL d   1       0.423  -0.023  -1.258  0.00  0.00     0.001 A 
ENDROOT
BRANCH   1   8
ATOM      8  C1  UNL d   1       1.269   1.176  -3.314  0.00  0.00     0.053 C 
ATOM      9  C   UNL d   1       1.579   0.677  -4.716  0.00  0.00     0.018 C 
ENDBRANCH   1   8
TORSDOF 1
ENDMDL
