MODEL 1
REMARK minimizedAffinity -2.4883852
REMARK minimizedRMSD -1
REMARK  1 active torsions:
REMARK  status: ('A' for Active; 'I' for Inactive)
REMARK    1  A    between atoms: C1_2  and  C2_3 
ROOT
ATOM      1  C2  UNL d   1      -1.188   0.457   0.927  0.00  0.00    -0.073 A 
ATOM      2  C3  UNL d   1      -0.871   1.581   1.697  0.00  0.00    -0.002 A 
ATOM      3  C4  UNL d   1      -1.570   1.849   2.875  0.00  0.00     0.004 A 
ATOM      4  C5  UNL d   1      -2.587   0.993   3.297  0.00  0.00    -0.004 A 
ATOM      5  C6  UNL d   1      -2.911  -0.142   2.548  0.00  0.00    -0.075 A 
ATOM      6  C7  UNL d   1      -4.004  -1.072   2.987  0.00  0.00     0.076 C 
ATOM      7  C8  UNL d   1      -2.206  -0.403   1.365  0.00  0.00     0.001 A 
ENDROOT
BRANCH   1   8
ATOM      8  C1  UNL d   1      -0.431   0.160  -0.342  0.00  0.00     0.053 C 
ATOM      9  C   UNL d   1       0.262  -1.192  -0.289  0.00  0.00     0.018 C 
ENDBRANCH   1   8
TORSDOF 1
ENDMDL
