MODEL 1
REMARK minimizedAffinity -5.32759762
REMARK minimizedRMSD -1
REMARK  1 active torsions:
REMARK  status: ('A' for Active; 'I' for Inactive)
REMARK    1  A    between atoms: C1_2  and  C2_3 
ROOT
ATOM      1  C2  UNL d   1       1.171  -0.090  -1.424  0.00  0.00    -0.073 A 
ATOM      2  C3  UNL d   1       1.678  -1.380  -1.236  0.00  0.00    -0.002 A 
ATOM      3  C4  UNL d   1       1.177  -2.193  -0.218  0.00  0.00     0.004 A 
ATOM      4  C5  UNL d   1       0.160  -1.728   0.615  0.00  0.00    -0.004 A 
ATOM      5  C6  UNL d   1      -0.369  -0.445   0.435  0.00  0.00    -0.075 A 
ATOM      6  C7  UNL d   1      -1.462   0.071   1.324  0.00  0.00     0.076 C 
ATOM      7  C8  UNL d   1       0.142   0.366  -0.588  0.00  0.00     0.001 A 
ENDROOT
BRANCH   1   8
ATOM      8  C1  UNL d   1       1.704   0.789  -2.526  0.00  0.00     0.053 C 
ATOM      9  C   UNL d   1       0.925   2.089  -2.646  0.00  0.00     0.018 C 
ENDBRANCH   1   8
TORSDOF 1
ENDMDL
