MODEL 1
REMARK minimizedAffinity 1.29416394
REMARK minimizedRMSD -1
REMARK  1 active torsions:
REMARK  status: ('A' for Active; 'I' for Inactive)
REMARK    1  A    between atoms: C1_2  and  C2_3 
ROOT
ATOM      1  C2  UNL d   1      -0.624  -0.028   0.846  0.00  0.00    -0.073 A 
ATOM      2  C3  UNL d   1      -1.629   0.683   0.180  0.00  0.00    -0.002 A 
ATOM      3  C4  UNL d   1      -2.589   1.390   0.904  0.00  0.00     0.004 A 
ATOM      4  C5  UNL d   1      -2.551   1.400   2.298  0.00  0.00    -0.004 A 
ATOM      5  C6  UNL d   1      -1.548   0.705   2.981  0.00  0.00    -0.075 A 
ATOM      6  C7  UNL d   1      -1.494   0.704   4.481  0.00  0.00     0.076 C 
ATOM      7  C8  UNL d   1      -0.589  -0.005   2.247  0.00  0.00     0.001 A 
ENDROOT
BRANCH   1   8
ATOM      8  C1  UNL d   1       0.419  -0.789   0.068  0.00  0.00     0.053 C 
ATOM      9  C   UNL d   1       1.146   0.099  -0.930  0.00  0.00     0.018 C 
ENDBRANCH   1   8
TORSDOF 1
ENDMDL
