MODEL 1
REMARK minimizedAffinity -1.99577391
REMARK minimizedRMSD -1
REMARK  1 active torsions:
REMARK  status: ('A' for Active; 'I' for Inactive)
REMARK    1  A    between atoms: C1_2  and  C2_3 
ROOT
ATOM      1  C2  UNL d   1       1.080   0.156  -1.859  0.00  0.00    -0.073 A 
ATOM      2  C3  UNL d   1       1.573  -1.148  -1.736  0.00  0.00    -0.002 A 
ATOM      3  C4  UNL d   1       1.276  -1.909  -0.605  0.00  0.00     0.004 A 
ATOM      4  C5  UNL d   1       0.479  -1.379   0.409  0.00  0.00    -0.004 A 
ATOM      5  C6  UNL d   1      -0.033  -0.082   0.299  0.00  0.00    -0.075 A 
ATOM      6  C7  UNL d   1      -0.891   0.504   1.382  0.00  0.00     0.076 C 
ATOM      7  C8  UNL d   1       0.271   0.678  -0.839  0.00  0.00     0.001 A 
ENDROOT
BRANCH   1   8
ATOM      8  C1  UNL d   1       1.392   0.980  -3.082  0.00  0.00     0.053 C 
ATOM      9  C   UNL d   1       1.135   2.461  -2.852  0.00  0.00     0.018 C 
ENDBRANCH   1   8
TORSDOF 1
ENDMDL
