MODEL 1
REMARK minimizedAffinity -3.35660934
REMARK minimizedRMSD -1
REMARK  1 active torsions:
REMARK  status: ('A' for Active; 'I' for Inactive)
REMARK    1  A    between atoms: C3_4  and  O_7 
ROOT
ATOM      1  C   UNL d   1      -0.076  -0.936  -0.123  0.00  0.00    -0.033 A 
ATOM      2  C1  UNL d   1       0.573   0.161  -0.692  0.00  0.00     0.039 A 
ATOM      3  C2  UNL d   1       0.392   1.437  -0.155  0.00  0.00    -0.080 A 
ATOM      4  C3  UNL d   1      -0.438   1.602   0.950  0.00  0.00     0.150 A 
ATOM      5  C4  UNL d   1      -1.085   0.513   1.525  0.00  0.00    -0.007 A 
ATOM      6  C5  UNL d   1      -0.904  -0.761   0.987  0.00  0.00     0.039 A 
ENDROOT
BRANCH   4   7
ATOM      7  O   UNL d   1      -0.649   2.829   1.506  0.00  0.00    -0.526 OA
ATOM      8  H5  UNL d   1      -0.161   3.490   0.987  0.00  0.00     0.418 HD
ENDBRANCH   4   7
TORSDOF 1
ENDMDL
