MODEL 1
REMARK minimizedAffinity -4.65667152
REMARK minimizedRMSD -1
REMARK  1 active torsions:
REMARK  status: ('A' for Active; 'I' for Inactive)
REMARK    1  A    between atoms: C3_4  and  O_7 
ROOT
ATOM      1  C   UNL d   1       1.780   0.048   0.348  0.00  0.00    -0.033 A 
ATOM      2  C1  UNL d   1       0.411   0.103   0.078  0.00  0.00     0.039 A 
ATOM      3  C2  UNL d   1      -0.205   1.332  -0.164  0.00  0.00    -0.080 A 
ATOM      4  C3  UNL d   1       0.557   2.497  -0.134  0.00  0.00     0.150 A 
ATOM      5  C4  UNL d   1       1.922   2.449   0.131  0.00  0.00    -0.007 A 
ATOM      6  C5  UNL d   1       2.536   1.221   0.373  0.00  0.00     0.039 A 
ENDROOT
BRANCH   4   7
ATOM      7  O   UNL d   1      -0.001   3.720  -0.359  0.00  0.00    -0.526 OA
ATOM      8  H5  UNL d   1      -0.956   3.601  -0.499  0.00  0.00     0.418 HD
ENDBRANCH   4   7
TORSDOF 1
ENDMDL
