MODEL 1
REMARK minimizedAffinity -4.49018812
REMARK minimizedRMSD -1
REMARK  1 active torsions:
REMARK  status: ('A' for Active; 'I' for Inactive)
REMARK    1  A    between atoms: C3_4  and  O_7 
ROOT
ATOM      1  C   UNL d   1      -0.521  -0.606   0.545  0.00  0.00    -0.033 A 
ATOM      2  C1  UNL d   1      -1.527   0.290   0.914  0.00  0.00     0.039 A 
ATOM      3  C2  UNL d   1      -1.475   1.616   0.480  0.00  0.00    -0.080 A 
ATOM      4  C3  UNL d   1      -0.416   2.033  -0.322  0.00  0.00     0.150 A 
ATOM      5  C4  UNL d   1       0.587   1.144  -0.695  0.00  0.00    -0.007 A 
ATOM      6  C5  UNL d   1       0.535  -0.179  -0.260  0.00  0.00     0.039 A 
ENDROOT
BRANCH   4   7
ATOM      7  O   UNL d   1      -0.320   3.318  -0.766  0.00  0.00    -0.526 OA
ATOM      8  H5  UNL d   1      -1.067   3.825  -0.405  0.00  0.00     0.418 HD
ENDBRANCH   4   7
TORSDOF 1
ENDMDL
