MODEL 1
REMARK minimizedAffinity -4.03189898
REMARK minimizedRMSD -1
REMARK  1 active torsions:
REMARK  status: ('A' for Active; 'I' for Inactive)
REMARK    1  A    between atoms: C3_4  and  O_7 
ROOT
ATOM      1  C   UNL d   1      -0.129   2.630   0.375  0.00  0.00    -0.033 A 
ATOM      2  C1  UNL d   1      -1.123   1.849   0.967  0.00  0.00     0.039 A 
ATOM      3  C2  UNL d   1      -1.189   0.480   0.702  0.00  0.00    -0.080 A 
ATOM      4  C3  UNL d   1      -0.254  -0.096  -0.155  0.00  0.00     0.150 A 
ATOM      5  C4  UNL d   1       0.742   0.676  -0.745  0.00  0.00    -0.007 A 
ATOM      6  C5  UNL d   1       0.805   2.043  -0.479  0.00  0.00     0.039 A 
ENDROOT
BRANCH   4   7
ATOM      7  O   UNL d   1      -0.281  -1.427  -0.448  0.00  0.00    -0.526 OA
ATOM      8  H5  UNL d   1      -1.040  -1.827   0.008  0.00  0.00     0.418 HD
ENDBRANCH   4   7
TORSDOF 1
ENDMDL
