MODEL 1
REMARK minimizedAffinity -5.20282698
REMARK minimizedRMSD -1
REMARK  1 active torsions:
REMARK  status: ('A' for Active; 'I' for Inactive)
REMARK    1  A    between atoms: C3_4  and  O_7 
ROOT
ATOM      1  C   UNL d   1       0.114   2.848   0.384  0.00  0.00    -0.033 A 
ATOM      2  C1  UNL d   1      -1.036   2.104   0.653  0.00  0.00     0.039 A 
ATOM      3  C2  UNL d   1      -1.060   0.732   0.393  0.00  0.00    -0.080 A 
ATOM      4  C3  UNL d   1       0.072   0.117  -0.135  0.00  0.00     0.150 A 
ATOM      5  C4  UNL d   1       1.223   0.851  -0.402  0.00  0.00    -0.007 A 
ATOM      6  C5  UNL d   1       1.244   2.221  -0.142  0.00  0.00     0.039 A 
ENDROOT
BRANCH   4   7
ATOM      7  O   UNL d   1       0.095  -1.218  -0.410  0.00  0.00    -0.526 OA
ATOM      8  H5  UNL d   1      -0.778  -1.590  -0.202  0.00  0.00     0.418 HD
ENDBRANCH   4   7
TORSDOF 1
ENDMDL
