MODEL 1
REMARK minimizedAffinity -4.42354679
REMARK minimizedRMSD -1
REMARK  1 active torsions:
REMARK  status: ('A' for Active; 'I' for Inactive)
REMARK    1  A    between atoms: C3_4  and  O_7 
ROOT
ATOM      1  C   UNL d   1      -0.160   0.091   0.371  0.00  0.00    -0.033 A 
ATOM      2  C1  UNL d   1       0.757   0.541  -0.582  0.00  0.00     0.039 A 
ATOM      3  C2  UNL d   1       0.907   1.909  -0.817  0.00  0.00    -0.080 A 
ATOM      4  C3  UNL d   1       0.137   2.815  -0.093  0.00  0.00     0.150 A 
ATOM      5  C4  UNL d   1      -0.775   2.374   0.861  0.00  0.00    -0.007 A 
ATOM      6  C5  UNL d   1      -0.924   1.007   1.093  0.00  0.00     0.039 A 
ENDROOT
BRANCH   4   7
ATOM      7  O   UNL d   1       0.245   4.160  -0.290  0.00  0.00    -0.526 OA
ATOM      8  H5  UNL d   1       0.893   4.316  -0.998  0.00  0.00     0.418 HD
ENDBRANCH   4   7
TORSDOF 1
ENDMDL
