MODEL 1
REMARK minimizedAffinity -3.99570918
REMARK minimizedRMSD -1
REMARK  1 active torsions:
REMARK  status: ('A' for Active; 'I' for Inactive)
REMARK    1  A    between atoms: C3_4  and  O_7 
ROOT
ATOM      1  C   UNL d   1       0.541   2.754   0.526  0.00  0.00    -0.033 A 
ATOM      2  C1  UNL d   1       1.675   1.947   0.410  0.00  0.00     0.039 A 
ATOM      3  C2  UNL d   1       1.539   0.562   0.294  0.00  0.00    -0.080 A 
ATOM      4  C3  UNL d   1       0.267  -0.002   0.293  0.00  0.00     0.150 A 
ATOM      5  C4  UNL d   1      -0.867   0.796   0.404  0.00  0.00    -0.007 A 
ATOM      6  C5  UNL d   1      -0.730   2.179   0.521  0.00  0.00     0.039 A 
ENDROOT
BRANCH   4   7
ATOM      7  O   UNL d   1       0.085  -1.349   0.186  0.00  0.00    -0.526 OA
ATOM      8  H5  UNL d   1       0.957  -1.775   0.146  0.00  0.00     0.418 HD
ENDBRANCH   4   7
TORSDOF 1
ENDMDL
