MODEL 1
REMARK minimizedAffinity -2.48111606
REMARK minimizedRMSD -1
REMARK  1 active torsions:
REMARK  status: ('A' for Active; 'I' for Inactive)
REMARK    1  A    between atoms: C3_4  and  O_7 
ROOT
ATOM      1  C   UNL d   1       1.855   3.145   0.744  0.00  0.00    -0.033 A 
ATOM      2  C1  UNL d   1       2.636   2.006   0.538  0.00  0.00     0.039 A 
ATOM      3  C2  UNL d   1       2.029   0.786   0.236  0.00  0.00    -0.080 A 
ATOM      4  C3  UNL d   1       0.642   0.718   0.142  0.00  0.00     0.150 A 
ATOM      5  C4  UNL d   1      -0.143   1.849   0.342  0.00  0.00    -0.007 A 
ATOM      6  C5  UNL d   1       0.465   3.067   0.644  0.00  0.00     0.039 A 
ENDROOT
BRANCH   4   7
ATOM      7  O   UNL d   1       0.003  -0.452  -0.145  0.00  0.00    -0.526 OA
ATOM      8  H5  UNL d   1       0.670  -1.154  -0.229  0.00  0.00     0.418 HD
ENDBRANCH   4   7
TORSDOF 1
ENDMDL
