MODEL 1
REMARK minimizedAffinity -4.11031437
REMARK minimizedRMSD -1
REMARK  1 active torsions:
REMARK  status: ('A' for Active; 'I' for Inactive)
REMARK    1  A    between atoms: C3_4  and  O_7 
ROOT
ATOM      1  C   UNL d   1       0.281   2.656   0.384  0.00  0.00    -0.033 A 
ATOM      2  C1  UNL d   1      -0.954   2.043   0.606  0.00  0.00     0.039 A 
ATOM      3  C2  UNL d   1      -1.096   0.667   0.418  0.00  0.00    -0.080 A 
ATOM      4  C3  UNL d   1       0.003  -0.084   0.009  0.00  0.00     0.150 A 
ATOM      5  C4  UNL d   1       1.237   0.520  -0.210  0.00  0.00    -0.007 A 
ATOM      6  C5  UNL d   1       1.376   1.894  -0.022  0.00  0.00     0.039 A 
ENDROOT
BRANCH   4   7
ATOM      7  O   UNL d   1      -0.089  -1.429  -0.192  0.00  0.00    -0.526 OA
ATOM      8  H5  UNL d   1      -1.007  -1.703  -0.030  0.00  0.00     0.418 HD
ENDBRANCH   4   7
TORSDOF 1
ENDMDL
