MODEL 1
REMARK minimizedAffinity -3.55277538
REMARK minimizedRMSD -1
REMARK  1 active torsions:
REMARK  status: ('A' for Active; 'I' for Inactive)
REMARK    1  A    between atoms: C3_4  and  O_7 
ROOT
ATOM      1  C   UNL d   1       0.185   2.575   0.334  0.00  0.00    -0.033 A 
ATOM      2  C1  UNL d   1       1.031   1.929  -0.570  0.00  0.00     0.039 A 
ATOM      3  C2  UNL d   1       0.893   0.560  -0.803  0.00  0.00    -0.080 A 
ATOM      4  C3  UNL d   1      -0.095  -0.152  -0.129  0.00  0.00     0.150 A 
ATOM      5  C4  UNL d   1      -0.944   0.485   0.770  0.00  0.00    -0.007 A 
ATOM      6  C5  UNL d   1      -0.804   1.853   1.003  0.00  0.00     0.039 A 
ENDROOT
BRANCH   4   7
ATOM      7  O   UNL d   1      -0.266  -1.491  -0.320  0.00  0.00    -0.526 OA
ATOM      8  H5  UNL d   1       0.410  -1.801  -0.946  0.00  0.00     0.418 HD
ENDBRANCH   4   7
TORSDOF 1
ENDMDL
