MODEL 1
REMARK minimizedAffinity -0.848291278
REMARK minimizedRMSD -1
REMARK  1 active torsions:
REMARK  status: ('A' for Active; 'I' for Inactive)
REMARK    1  A    between atoms: C3_4  and  O_7 
ROOT
ATOM      1  C   UNL d   1      -1.129   2.145   0.849  0.00  0.00    -0.033 A 
ATOM      2  C1  UNL d   1      -1.222   0.755   0.754  0.00  0.00     0.039 A 
ATOM      3  C2  UNL d   1      -0.062  -0.021   0.694  0.00  0.00    -0.080 A 
ATOM      4  C3  UNL d   1       1.181   0.604   0.730  0.00  0.00     0.150 A 
ATOM      5  C4  UNL d   1       1.281   1.988   0.829  0.00  0.00    -0.007 A 
ATOM      6  C5  UNL d   1       0.122   2.761   0.888  0.00  0.00     0.039 A 
ENDROOT
BRANCH   4   7
ATOM      7  O   UNL d   1       2.340  -0.111   0.670  0.00  0.00    -0.526 OA
ATOM      8  H5  UNL d   1       2.116  -1.052   0.575  0.00  0.00     0.418 HD
ENDBRANCH   4   7
TORSDOF 1
ENDMDL
