MODEL 1
REMARK minimizedAffinity -4.60463762
REMARK minimizedRMSD -1
REMARK  1 active torsions:
REMARK  status: ('A' for Active; 'I' for Inactive)
REMARK    1  A    between atoms: C3_4  and  O_7 
ROOT
ATOM      1  C   UNL d   1      -0.252  -0.161   0.351  0.00  0.00    -0.033 A 
ATOM      2  C1  UNL d   1      -0.566   0.801   1.312  0.00  0.00     0.039 A 
ATOM      3  C2  UNL d   1      -0.461   2.159   1.003  0.00  0.00    -0.080 A 
ATOM      4  C3  UNL d   1      -0.044   2.540  -0.269  0.00  0.00     0.150 A 
ATOM      5  C4  UNL d   1       0.266   1.586  -1.233  0.00  0.00    -0.007 A 
ATOM      6  C5  UNL d   1       0.163   0.231  -0.922  0.00  0.00     0.039 A 
ENDROOT
BRANCH   4   7
ATOM      7  O   UNL d   1       0.078   3.853  -0.616  0.00  0.00    -0.526 OA
ATOM      8  H5  UNL d   1      -0.142   4.397   0.158  0.00  0.00     0.418 HD
ENDBRANCH   4   7
TORSDOF 1
ENDMDL
