MODEL 1
REMARK minimizedAffinity -4.45457077
REMARK minimizedRMSD -1
REMARK  1 active torsions:
REMARK  status: ('A' for Active; 'I' for Inactive)
REMARK    1  A    between atoms: C3_4  and  O_7 
ROOT
ATOM      1  C   UNL d   1      -0.486   1.009  -0.594  0.00  0.00    -0.033 A 
ATOM      2  C1  UNL d   1       0.536   1.958  -0.666  0.00  0.00     0.039 A 
ATOM      3  C2  UNL d   1       1.803   1.661  -0.161  0.00  0.00    -0.080 A 
ATOM      4  C3  UNL d   1       2.035   0.413   0.410  0.00  0.00     0.150 A 
ATOM      5  C4  UNL d   1       1.023  -0.539   0.481  0.00  0.00    -0.007 A 
ATOM      6  C5  UNL d   1      -0.242  -0.240  -0.022  0.00  0.00     0.039 A 
ENDROOT
BRANCH   4   7
ATOM      7  O   UNL d   1       3.255   0.078   0.920  0.00  0.00    -0.526 OA
ATOM      8  H5  UNL d   1       3.847   0.843   0.828  0.00  0.00     0.418 HD
ENDBRANCH   4   7
TORSDOF 1
ENDMDL
