MODEL 1
REMARK minimizedAffinity 0.471149087
REMARK minimizedRMSD -1
REMARK  1 active torsions:
REMARK  status: ('A' for Active; 'I' for Inactive)
REMARK    1  A    between atoms: C3_4  and  O_7 
ROOT
ATOM      1  C   UNL d   1       2.570   1.289  -0.921  0.00  0.00    -0.033 A 
ATOM      2  C1  UNL d   1       2.846   0.151  -0.160  0.00  0.00     0.039 A 
ATOM      3  C2  UNL d   1       1.810  -0.703   0.222  0.00  0.00    -0.080 A 
ATOM      4  C3  UNL d   1       0.505  -0.410  -0.164  0.00  0.00     0.150 A 
ATOM      5  C4  UNL d   1       0.224   0.719  -0.926  0.00  0.00    -0.007 A 
ATOM      6  C5  UNL d   1       1.260   1.572  -1.305  0.00  0.00     0.039 A 
ENDROOT
BRANCH   4   7
ATOM      7  O   UNL d   1      -0.540  -1.212   0.189  0.00  0.00    -0.526 OA
ATOM      8  H5  UNL d   1      -0.199  -1.938   0.737  0.00  0.00     0.418 HD
ENDBRANCH   4   7
TORSDOF 1
ENDMDL
