MODEL 1
REMARK minimizedAffinity -5.05854416
REMARK minimizedRMSD -1
REMARK  1 active torsions:
REMARK  status: ('A' for Active; 'I' for Inactive)
REMARK    1  A    between atoms: C3_4  and  O_7 
ROOT
ATOM      1  C   UNL d   1      -0.307  -0.167   0.106  0.00  0.00    -0.033 A 
ATOM      2  C1  UNL d   1      -1.217   0.694   0.723  0.00  0.00     0.039 A 
ATOM      3  C2  UNL d   1      -1.037   2.076   0.643  0.00  0.00    -0.080 A 
ATOM      4  C3  UNL d   1       0.055   2.584  -0.055  0.00  0.00     0.150 A 
ATOM      5  C4  UNL d   1       0.964   1.732  -0.675  0.00  0.00    -0.007 A 
ATOM      6  C5  UNL d   1       0.783   0.352  -0.594  0.00  0.00     0.039 A 
ENDROOT
BRANCH   4   7
ATOM      7  O   UNL d   1       0.275   3.926  -0.156  0.00  0.00    -0.526 OA
ATOM      8  H5  UNL d   1      -0.416   4.389   0.344  0.00  0.00     0.418 HD
ENDBRANCH   4   7
TORSDOF 1
ENDMDL
