MODEL 1
REMARK minimizedAffinity -2.40732813
REMARK minimizedRMSD -1
REMARK  1 active torsions:
REMARK  status: ('A' for Active; 'I' for Inactive)
REMARK    1  A    between atoms: C3_4  and  O_7 
ROOT
ATOM      1  C   UNL d   1       1.429   2.424   0.935  0.00  0.00    -0.033 A 
ATOM      2  C1  UNL d   1       0.047   2.249   0.839  0.00  0.00     0.039 A 
ATOM      3  C2  UNL d   1      -0.484   0.978   0.608  0.00  0.00    -0.080 A 
ATOM      4  C3  UNL d   1       0.377  -0.108   0.476  0.00  0.00     0.150 A 
ATOM      5  C4  UNL d   1       1.754   0.059   0.574  0.00  0.00    -0.007 A 
ATOM      6  C5  UNL d   1       2.282   1.328   0.803  0.00  0.00     0.039 A 
ENDROOT
BRANCH   4   7
ATOM      7  O   UNL d   1      -0.094  -1.366   0.245  0.00  0.00    -0.526 OA
ATOM      8  H5  UNL d   1      -1.062  -1.324   0.173  0.00  0.00     0.418 HD
ENDBRANCH   4   7
TORSDOF 1
ENDMDL
