MODEL 1
REMARK minimizedAffinity 11.748601
REMARK minimizedRMSD -1
REMARK  0 active torsions:
REMARK  status: ('A' for Active; 'I' for Inactive)
ROOT
ATOM      1  C1  DEN d   1       2.497   2.016   0.730  0.00  0.00     0.130 A 
ATOM      2  C2  DEN d   1       1.705   0.851   0.345  0.00  0.00    -0.031 A 
ATOM      3  C3  DEN d   1       2.519  -0.357   0.592  0.00  0.00     0.027 A 
ATOM      4  C4  DEN d   1       4.914  -0.534   1.532  0.00  0.00     0.027 A 
ATOM      5  C5  DEN d   1       5.996   0.185   1.991  0.00  0.00    -0.003 A 
ATOM      6  C6  DEN d   1       6.000   1.554   2.030  0.00  0.00     0.001 A 
ATOM      7  C7  DEN d   1       4.883   2.247   1.644  0.00  0.00     0.017 A 
ATOM      8  C8  DEN d   1       3.791   1.530   1.173  0.00  0.00    -0.094 A 
ATOM      9  C9  DEN d   1       3.802   0.145   1.153  0.00  0.00    -0.072 A 
ENDROOT
TORSDOF 0
ENDMDL
