MODEL 1
REMARK minimizedAffinity 22.9209213
REMARK minimizedRMSD -1
REMARK  0 active torsions:
REMARK  status: ('A' for Active; 'I' for Inactive)
ROOT
ATOM      1  C1  DEN d   1      -2.242  -2.272   0.164  0.00  0.00     0.130 A 
ATOM      2  C2  DEN d   1      -1.068  -2.839   0.822  0.00  0.00    -0.031 A 
ATOM      3  C3  DEN d   1      -0.254  -3.522  -0.203  0.00  0.00     0.027 A 
ATOM      4  C4  DEN d   1      -0.693  -3.751  -2.735  0.00  0.00     0.027 A 
ATOM      5  C5  DEN d   1      -1.567  -3.445  -3.755  0.00  0.00    -0.003 A 
ATOM      6  C6  DEN d   1      -2.734  -2.763  -3.536  0.00  0.00     0.001 A 
ATOM      7  C7  DEN d   1      -3.038  -2.323  -2.275  0.00  0.00     0.017 A 
ATOM      8  C8  DEN d   1      -2.165  -2.634  -1.240  0.00  0.00    -0.094 A 
ATOM      9  C9  DEN d   1      -0.984  -3.314  -1.483  0.00  0.00    -0.072 A 
ENDROOT
TORSDOF 0
ENDMDL
