MODEL 1
REMARK minimizedAffinity 6.51513052
REMARK minimizedRMSD -1
REMARK  0 active torsions:
REMARK  status: ('A' for Active; 'I' for Inactive)
ROOT
ATOM      1  C1  DEN d   1       1.117   0.962   2.921  0.00  0.00     0.130 A 
ATOM      2  C2  DEN d   1       1.706   0.202   4.020  0.00  0.00    -0.031 A 
ATOM      3  C3  DEN d   1       2.848  -0.566   3.484  0.00  0.00     0.027 A 
ATOM      4  C4  DEN d   1       3.759  -0.648   1.072  0.00  0.00     0.027 A 
ATOM      5  C5  DEN d   1       3.580  -0.182  -0.211  0.00  0.00    -0.003 A 
ATOM      6  C6  DEN d   1       2.557   0.665  -0.545  0.00  0.00     0.001 A 
ATOM      7  C7  DEN d   1       1.698   1.108   0.426  0.00  0.00     0.017 A 
ATOM      8  C8  DEN d   1       1.867   0.636   1.721  0.00  0.00    -0.094 A 
ATOM      9  C9  DEN d   1       2.915  -0.210   2.041  0.00  0.00    -0.072 A 
ENDROOT
TORSDOF 0
ENDMDL
