MODEL 1
REMARK minimizedAffinity 9.15387917
REMARK minimizedRMSD -1
REMARK  0 active torsions:
REMARK  status: ('A' for Active; 'I' for Inactive)
ROOT
ATOM      1  C1  DEN d   1      -0.750  -3.999  -2.783  0.00  0.00     0.130 A 
ATOM      2  C2  DEN d   1      -1.856  -3.751  -3.704  0.00  0.00    -0.031 A 
ATOM      3  C3  DEN d   1      -2.773  -2.785  -3.066  0.00  0.00     0.027 A 
ATOM      4  C4  DEN d   1      -2.586  -1.652  -0.756  0.00  0.00     0.027 A 
ATOM      5  C5  DEN d   1      -1.827  -1.557   0.389  0.00  0.00    -0.003 A 
ATOM      6  C6  DEN d   1      -0.684  -2.290   0.571  0.00  0.00     0.001 A 
ATOM      7  C7  DEN d   1      -0.242  -3.116  -0.428  0.00  0.00     0.017 A 
ATOM      8  C8  DEN d   1      -1.005  -3.222  -1.583  0.00  0.00    -0.094 A 
ATOM      9  C9  DEN d   1      -2.151  -2.464  -1.753  0.00  0.00    -0.072 A 
ENDROOT
TORSDOF 0
ENDMDL
