MODEL 1
REMARK minimizedAffinity 8.77207947
REMARK minimizedRMSD -1
REMARK  0 active torsions:
REMARK  status: ('A' for Active; 'I' for Inactive)
ROOT
ATOM      1  C1  DEN d   1       2.038  -0.267   3.399  0.00  0.00     0.130 A 
ATOM      2  C2  DEN d   1       1.012   0.656   3.874  0.00  0.00    -0.031 A 
ATOM      3  C3  DEN d   1       0.760   1.647   2.808  0.00  0.00     0.027 A 
ATOM      4  C4  DEN d   1       1.852   1.836   0.478  0.00  0.00     0.027 A 
ATOM      5  C5  DEN d   1       2.785   1.285  -0.372  0.00  0.00    -0.003 A 
ATOM      6  C6  DEN d   1       3.553   0.208  -0.015  0.00  0.00     0.001 A 
ATOM      7  C7  DEN d   1       3.369  -0.381   1.208  0.00  0.00     0.017 A 
ATOM      8  C8  DEN d   1       2.435   0.173   2.074  0.00  0.00    -0.094 A 
ATOM      9  C9  DEN d   1       1.660   1.254   1.690  0.00  0.00    -0.072 A 
ENDROOT
TORSDOF 0
ENDMDL
