MODEL 1
REMARK minimizedAffinity 1.61641777
REMARK minimizedRMSD -1
REMARK  0 active torsions:
REMARK  status: ('A' for Active; 'I' for Inactive)
ROOT
ATOM      1  C1  DEN d   1       2.351  -0.916   3.408  0.00  0.00     0.130 A 
ATOM      2  C2  DEN d   1       1.395   0.007   4.015  0.00  0.00    -0.031 A 
ATOM      3  C3  DEN d   1       1.154   1.108   3.060  0.00  0.00     0.027 A 
ATOM      4  C4  DEN d   1       2.160   1.469   0.713  0.00  0.00     0.027 A 
ATOM      5  C5  DEN d   1       3.028   0.958  -0.227  0.00  0.00    -0.003 A 
ATOM      6  C6  DEN d   1       3.751  -0.185  -0.009  0.00  0.00     0.001 A 
ATOM      7  C7  DEN d   1       3.585  -0.880   1.159  0.00  0.00     0.017 A 
ATOM      8  C8  DEN d   1       2.717  -0.368   2.115  0.00  0.00    -0.094 A 
ATOM      9  C9  DEN d   1       1.987   0.782   1.870  0.00  0.00    -0.072 A 
ENDROOT
TORSDOF 0
ENDMDL
