MODEL 1
REMARK minimizedAffinity 15.9114389
REMARK minimizedRMSD -1
REMARK  0 active torsions:
REMARK  status: ('A' for Active; 'I' for Inactive)
ROOT
ATOM      1  C1  DEN d   1      -5.942   0.829   5.986  0.00  0.00     0.130 A 
ATOM      2  C2  DEN d   1      -5.872  -0.259   5.015  0.00  0.00    -0.031 A 
ATOM      3  C3  DEN d   1      -5.027   0.187   3.889  0.00  0.00     0.027 A 
ATOM      4  C4  DEN d   1      -3.820   2.443   3.561  0.00  0.00     0.027 A 
ATOM      5  C5  DEN d   1      -3.593   3.685   4.112  0.00  0.00    -0.003 A 
ATOM      6  C6  DEN d   1      -4.155   4.071   5.299  0.00  0.00     0.001 A 
ATOM      7  C7  DEN d   1      -4.938   3.190   5.998  0.00  0.00     0.017 A 
ATOM      8  C8  DEN d   1      -5.177   1.938   5.446  0.00  0.00    -0.094 A 
ATOM      9  C9  DEN d   1      -4.590   1.563   4.250  0.00  0.00    -0.072 A 
ENDROOT
TORSDOF 0
ENDMDL
