MODEL 1
REMARK minimizedAffinity 0.64370966
REMARK minimizedRMSD -1
REMARK  0 active torsions:
REMARK  status: ('A' for Active; 'I' for Inactive)
ROOT
ATOM      1  C1  DEN d   1       0.841   1.416   3.346  0.00  0.00     0.130 A 
ATOM      2  C2  DEN d   1       0.971   0.171   4.099  0.00  0.00    -0.031 A 
ATOM      3  C3  DEN d   1       1.861  -0.730   3.340  0.00  0.00     0.027 A 
ATOM      4  C4  DEN d   1       3.048  -0.320   1.088  0.00  0.00     0.027 A 
ATOM      5  C5  DEN d   1       3.233   0.583   0.064  0.00  0.00    -0.003 A 
ATOM      6  C6  DEN d   1       2.611   1.803   0.046  0.00  0.00     0.001 A 
ATOM      7  C7  DEN d   1       1.810   2.173   1.094  0.00  0.00     0.017 A 
ATOM      8  C8  DEN d   1       1.614   1.265   2.127  0.00  0.00    -0.094 A 
ATOM      9  C9  DEN d   1       2.261   0.041   2.132  0.00  0.00    -0.072 A 
ENDROOT
TORSDOF 0
ENDMDL
