MODEL 1
REMARK minimizedAffinity 9.69751263
REMARK minimizedRMSD -1
REMARK  0 active torsions:
REMARK  status: ('A' for Active; 'I' for Inactive)
ROOT
ATOM      1  C1  DEN d   1       4.044   2.622   0.046  0.00  0.00     0.130 A 
ATOM      2  C2  DEN d   1       2.873   2.986   0.839  0.00  0.00    -0.031 A 
ATOM      3  C3  DEN d   1       2.263   1.742   1.349  0.00  0.00     0.027 A 
ATOM      4  C4  DEN d   1       3.017  -0.699   0.996  0.00  0.00     0.027 A 
ATOM      5  C5  DEN d   1       3.950  -1.509   0.387  0.00  0.00    -0.003 A 
ATOM      6  C6  DEN d   1       4.952  -1.005  -0.399  0.00  0.00     0.001 A 
ATOM      7  C7  DEN d   1       5.071   0.350  -0.561  0.00  0.00     0.017 A 
ATOM      8  C8  DEN d   1       4.129   1.172   0.043  0.00  0.00    -0.094 A 
ATOM      9  C9  DEN d   1       3.131   0.644   0.845  0.00  0.00    -0.072 A 
ENDROOT
TORSDOF 0
ENDMDL
