MODEL 1
REMARK minimizedAffinity 7.69749546
REMARK minimizedRMSD -1
REMARK  0 active torsions:
REMARK  status: ('A' for Active; 'I' for Inactive)
ROOT
ATOM      1  C1  DEN d   1       2.864   0.672  -0.528  0.00  0.00     0.130 A 
ATOM      2  C2  DEN d   1       1.725   0.856   0.367  0.00  0.00    -0.031 A 
ATOM      3  C3  DEN d   1       2.097   0.324   1.693  0.00  0.00     0.027 A 
ATOM      4  C4  DEN d   1       4.315  -0.756   2.445  0.00  0.00     0.027 A 
ATOM      5  C5  DEN d   1       5.573  -1.140   2.034  0.00  0.00    -0.003 A 
ATOM      6  C6  DEN d   1       6.000  -0.979   0.743  0.00  0.00     0.001 A 
ATOM      7  C7  DEN d   1       5.178  -0.378  -0.174  0.00  0.00     0.017 A 
ATOM      8  C8  DEN d   1       3.906   0.005   0.231  0.00  0.00    -0.094 A 
ATOM      9  C9  DEN d   1       3.497  -0.156   1.544  0.00  0.00    -0.072 A 
ENDROOT
TORSDOF 0
ENDMDL
