MODEL 1
REMARK minimizedAffinity 14.064435
REMARK minimizedRMSD -1
REMARK  0 active torsions:
REMARK  status: ('A' for Active; 'I' for Inactive)
ROOT
ATOM      1  C1  DEN d   1      -3.031  -2.633  -2.721  0.00  0.00     0.130 A 
ATOM      2  C2  DEN d   1      -1.859  -3.012  -1.936  0.00  0.00    -0.031 A 
ATOM      3  C3  DEN d   1      -2.100  -4.357  -1.377  0.00  0.00     0.027 A 
ATOM      4  C4  DEN d   1      -4.159  -5.885  -1.653  0.00  0.00     0.027 A 
ATOM      5  C5  DEN d   1      -5.410  -5.991  -2.220  0.00  0.00    -0.003 A 
ATOM      6  C6  DEN d   1      -5.965  -4.981  -2.959  0.00  0.00     0.001 A 
ATOM      7  C7  DEN d   1      -5.248  -3.836  -3.190  0.00  0.00     0.017 A 
ATOM      8  C8  DEN d   1      -3.990  -3.718  -2.615  0.00  0.00    -0.094 A 
ATOM      9  C9  DEN d   1      -3.441  -4.756  -1.881  0.00  0.00    -0.072 A 
ENDROOT
TORSDOF 0
ENDMDL
