MODEL 1
REMARK minimizedAffinity 21.2723217
REMARK minimizedRMSD -1
REMARK  0 active torsions:
REMARK  status: ('A' for Active; 'I' for Inactive)
ROOT
ATOM      1  C1  DEN d   1      -2.691  -2.817   0.064  0.00  0.00     0.130 A 
ATOM      2  C2  DEN d   1      -1.446  -2.057  -0.005  0.00  0.00    -0.031 A 
ATOM      3  C3  DEN d   1      -0.426  -2.780   0.781  0.00  0.00     0.027 A 
ATOM      4  C4  DEN d   1      -0.651  -4.992   2.087  0.00  0.00     0.027 A 
ATOM      5  C5  DEN d   1      -1.519  -6.000   2.448  0.00  0.00    -0.003 A 
ATOM      6  C6  DEN d   1      -2.835  -6.000   2.070  0.00  0.00     0.001 A 
ATOM      7  C7  DEN d   1      -3.312  -4.995   1.271  0.00  0.00     0.017 A 
ATOM      8  C8  DEN d   1      -2.446  -3.972   0.909  0.00  0.00    -0.094 A 
ATOM      9  C9  DEN d   1      -1.115  -3.996   1.291  0.00  0.00    -0.072 A 
ENDROOT
TORSDOF 0
ENDMDL
