MODEL 1
REMARK minimizedAffinity 3.95494986
REMARK minimizedRMSD -1
REMARK  0 active torsions:
REMARK  status: ('A' for Active; 'I' for Inactive)
ROOT
ATOM      1  C1  DEN d   1       4.594  -0.807   1.470  0.00  0.00     0.130 A 
ATOM      2  C2  DEN d   1       4.550  -0.738   0.012  0.00  0.00    -0.031 A 
ATOM      3  C3  DEN d   1       3.360   0.047  -0.372  0.00  0.00     0.027 A 
ATOM      4  C4  DEN d   1       1.593   1.161   1.142  0.00  0.00     0.027 A 
ATOM      5  C5  DEN d   1       1.201   1.366   2.446  0.00  0.00    -0.003 A 
ATOM      6  C6  DEN d   1       1.888   0.838   3.507  0.00  0.00     0.001 A 
ATOM      7  C7  DEN d   1       3.030   0.114   3.283  0.00  0.00     0.017 A 
ATOM      8  C8  DEN d   1       3.427  -0.103   1.971  0.00  0.00    -0.094 A 
ATOM      9  C9  DEN d   1       2.726   0.450   0.913  0.00  0.00    -0.072 A 
ENDROOT
TORSDOF 0
ENDMDL
