MODEL 1
REMARK minimizedAffinity 4.99327374
REMARK minimizedRMSD -1
REMARK  0 active torsions:
REMARK  status: ('A' for Active; 'I' for Inactive)
ROOT
ATOM      1  C1  DEN d   1      -4.916   3.157   6.000  0.00  0.00     0.130 A 
ATOM      2  C2  DEN d   1      -4.197   3.928   4.989  0.00  0.00    -0.031 A 
ATOM      3  C3  DEN d   1      -4.058   3.084   3.785  0.00  0.00     0.027 A 
ATOM      4  C4  DEN d   1      -4.885   0.674   3.389  0.00  0.00     0.027 A 
ATOM      5  C5  DEN d   1      -5.537  -0.398   3.958  0.00  0.00    -0.003 A 
ATOM      6  C6  DEN d   1      -5.994  -0.372   5.249  0.00  0.00     0.001 A 
ATOM      7  C7  DEN d   1      -5.845   0.765   5.999  0.00  0.00     0.017 A 
ATOM      8  C8  DEN d   1      -5.182   1.847   5.434  0.00  0.00    -0.094 A 
ATOM      9  C9  DEN d   1      -4.739   1.805   4.123  0.00  0.00    -0.072 A 
ENDROOT
TORSDOF 0
ENDMDL
