MODEL 1
REMARK minimizedAffinity 4.78041601
REMARK minimizedRMSD -1
REMARK  0 active torsions:
REMARK  status: ('A' for Active; 'I' for Inactive)
ROOT
ATOM      1  C1  DEN d   1      -0.579  -4.285  -3.260  0.00  0.00     0.130 A 
ATOM      2  C2  DEN d   1      -1.657  -4.076  -4.223  0.00  0.00    -0.031 A 
ATOM      3  C3  DEN d   1      -2.722  -3.303  -3.556  0.00  0.00     0.027 A 
ATOM      4  C4  DEN d   1      -2.806  -2.408  -1.138  0.00  0.00     0.027 A 
ATOM      5  C5  DEN d   1      -2.129  -2.344   0.060  0.00  0.00    -0.003 A 
ATOM      6  C6  DEN d   1      -0.913  -2.947   0.244  0.00  0.00     0.001 A 
ATOM      7  C7  DEN d   1      -0.315  -3.602  -0.801  0.00  0.00     0.017 A 
ATOM      8  C8  DEN d   1      -0.996  -3.677  -2.009  0.00  0.00    -0.094 A 
ATOM      9  C9  DEN d   1      -2.219  -3.050  -2.179  0.00  0.00    -0.072 A 
ENDROOT
TORSDOF 0
ENDMDL
