MODEL 1
REMARK minimizedAffinity 19.482914
REMARK minimizedRMSD -1
REMARK  0 active torsions:
REMARK  status: ('A' for Active; 'I' for Inactive)
ROOT
ATOM      1  C   UNL d   1      -5.583   5.135   5.991  0.00  0.00    -0.002 A 
ATOM      2  C1  UNL d   1      -4.516   5.982   5.727  0.00  0.00     0.010 A 
ATOM      3  C2  UNL d   1      -3.839   5.912   4.508  0.00  0.00     0.041 A 
ATOM      4  C3  UNL d   1      -4.257   4.969   3.549  0.00  0.00    -0.075 A 
ATOM      5  S   UNL d   1      -3.578   4.704   1.986  0.00  0.00     0.015 SA
ATOM      6  C4  UNL d   1      -4.689   3.461   1.632  0.00  0.00     0.022 A 
ATOM      7  C5  UNL d   1      -5.564   3.240   2.669  0.00  0.00     0.026 A 
ATOM      8  C6  UNL d   1      -5.330   4.106   3.791  0.00  0.00    -0.082 A 
ATOM      9  C7  UNL d   1      -5.995   4.201   5.037  0.00  0.00     0.045 A 
ENDROOT
TORSDOF 0
ENDMDL
