MODEL 1
REMARK minimizedAffinity 7.45473719
REMARK minimizedRMSD -1
REMARK  0 active torsions:
REMARK  status: ('A' for Active; 'I' for Inactive)
ROOT
ATOM      1  C   UNL d   1      -5.236   2.652   2.219  0.00  0.00    -0.002 A 
ATOM      2  C1  UNL d   1      -3.945   3.084   1.952  0.00  0.00     0.010 A 
ATOM      3  C2  UNL d   1      -3.374   4.118   2.697  0.00  0.00     0.041 A 
ATOM      4  C3  UNL d   1      -4.129   4.714   3.726  0.00  0.00    -0.075 A 
ATOM      5  S   UNL d   1      -3.635   5.995   4.769  0.00  0.00     0.015 SA
ATOM      6  C4  UNL d   1      -5.126   5.998   5.594  0.00  0.00     0.022 A 
ATOM      7  C5  UNL d   1      -5.991   5.051   5.099  0.00  0.00     0.026 A 
ATOM      8  C6  UNL d   1      -5.431   4.295   4.014  0.00  0.00    -0.082 A 
ATOM      9  C7  UNL d   1      -5.982   3.246   3.241  0.00  0.00     0.045 A 
ENDROOT
TORSDOF 0
ENDMDL
