MODEL 1
REMARK minimizedAffinity 18.6517735
REMARK minimizedRMSD -1
REMARK  0 active torsions:
REMARK  status: ('A' for Active; 'I' for Inactive)
ROOT
ATOM      1  C   UNL d   1      -4.177   0.648  -0.383  0.00  0.00    -0.002 A 
ATOM      2  C1  UNL d   1      -4.402   1.543  -1.420  0.00  0.00     0.010 A 
ATOM      3  C2  UNL d   1      -4.828   2.845  -1.154  0.00  0.00     0.041 A 
ATOM      4  C3  UNL d   1      -5.024   3.239   0.184  0.00  0.00    -0.075 A 
ATOM      5  S   UNL d   1      -5.542   4.783   0.749  0.00  0.00     0.015 SA
ATOM      6  C4  UNL d   1      -5.476   4.293   2.380  0.00  0.00     0.022 A 
ATOM      7  C5  UNL d   1      -5.071   2.985   2.509  0.00  0.00     0.026 A 
ATOM      8  C6  UNL d   1      -4.803   2.356   1.246  0.00  0.00    -0.082 A 
ATOM      9  C7  UNL d   1      -4.373   1.042   0.944  0.00  0.00     0.045 A 
ENDROOT
TORSDOF 0
ENDMDL
