MODEL 1
REMARK minimizedAffinity 10.9560471
REMARK minimizedRMSD -1
REMARK  0 active torsions:
REMARK  status: ('A' for Active; 'I' for Inactive)
ROOT
ATOM      1  C   UNL d   1      -6.000   0.487  -4.464  0.00  0.00    -0.002 A 
ATOM      2  C1  UNL d   1      -5.868   1.868  -4.445  0.00  0.00     0.010 A 
ATOM      3  C2  UNL d   1      -5.318   2.514  -3.335  0.00  0.00     0.041 A 
ATOM      4  C3  UNL d   1      -4.897   1.740  -2.236  0.00  0.00    -0.075 A 
ATOM      5  S   UNL d   1      -4.194   2.313  -0.770  0.00  0.00     0.015 SA
ATOM      6  C4  UNL d   1      -4.051   0.738  -0.135  0.00  0.00     0.022 A 
ATOM      7  C5  UNL d   1      -4.524  -0.214  -1.007  0.00  0.00     0.026 A 
ATOM      8  C6  UNL d   1      -5.019   0.347  -2.232  0.00  0.00    -0.082 A 
ATOM      9  C7  UNL d   1      -5.581  -0.277  -3.372  0.00  0.00     0.045 A 
ENDROOT
TORSDOF 0
ENDMDL
