MODEL 1
REMARK minimizedAffinity 12.1169481
REMARK minimizedRMSD -1
REMARK  0 active torsions:
REMARK  status: ('A' for Active; 'I' for Inactive)
ROOT
ATOM      1  C   UNL d   1       1.657  -2.822   0.423  0.00  0.00    -0.002 A 
ATOM      2  C1  UNL d   1       1.578  -2.586  -0.942  0.00  0.00     0.010 A 
ATOM      3  C2  UNL d   1       2.064  -1.395  -1.485  0.00  0.00     0.041 A 
ATOM      4  C3  UNL d   1       2.638  -0.437  -0.626  0.00  0.00    -0.075 A 
ATOM      5  S   UNL d   1       3.299   1.092  -1.067  0.00  0.00     0.015 SA
ATOM      6  C4  UNL d   1       3.703   1.467   0.546  0.00  0.00     0.022 A 
ATOM      7  C5  UNL d   1       3.348   0.461   1.413  0.00  0.00     0.026 A 
ATOM      8  C6  UNL d   1       2.729  -0.653   0.752  0.00  0.00    -0.082 A 
ATOM      9  C7  UNL d   1       2.227  -1.870   1.273  0.00  0.00     0.045 A 
ENDROOT
TORSDOF 0
ENDMDL
