MODEL 1
REMARK minimizedAffinity 14.2447109
REMARK minimizedRMSD -1
REMARK  0 active torsions:
REMARK  status: ('A' for Active; 'I' for Inactive)
ROOT
ATOM      1  C   UNL d   1       1.979  -0.603  -1.130  0.00  0.00    -0.002 A 
ATOM      2  C1  UNL d   1       2.188  -1.363   0.012  0.00  0.00     0.010 A 
ATOM      3  C2  UNL d   1       2.898  -0.839   1.094  0.00  0.00     0.041 A 
ATOM      4  C3  UNL d   1       3.398   0.475   1.008  0.00  0.00    -0.075 A 
ATOM      5  S   UNL d   1       4.296   1.326   2.209  0.00  0.00     0.015 SA
ATOM      6  C4  UNL d   1       4.423   2.719   1.235  0.00  0.00     0.022 A 
ATOM      7  C5  UNL d   1       3.801   2.556   0.020  0.00  0.00     0.026 A 
ATOM      8  C6  UNL d   1       3.200   1.260  -0.131  0.00  0.00    -0.082 A 
ATOM      9  C7  UNL d   1       2.477   0.700  -1.211  0.00  0.00     0.045 A 
ENDROOT
TORSDOF 0
ENDMDL
