MODEL 1
REMARK minimizedAffinity 13.0199833
REMARK minimizedRMSD -1
REMARK  0 active torsions:
REMARK  status: ('A' for Active; 'I' for Inactive)
ROOT
ATOM      1  C   UNL d   1      -5.179   1.194  -6.000  0.00  0.00    -0.002 A 
ATOM      2  C1  UNL d   1      -6.000   0.642  -5.026  0.00  0.00     0.010 A 
ATOM      3  C2  UNL d   1      -5.451   0.039  -3.893  0.00  0.00     0.041 A 
ATOM      4  C3  UNL d   1      -4.050   0.002  -3.752  0.00  0.00    -0.075 A 
ATOM      5  S   UNL d   1      -3.154  -0.683  -2.448  0.00  0.00     0.015 SA
ATOM      6  C4  UNL d   1      -1.661  -0.259  -3.152  0.00  0.00     0.022 A 
ATOM      7  C5  UNL d   1      -1.823   0.390  -4.353  0.00  0.00     0.026 A 
ATOM      8  C6  UNL d   1      -3.203   0.552  -4.718  0.00  0.00    -0.082 A 
ATOM      9  C7  UNL d   1      -3.790   1.155  -5.857  0.00  0.00     0.045 A 
ENDROOT
TORSDOF 0
ENDMDL
