MODEL 1
REMARK minimizedAffinity 14.1287584
REMARK minimizedRMSD -1
REMARK  0 active torsions:
REMARK  status: ('A' for Active; 'I' for Inactive)
ROOT
ATOM      1  C   UNL d   1      -5.915   4.919   5.997  0.00  0.00    -0.002 A 
ATOM      2  C1  UNL d   1      -5.117   6.000   5.651  0.00  0.00     0.010 A 
ATOM      3  C2  UNL d   1      -4.387   5.991   4.461  0.00  0.00     0.041 A 
ATOM      4  C3  UNL d   1      -4.474   4.868   3.616  0.00  0.00    -0.075 A 
ATOM      5  S   UNL d   1      -3.670   4.636   2.108  0.00  0.00     0.015 SA
ATOM      6  C4  UNL d   1      -4.368   3.097   1.888  0.00  0.00     0.022 A 
ATOM      7  C5  UNL d   1      -5.197   2.752   2.929  0.00  0.00     0.026 A 
ATOM      8  C6  UNL d   1      -5.272   3.767   3.942  0.00  0.00    -0.082 A 
ATOM      9  C7  UNL d   1      -5.999   3.806   5.156  0.00  0.00     0.045 A 
ENDROOT
TORSDOF 0
ENDMDL
