MODEL 1
REMARK minimizedAffinity 13.6123095
REMARK minimizedRMSD -1
REMARK  0 active torsions:
REMARK  status: ('A' for Active; 'I' for Inactive)
ROOT
ATOM      1  C   UNL d   1      -4.103   6.000   5.956  0.00  0.00    -0.002 A 
ATOM      2  C1  UNL d   1      -5.414   5.545   6.000  0.00  0.00     0.010 A 
ATOM      3  C2  UNL d   1      -5.999   4.956   4.878  0.00  0.00     0.041 A 
ATOM      4  C3  UNL d   1      -5.237   4.827   3.700  0.00  0.00    -0.075 A 
ATOM      5  S   UNL d   1      -5.745   4.137   2.204  0.00  0.00     0.015 SA
ATOM      6  C4  UNL d   1      -4.234   4.428   1.471  0.00  0.00     0.022 A 
ATOM      7  C5  UNL d   1      -3.352   5.036   2.332  0.00  0.00     0.026 A 
ATOM      8  C6  UNL d   1      -3.916   5.276   3.631  0.00  0.00    -0.082 A 
ATOM      9  C7  UNL d   1      -3.351   5.870   4.785  0.00  0.00     0.045 A 
ENDROOT
TORSDOF 0
ENDMDL
