MODEL 1
REMARK minimizedAffinity 9.79714298
REMARK minimizedRMSD -1
REMARK  0 active torsions:
REMARK  status: ('A' for Active; 'I' for Inactive)
ROOT
ATOM      1  C   UNL d   1      -5.273   5.546   5.992  0.00  0.00    -0.002 A 
ATOM      2  C1  UNL d   1      -4.008   5.999   5.645  0.00  0.00     0.010 A 
ATOM      3  C2  UNL d   1      -3.443   5.656   4.415  0.00  0.00     0.041 A 
ATOM      4  C3  UNL d   1      -4.179   4.844   3.530  0.00  0.00    -0.075 A 
ATOM      5  S   UNL d   1      -3.690   4.297   1.970  0.00  0.00     0.015 SA
ATOM      6  C4  UNL d   1      -5.148   3.450   1.727  0.00  0.00     0.022 A 
ATOM      7  C5  UNL d   1      -5.999   3.570   2.800  0.00  0.00     0.026 A 
ATOM      8  C6  UNL d   1      -5.455   4.376   3.857  0.00  0.00    -0.082 A 
ATOM      9  C7  UNL d   1      -6.000   4.740   5.112  0.00  0.00     0.045 A 
ENDROOT
TORSDOF 0
ENDMDL
