MODEL 1
REMARK minimizedAffinity 20.1541901
REMARK minimizedRMSD -1
REMARK  0 active torsions:
REMARK  status: ('A' for Active; 'I' for Inactive)
ROOT
ATOM      1  C   UNL d   1       1.581  -1.196   0.221  0.00  0.00    -0.002 A 
ATOM      2  C1  UNL d   1       1.547  -1.051  -1.159  0.00  0.00     0.010 A 
ATOM      3  C2  UNL d   1       2.323  -0.077  -1.790  0.00  0.00     0.041 A 
ATOM      4  C3  UNL d   1       3.143   0.755  -1.004  0.00  0.00    -0.075 A 
ATOM      5  S   UNL d   1       4.180   2.016  -1.559  0.00  0.00     0.015 SA
ATOM      6  C4  UNL d   1       4.694   2.391   0.022  0.00  0.00     0.022 A 
ATOM      7  C5  UNL d   1       4.099   1.584   0.962  0.00  0.00     0.026 A 
ATOM      8  C6  UNL d   1       3.196   0.628   0.387  0.00  0.00    -0.082 A 
ATOM      9  C7  UNL d   1       2.396  -0.369   0.997  0.00  0.00     0.045 A 
ENDROOT
TORSDOF 0
ENDMDL
