MODEL 1
REMARK minimizedAffinity -5.68038607
REMARK minimizedRMSD -1
REMARK  0 active torsions:
REMARK  status: ('A' for Active; 'I' for Inactive)
ROOT
ATOM      1  C1  DEN d   1       1.803  -2.396  -0.128  0.00  0.00     0.130 A 
ATOM      2  C2  DEN d   1       0.612  -3.117   0.316  0.00  0.00    -0.031 A 
ATOM      3  C3  DEN d   1      -0.436  -2.122   0.620  0.00  0.00     0.027 A 
ATOM      4  C4  DEN d   1      -0.334   0.449   0.443  0.00  0.00     0.027 A 
ATOM      5  C5  DEN d   1       0.470   1.521   0.125  0.00  0.00    -0.003 A 
ATOM      6  C6  DEN d   1       1.774   1.366  -0.265  0.00  0.00     0.001 A 
ATOM      7  C7  DEN d   1       2.300   0.107  -0.389  0.00  0.00     0.017 A 
ATOM      8  C8  DEN d   1       1.498  -0.978  -0.062  0.00  0.00    -0.094 A 
ATOM      9  C9  DEN d   1       0.178  -0.801   0.318  0.00  0.00    -0.072 A 
ENDROOT
TORSDOF 0
ENDMDL
