MODEL 1
REMARK minimizedAffinity -3.09145927
REMARK minimizedRMSD -1
REMARK  0 active torsions:
REMARK  status: ('A' for Active; 'I' for Inactive)
ROOT
ATOM      1  C1  DEN d   1       1.496  -1.921   1.427  0.00  0.00     0.130 A 
ATOM      2  C2  DEN d   1       2.476  -1.560   0.405  0.00  0.00    -0.031 A 
ATOM      3  C3  DEN d   1       1.959  -0.389  -0.330  0.00  0.00     0.027 A 
ATOM      4  C4  DEN d   1      -0.250   0.898   0.015  0.00  0.00     0.027 A 
ATOM      5  C5  DEN d   1      -1.411   0.957   0.753  0.00  0.00    -0.003 A 
ATOM      6  C6  DEN d   1      -1.698   0.048   1.737  0.00  0.00     0.001 A 
ATOM      7  C7  DEN d   1      -0.791  -0.933   2.040  0.00  0.00     0.017 A 
ATOM      8  C8  DEN d   1       0.378  -1.004   1.295  0.00  0.00    -0.094 A 
ATOM      9  C9  DEN d   1       0.656  -0.068   0.312  0.00  0.00    -0.072 A 
ENDROOT
TORSDOF 0
ENDMDL
