MODEL 1
REMARK minimizedAffinity -2.22258115
REMARK minimizedRMSD -1
REMARK  0 active torsions:
REMARK  status: ('A' for Active; 'I' for Inactive)
ROOT
ATOM      1  C1  DEN d   1      -0.444  -2.158   1.077  0.00  0.00     0.130 A 
ATOM      2  C2  DEN d   1       0.934  -2.636   1.140  0.00  0.00    -0.031 A 
ATOM      3  C3  DEN d   1       1.804  -1.601   0.544  0.00  0.00     0.027 A 
ATOM      4  C4  DEN d   1       1.153   0.684  -0.460  0.00  0.00     0.027 A 
ATOM      5  C5  DEN d   1       0.101   1.525  -0.746  0.00  0.00    -0.003 A 
ATOM      6  C6  DEN d   1      -1.199   1.186  -0.479  0.00  0.00     0.001 A 
ATOM      7  C7  DEN d   1      -1.477  -0.007   0.134  0.00  0.00     0.017 A 
ATOM      8  C8  DEN d   1      -0.422  -0.864   0.420  0.00  0.00    -0.094 A 
ATOM      9  C9  DEN d   1       0.886  -0.497   0.153  0.00  0.00    -0.072 A 
ENDROOT
TORSDOF 0
ENDMDL
