MODEL 1
REMARK minimizedAffinity -2.24448204
REMARK minimizedRMSD -1
REMARK  0 active torsions:
REMARK  status: ('A' for Active; 'I' for Inactive)
ROOT
ATOM      1  C1  DEN d   1       0.410   1.254  -0.778  0.00  0.00     0.130 A 
ATOM      2  C2  DEN d   1      -0.902   1.853  -0.550  0.00  0.00    -0.031 A 
ATOM      3  C3  DEN d   1      -1.687   0.925   0.289  0.00  0.00     0.027 A 
ATOM      4  C4  DEN d   1      -1.001  -1.365   1.256  0.00  0.00     0.027 A 
ATOM      5  C5  DEN d   1       0.011  -2.297   1.323  0.00  0.00    -0.003 A 
ATOM      6  C6  DEN d   1       1.204  -2.128   0.673  0.00  0.00     0.001 A 
ATOM      7  C7  DEN d   1       1.433  -0.980  -0.038  0.00  0.00     0.017 A 
ATOM      8  C8  DEN d   1       0.415  -0.039  -0.117  0.00  0.00    -0.094 A 
ATOM      9  C9  DEN d   1      -0.780  -0.222   0.558  0.00  0.00    -0.072 A 
ENDROOT
TORSDOF 0
ENDMDL
