MODEL 1
REMARK minimizedAffinity -3.68368435
REMARK minimizedRMSD -1
REMARK  0 active torsions:
REMARK  status: ('A' for Active; 'I' for Inactive)
ROOT
ATOM      1  C1  DEN d   1       0.581  -1.713   0.408  0.00  0.00     0.130 A 
ATOM      2  C2  DEN d   1      -0.534  -2.225   1.200  0.00  0.00    -0.031 A 
ATOM      3  C3  DEN d   1      -1.499  -1.124   1.395  0.00  0.00     0.027 A 
ATOM      4  C4  DEN d   1      -1.378   1.309   0.548  0.00  0.00     0.027 A 
ATOM      5  C5  DEN d   1      -0.617   2.216  -0.156  0.00  0.00    -0.003 A 
ATOM      6  C6  DEN d   1       0.602   1.889  -0.688  0.00  0.00     0.001 A 
ATOM      7  C7  DEN d   1       1.076   0.610  -0.563  0.00  0.00     0.017 A 
ATOM      8  C8  DEN d   1       0.318  -0.308   0.152  0.00  0.00    -0.094 A 
ATOM      9  C9  DEN d   1      -0.918   0.038   0.672  0.00  0.00    -0.072 A 
ENDROOT
TORSDOF 0
ENDMDL
