MODEL 1
REMARK minimizedAffinity -5.16973066
REMARK minimizedRMSD -1
REMARK  0 active torsions:
REMARK  status: ('A' for Active; 'I' for Inactive)
ROOT
ATOM      1  C1  DEN d   1      -0.123  -1.969   1.364  0.00  0.00     0.130 A 
ATOM      2  C2  DEN d   1       1.076  -2.797   1.284  0.00  0.00    -0.031 A 
ATOM      3  C3  DEN d   1       2.038  -2.123   0.389  0.00  0.00     0.027 A 
ATOM      4  C4  DEN d   1       1.789   0.114  -0.871  0.00  0.00     0.027 A 
ATOM      5  C5  DEN d   1       0.944   1.172  -1.123  0.00  0.00    -0.003 A 
ATOM      6  C6  DEN d   1      -0.319   1.240  -0.596  0.00  0.00     0.001 A 
ATOM      7  C7  DEN d   1      -0.756   0.253   0.248  0.00  0.00     0.017 A 
ATOM      8  C8  DEN d   1       0.088  -0.820   0.502  0.00  0.00    -0.094 A 
ATOM      9  C9  DEN d   1       1.365  -0.865  -0.032  0.00  0.00    -0.072 A 
ENDROOT
TORSDOF 0
ENDMDL
