MODEL 1
REMARK minimizedAffinity -4.33335829
REMARK minimizedRMSD -1
REMARK  0 active torsions:
REMARK  status: ('A' for Active; 'I' for Inactive)
ROOT
ATOM      1  C1  DEN d   1       0.141  -2.506   0.928  0.00  0.00     0.130 A 
ATOM      2  C2  DEN d   1       1.563  -2.812   1.052  0.00  0.00    -0.031 A 
ATOM      3  C3  DEN d   1       2.325  -1.673   0.501  0.00  0.00     0.027 A 
ATOM      4  C4  DEN d   1       1.444   0.524  -0.523  0.00  0.00     0.027 A 
ATOM      5  C5  DEN d   1       0.311   1.233  -0.854  0.00  0.00    -0.003 A 
ATOM      6  C6  DEN d   1      -0.948   0.735  -0.647  0.00  0.00     0.001 A 
ATOM      7  C7  DEN d   1      -1.105  -0.489  -0.052  0.00  0.00     0.017 A 
ATOM      8  C8  DEN d   1       0.033  -1.213   0.278  0.00  0.00    -0.094 A 
ATOM      9  C9  DEN d   1       1.297  -0.687   0.072  0.00  0.00    -0.072 A 
ENDROOT
TORSDOF 0
ENDMDL
