MODEL 1
REMARK minimizedAffinity -5.2723999
REMARK minimizedRMSD -1
REMARK  0 active torsions:
REMARK  status: ('A' for Active; 'I' for Inactive)
ROOT
ATOM      1  C1  DEN d   1      -1.484   0.081  -0.182  0.00  0.00     0.130 A 
ATOM      2  C2  DEN d   1      -1.048   1.230  -0.970  0.00  0.00    -0.031 A 
ATOM      3  C3  DEN d   1       0.400   1.088  -1.223  0.00  0.00     0.027 A 
ATOM      4  C4  DEN d   1       2.000  -0.793  -0.477  0.00  0.00     0.027 A 
ATOM      5  C5  DEN d   1       2.093  -1.976   0.222  0.00  0.00    -0.003 A 
ATOM      6  C6  DEN d   1       1.016  -2.535   0.859  0.00  0.00     0.001 A 
ATOM      7  C7  DEN d   1      -0.211  -1.933   0.771  0.00  0.00     0.017 A 
ATOM      8  C8  DEN d   1      -0.311  -0.736   0.075  0.00  0.00    -0.094 A 
ATOM      9  C9  DEN d   1       0.786  -0.194  -0.572  0.00  0.00    -0.072 A 
ENDROOT
TORSDOF 0
ENDMDL
