MODEL 1
REMARK minimizedAffinity -5.43672991
REMARK minimizedRMSD -1
REMARK  0 active torsions:
REMARK  status: ('A' for Active; 'I' for Inactive)
ROOT
ATOM      1  C1  DEN d   1       2.165  -1.420   0.072  0.00  0.00     0.130 A 
ATOM      2  C2  DEN d   1       1.788  -2.697   0.672  0.00  0.00    -0.031 A 
ATOM      3  C3  DEN d   1       0.365  -2.616   1.060  0.00  0.00     0.027 A 
ATOM      4  C4  DEN d   1      -1.282  -0.650   0.786  0.00  0.00     0.027 A 
ATOM      5  C5  DEN d   1      -1.419   0.647   0.342  0.00  0.00    -0.003 A 
ATOM      6  C6  DEN d   1      -0.370   1.351  -0.188  0.00  0.00     0.001 A 
ATOM      7  C7  DEN d   1       0.851   0.747  -0.329  0.00  0.00     0.017 A 
ATOM      8  C8  DEN d   1       0.999  -0.557   0.124  0.00  0.00    -0.094 A 
ATOM      9  C9  DEN d   1      -0.077  -1.257   0.645  0.00  0.00    -0.072 A 
ENDROOT
TORSDOF 0
ENDMDL
