MODEL 1
REMARK minimizedAffinity 8.7524519
REMARK minimizedRMSD -1
REMARK  0 active torsions:
REMARK  status: ('A' for Active; 'I' for Inactive)
ROOT
ATOM      1  C1  DEN d   1       1.967   0.704   4.364  0.00  0.00     0.130 A 
ATOM      2  C2  DEN d   1       1.256   0.805   3.093  0.00  0.00    -0.031 A 
ATOM      3  C3  DEN d   1       2.042   1.678   2.198  0.00  0.00     0.027 A 
ATOM      4  C4  DEN d   1       4.282   2.872   2.655  0.00  0.00     0.027 A 
ATOM      5  C5  DEN d   1       5.264   3.096   3.594  0.00  0.00    -0.003 A 
ATOM      6  C6  DEN d   1       5.200   2.570   4.857  0.00  0.00     0.001 A 
ATOM      7  C7  DEN d   1       4.152   1.756   5.201  0.00  0.00     0.017 A 
ATOM      8  C8  DEN d   1       3.155   1.532   4.261  0.00  0.00    -0.094 A 
ATOM      9  C9  DEN d   1       3.244   2.063   2.986  0.00  0.00    -0.072 A 
ENDROOT
TORSDOF 0
ENDMDL
