MODEL 1
REMARK minimizedAffinity 1.95819116
REMARK minimizedRMSD -1
REMARK  0 active torsions:
REMARK  status: ('A' for Active; 'I' for Inactive)
ROOT
ATOM      1  C1  DEN d   1       0.866   0.884  -0.953  0.00  0.00     0.130 A 
ATOM      2  C2  DEN d   1      -0.032  -0.264  -1.032  0.00  0.00    -0.031 A 
ATOM      3  C3  DEN d   1       0.780  -1.459  -1.336  0.00  0.00     0.027 A 
ATOM      4  C4  DEN d   1       3.329  -1.643  -1.686  0.00  0.00     0.027 A 
ATOM      5  C5  DEN d   1       4.510  -0.936  -1.728  0.00  0.00    -0.003 A 
ATOM      6  C6  DEN d   1       4.555   0.422  -1.551  0.00  0.00     0.001 A 
ATOM      7  C7  DEN d   1       3.402   1.109  -1.277  0.00  0.00     0.017 A 
ATOM      8  C8  DEN d   1       2.206   0.404  -1.240  0.00  0.00    -0.094 A 
ATOM      9  C9  DEN d   1       2.183  -0.970  -1.410  0.00  0.00    -0.072 A 
ENDROOT
TORSDOF 0
ENDMDL
