MODEL 1
REMARK minimizedAffinity 1.61632645
REMARK minimizedRMSD -1
REMARK  0 active torsions:
REMARK  status: ('A' for Active; 'I' for Inactive)
ROOT
ATOM      1  C1  DEN d   1      -1.737   5.576   1.128  0.00  0.00     0.130 A 
ATOM      2  C2  DEN d   1      -0.526   5.972   1.842  0.00  0.00    -0.031 A 
ATOM      3  C3  DEN d   1      -0.372   5.079   3.008  0.00  0.00     0.027 A 
ATOM      4  C4  DEN d   1      -1.879   3.130   3.770  0.00  0.00     0.027 A 
ATOM      5  C5  DEN d   1      -3.027   2.423   3.490  0.00  0.00    -0.003 A 
ATOM      6  C6  DEN d   1      -3.838   2.737   2.431  0.00  0.00     0.001 A 
ATOM      7  C7  DEN d   1      -3.487   3.757   1.587  0.00  0.00     0.017 A 
ATOM      8  C8  DEN d   1      -2.334   4.478   1.867  0.00  0.00    -0.094 A 
ATOM      9  C9  DEN d   1      -1.522   4.138   2.935  0.00  0.00    -0.072 A 
ENDROOT
TORSDOF 0
ENDMDL
