MODEL 1
REMARK minimizedAffinity 0.0582426265
REMARK minimizedRMSD -1
REMARK  0 active torsions:
REMARK  status: ('A' for Active; 'I' for Inactive)
ROOT
ATOM      1  C1  DEN d   1       2.170  -1.777  -1.325  0.00  0.00     0.130 A 
ATOM      2  C2  DEN d   1       3.305  -0.886  -1.548  0.00  0.00    -0.031 A 
ATOM      3  C3  DEN d   1       2.951   0.446  -1.018  0.00  0.00     0.027 A 
ATOM      4  C4  DEN d   1       0.770   1.210   0.127  0.00  0.00     0.027 A 
ATOM      5  C5  DEN d   1      -0.486   0.811   0.529  0.00  0.00    -0.003 A 
ATOM      6  C6  DEN d   1      -0.953  -0.458   0.314  0.00  0.00     0.001 A 
ATOM      7  C7  DEN d   1      -0.142  -1.388  -0.281  0.00  0.00     0.017 A 
ATOM      8  C8  DEN d   1       1.123  -0.991  -0.697  0.00  0.00    -0.094 A 
ATOM      9  C9  DEN d   1       1.581   0.293  -0.459  0.00  0.00    -0.072 A 
ENDROOT
TORSDOF 0
ENDMDL
