MODEL 1
REMARK minimizedAffinity 5.2119422
REMARK minimizedRMSD -1
REMARK  0 active torsions:
REMARK  status: ('A' for Active; 'I' for Inactive)
ROOT
ATOM      1  C1  DEN d   1       3.507  -0.838  -1.413  0.00  0.00     0.130 A 
ATOM      2  C2  DEN d   1       3.748   0.564  -1.081  0.00  0.00    -0.031 A 
ATOM      3  C3  DEN d   1       2.472   1.150  -0.622  0.00  0.00     0.027 A 
ATOM      4  C4  DEN d   1       0.161   0.029  -0.391  0.00  0.00     0.027 A 
ATOM      5  C5  DEN d   1      -0.540  -1.144  -0.565  0.00  0.00    -0.003 A 
ATOM      6  C6  DEN d   1       0.046  -2.278  -1.061  0.00  0.00     0.001 A 
ATOM      7  C7  DEN d   1       1.383  -2.277  -1.359  0.00  0.00     0.017 A 
ATOM      8  C8  DEN d   1       2.095  -1.096  -1.194  0.00  0.00    -0.094 A 
ATOM      9  C9  DEN d   1       1.487   0.037  -0.679  0.00  0.00    -0.072 A 
ENDROOT
TORSDOF 0
ENDMDL
