MODEL 1
REMARK minimizedAffinity -1.42831063
REMARK minimizedRMSD -1
REMARK  0 active torsions:
REMARK  status: ('A' for Active; 'I' for Inactive)
ROOT
ATOM      1  C1  DEN d   1      -0.769  -0.382  -2.309  0.00  0.00     0.130 A 
ATOM      2  C2  DEN d   1      -1.258  -1.732  -2.575  0.00  0.00    -0.031 A 
ATOM      3  C3  DEN d   1      -0.353  -2.686  -1.903  0.00  0.00     0.027 A 
ATOM      4  C4  DEN d   1       1.745  -2.207  -0.481  0.00  0.00     0.027 A 
ATOM      5  C5  DEN d   1       2.562  -1.216   0.015  0.00  0.00    -0.003 A 
ATOM      6  C6  DEN d   1       2.348   0.110  -0.254  0.00  0.00     0.001 A 
ATOM      7  C7  DEN d   1       1.264   0.484  -1.004  0.00  0.00     0.017 A 
ATOM      8  C8  DEN d   1       0.440  -0.510  -1.514  0.00  0.00    -0.094 A 
ATOM      9  C9  DEN d   1       0.666  -1.844  -1.221  0.00  0.00    -0.072 A 
ENDROOT
TORSDOF 0
ENDMDL
