MODEL 1
REMARK minimizedAffinity -3.46104693
REMARK minimizedRMSD -1
REMARK  0 active torsions:
REMARK  status: ('A' for Active; 'I' for Inactive)
ROOT
ATOM      1  C   UNL d   1       1.540   3.077   1.984  0.00  0.00     0.023 A 
ATOM      2  C1  UNL d   1       2.327   1.993   1.595  0.00  0.00     0.003 A 
ATOM      3  C2  UNL d   1       1.737   0.886   0.981  0.00  0.00     0.048 A 
ATOM      4  C3  UNL d   1       0.361   0.871   0.758  0.00  0.00     0.023 A 
ATOM      5  C4  UNL d   1      -0.430   1.954   1.145  0.00  0.00     0.048 A 
ATOM      6  C5  UNL d   1       0.164   3.058   1.759  0.00  0.00     0.003 A 
ATOM      7  I   UNL d   1      -0.519  -0.775  -0.156  0.00  0.00    -0.146 I 
ENDROOT
TORSDOF 0
ENDMDL
