MODEL 1
REMARK minimizedAffinity -4.17002106
REMARK minimizedRMSD -1
REMARK  0 active torsions:
REMARK  status: ('A' for Active; 'I' for Inactive)
ROOT
ATOM      1  C   UNL d   1       2.577   2.763   0.785  0.00  0.00     0.023 A 
ATOM      2  C1  UNL d   1       1.304   2.665   1.347  0.00  0.00     0.003 A 
ATOM      3  C2  UNL d   1       0.517   1.537   1.103  0.00  0.00     0.048 A 
ATOM      4  C3  UNL d   1       1.010   0.511   0.297  0.00  0.00     0.023 A 
ATOM      5  C4  UNL d   1       2.284   0.605  -0.266  0.00  0.00     0.048 A 
ATOM      6  C5  UNL d   1       3.067   1.734  -0.020  0.00  0.00     0.003 A 
ATOM      7  I   UNL d   1      -0.160  -1.168  -0.067  0.00  0.00    -0.146 I 
ENDROOT
TORSDOF 0
ENDMDL
