MODEL 1
REMARK minimizedAffinity -1.66893828
REMARK minimizedRMSD -1
REMARK  0 active torsions:
REMARK  status: ('A' for Active; 'I' for Inactive)
ROOT
ATOM      1  C   UNL d   1       0.270   1.652   1.585  0.00  0.00     0.023 A 
ATOM      2  C1  UNL d   1       0.913   1.512   0.355  0.00  0.00     0.003 A 
ATOM      3  C2  UNL d   1       0.436   0.594  -0.583  0.00  0.00     0.048 A 
ATOM      4  C3  UNL d   1      -0.685  -0.179  -0.286  0.00  0.00     0.023 A 
ATOM      5  C4  UNL d   1      -1.333  -0.042   0.943  0.00  0.00     0.048 A 
ATOM      6  C5  UNL d   1      -0.852   0.876   1.878  0.00  0.00     0.003 A 
ATOM      7  I   UNL d   1      -1.397  -1.546  -1.681  0.00  0.00    -0.146 I 
ENDROOT
TORSDOF 0
ENDMDL
