MODEL 1
REMARK minimizedAffinity -4.5880065
REMARK minimizedRMSD -1
REMARK  0 active torsions:
REMARK  status: ('A' for Active; 'I' for Inactive)
ROOT
ATOM      1  C   UNL d   1       1.996   2.500   1.308  0.00  0.00     0.023 A 
ATOM      2  C1  UNL d   1       0.602   2.496   1.377  0.00  0.00     0.003 A 
ATOM      3  C2  UNL d   1      -0.124   1.455   0.796  0.00  0.00     0.048 A 
ATOM      4  C3  UNL d   1       0.550   0.420   0.148  0.00  0.00     0.023 A 
ATOM      5  C4  UNL d   1       1.944   0.419   0.078  0.00  0.00     0.048 A 
ATOM      6  C5  UNL d   1       2.666   1.463   0.659  0.00  0.00     0.003 A 
ATOM      7  I   UNL d   1      -0.529  -1.132  -0.717  0.00  0.00    -0.146 I 
ENDROOT
TORSDOF 0
ENDMDL
