MODEL 1
REMARK minimizedAffinity -2.79903555
REMARK minimizedRMSD -1
REMARK  0 active torsions:
REMARK  status: ('A' for Active; 'I' for Inactive)
ROOT
ATOM      1  C   UNL d   1       3.580   2.339   0.384  0.00  0.00     0.023 A 
ATOM      2  C1  UNL d   1       3.794   1.183  -0.367  0.00  0.00     0.003 A 
ATOM      3  C2  UNL d   1       2.724   0.339  -0.672  0.00  0.00     0.048 A 
ATOM      4  C3  UNL d   1       1.443   0.657  -0.222  0.00  0.00     0.023 A 
ATOM      5  C4  UNL d   1       1.224   1.812   0.529  0.00  0.00     0.048 A 
ATOM      6  C5  UNL d   1       2.297   2.653   0.832  0.00  0.00     0.003 A 
ATOM      7  I   UNL d   1      -0.151  -0.598  -0.674  0.00  0.00    -0.146 I 
ENDROOT
TORSDOF 0
ENDMDL
