MODEL 1
REMARK minimizedAffinity -4.9436779
REMARK minimizedRMSD -1
REMARK  0 active torsions:
REMARK  status: ('A' for Active; 'I' for Inactive)
ROOT
ATOM      1  C   UNL d   1       2.150   2.698   1.208  0.00  0.00     0.023 A 
ATOM      2  C1  UNL d   1       0.764   2.827   1.300  0.00  0.00     0.003 A 
ATOM      3  C2  UNL d   1      -0.067   1.821   0.803  0.00  0.00     0.048 A 
ATOM      4  C3  UNL d   1       0.496   0.688   0.216  0.00  0.00     0.023 A 
ATOM      5  C4  UNL d   1       1.882   0.554   0.122  0.00  0.00     0.048 A 
ATOM      6  C5  UNL d   1       2.708   1.564   0.620  0.00  0.00     0.003 A 
ATOM      7  I   UNL d   1      -0.739  -0.811  -0.525  0.00  0.00    -0.146 I 
ENDROOT
TORSDOF 0
ENDMDL
