MODEL 1
REMARK minimizedAffinity -3.45679045
REMARK minimizedRMSD -1
REMARK  0 active torsions:
REMARK  status: ('A' for Active; 'I' for Inactive)
ROOT
ATOM      1  C   UNL d   1       2.944   2.507   1.091  0.00  0.00     0.023 A 
ATOM      2  C1  UNL d   1       3.324   1.503   0.200  0.00  0.00     0.003 A 
ATOM      3  C2  UNL d   1       2.389   0.558  -0.229  0.00  0.00     0.048 A 
ATOM      4  C3  UNL d   1       1.077   0.624   0.237  0.00  0.00     0.023 A 
ATOM      5  C4  UNL d   1       0.692   1.627   1.127  0.00  0.00     0.048 A 
ATOM      6  C5  UNL d   1       1.629   2.569   1.554  0.00  0.00     0.003 A 
ATOM      7  I   UNL d   1      -0.316  -0.782  -0.400  0.00  0.00    -0.146 I 
ENDROOT
TORSDOF 0
ENDMDL
