MODEL 1
REMARK minimizedAffinity -2.10207248
REMARK minimizedRMSD -1
REMARK  0 active torsions:
REMARK  status: ('A' for Active; 'I' for Inactive)
ROOT
ATOM      1  C   UNL d   1       1.742   2.512   1.530  0.00  0.00     0.023 A 
ATOM      2  C1  UNL d   1       0.374   2.399   1.780  0.00  0.00     0.003 A 
ATOM      3  C2  UNL d   1      -0.366   1.382   1.173  0.00  0.00     0.048 A 
ATOM      4  C3  UNL d   1       0.268   0.482   0.318  0.00  0.00     0.023 A 
ATOM      5  C4  UNL d   1       1.637   0.590   0.066  0.00  0.00     0.048 A 
ATOM      6  C5  UNL d   1       2.372   1.609   0.674  0.00  0.00     0.003 A 
ATOM      7  I   UNL d   1      -0.832  -1.032  -0.587  0.00  0.00    -0.146 I 
ENDROOT
TORSDOF 0
ENDMDL
