MODEL 1
REMARK minimizedAffinity -3.56413913
REMARK minimizedRMSD -1
REMARK  0 active torsions:
REMARK  status: ('A' for Active; 'I' for Inactive)
ROOT
ATOM      1  C   UNL d   1       2.157   2.780   1.459  0.00  0.00     0.023 A 
ATOM      2  C1  UNL d   1       0.773   2.693   1.615  0.00  0.00     0.003 A 
ATOM      3  C2  UNL d   1       0.075   1.612   1.075  0.00  0.00     0.048 A 
ATOM      4  C3  UNL d   1       0.766   0.619   0.381  0.00  0.00     0.023 A 
ATOM      5  C4  UNL d   1       2.150   0.701   0.223  0.00  0.00     0.048 A 
ATOM      6  C5  UNL d   1       2.844   1.785   0.764  0.00  0.00     0.003 A 
ATOM      7  I   UNL d   1      -0.271  -0.992  -0.423  0.00  0.00    -0.146 I 
ENDROOT
TORSDOF 0
ENDMDL
