MODEL 1
REMARK minimizedAffinity -3.85977983
REMARK minimizedRMSD -1
REMARK  0 active torsions:
REMARK  status: ('A' for Active; 'I' for Inactive)
ROOT
ATOM      1  C   UNL d   1       1.391   2.151   1.622  0.00  0.00     0.023 A 
ATOM      2  C1  UNL d   1       0.264   1.481   2.099  0.00  0.00     0.003 A 
ATOM      3  C2  UNL d   1      -0.406   0.569   1.281  0.00  0.00     0.048 A 
ATOM      4  C3  UNL d   1       0.057   0.331  -0.012  0.00  0.00     0.023 A 
ATOM      5  C4  UNL d   1       1.185   0.998  -0.493  0.00  0.00     0.048 A 
ATOM      6  C5  UNL d   1       1.851   1.910   0.328  0.00  0.00     0.003 A 
ATOM      7  I   UNL d   1      -0.938  -1.027  -1.232  0.00  0.00    -0.146 I 
ENDROOT
TORSDOF 0
ENDMDL
