MODEL 1
REMARK minimizedAffinity -2.47100043
REMARK minimizedRMSD -1
REMARK  0 active torsions:
REMARK  status: ('A' for Active; 'I' for Inactive)
ROOT
ATOM      1  C   UNL d   1       1.294   2.195   1.272  0.00  0.00     0.023 A 
ATOM      2  C1  UNL d   1       1.696   1.664   0.046  0.00  0.00     0.003 A 
ATOM      3  C2  UNL d   1       0.958   0.637  -0.547  0.00  0.00     0.048 A 
ATOM      4  C3  UNL d   1      -0.181   0.147   0.091  0.00  0.00     0.023 A 
ATOM      5  C4  UNL d   1      -0.587   0.676   1.317  0.00  0.00     0.048 A 
ATOM      6  C5  UNL d   1       0.154   1.702   1.907  0.00  0.00     0.003 A 
ATOM      7  I   UNL d   1      -1.281  -1.381  -0.789  0.00  0.00    -0.146 I 
ENDROOT
TORSDOF 0
ENDMDL
