MODEL 1
REMARK minimizedAffinity -5.40546608
REMARK minimizedRMSD -1
REMARK  0 active torsions:
REMARK  status: ('A' for Active; 'I' for Inactive)
ROOT
ATOM      1  C   UNL d   1       2.927   2.725   0.977  0.00  0.00     0.023 A 
ATOM      2  C1  UNL d   1       1.569   2.956   1.199  0.00  0.00     0.003 A 
ATOM      3  C2  UNL d   1       0.626   1.997   0.825  0.00  0.00     0.048 A 
ATOM      4  C3  UNL d   1       1.047   0.809   0.229  0.00  0.00     0.023 A 
ATOM      5  C4  UNL d   1       2.404   0.573   0.005  0.00  0.00     0.048 A 
ATOM      6  C5  UNL d   1       3.344   1.535   0.381  0.00  0.00     0.003 A 
ATOM      7  I   UNL d   1      -0.355  -0.620  -0.329  0.00  0.00    -0.146 I 
ENDROOT
TORSDOF 0
ENDMDL
