MODEL 1
REMARK minimizedAffinity -3.65052176
REMARK minimizedRMSD -1
REMARK  0 active torsions:
REMARK  status: ('A' for Active; 'I' for Inactive)
ROOT
ATOM      1  C   UNL d   1       1.368   2.328   1.505  0.00  0.00     0.023 A 
ATOM      2  C1  UNL d   1       0.047   1.985   1.794  0.00  0.00     0.003 A 
ATOM      3  C2  UNL d   1      -0.574   0.946   1.099  0.00  0.00     0.048 A 
ATOM      4  C3  UNL d   1       0.132   0.252   0.116  0.00  0.00     0.023 A 
ATOM      5  C4  UNL d   1       1.455   0.591  -0.176  0.00  0.00     0.048 A 
ATOM      6  C5  UNL d   1       2.071   1.632   0.522  0.00  0.00     0.003 A 
ATOM      7  I   UNL d   1      -0.790  -1.295  -0.920  0.00  0.00    -0.146 I 
ENDROOT
TORSDOF 0
ENDMDL
