MODEL 1
REMARK minimizedAffinity 0.183756202
REMARK minimizedRMSD -1
REMARK  0 active torsions:
REMARK  status: ('A' for Active; 'I' for Inactive)
ROOT
ATOM      1  C   UNL d   1       2.557   2.518   3.194  0.00  0.00     0.023 A 
ATOM      2  C1  UNL d   1       2.030   3.130   2.057  0.00  0.00     0.003 A 
ATOM      3  C2  UNL d   1       1.099   2.452   1.266  0.00  0.00     0.048 A 
ATOM      4  C3  UNL d   1       0.700   1.163   1.619  0.00  0.00     0.023 A 
ATOM      5  C4  UNL d   1       1.225   0.548   2.757  0.00  0.00     0.048 A 
ATOM      6  C5  UNL d   1       2.156   1.229   3.543  0.00  0.00     0.003 A 
ATOM      7  I   UNL d   1      -0.685   0.153   0.444  0.00  0.00    -0.146 I 
ENDROOT
TORSDOF 0
ENDMDL
