MODEL 1
REMARK minimizedAffinity -4.92546892
REMARK minimizedRMSD -1
REMARK  0 active torsions:
REMARK  status: ('A' for Active; 'I' for Inactive)
ROOT
ATOM      1  C   UNL d   1       1.438   2.375   1.333  0.00  0.00     0.023 A 
ATOM      2  C1  UNL d   1       2.110   1.616   0.375  0.00  0.00     0.003 A 
ATOM      3  C2  UNL d   1       1.443   0.594  -0.303  0.00  0.00     0.048 A 
ATOM      4  C3  UNL d   1       0.102   0.337  -0.019  0.00  0.00     0.023 A 
ATOM      5  C4  UNL d   1      -0.575   1.094   0.938  0.00  0.00     0.048 A 
ATOM      6  C5  UNL d   1       0.096   2.114   1.614  0.00  0.00     0.003 A 
ATOM      7  I   UNL d   1      -0.894  -1.184  -1.027  0.00  0.00    -0.146 I 
ENDROOT
TORSDOF 0
ENDMDL
