MODEL 1
REMARK minimizedAffinity -1.91707766
REMARK minimizedRMSD -1
REMARK  1 active torsions:
REMARK  status: ('A' for Active; 'I' for Inactive)
REMARK    1  A    between atoms: N_2  and  C1_3 
ROOT
ATOM      1  C1  UNL d   1       0.479   0.431  -0.333  0.00  0.00     0.143 A 
ATOM      2  C2  UNL d   1      -0.090   1.395  -1.172  0.00  0.00    -0.057 A 
ATOM      3  C3  UNL d   1      -1.333   1.185  -1.781  0.00  0.00     0.033 A 
ATOM      4  C4  UNL d   1      -2.019  -0.009  -1.583  0.00  0.00    -0.042 A 
ATOM      5  C5  UNL d   1      -1.461  -0.992  -0.773  0.00  0.00     0.033 A 
ATOM      6  C6  UNL d   1      -0.222  -0.774  -0.162  0.00  0.00    -0.057 A 
ENDROOT
BRANCH   1   7
ATOM      7  N   UNL d   1       1.756   0.539   0.222  0.00  0.00    -0.732 N 
ATOM      8  C   UNL d   1       2.271   1.825   0.643  0.00  0.00     0.284 C 
ATOM      9  H3  UNL d   1       1.967  -0.223   0.863  0.00  0.00     0.395 HD
ENDBRANCH   1   7
TORSDOF 1
ENDMDL
