MODEL 1
REMARK minimizedAffinity -3.39767098
REMARK minimizedRMSD -1
REMARK  1 active torsions:
REMARK  status: ('A' for Active; 'I' for Inactive)
REMARK    1  A    between atoms: N_2  and  C1_3 
ROOT
ATOM      1  C1  UNL d   1      -0.643  -0.518   0.193  0.00  0.00     0.143 A 
ATOM      2  C2  UNL d   1      -0.410  -1.508   1.154  0.00  0.00    -0.057 A 
ATOM      3  C3  UNL d   1      -1.353  -2.511   1.406  0.00  0.00     0.033 A 
ATOM      4  C4  UNL d   1      -2.562  -2.526   0.718  0.00  0.00    -0.042 A 
ATOM      5  C5  UNL d   1      -2.826  -1.538  -0.224  0.00  0.00     0.033 A 
ATOM      6  C6  UNL d   1      -1.877  -0.542  -0.475  0.00  0.00    -0.057 A 
ENDROOT
BRANCH   1   7
ATOM      7  N   UNL d   1       0.213   0.563  -0.034  0.00  0.00    -0.732 N 
ATOM      8  C   UNL d   1       1.541   0.585   0.542  0.00  0.00     0.284 C 
ATOM      9  H3  UNL d   1       0.170   0.898  -0.993  0.00  0.00     0.395 HD
ENDBRANCH   1   7
TORSDOF 1
ENDMDL
