MODEL 1
REMARK minimizedAffinity -3.16065526
REMARK minimizedRMSD -1
REMARK  1 active torsions:
REMARK  status: ('A' for Active; 'I' for Inactive)
REMARK    1  A    between atoms: N_2  and  C1_3 
ROOT
ATOM      1  C1  UNL d   1      -0.243  -1.742   0.422  0.00  0.00     0.143 A 
ATOM      2  C2  UNL d   1      -0.151  -0.630  -0.422  0.00  0.00    -0.057 A 
ATOM      3  C3  UNL d   1      -1.159  -0.337  -1.349  0.00  0.00     0.033 A 
ATOM      4  C4  UNL d   1      -2.266  -1.170  -1.469  0.00  0.00    -0.042 A 
ATOM      5  C5  UNL d   1      -2.366  -2.295  -0.658  0.00  0.00     0.033 A 
ATOM      6  C6  UNL d   1      -1.360  -2.579   0.271  0.00  0.00    -0.057 A 
ENDROOT
BRANCH   1   7
ATOM      7  N   UNL d   1       0.772  -2.141   1.296  0.00  0.00    -0.732 N 
ATOM      8  C   UNL d   1       2.140  -1.725   1.075  0.00  0.00     0.284 C 
ATOM      9  H3  UNL d   1       0.480  -2.111   2.270  0.00  0.00     0.395 HD
ENDBRANCH   1   7
TORSDOF 1
ENDMDL
