MODEL 1
REMARK minimizedAffinity -3.2424016
REMARK minimizedRMSD -1
REMARK  1 active torsions:
REMARK  status: ('A' for Active; 'I' for Inactive)
REMARK    1  A    between atoms: N_2  and  C1_3 
ROOT
ATOM      1  C1  UNL d   1       0.316   0.290   0.029  0.00  0.00     0.143 A 
ATOM      2  C2  UNL d   1       1.693   0.051  -0.040  0.00  0.00    -0.057 A 
ATOM      3  C3  UNL d   1       2.619   1.032   0.332  0.00  0.00     0.033 A 
ATOM      4  C4  UNL d   1       2.184   2.284   0.755  0.00  0.00    -0.042 A 
ATOM      5  C5  UNL d   1       0.821   2.552   0.808  0.00  0.00     0.033 A 
ATOM      6  C6  UNL d   1      -0.100   1.566   0.441  0.00  0.00    -0.057 A 
ENDROOT
BRANCH   1   7
ATOM      7  N   UNL d   1      -0.653  -0.610  -0.420  0.00  0.00    -0.732 N 
ATOM      8  C   UNL d   1      -1.555  -0.248  -1.492  0.00  0.00     0.284 C 
ATOM      9  H3  UNL d   1      -0.302  -1.563  -0.477  0.00  0.00     0.395 HD
ENDBRANCH   1   7
TORSDOF 1
ENDMDL
