MODEL 1
REMARK minimizedAffinity -2.84837961
REMARK minimizedRMSD -1
REMARK  1 active torsions:
REMARK  status: ('A' for Active; 'I' for Inactive)
REMARK    1  A    between atoms: N_2  and  C1_3 
ROOT
ATOM      1  C1  UNL d   1       0.209  -0.190  -0.213  0.00  0.00     0.143 A 
ATOM      2  C2  UNL d   1      -0.284  -1.153   0.674  0.00  0.00    -0.057 A 
ATOM      3  C3  UNL d   1      -1.542  -1.738   0.485  0.00  0.00     0.033 A 
ATOM      4  C4  UNL d   1      -2.344  -1.349  -0.583  0.00  0.00    -0.042 A 
ATOM      5  C5  UNL d   1      -1.885  -0.375  -1.463  0.00  0.00     0.033 A 
ATOM      6  C6  UNL d   1      -0.625   0.201  -1.272  0.00  0.00    -0.057 A 
ENDROOT
BRANCH   1   7
ATOM      7  N   UNL d   1       1.408   0.500  -0.024  0.00  0.00    -0.732 N 
ATOM      8  C   UNL d   1       1.450   1.699   0.786  0.00  0.00     0.284 C 
ATOM      9  H3  UNL d   1       2.198  -0.125   0.119  0.00  0.00     0.395 HD
ENDBRANCH   1   7
TORSDOF 1
ENDMDL
