MODEL 1
REMARK minimizedAffinity -4.38561916
REMARK minimizedRMSD -1
REMARK  1 active torsions:
REMARK  status: ('A' for Active; 'I' for Inactive)
REMARK    1  A    between atoms: N_2  and  C1_3 
ROOT
ATOM      1  C1  UNL d   1       0.704   0.874   0.327  0.00  0.00     0.143 A 
ATOM      2  C2  UNL d   1       2.101   0.806   0.312  0.00  0.00    -0.057 A 
ATOM      3  C3  UNL d   1       2.883   1.811   0.895  0.00  0.00     0.033 A 
ATOM      4  C4  UNL d   1       2.278   2.919   1.480  0.00  0.00    -0.042 A 
ATOM      5  C5  UNL d   1       0.892   3.019   1.484  0.00  0.00     0.033 A 
ATOM      6  C6  UNL d   1       0.117   2.009   0.906  0.00  0.00    -0.057 A 
ENDROOT
BRANCH   1   7
ATOM      7  N   UNL d   1      -0.126  -0.044  -0.323  0.00  0.00    -0.732 N 
ATOM      8  C   UNL d   1      -1.306  -0.563   0.333  0.00  0.00     0.284 C 
ATOM      9  H3  UNL d   1      -0.262   0.183  -1.305  0.00  0.00     0.395 HD
ENDBRANCH   1   7
TORSDOF 1
ENDMDL
