MODEL 1
REMARK minimizedAffinity -2.97664905
REMARK minimizedRMSD -1
REMARK  1 active torsions:
REMARK  status: ('A' for Active; 'I' for Inactive)
REMARK    1  A    between atoms: N_2  and  C1_3 
ROOT
ATOM      1  C1  UNL d   1       1.097   1.554  -0.024  0.00  0.00     0.143 A 
ATOM      2  C2  UNL d   1       1.004   0.204  -0.379  0.00  0.00    -0.057 A 
ATOM      3  C3  UNL d   1      -0.199  -0.344  -0.839  0.00  0.00     0.033 A 
ATOM      4  C4  UNL d   1      -1.342   0.444  -0.924  0.00  0.00    -0.042 A 
ATOM      5  C5  UNL d   1      -1.279   1.783  -0.552  0.00  0.00     0.033 A 
ATOM      6  C6  UNL d   1      -0.073   2.326  -0.101  0.00  0.00    -0.057 A 
ENDROOT
BRANCH   1   7
ATOM      7  N   UNL d   1       2.240   2.135   0.533  0.00  0.00    -0.732 N 
ATOM      8  C   UNL d   1       2.153   2.906   1.755  0.00  0.00     0.284 C 
ATOM      9  H3  UNL d   1       3.050   1.522   0.485  0.00  0.00     0.395 HD
ENDBRANCH   1   7
TORSDOF 1
ENDMDL
