MODEL 1
REMARK minimizedAffinity -4.36299229
REMARK minimizedRMSD -1
REMARK  1 active torsions:
REMARK  status: ('A' for Active; 'I' for Inactive)
REMARK    1  A    between atoms: N_2  and  C1_3 
ROOT
ATOM      1  C1  UNL d   1      -0.346   0.127   0.143  0.00  0.00     0.143 A 
ATOM      2  C2  UNL d   1      -0.858  -0.548  -0.971  0.00  0.00    -0.057 A 
ATOM      3  C3  UNL d   1      -2.223  -0.837  -1.081  0.00  0.00     0.033 A 
ATOM      4  C4  UNL d   1      -3.100  -0.479  -0.063  0.00  0.00    -0.042 A 
ATOM      5  C5  UNL d   1      -2.611   0.171   1.065  0.00  0.00     0.033 A 
ATOM      6  C6  UNL d   1      -1.247   0.462   1.166  0.00  0.00    -0.057 A 
ENDROOT
BRANCH   1   7
ATOM      7  N   UNL d   1       1.015   0.356   0.356  0.00  0.00    -0.732 N 
ATOM      8  C   UNL d   1       1.457   1.461   1.180  0.00  0.00     0.284 C 
ATOM      9  H3  UNL d   1       1.535  -0.506   0.504  0.00  0.00     0.395 HD
ENDBRANCH   1   7
TORSDOF 1
ENDMDL
