MODEL 1
REMARK minimizedAffinity -0.170909345
REMARK minimizedRMSD -1
REMARK  1 active torsions:
REMARK  status: ('A' for Active; 'I' for Inactive)
REMARK    1  A    between atoms: N_2  and  C1_3 
ROOT
ATOM      1  C1  UNL d   1       0.198   0.511  -0.771  0.00  0.00     0.143 A 
ATOM      2  C2  UNL d   1      -0.674   0.530  -1.865  0.00  0.00    -0.057 A 
ATOM      3  C3  UNL d   1      -1.827  -0.264  -1.888  0.00  0.00     0.033 A 
ATOM      4  C4  UNL d   1      -2.114  -1.115  -0.826  0.00  0.00    -0.042 A 
ATOM      5  C5  UNL d   1      -1.249  -1.168   0.261  0.00  0.00     0.033 A 
ATOM      6  C6  UNL d   1      -0.102  -0.368   0.281  0.00  0.00    -0.057 A 
ENDROOT
BRANCH   1   7
ATOM      7  N   UNL d   1       1.411   1.203  -0.732  0.00  0.00    -0.732 N 
ATOM      8  C   UNL d   1       1.809   1.926   0.457  0.00  0.00     0.284 C 
ATOM      9  H3  UNL d   1       2.167   0.687  -1.177  0.00  0.00     0.395 HD
ENDBRANCH   1   7
TORSDOF 1
ENDMDL
