MODEL 1
REMARK minimizedAffinity 0.012820011
REMARK minimizedRMSD -1
REMARK  0 active torsions:
REMARK  status: ('A' for Active; 'I' for Inactive)
ROOT
ATOM      1  N1  IND d   1       0.330   1.740  -0.959  0.00  0.00    -0.196 N 
ATOM      2  C2  IND d   1       0.939   0.714  -1.626  0.00  0.00     0.054 A 
ATOM      3  C3  IND d   1       0.877  -0.423  -0.897  0.00  0.00    -0.031 A 
ATOM      4  C4  IND d   1      -0.265  -0.852   1.370  0.00  0.00     0.051 A 
ATOM      5  C5  IND d   1      -0.921  -0.212   2.384  0.00  0.00    -0.031 A 
ATOM      6  C6  IND d   1      -1.201   1.138   2.333  0.00  0.00     0.015 A 
ATOM      7  C7  IND d   1      -0.844   1.900   1.257  0.00  0.00    -0.016 A 
ATOM      8  C8  IND d   1      -0.173   1.255   0.228  0.00  0.00    -0.047 A 
ATOM      9  C9  IND d   1       0.152  -0.107   0.293  0.00  0.00    -0.096 A 
ATOM     10  HN1 IND d   1       0.270   2.552  -1.235  0.00  0.00     0.298 HD
ENDROOT
TORSDOF 0
ENDMDL
