MODEL 1
REMARK minimizedAffinity -4.6451416
REMARK minimizedRMSD -1
REMARK  0 active torsions:
REMARK  status: ('A' for Active; 'I' for Inactive)
ROOT
ATOM      1  N1  IND d   1      -0.413  -3.580  -1.842  0.00  0.00    -0.196 N 
ATOM      2  C2  IND d   1       0.299  -3.630  -3.007  0.00  0.00     0.054 A 
ATOM      3  C3  IND d   1       1.018  -2.497  -3.168  0.00  0.00    -0.031 A 
ATOM      4  C4  IND d   1       1.255  -0.473  -1.595  0.00  0.00     0.051 A 
ATOM      5  C5  IND d   1       0.769   0.047  -0.428  0.00  0.00    -0.031 A 
ATOM      6  C6  IND d   1      -0.152  -0.631   0.344  0.00  0.00     0.015 A 
ATOM      7  C7  IND d   1      -0.615  -1.864  -0.018  0.00  0.00    -0.016 A 
ATOM      8  C8  IND d   1      -0.130  -2.392  -1.205  0.00  0.00    -0.047 A 
ATOM      9  C9  IND d   1       0.773  -1.691  -2.015  0.00  0.00    -0.096 A 
ATOM     10  HN1 IND d   1      -0.948  -4.189  -1.554  0.00  0.00     0.298 HD
ENDROOT
TORSDOF 0
ENDMDL
