MODEL 1
REMARK minimizedAffinity -4.14867878
REMARK minimizedRMSD -1
REMARK  0 active torsions:
REMARK  status: ('A' for Active; 'I' for Inactive)
ROOT
ATOM      1  N1  IND d   1      -2.194   1.656   2.412  0.00  0.00    -0.196 N 
ATOM      2  C2  IND d   1      -2.464   2.709   1.582  0.00  0.00     0.054 A 
ATOM      3  C3  IND d   1      -1.579   2.742   0.561  0.00  0.00    -0.031 A 
ATOM      4  C4  IND d   1       0.332   1.111  -0.001  0.00  0.00     0.051 A 
ATOM      5  C5  IND d   1       0.990   0.015   0.483  0.00  0.00    -0.031 A 
ATOM      6  C6  IND d   1       0.611  -0.604   1.657  0.00  0.00     0.015 A 
ATOM      7  C7  IND d   1      -0.452  -0.154   2.388  0.00  0.00    -0.016 A 
ATOM      8  C8  IND d   1      -1.118   0.962   1.903  0.00  0.00    -0.047 A 
ATOM      9  C9  IND d   1      -0.712   1.620   0.735  0.00  0.00    -0.096 A 
ATOM     10  HN1 IND d   1      -2.624   1.460   3.130  0.00  0.00     0.298 HD
ENDROOT
TORSDOF 0
ENDMDL
