MODEL 1
REMARK minimizedAffinity -5.43334484
REMARK minimizedRMSD -1
REMARK  0 active torsions:
REMARK  status: ('A' for Active; 'I' for Inactive)
ROOT
ATOM      1  N1  IND d   1       1.035   0.579  -0.017  0.00  0.00    -0.196 N 
ATOM      2  C2  IND d   1       0.795  -0.679  -0.496  0.00  0.00     0.054 A 
ATOM      3  C3  IND d   1      -0.515  -0.988  -0.372  0.00  0.00    -0.031 A 
ATOM      4  C4  IND d   1      -2.460   0.457   0.497  0.00  0.00     0.051 A 
ATOM      5  C5  IND d   1      -2.730   1.665   1.078  0.00  0.00    -0.031 A 
ATOM      6  C6  IND d   1      -1.738   2.592   1.327  0.00  0.00     0.015 A 
ATOM      7  C7  IND d   1      -0.436   2.349   0.991  0.00  0.00    -0.016 A 
ATOM      8  C8  IND d   1      -0.158   1.121   0.407  0.00  0.00    -0.047 A 
ATOM      9  C9  IND d   1      -1.153   0.160   0.191  0.00  0.00    -0.096 A 
ATOM     10  HN1 IND d   1       1.802   0.966   0.014  0.00  0.00     0.298 HD
ENDROOT
TORSDOF 0
ENDMDL
