MODEL 1
REMARK minimizedAffinity -5.53323698
REMARK minimizedRMSD -1
REMARK  0 active torsions:
REMARK  status: ('A' for Active; 'I' for Inactive)
ROOT
ATOM      1  N1  IND d   1       0.700   0.991  -0.547  0.00  0.00    -0.196 N 
ATOM      2  C2  IND d   1       0.724  -0.258   0.010  0.00  0.00     0.054 A 
ATOM      3  C3  IND d   1      -0.269  -0.387   0.917  0.00  0.00    -0.031 A 
ATOM      4  C4  IND d   1      -2.112   1.286   1.575  0.00  0.00     0.051 A 
ATOM      5  C5  IND d   1      -2.525   2.572   1.364  0.00  0.00    -0.031 A 
ATOM      6  C6  IND d   1      -1.872   3.412   0.486  0.00  0.00     0.015 A 
ATOM      7  C7  IND d   1      -0.784   2.993  -0.226  0.00  0.00    -0.016 A 
ATOM      8  C8  IND d   1      -0.358   1.690  -0.009  0.00  0.00    -0.047 A 
ATOM      9  C9  IND d   1      -0.991   0.846   0.912  0.00  0.00    -0.096 A 
ATOM     10  HN1 IND d   1       1.253   1.289  -1.134  0.00  0.00     0.298 HD
ENDROOT
TORSDOF 0
ENDMDL
