MODEL 1
REMARK minimizedAffinity -4.366539
REMARK minimizedRMSD -1
REMARK  0 active torsions:
REMARK  status: ('A' for Active; 'I' for Inactive)
ROOT
ATOM      1  N1  IND d   1      -0.009   2.232  -0.671  0.00  0.00    -0.196 N 
ATOM      2  C2  IND d   1      -0.559   3.402  -0.227  0.00  0.00     0.054 A 
ATOM      3  C3  IND d   1      -1.196   3.206   0.949  0.00  0.00    -0.031 A 
ATOM      4  C4  IND d   1      -1.377   1.071   2.375  0.00  0.00     0.051 A 
ATOM      5  C5  IND d   1      -1.067  -0.261   2.366  0.00  0.00    -0.031 A 
ATOM      6  C6  IND d   1      -0.372  -0.840   1.324  0.00  0.00     0.015 A 
ATOM      7  C7  IND d   1       0.050  -0.104   0.253  0.00  0.00    -0.016 A 
ATOM      8  C8  IND d   1      -0.269   1.246   0.256  0.00  0.00    -0.047 A 
ATOM      9  C9  IND d   1      -1.011   1.831   1.290  0.00  0.00    -0.096 A 
ATOM     10  HN1 IND d   1       0.426   2.128  -1.406  0.00  0.00     0.298 HD
ENDROOT
TORSDOF 0
ENDMDL
