MODEL 1
REMARK minimizedAffinity -5.01771975
REMARK minimizedRMSD -1
REMARK  0 active torsions:
REMARK  status: ('A' for Active; 'I' for Inactive)
ROOT
ATOM      1  N1  IND d   1      -0.381   0.428   2.262  0.00  0.00    -0.196 N 
ATOM      2  C2  IND d   1       0.514  -0.428   1.685  0.00  0.00     0.054 A 
ATOM      3  C3  IND d   1       0.797  -0.033   0.423  0.00  0.00    -0.031 A 
ATOM      4  C4  IND d   1      -0.018   2.044  -0.862  0.00  0.00     0.051 A 
ATOM      5  C5  IND d   1      -0.875   3.104  -0.763  0.00  0.00    -0.031 A 
ATOM      6  C6  IND d   1      -1.625   3.332   0.373  0.00  0.00     0.015 A 
ATOM      7  C7  IND d   1      -1.536   2.512   1.461  0.00  0.00    -0.016 A 
ATOM      8  C8  IND d   1      -0.672   1.431   1.362  0.00  0.00    -0.047 A 
ATOM      9  C9  IND d   1       0.060   1.170   0.197  0.00  0.00    -0.096 A 
ATOM     10  HN1 IND d   1      -0.708   0.353   3.053  0.00  0.00     0.298 HD
ENDROOT
TORSDOF 0
ENDMDL
