MODEL 1
REMARK minimizedAffinity -4.21780014
REMARK minimizedRMSD -1
REMARK  0 active torsions:
REMARK  status: ('A' for Active; 'I' for Inactive)
ROOT
ATOM      1  N1  IND d   1       0.946   0.021  -0.399  0.00  0.00    -0.196 N 
ATOM      2  C2  IND d   1       0.658  -1.310  -0.512  0.00  0.00     0.054 A 
ATOM      3  C3  IND d   1      -0.613  -1.552  -0.120  0.00  0.00    -0.031 A 
ATOM      4  C4  IND d   1      -2.430   0.103   0.647  0.00  0.00     0.051 A 
ATOM      5  C5  IND d   1      -2.630   1.421   0.946  0.00  0.00    -0.031 A 
ATOM      6  C6  IND d   1      -1.628   2.360   0.807  0.00  0.00     0.015 A 
ATOM      7  C7  IND d   1      -0.387   2.015   0.351  0.00  0.00    -0.016 A 
ATOM      8  C8  IND d   1      -0.179   0.676   0.052  0.00  0.00    -0.047 A 
ATOM      9  C9  IND d   1      -1.179  -0.288   0.232  0.00  0.00    -0.096 A 
ATOM     10  HN1 IND d   1       1.702   0.388  -0.579  0.00  0.00     0.298 HD
ENDROOT
TORSDOF 0
ENDMDL
