MODEL 1
REMARK minimizedAffinity -6.06305313
REMARK minimizedRMSD -1
REMARK  0 active torsions:
REMARK  status: ('A' for Active; 'I' for Inactive)
ROOT
ATOM      1  N1  IND d   1       0.431   0.008  -1.240  0.00  0.00    -0.196 N 
ATOM      2  C2  IND d   1      -0.218  -1.144  -0.892  0.00  0.00     0.054 A 
ATOM      3  C3  IND d   1      -1.191  -0.882   0.010  0.00  0.00    -0.031 A 
ATOM      4  C4  IND d   1      -1.960   1.376   0.977  0.00  0.00     0.051 A 
ATOM      5  C5  IND d   1      -1.646   2.706   0.987  0.00  0.00    -0.031 A 
ATOM      6  C6  IND d   1      -0.605   3.216   0.238  0.00  0.00     0.015 A 
ATOM      7  C7  IND d   1       0.158   2.412  -0.561  0.00  0.00    -0.016 A 
ATOM      8  C8  IND d   1      -0.153   1.059  -0.568  0.00  0.00    -0.047 A 
ATOM      9  C9  IND d   1      -1.182   0.530   0.222  0.00  0.00    -0.096 A 
ATOM     10  HN1 IND d   1       1.092   0.065  -1.786  0.00  0.00     0.298 HD
ENDROOT
TORSDOF 0
ENDMDL
