MODEL 1
REMARK minimizedAffinity -4.22332573
REMARK minimizedRMSD -1
REMARK  0 active torsions:
REMARK  status: ('A' for Active; 'I' for Inactive)
ROOT
ATOM      1  N1  IND d   1       0.940   2.194  -1.329  0.00  0.00    -0.196 N 
ATOM      2  C2  IND d   1       0.454   3.464  -1.187  0.00  0.00     0.054 A 
ATOM      3  C3  IND d   1      -0.254   3.571  -0.041  0.00  0.00    -0.031 A 
ATOM      4  C4  IND d   1      -0.658   1.820   1.802  0.00  0.00     0.051 A 
ATOM      5  C5  IND d   1      -0.444   0.504   2.103  0.00  0.00    -0.031 A 
ATOM      6  C6  IND d   1       0.259  -0.332   1.260  0.00  0.00     0.015 A 
ATOM      7  C7  IND d   1       0.786   0.122   0.084  0.00  0.00    -0.016 A 
ATOM      8  C8  IND d   1       0.565   1.456  -0.228  0.00  0.00    -0.047 A 
ATOM      9  C9  IND d   1      -0.184   2.298   0.603  0.00  0.00    -0.096 A 
ATOM     10  HN1 IND d   1       1.403   1.905  -1.994  0.00  0.00     0.298 HD
ENDROOT
TORSDOF 0
ENDMDL
