MODEL 1
REMARK minimizedAffinity -4.50866842
REMARK minimizedRMSD -1
REMARK  0 active torsions:
REMARK  status: ('A' for Active; 'I' for Inactive)
ROOT
ATOM      1  N1  IND d   1       1.056   1.007  -0.963  0.00  0.00    -0.196 N 
ATOM      2  C2  IND d   1       1.084  -0.321  -0.642  0.00  0.00     0.054 A 
ATOM      3  C3  IND d   1       0.357  -0.551   0.474  0.00  0.00    -0.031 A 
ATOM      4  C4  IND d   1      -1.048   1.089   1.877  0.00  0.00     0.051 A 
ATOM      5  C5  IND d   1      -1.354   2.415   1.997  0.00  0.00    -0.031 A 
ATOM      6  C6  IND d   1      -0.865   3.359   1.117  0.00  0.00     0.015 A 
ATOM      7  C7  IND d   1      -0.056   3.008   0.073  0.00  0.00    -0.016 A 
ATOM      8  C8  IND d   1       0.262   1.663  -0.048  0.00  0.00    -0.047 A 
ATOM      9  C9  IND d   1      -0.197   0.706   0.867  0.00  0.00    -0.096 A 
ATOM     10  HN1 IND d   1       1.465   1.372  -1.626  0.00  0.00     0.298 HD
ENDROOT
TORSDOF 0
ENDMDL
