MODEL 1
REMARK minimizedAffinity -5.66387272
REMARK minimizedRMSD -1
REMARK  0 active torsions:
REMARK  status: ('A' for Active; 'I' for Inactive)
ROOT
ATOM      1  N1  IND d   1       0.948   1.762  -1.309  0.00  0.00    -0.196 N 
ATOM      2  C2  IND d   1       0.587   3.047  -1.604  0.00  0.00     0.054 A 
ATOM      3  C3  IND d   1      -0.273   3.519  -0.674  0.00  0.00    -0.031 A 
ATOM      4  C4  IND d   1      -1.144   2.392   1.471  0.00  0.00     0.051 A 
ATOM      5  C5  IND d   1      -1.124   1.206   2.149  0.00  0.00    -0.031 A 
ATOM      6  C6  IND d   1      -0.395   0.123   1.701  0.00  0.00     0.015 A 
ATOM      7  C7  IND d   1       0.353   0.190   0.560  0.00  0.00    -0.016 A 
ATOM      8  C8  IND d   1       0.329   1.391  -0.135  0.00  0.00    -0.047 A 
ATOM      9  C9  IND d   1      -0.442   2.480   0.292  0.00  0.00    -0.096 A 
ATOM     10  HN1 IND d   1       1.473   1.268  -1.778  0.00  0.00     0.298 HD
ENDROOT
TORSDOF 0
ENDMDL
