MODEL 1
REMARK minimizedAffinity -6.41744089
REMARK minimizedRMSD -1
REMARK  0 active torsions:
REMARK  status: ('A' for Active; 'I' for Inactive)
ROOT
ATOM      1  N1  IND d   1       0.789   0.445  -0.763  0.00  0.00    -0.196 N 
ATOM      2  C2  IND d   1       0.578  -0.645   0.034  0.00  0.00     0.054 A 
ATOM      3  C3  IND d   1      -0.246  -0.327   1.058  0.00  0.00    -0.031 A 
ATOM      4  C4  IND d   1      -1.447   1.894   1.561  0.00  0.00     0.051 A 
ATOM      5  C5  IND d   1      -1.537   3.190   1.137  0.00  0.00    -0.031 A 
ATOM      6  C6  IND d   1      -0.845   3.646   0.034  0.00  0.00     0.015 A 
ATOM      7  C7  IND d   1      -0.042   2.816  -0.696  0.00  0.00    -0.016 A 
ATOM      8  C8  IND d   1       0.058   1.501  -0.264  0.00  0.00    -0.047 A 
ATOM      9  C9  IND d   1      -0.609   1.043   0.880  0.00  0.00    -0.096 A 
ATOM     10  HN1 IND d   1       1.293   0.468  -1.459  0.00  0.00     0.298 HD
ENDROOT
TORSDOF 0
ENDMDL
