MODEL 1
REMARK minimizedAffinity -4.67417908
REMARK minimizedRMSD -1
REMARK  0 active torsions:
REMARK  status: ('A' for Active; 'I' for Inactive)
ROOT
ATOM      1  N1  IND d   1      -0.300   2.661  -0.624  0.00  0.00    -0.196 N 
ATOM      2  C2  IND d   1      -0.842   3.772  -0.039  0.00  0.00     0.054 A 
ATOM      3  C3  IND d   1      -1.544   3.428   1.064  0.00  0.00    -0.031 A 
ATOM      4  C4  IND d   1      -1.854   1.114   2.150  0.00  0.00     0.051 A 
ATOM      5  C5  IND d   1      -1.579  -0.211   1.959  0.00  0.00    -0.031 A 
ATOM      6  C6  IND d   1      -0.847  -0.655   0.877  0.00  0.00     0.015 A 
ATOM      7  C7  IND d   1      -0.350   0.214  -0.052  0.00  0.00    -0.016 A 
ATOM      8  C8  IND d   1      -0.633   1.560   0.134  0.00  0.00    -0.047 A 
ATOM      9  C9  IND d   1      -1.412   2.012   1.207  0.00  0.00    -0.096 A 
ATOM     10  HN1 IND d   1       0.169   2.652  -1.344  0.00  0.00     0.298 HD
ENDROOT
TORSDOF 0
ENDMDL
