MODEL 1
REMARK minimizedAffinity -5.85125017
REMARK minimizedRMSD -1
REMARK  0 active torsions:
REMARK  status: ('A' for Active; 'I' for Inactive)
ROOT
ATOM      1  N1  IND d   1       0.759  -0.019  -1.120  0.00  0.00    -0.196 N 
ATOM      2  C2  IND d   1       0.201  -1.116  -0.526  0.00  0.00     0.054 A 
ATOM      3  C3  IND d   1      -0.781  -0.742   0.325  0.00  0.00    -0.031 A 
ATOM      4  C4  IND d   1      -1.709   1.608   0.820  0.00  0.00     0.051 A 
ATOM      5  C5  IND d   1      -1.496   2.930   0.546  0.00  0.00    -0.031 A 
ATOM      6  C6  IND d   1      -0.502   3.345  -0.316  0.00  0.00     0.015 A 
ATOM      7  C7  IND d   1       0.312   2.448  -0.949  0.00  0.00    -0.016 A 
ATOM      8  C8  IND d   1       0.104   1.105  -0.668  0.00  0.00    -0.047 A 
ATOM      9  C9  IND d   1      -0.876   0.681   0.239  0.00  0.00    -0.096 A 
ATOM     10  HN1 IND d   1       1.410  -0.029  -1.681  0.00  0.00     0.298 HD
ENDROOT
TORSDOF 0
ENDMDL
