MODEL 1
REMARK minimizedAffinity 12.4460268
REMARK minimizedRMSD -1
REMARK  0 active torsions:
REMARK  status: ('A' for Active; 'I' for Inactive)
ROOT
ATOM      1  C   UNL d   1      -0.393  -5.751  -0.416  0.00  0.00     0.077 C 
ATOM      2  C1  UNL d   1      -1.576  -5.841  -1.333  0.00  0.00    -0.074 A 
ATOM      3  C2  UNL d   1      -2.879  -5.871  -0.825  0.00  0.00    -0.005 A 
ATOM      4  C3  UNL d   1      -3.970  -5.946  -1.691  0.00  0.00     0.006 A 
ATOM      5  C4  UNL d   1      -3.769  -5.990  -3.072  0.00  0.00    -0.005 A 
ATOM      6  C5  UNL d   1      -2.474  -5.960  -3.598  0.00  0.00    -0.074 A 
ATOM      7  C6  UNL d   1      -2.242  -5.997  -5.079  0.00  0.00     0.077 C 
ATOM      8  C7  UNL d   1      -1.383  -5.878  -2.722  0.00  0.00    -0.001 A 
ENDROOT
TORSDOF 0
ENDMDL
