MODEL 1
REMARK minimizedAffinity 12.2874193
REMARK minimizedRMSD -1
REMARK  0 active torsions:
REMARK  status: ('A' for Active; 'I' for Inactive)
ROOT
ATOM      1  C   UNL d   1      -6.000   0.338  -4.422  0.00  0.00     0.077 C 
ATOM      2  C1  UNL d   1      -5.250   0.363  -3.124  0.00  0.00    -0.074 A 
ATOM      3  C2  UNL d   1      -5.901   0.664  -1.923  0.00  0.00    -0.005 A 
ATOM      4  C3  UNL d   1      -5.192   0.674  -0.722  0.00  0.00     0.006 A 
ATOM      5  C4  UNL d   1      -3.827   0.384  -0.709  0.00  0.00    -0.005 A 
ATOM      6  C5  UNL d   1      -3.159   0.079  -1.900  0.00  0.00    -0.074 A 
ATOM      7  C6  UNL d   1      -1.695  -0.245  -1.902  0.00  0.00     0.077 C 
ATOM      8  C7  UNL d   1      -3.880   0.064  -3.102  0.00  0.00    -0.001 A 
ENDROOT
TORSDOF 0
ENDMDL
