MODEL 1
REMARK minimizedAffinity 12.5739136
REMARK minimizedRMSD -1
REMARK  0 active torsions:
REMARK  status: ('A' for Active; 'I' for Inactive)
ROOT
ATOM      1  C   UNL d   1       1.321  -2.140  -2.938  0.00  0.00     0.077 C 
ATOM      2  C1  UNL d   1       1.851  -1.573  -1.655  0.00  0.00    -0.074 A 
ATOM      3  C2  UNL d   1       2.020  -2.383  -0.526  0.00  0.00    -0.005 A 
ATOM      4  C3  UNL d   1       2.523  -1.843   0.657  0.00  0.00     0.006 A 
ATOM      5  C4  UNL d   1       2.863  -0.491   0.725  0.00  0.00    -0.005 A 
ATOM      6  C5  UNL d   1       2.702   0.333  -0.393  0.00  0.00    -0.074 A 
ATOM      7  C6  UNL d   1       3.071   1.786  -0.341  0.00  0.00     0.077 C 
ATOM      8  C7  UNL d   1       2.202  -0.218  -1.581  0.00  0.00    -0.001 A 
ENDROOT
TORSDOF 0
ENDMDL
