MODEL 1
REMARK minimizedAffinity 9.34521198
REMARK minimizedRMSD -1
REMARK  0 active torsions:
REMARK  status: ('A' for Active; 'I' for Inactive)
ROOT
ATOM      1  C   UNL d   1       1.963  -1.799  -0.981  0.00  0.00     0.077 C 
ATOM      2  C1  UNL d   1       2.607  -0.489  -0.639  0.00  0.00    -0.074 A 
ATOM      3  C2  UNL d   1       2.623  -0.017   0.678  0.00  0.00    -0.005 A 
ATOM      4  C3  UNL d   1       3.235   1.199   0.982  0.00  0.00     0.006 A 
ATOM      5  C4  UNL d   1       3.836   1.954  -0.026  0.00  0.00    -0.005 A 
ATOM      6  C5  UNL d   1       3.830   1.499  -1.348  0.00  0.00    -0.074 A 
ATOM      7  C6  UNL d   1       4.480   2.294  -2.441  0.00  0.00     0.077 C 
ATOM      8  C7  UNL d   1       3.220   0.272  -1.644  0.00  0.00    -0.001 A 
ENDROOT
TORSDOF 0
ENDMDL
