MODEL 1
REMARK minimizedAffinity 12.0503263
REMARK minimizedRMSD -1
REMARK  0 active torsions:
REMARK  status: ('A' for Active; 'I' for Inactive)
ROOT
ATOM      1  C   UNL d   1       1.198  -2.783  -0.431  0.00  0.00     0.077 C 
ATOM      2  C1  UNL d   1       2.030  -1.625   0.032  0.00  0.00    -0.074 A 
ATOM      3  C2  UNL d   1       2.729  -1.680   1.242  0.00  0.00    -0.005 A 
ATOM      4  C3  UNL d   1       3.507  -0.598   1.655  0.00  0.00     0.006 A 
ATOM      5  C4  UNL d   1       3.593   0.548   0.864  0.00  0.00    -0.005 A 
ATOM      6  C5  UNL d   1       2.902   0.621  -0.349  0.00  0.00    -0.074 A 
ATOM      7  C6  UNL d   1       2.992   1.841  -1.217  0.00  0.00     0.077 C 
ATOM      8  C7  UNL d   1       2.128  -0.473  -0.761  0.00  0.00    -0.001 A 
ENDROOT
TORSDOF 0
ENDMDL
