MODEL 1
REMARK minimizedAffinity 6.780653
REMARK minimizedRMSD -1
REMARK  0 active torsions:
REMARK  status: ('A' for Active; 'I' for Inactive)
ROOT
ATOM      1  C   UNL d   1      -6.000   1.872  -3.565  0.00  0.00     0.077 C 
ATOM      2  C1  UNL d   1      -5.332   1.242  -2.379  0.00  0.00    -0.074 A 
ATOM      3  C2  UNL d   1      -4.632   0.038  -2.504  0.00  0.00    -0.005 A 
ATOM      4  C3  UNL d   1      -4.008  -0.531  -1.394  0.00  0.00     0.006 A 
ATOM      5  C4  UNL d   1      -4.079   0.096  -0.150  0.00  0.00    -0.005 A 
ATOM      6  C5  UNL d   1      -4.774   1.301  -0.006  0.00  0.00    -0.074 A 
ATOM      7  C6  UNL d   1      -4.851   1.993   1.323  0.00  0.00     0.077 C 
ATOM      8  C7  UNL d   1      -5.392   1.870  -1.127  0.00  0.00    -0.001 A 
ENDROOT
TORSDOF 0
ENDMDL
