MODEL 1
REMARK minimizedAffinity 5.60305643
REMARK minimizedRMSD -1
REMARK  0 active torsions:
REMARK  status: ('A' for Active; 'I' for Inactive)
ROOT
ATOM      1  C   UNL d   1       3.376   1.514  -1.125  0.00  0.00     0.077 C 
ATOM      2  C1  UNL d   1       2.855   0.114  -0.986  0.00  0.00    -0.074 A 
ATOM      3  C2  UNL d   1       2.707  -0.476   0.273  0.00  0.00    -0.005 A 
ATOM      4  C3  UNL d   1       2.212  -1.775   0.387  0.00  0.00     0.006 A 
ATOM      5  C4  UNL d   1       1.862  -2.496  -0.756  0.00  0.00    -0.005 A 
ATOM      6  C5  UNL d   1       2.003  -1.922  -2.023  0.00  0.00    -0.074 A 
ATOM      7  C6  UNL d   1       1.622  -2.680  -3.260  0.00  0.00     0.077 C 
ATOM      8  C7  UNL d   1       2.494  -0.614  -2.128  0.00  0.00    -0.001 A 
ENDROOT
TORSDOF 0
ENDMDL
