MODEL 1
REMARK minimizedAffinity 1.85782421
REMARK minimizedRMSD -1
REMARK  0 active torsions:
REMARK  status: ('A' for Active; 'I' for Inactive)
ROOT
ATOM      1  C   UNL d   1       4.526   0.625  -3.212  0.00  0.00     0.077 C 
ATOM      2  C1  UNL d   1       3.735   0.410  -1.956  0.00  0.00    -0.074 A 
ATOM      3  C2  UNL d   1       3.425   1.480  -1.110  0.00  0.00    -0.005 A 
ATOM      4  C3  UNL d   1       2.681   1.266   0.050  0.00  0.00     0.006 A 
ATOM      5  C4  UNL d   1       2.239  -0.017   0.375  0.00  0.00    -0.005 A 
ATOM      6  C5  UNL d   1       2.539  -1.099  -0.459  0.00  0.00    -0.074 A 
ATOM      7  C6  UNL d   1       2.064  -2.483  -0.129  0.00  0.00     0.077 C 
ATOM      8  C7  UNL d   1       3.282  -0.875  -1.626  0.00  0.00    -0.001 A 
ENDROOT
TORSDOF 0
ENDMDL
