MODEL 1
REMARK minimizedAffinity 9.92276287
REMARK minimizedRMSD -1
REMARK  0 active torsions:
REMARK  status: ('A' for Active; 'I' for Inactive)
ROOT
ATOM      1  C   UNL d   1       2.583   0.090  -0.222  0.00  0.00     0.077 C 
ATOM      2  C1  UNL d   1       3.627   1.163  -0.316  0.00  0.00    -0.074 A 
ATOM      3  C2  UNL d   1       4.138   1.561  -1.556  0.00  0.00    -0.005 A 
ATOM      4  C3  UNL d   1       5.101   2.567  -1.629  0.00  0.00     0.006 A 
ATOM      5  C4  UNL d   1       5.563   3.184  -0.465  0.00  0.00    -0.005 A 
ATOM      6  C5  UNL d   1       5.062   2.799   0.783  0.00  0.00    -0.074 A 
ATOM      7  C6  UNL d   1       5.540   3.459   2.042  0.00  0.00     0.077 C 
ATOM      8  C7  UNL d   1       4.089   1.793   0.848  0.00  0.00    -0.001 A 
ENDROOT
TORSDOF 0
ENDMDL
