MODEL 1
REMARK minimizedAffinity 15.9229145
REMARK minimizedRMSD -1
REMARK  0 active torsions:
REMARK  status: ('A' for Active; 'I' for Inactive)
ROOT
ATOM      1  C   UNL d   1      -4.087   0.753   0.558  0.00  0.00     0.077 C 
ATOM      2  C1  UNL d   1      -4.635   1.581  -0.566  0.00  0.00    -0.074 A 
ATOM      3  C2  UNL d   1      -4.724   2.972  -0.457  0.00  0.00    -0.005 A 
ATOM      4  C3  UNL d   1      -5.227   3.730  -1.514  0.00  0.00     0.006 A 
ATOM      5  C4  UNL d   1      -5.646   3.105  -2.690  0.00  0.00    -0.005 A 
ATOM      6  C5  UNL d   1      -5.564   1.715  -2.818  0.00  0.00    -0.074 A 
ATOM      7  C6  UNL d   1      -6.000   1.029  -4.078  0.00  0.00     0.077 C 
ATOM      8  C7  UNL d   1      -5.050   0.961  -1.753  0.00  0.00    -0.001 A 
ENDROOT
TORSDOF 0
ENDMDL
