MODEL 1
REMARK minimizedAffinity 5.38695192
REMARK minimizedRMSD -1
REMARK  0 active torsions:
REMARK  status: ('A' for Active; 'I' for Inactive)
ROOT
ATOM      1  C   UNL d   1      -5.996  -0.214  -0.710  0.00  0.00     0.077 C 
ATOM      2  C1  UNL d   1      -5.243   1.022  -0.316  0.00  0.00    -0.074 A 
ATOM      3  C2  UNL d   1      -4.209   1.520  -1.116  0.00  0.00    -0.005 A 
ATOM      4  C3  UNL d   1      -3.525   2.676  -0.742  0.00  0.00     0.006 A 
ATOM      5  C4  UNL d   1      -3.867   3.346   0.434  0.00  0.00    -0.005 A 
ATOM      6  C5  UNL d   1      -4.899   2.864   1.245  0.00  0.00    -0.074 A 
ATOM      7  C6  UNL d   1      -5.286   3.577   2.506  0.00  0.00     0.077 C 
ATOM      8  C7  UNL d   1      -5.587   1.705   0.859  0.00  0.00    -0.001 A 
ENDROOT
TORSDOF 0
ENDMDL
