MODEL 1
REMARK minimizedAffinity 6.28862429
REMARK minimizedRMSD -1
REMARK  0 active torsions:
REMARK  status: ('A' for Active; 'I' for Inactive)
ROOT
ATOM      1  C   UNL d   1      -2.195  -5.993   5.076  0.00  0.00     0.077 C 
ATOM      2  C1  UNL d   1      -0.932  -5.189   5.153  0.00  0.00    -0.074 A 
ATOM      3  C2  UNL d   1       0.142  -5.610   5.944  0.00  0.00    -0.005 A 
ATOM      4  C3  UNL d   1       1.314  -4.856   5.999  0.00  0.00     0.006 A 
ATOM      5  C4  UNL d   1       1.425  -3.675   5.264  0.00  0.00    -0.005 A 
ATOM      6  C5  UNL d   1       0.362  -3.238   4.467  0.00  0.00    -0.074 A 
ATOM      7  C6  UNL d   1       0.468  -1.976   3.663  0.00  0.00     0.077 C 
ATOM      8  C7  UNL d   1      -0.810  -4.005   4.412  0.00  0.00    -0.001 A 
ENDROOT
TORSDOF 0
ENDMDL
