MODEL 1
REMARK minimizedAffinity -0.376807362
REMARK minimizedRMSD -1
REMARK  1 active torsions:
REMARK  status: ('A' for Active; 'I' for Inactive)
REMARK    1  A    between atoms: C3_4  and  O_7 
ROOT
ATOM      1  C   UNL d   1      -1.273  -1.732   0.363  0.00  0.00    -0.033 A 
ATOM      2  C1  UNL d   1       0.021  -2.206   0.135  0.00  0.00     0.039 A 
ATOM      3  C2  UNL d   1       0.227  -3.299  -0.709  0.00  0.00    -0.080 A 
ATOM      4  C3  UNL d   1      -0.867  -3.907  -1.319  0.00  0.00     0.150 A 
ATOM      5  C4  UNL d   1      -2.158  -3.438  -1.099  0.00  0.00    -0.007 A 
ATOM      6  C5  UNL d   1      -2.362  -2.347  -0.255  0.00  0.00     0.039 A 
ENDROOT
BRANCH   4   7
ATOM      7  O   UNL d   1      -0.716  -4.980  -2.147  0.00  0.00    -0.526 OA
ATOM      8  H5  UNL d   1       0.227  -5.211  -2.182  0.00  0.00     0.418 HD
ENDBRANCH   4   7
TORSDOF 1
ENDMDL
