MODEL 1
REMARK minimizedAffinity 5.68463087
REMARK minimizedRMSD -1
REMARK  1 active torsions:
REMARK  status: ('A' for Active; 'I' for Inactive)
REMARK    1  A    between atoms: C3_4  and  O_7 
ROOT
ATOM      1  C   UNL d   1       4.529   4.187   2.732  0.00  0.00    -0.033 A 
ATOM      2  C1  UNL d   1       3.160   4.381   2.539  0.00  0.00     0.039 A 
ATOM      3  C2  UNL d   1       2.350   3.314   2.143  0.00  0.00    -0.080 A 
ATOM      4  C3  UNL d   1       2.921   2.060   1.945  0.00  0.00     0.150 A 
ATOM      5  C4  UNL d   1       4.284   1.859   2.139  0.00  0.00    -0.007 A 
ATOM      6  C5  UNL d   1       5.091   2.925   2.534  0.00  0.00     0.039 A 
ENDROOT
BRANCH   4   7
ATOM      7  O   UNL d   1       2.173   0.990   1.554  0.00  0.00    -0.526 OA
ATOM      8  H5  UNL d   1       1.255   1.285   1.431  0.00  0.00     0.418 HD
ENDBRANCH   4   7
TORSDOF 1
ENDMDL
