MODEL 1
REMARK minimizedAffinity -2.18245149
REMARK minimizedRMSD -1
REMARK  1 active torsions:
REMARK  status: ('A' for Active; 'I' for Inactive)
REMARK    1  A    between atoms: C3_4  and  O_7 
ROOT
ATOM      1  C   UNL d   1      -2.752  -3.956  -1.135  0.00  0.00    -0.033 A 
ATOM      2  C1  UNL d   1      -2.861  -5.295  -1.515  0.00  0.00     0.039 A 
ATOM      3  C2  UNL d   1      -1.728  -6.000  -1.927  0.00  0.00    -0.080 A 
ATOM      4  C3  UNL d   1      -0.494  -5.355  -1.953  0.00  0.00     0.150 A 
ATOM      5  C4  UNL d   1      -0.378  -4.022  -1.572  0.00  0.00    -0.007 A 
ATOM      6  C5  UNL d   1      -1.511  -3.320  -1.162  0.00  0.00     0.039 A 
ENDROOT
BRANCH   4   7
ATOM      7  O   UNL d   1       0.638  -6.000  -2.353  0.00  0.00    -0.526 OA
ATOM      8  H5  UNL d   1       0.401  -6.905  -2.614  0.00  0.00     0.418 HD
ENDBRANCH   4   7
TORSDOF 1
ENDMDL
