MODEL 1
REMARK minimizedAffinity 6.5337677
REMARK minimizedRMSD -1
REMARK  1 active torsions:
REMARK  status: ('A' for Active; 'I' for Inactive)
REMARK    1  A    between atoms: C3_4  and  O_7 
ROOT
ATOM      1  C   UNL d   1      -3.016  -1.310  -0.126  0.00  0.00    -0.033 A 
ATOM      2  C1  UNL d   1      -1.824  -1.588   0.546  0.00  0.00     0.039 A 
ATOM      3  C2  UNL d   1      -1.048  -2.686   0.171  0.00  0.00    -0.080 A 
ATOM      4  C3  UNL d   1      -1.473  -3.497  -0.878  0.00  0.00     0.150 A 
ATOM      5  C4  UNL d   1      -2.657  -3.223  -1.555  0.00  0.00    -0.007 A 
ATOM      6  C5  UNL d   1      -3.431  -2.127  -1.178  0.00  0.00     0.039 A 
ENDROOT
BRANCH   4   7
ATOM      7  O   UNL d   1      -0.752  -4.582  -1.277  0.00  0.00    -0.526 OA
ATOM      8  H5  UNL d   1       0.026  -4.664  -0.701  0.00  0.00     0.418 HD
ENDBRANCH   4   7
TORSDOF 1
ENDMDL
