MODEL 1
REMARK minimizedAffinity 3.75581622
REMARK minimizedRMSD -1
REMARK  1 active torsions:
REMARK  status: ('A' for Active; 'I' for Inactive)
REMARK    1  A    between atoms: C3_4  and  O_7 
ROOT
ATOM      1  C   UNL d   1      -0.255  -2.425   0.029  0.00  0.00    -0.033 A 
ATOM      2  C1  UNL d   1       0.754  -3.380  -0.106  0.00  0.00     0.039 A 
ATOM      3  C2  UNL d   1       0.490  -4.590  -0.751  0.00  0.00    -0.080 A 
ATOM      4  C3  UNL d   1      -0.784  -4.832  -1.256  0.00  0.00     0.150 A 
ATOM      5  C4  UNL d   1      -1.793  -3.882  -1.129  0.00  0.00    -0.007 A 
ATOM      6  C5  UNL d   1      -1.528  -2.675  -0.484  0.00  0.00     0.039 A 
ENDROOT
BRANCH   4   7
ATOM      7  O   UNL d   1      -1.090  -6.000  -1.889  0.00  0.00    -0.526 OA
ATOM      8  H5  UNL d   1      -0.304  -6.571  -1.878  0.00  0.00     0.418 HD
ENDBRANCH   4   7
TORSDOF 1
ENDMDL
