MODEL 1
REMARK minimizedAffinity 6.43434715
REMARK minimizedRMSD -1
REMARK  1 active torsions:
REMARK  status: ('A' for Active; 'I' for Inactive)
REMARK    1  A    between atoms: C3_4  and  O_7 
ROOT
ATOM      1  C   UNL d   1       0.282  -5.644  -1.409  0.00  0.00    -0.033 A 
ATOM      2  C1  UNL d   1       0.289  -4.430  -0.719  0.00  0.00     0.039 A 
ATOM      3  C2  UNL d   1      -0.775  -3.538  -0.863  0.00  0.00    -0.080 A 
ATOM      4  C3  UNL d   1      -1.838  -3.871  -1.698  0.00  0.00     0.150 A 
ATOM      5  C4  UNL d   1      -1.853  -5.080  -2.386  0.00  0.00    -0.007 A 
ATOM      6  C5  UNL d   1      -0.789  -5.970  -2.241  0.00  0.00     0.039 A 
ENDROOT
BRANCH   4   7
ATOM      7  O   UNL d   1      -2.897  -3.030  -1.874  0.00  0.00    -0.526 OA
ATOM      8  H5  UNL d   1      -2.736  -2.221  -1.360  0.00  0.00     0.418 HD
ENDBRANCH   4   7
TORSDOF 1
ENDMDL
