MODEL 1
REMARK minimizedAffinity 6.32487822
REMARK minimizedRMSD -1
REMARK  1 active torsions:
REMARK  status: ('A' for Active; 'I' for Inactive)
REMARK    1  A    between atoms: C3_4  and  O_7 
ROOT
ATOM      1  C   UNL d   1       3.119   1.836   1.981  0.00  0.00    -0.033 A 
ATOM      2  C1  UNL d   1       4.487   2.070   2.130  0.00  0.00     0.039 A 
ATOM      3  C2  UNL d   1       4.938   3.296   2.626  0.00  0.00    -0.080 A 
ATOM      4  C3  UNL d   1       4.011   4.276   2.969  0.00  0.00     0.150 A 
ATOM      5  C4  UNL d   1       2.646   4.048   2.827  0.00  0.00    -0.007 A 
ATOM      6  C5  UNL d   1       2.198   2.824   2.331  0.00  0.00     0.039 A 
ENDROOT
BRANCH   4   7
ATOM      7  O   UNL d   1       4.403   5.489   3.452  0.00  0.00    -0.526 OA
ATOM      8  H5  UNL d   1       5.374   5.514   3.469  0.00  0.00     0.418 HD
ENDBRANCH   4   7
TORSDOF 1
ENDMDL
