MODEL 1
REMARK minimizedAffinity 3.73654842
REMARK minimizedRMSD -1
REMARK  1 active torsions:
REMARK  status: ('A' for Active; 'I' for Inactive)
REMARK    1  A    between atoms: C3_4  and  O_7 
ROOT
ATOM      1  C   UNL d   1      -0.986  -3.930  -1.147  0.00  0.00    -0.033 A 
ATOM      2  C1  UNL d   1      -0.883  -5.283  -0.818  0.00  0.00     0.039 A 
ATOM      3  C2  UNL d   1      -2.016  -5.994  -0.418  0.00  0.00    -0.080 A 
ATOM      4  C3  UNL d   1      -3.244  -5.343  -0.352  0.00  0.00     0.150 A 
ATOM      5  C4  UNL d   1      -3.355  -3.996  -0.683  0.00  0.00    -0.007 A 
ATOM      6  C5  UNL d   1      -2.222  -3.287  -1.081  0.00  0.00     0.039 A 
ENDROOT
BRANCH   4   7
ATOM      7  O   UNL d   1      -4.377  -5.994   0.037  0.00  0.00    -0.526 OA
ATOM      8  H5  UNL d   1      -4.143  -6.910   0.262  0.00  0.00     0.418 HD
ENDBRANCH   4   7
TORSDOF 1
ENDMDL
