MODEL 1
REMARK minimizedAffinity 5.57424498
REMARK minimizedRMSD -1
REMARK  1 active torsions:
REMARK  status: ('A' for Active; 'I' for Inactive)
REMARK    1  A    between atoms: C3_4  and  O_7 
ROOT
ATOM      1  C   UNL d   1      -5.882   1.540  -3.094  0.00  0.00    -0.033 A 
ATOM      2  C1  UNL d   1      -6.000   0.758  -1.943  0.00  0.00     0.039 A 
ATOM      3  C2  UNL d   1      -5.591   1.264  -0.708  0.00  0.00    -0.080 A 
ATOM      4  C3  UNL d   1      -5.068   2.553  -0.637  0.00  0.00     0.150 A 
ATOM      5  C4  UNL d   1      -4.952   3.339  -1.779  0.00  0.00    -0.007 A 
ATOM      6  C5  UNL d   1      -5.360   2.831  -3.012  0.00  0.00     0.039 A 
ENDROOT
BRANCH   4   7
ATOM      7  O   UNL d   1      -4.651   3.088   0.545  0.00  0.00    -0.526 OA
ATOM      8  H5  UNL d   1      -4.765   2.421   1.242  0.00  0.00     0.418 HD
ENDBRANCH   4   7
TORSDOF 1
ENDMDL
