MODEL 1
REMARK minimizedAffinity 8.32500839
REMARK minimizedRMSD -1
REMARK  1 active torsions:
REMARK  status: ('A' for Active; 'I' for Inactive)
REMARK    1  A    between atoms: C3_4  and  O_7 
ROOT
ATOM      1  C   UNL d   1      -5.119   0.068  -1.497  0.00  0.00    -0.033 A 
ATOM      2  C1  UNL d   1      -6.000   1.092  -1.850  0.00  0.00     0.039 A 
ATOM      3  C2  UNL d   1      -5.862   2.360  -1.282  0.00  0.00    -0.080 A 
ATOM      4  C3  UNL d   1      -4.841   2.590  -0.364  0.00  0.00     0.150 A 
ATOM      5  C4  UNL d   1      -3.958   1.575  -0.010  0.00  0.00    -0.007 A 
ATOM      6  C5  UNL d   1      -4.098   0.309  -0.578  0.00  0.00     0.039 A 
ENDROOT
BRANCH   4   7
ATOM      7  O   UNL d   1      -4.670   3.810   0.221  0.00  0.00    -0.526 OA
ATOM      8  H5  UNL d   1      -5.370   4.404  -0.097  0.00  0.00     0.418 HD
ENDBRANCH   4   7
TORSDOF 1
ENDMDL
