MODEL 1
REMARK minimizedAffinity 5.61857653
REMARK minimizedRMSD -1
REMARK  1 active torsions:
REMARK  status: ('A' for Active; 'I' for Inactive)
REMARK    1  A    between atoms: C3_4  and  O_7 
ROOT
ATOM      1  C   UNL d   1       2.606   1.274  -4.462  0.00  0.00    -0.033 A 
ATOM      2  C1  UNL d   1       1.626   0.409  -3.971  0.00  0.00     0.039 A 
ATOM      3  C2  UNL d   1       0.325   0.470  -4.472  0.00  0.00    -0.080 A 
ATOM      4  C3  UNL d   1       0.016   1.398  -5.463  0.00  0.00     0.150 A 
ATOM      5  C4  UNL d   1       0.988   2.260  -5.960  0.00  0.00    -0.007 A 
ATOM      6  C5  UNL d   1       2.288   2.199  -5.458  0.00  0.00     0.039 A 
ENDROOT
BRANCH   4   7
ATOM      7  O   UNL d   1      -1.241   1.497  -5.980  0.00  0.00    -0.526 OA
ATOM      8  H5  UNL d   1      -1.814   0.859  -5.522  0.00  0.00     0.418 HD
ENDBRANCH   4   7
TORSDOF 1
ENDMDL
