MODEL 1
REMARK minimizedAffinity 1.61626303
REMARK minimizedRMSD -1
REMARK  1 active torsions:
REMARK  status: ('A' for Active; 'I' for Inactive)
REMARK    1  A    between atoms: C3_4  and  O_7 
ROOT
ATOM      1  C   UNL d   1      -2.264  -3.178  -0.765  0.00  0.00    -0.033 A 
ATOM      2  C1  UNL d   1      -1.216  -4.023  -1.137  0.00  0.00     0.039 A 
ATOM      3  C2  UNL d   1       0.084  -3.756  -0.705  0.00  0.00    -0.080 A 
ATOM      4  C3  UNL d   1       0.323  -2.644   0.098  0.00  0.00     0.150 A 
ATOM      5  C4  UNL d   1      -0.717  -1.801   0.475  0.00  0.00    -0.007 A 
ATOM      6  C5  UNL d   1      -2.015  -2.068   0.042  0.00  0.00     0.039 A 
ENDROOT
BRANCH   4   7
ATOM      7  O   UNL d   1       1.576  -2.340   0.541  0.00  0.00    -0.526 OA
ATOM      8  H5  UNL d   1       2.197  -2.994   0.178  0.00  0.00     0.418 HD
ENDBRANCH   4   7
TORSDOF 1
ENDMDL
