MODEL 1
REMARK minimizedAffinity 6.04247141
REMARK minimizedRMSD -1
REMARK  1 active torsions:
REMARK  status: ('A' for Active; 'I' for Inactive)
REMARK    1  A    between atoms: C3_4  and  O_7 
ROOT
ATOM      1  C   UNL d   1      -2.887  -2.324  -0.418  0.00  0.00    -0.033 A 
ATOM      2  C1  UNL d   1      -1.728  -2.263   0.358  0.00  0.00     0.039 A 
ATOM      3  C2  UNL d   1      -0.733  -3.231   0.207  0.00  0.00    -0.080 A 
ATOM      4  C3  UNL d   1      -0.909  -4.252  -0.723  0.00  0.00     0.150 A 
ATOM      5  C4  UNL d   1      -2.060  -4.317  -1.501  0.00  0.00    -0.007 A 
ATOM      6  C5  UNL d   1      -3.053  -3.350  -1.348  0.00  0.00     0.039 A 
ENDROOT
BRANCH   4   7
ATOM      7  O   UNL d   1       0.032  -5.222  -0.902  0.00  0.00    -0.526 OA
ATOM      8  H5  UNL d   1       0.758  -5.066  -0.276  0.00  0.00     0.418 HD
ENDBRANCH   4   7
TORSDOF 1
ENDMDL
