MODEL 1
REMARK minimizedAffinity 6.76366282
REMARK minimizedRMSD -1
REMARK  1 active torsions:
REMARK  status: ('A' for Active; 'I' for Inactive)
REMARK    1  A    between atoms: C3_4  and  O_7 
ROOT
ATOM      1  C   UNL d   1       2.247   4.464   3.052  0.00  0.00    -0.033 A 
ATOM      2  C1  UNL d   1       1.525   3.292   2.818  0.00  0.00     0.039 A 
ATOM      3  C2  UNL d   1       2.183   2.140   2.383  0.00  0.00    -0.080 A 
ATOM      4  C3  UNL d   1       3.560   2.172   2.188  0.00  0.00     0.150 A 
ATOM      5  C4  UNL d   1       4.286   3.335   2.423  0.00  0.00    -0.007 A 
ATOM      6  C5  UNL d   1       3.628   4.485   2.856  0.00  0.00     0.039 A 
ENDROOT
BRANCH   4   7
ATOM      7  O   UNL d   1       4.246   1.074   1.760  0.00  0.00    -0.526 OA
ATOM      8  H5  UNL d   1       3.611   0.354   1.611  0.00  0.00     0.418 HD
ENDBRANCH   4   7
TORSDOF 1
ENDMDL
