MODEL 1
REMARK minimizedAffinity -1.06563807
REMARK minimizedRMSD -1
REMARK  1 active torsions:
REMARK  status: ('A' for Active; 'I' for Inactive)
REMARK    1  A    between atoms: C3_4  and  O_7 
ROOT
ATOM      1  C   UNL d   1      -0.383  -3.028   0.209  0.00  0.00    -0.033 A 
ATOM      2  C1  UNL d   1      -1.583  -2.794  -0.465  0.00  0.00     0.039 A 
ATOM      3  C2  UNL d   1      -2.132  -3.785  -1.282  0.00  0.00    -0.080 A 
ATOM      4  C3  UNL d   1      -1.472  -5.003  -1.415  0.00  0.00     0.150 A 
ATOM      5  C4  UNL d   1      -0.277  -5.244  -0.744  0.00  0.00    -0.007 A 
ATOM      6  C5  UNL d   1       0.269  -4.253   0.071  0.00  0.00     0.039 A 
ENDROOT
BRANCH   4   7
ATOM      7  O   UNL d   1      -1.966  -5.999  -2.205  0.00  0.00    -0.526 OA
ATOM      8  H5  UNL d   1      -2.780  -5.680  -2.628  0.00  0.00     0.418 HD
ENDBRANCH   4   7
TORSDOF 1
ENDMDL
