MODEL 1
REMARK minimizedAffinity 10.8294067
REMARK minimizedRMSD -1
REMARK  0 active torsions:
REMARK  status: ('A' for Active; 'I' for Inactive)
ROOT
ATOM      1  C   UNL d   1      -2.627  -0.331   0.782  0.00  0.00    -0.002 A 
ATOM      2  C1  UNL d   1      -2.539  -0.131   2.152  0.00  0.00     0.010 A 
ATOM      3  C2  UNL d   1      -1.297  -0.104   2.788  0.00  0.00     0.041 A 
ATOM      4  C3  UNL d   1      -0.132  -0.281   2.016  0.00  0.00    -0.075 A 
ATOM      5  S   UNL d   1       1.498  -0.286   2.579  0.00  0.00     0.015 SA
ATOM      6  C4  UNL d   1       2.117  -0.551   1.014  0.00  0.00     0.022 A 
ATOM      7  C5  UNL d   1       1.118  -0.638   0.072  0.00  0.00     0.026 A 
ATOM      8  C6  UNL d   1      -0.194  -0.483   0.635  0.00  0.00    -0.082 A 
ATOM      9  C7  UNL d   1      -1.469  -0.506   0.019  0.00  0.00     0.045 A 
ENDROOT
TORSDOF 0
ENDMDL
