MODEL 1
REMARK minimizedAffinity -3.05547547
REMARK minimizedRMSD -1
REMARK  0 active torsions:
REMARK  status: ('A' for Active; 'I' for Inactive)
ROOT
ATOM      1  C   UNL d   1      -0.902   1.596   3.762  0.00  0.00    -0.002 A 
ATOM      2  C1  UNL d   1       0.426   1.865   3.463  0.00  0.00     0.010 A 
ATOM      3  C2  UNL d   1       0.995   1.397   2.277  0.00  0.00     0.041 A 
ATOM      4  C3  UNL d   1       0.198   0.650   1.387  0.00  0.00    -0.075 A 
ATOM      5  S   UNL d   1       0.681  -0.023  -0.126  0.00  0.00     0.015 SA
ATOM      6  C4  UNL d   1      -0.865  -0.681  -0.410  0.00  0.00     0.022 A 
ATOM      7  C5  UNL d   1      -1.740  -0.405   0.613  0.00  0.00     0.026 A 
ATOM      8  C6  UNL d   1      -1.142   0.368   1.666  0.00  0.00    -0.082 A 
ATOM      9  C7  UNL d   1      -1.689   0.855   2.877  0.00  0.00     0.045 A 
ENDROOT
TORSDOF 0
ENDMDL
