MODEL 1
REMARK minimizedAffinity -3.10548544
REMARK minimizedRMSD -1
REMARK  0 active torsions:
REMARK  status: ('A' for Active; 'I' for Inactive)
ROOT
ATOM      1  C   UNL d   1       0.133  -0.034  -3.704  0.00  0.00    -0.002 A 
ATOM      2  C1  UNL d   1       1.390  -0.334  -3.200  0.00  0.00     0.010 A 
ATOM      3  C2  UNL d   1       1.599  -0.432  -1.823  0.00  0.00     0.041 A 
ATOM      4  C3  UNL d   1       0.512  -0.223  -0.952  0.00  0.00    -0.075 A 
ATOM      5  S   UNL d   1       0.531  -0.292   0.770  0.00  0.00     0.015 SA
ATOM      6  C4  UNL d   1      -1.130   0.073   0.878  0.00  0.00     0.022 A 
ATOM      7  C5  UNL d   1      -1.701   0.248  -0.360  0.00  0.00     0.026 A 
ATOM      8  C6  UNL d   1      -0.764   0.079  -1.435  0.00  0.00    -0.082 A 
ATOM      9  C7  UNL d   1      -0.944   0.173  -2.837  0.00  0.00     0.045 A 
ENDROOT
TORSDOF 0
ENDMDL
