MODEL 1
REMARK minimizedAffinity -3.06792355
REMARK minimizedRMSD -1
REMARK  0 active torsions:
REMARK  status: ('A' for Active; 'I' for Inactive)
ROOT
ATOM      1  C   UNL d   1       1.560  -1.644  -0.347  0.00  0.00    -0.002 A 
ATOM      2  C1  UNL d   1       1.994  -1.100   0.853  0.00  0.00     0.010 A 
ATOM      3  C2  UNL d   1       1.134  -0.327   1.635  0.00  0.00     0.041 A 
ATOM      4  C3  UNL d   1      -0.184  -0.109   1.187  0.00  0.00    -0.075 A 
ATOM      5  S   UNL d   1      -1.414   0.803   1.979  0.00  0.00     0.015 SA
ATOM      6  C4  UNL d   1      -2.545   0.492   0.743  0.00  0.00     0.022 A 
ATOM      7  C5  UNL d   1      -2.014  -0.288  -0.257  0.00  0.00     0.026 A 
ATOM      8  C6  UNL d   1      -0.645  -0.647  -0.018  0.00  0.00    -0.082 A 
ATOM      9  C7  UNL d   1       0.252  -1.426  -0.788  0.00  0.00     0.045 A 
ENDROOT
TORSDOF 0
ENDMDL
