MODEL 1
REMARK minimizedAffinity -0.124529257
REMARK minimizedRMSD -1
REMARK  0 active torsions:
REMARK  status: ('A' for Active; 'I' for Inactive)
ROOT
ATOM      1  C   UNL d   1      -1.485   1.237   2.595  0.00  0.00    -0.002 A 
ATOM      2  C1  UNL d   1      -1.997   0.335   1.673  0.00  0.00     0.010 A 
ATOM      3  C2  UNL d   1      -1.148  -0.528   0.977  0.00  0.00     0.041 A 
ATOM      4  C3  UNL d   1       0.237  -0.470   1.228  0.00  0.00    -0.075 A 
ATOM      5  S   UNL d   1       1.468  -1.431   0.495  0.00  0.00     0.015 SA
ATOM      6  C4  UNL d   1       2.701  -0.667   1.390  0.00  0.00     0.022 A 
ATOM      7  C5  UNL d   1       2.204   0.300   2.232  0.00  0.00     0.026 A 
ATOM      8  C6  UNL d   1       0.776   0.429   2.153  0.00  0.00    -0.082 A 
ATOM      9  C7  UNL d   1      -0.111   1.291   2.841  0.00  0.00     0.045 A 
ENDROOT
TORSDOF 0
ENDMDL
