MODEL 1
REMARK minimizedAffinity -3.54920959
REMARK minimizedRMSD -1
REMARK  0 active torsions:
REMARK  status: ('A' for Active; 'I' for Inactive)
ROOT
ATOM      1  C   UNL d   1      -1.028   1.371   2.943  0.00  0.00    -0.002 A 
ATOM      2  C1  UNL d   1       0.297   1.732   2.743  0.00  0.00     0.010 A 
ATOM      3  C2  UNL d   1       1.008   1.243   1.646  0.00  0.00     0.041 A 
ATOM      4  C3  UNL d   1       0.359   0.379   0.743  0.00  0.00    -0.075 A 
ATOM      5  S   UNL d   1       1.030  -0.342  -0.672  0.00  0.00     0.015 SA
ATOM      6  C4  UNL d   1      -0.426  -1.145  -1.045  0.00  0.00     0.022 A 
ATOM      7  C5  UNL d   1      -1.411  -0.881  -0.123  0.00  0.00     0.026 A 
ATOM      8  C6  UNL d   1      -0.975   0.002   0.922  0.00  0.00    -0.082 A 
ATOM      9  C7  UNL d   1      -1.669   0.514   2.045  0.00  0.00     0.045 A 
ENDROOT
TORSDOF 0
ENDMDL
