MODEL 1
REMARK minimizedAffinity -0.307391077
REMARK minimizedRMSD -1
REMARK  0 active torsions:
REMARK  status: ('A' for Active; 'I' for Inactive)
ROOT
ATOM      1  C   UNL d   1      -1.559   1.555   2.534  0.00  0.00    -0.002 A 
ATOM      2  C1  UNL d   1      -0.583   2.450   2.120  0.00  0.00     0.010 A 
ATOM      3  C2  UNL d   1       0.203   2.177   0.999  0.00  0.00     0.041 A 
ATOM      4  C3  UNL d   1      -0.012   0.977   0.292  0.00  0.00    -0.075 A 
ATOM      5  S   UNL d   1       0.829   0.432  -1.111  0.00  0.00     0.015 SA
ATOM      6  C4  UNL d   1      -0.089  -1.002  -1.195  0.00  0.00     0.022 A 
ATOM      7  C5  UNL d   1      -1.018  -1.079  -0.185  0.00  0.00     0.026 A 
ATOM      8  C6  UNL d   1      -0.990   0.060   0.688  0.00  0.00    -0.082 A 
ATOM      9  C7  UNL d   1      -1.770   0.366   1.830  0.00  0.00     0.045 A 
ENDROOT
TORSDOF 0
ENDMDL
