MODEL 1
REMARK minimizedAffinity -0.790009022
REMARK minimizedRMSD -1
REMARK  0 active torsions:
REMARK  status: ('A' for Active; 'I' for Inactive)
ROOT
ATOM      1  C   UNL d   1      -1.332   1.496   2.927  0.00  0.00    -0.002 A 
ATOM      2  C1  UNL d   1      -0.073   2.007   2.644  0.00  0.00     0.010 A 
ATOM      3  C2  UNL d   1       0.632   1.576   1.519  0.00  0.00     0.041 A 
ATOM      4  C3  UNL d   1       0.044   0.615   0.673  0.00  0.00    -0.075 A 
ATOM      5  S   UNL d   1       0.721  -0.060  -0.762  0.00  0.00     0.015 SA
ATOM      6  C4  UNL d   1      -0.645  -1.042  -1.033  0.00  0.00     0.022 A 
ATOM      7  C5  UNL d   1      -1.604  -0.872  -0.063  0.00  0.00     0.026 A 
ATOM      8  C6  UNL d   1      -1.222   0.086   0.937  0.00  0.00    -0.082 A 
ATOM      9  C7  UNL d   1      -1.912   0.543   2.086  0.00  0.00     0.045 A 
ENDROOT
TORSDOF 0
ENDMDL
