MODEL 1
REMARK minimizedAffinity -3.06547093
REMARK minimizedRMSD -1
REMARK  0 active torsions:
REMARK  status: ('A' for Active; 'I' for Inactive)
ROOT
ATOM      1  C1  DEN d   1      -0.898   0.444   2.147  0.00  0.00     0.130 A 
ATOM      2  C2  DEN d   1      -0.516  -0.664   1.275  0.00  0.00    -0.031 A 
ATOM      3  C3  DEN d   1      -0.037  -0.096  -0.002  0.00  0.00     0.027 A 
ATOM      4  C4  DEN d   1       0.154   2.377  -0.707  0.00  0.00     0.027 A 
ATOM      5  C5  DEN d   1      -0.061   3.678  -0.309  0.00  0.00    -0.003 A 
ATOM      6  C6  DEN d   1      -0.597   3.988   0.913  0.00  0.00     0.001 A 
ATOM      7  C7  DEN d   1      -0.895   2.986   1.798  0.00  0.00     0.017 A 
ATOM      8  C8  DEN d   1      -0.688   1.672   1.400  0.00  0.00    -0.094 A 
ATOM      9  C9  DEN d   1      -0.133   1.379   0.166  0.00  0.00    -0.072 A 
ENDROOT
TORSDOF 0
ENDMDL
