MODEL 1
REMARK minimizedAffinity -4.79488897
REMARK minimizedRMSD -1
REMARK  0 active torsions:
REMARK  status: ('A' for Active; 'I' for Inactive)
ROOT
ATOM      1  C1  DEN d   1       0.901  -0.324   0.436  0.00  0.00     0.130 A 
ATOM      2  C2  DEN d   1      -0.444  -0.202   0.993  0.00  0.00    -0.031 A 
ATOM      3  C3  DEN d   1      -1.346  -1.060   0.199  0.00  0.00     0.027 A 
ATOM      4  C4  DEN d   1      -0.795  -2.560  -1.825  0.00  0.00     0.027 A 
ATOM      5  C5  DEN d   1       0.209  -2.982  -2.670  0.00  0.00    -0.003 A 
ATOM      6  C6  DEN d   1       1.495  -2.525  -2.560  0.00  0.00     0.001 A 
ATOM      7  C7  DEN d   1       1.823  -1.653  -1.556  0.00  0.00     0.017 A 
ATOM      8  C8  DEN d   1       0.815  -1.217  -0.705  0.00  0.00    -0.094 A 
ATOM      9  C9  DEN d   1      -0.477  -1.700  -0.824  0.00  0.00    -0.072 A 
ENDROOT
TORSDOF 0
ENDMDL
