MODEL 1
REMARK minimizedAffinity -0.375279456
REMARK minimizedRMSD -1
REMARK  0 active torsions:
REMARK  status: ('A' for Active; 'I' for Inactive)
ROOT
ATOM      1  C1  DEN d   1      -0.412  -0.649  -1.795  0.00  0.00     0.130 A 
ATOM      2  C2  DEN d   1       0.174  -0.003  -0.624  0.00  0.00    -0.031 A 
ATOM      3  C3  DEN d   1       1.018  -0.996   0.071  0.00  0.00     0.027 A 
ATOM      4  C4  DEN d   1       1.475  -3.457  -0.554  0.00  0.00     0.027 A 
ATOM      5  C5  DEN d   1       1.190  -4.457  -1.457  0.00  0.00    -0.003 A 
ATOM      6  C6  DEN d   1       0.332  -4.270  -2.508  0.00  0.00     0.001 A 
ATOM      7  C7  DEN d   1      -0.238  -3.040  -2.708  0.00  0.00     0.017 A 
ATOM      8  C8  DEN d   1       0.039  -2.029  -1.798  0.00  0.00    -0.094 A 
ATOM      9  C9  DEN d   1       0.919  -2.234  -0.749  0.00  0.00    -0.072 A 
ENDROOT
TORSDOF 0
ENDMDL
