MODEL 1
REMARK minimizedAffinity -3.81707835
REMARK minimizedRMSD -1
REMARK  0 active torsions:
REMARK  status: ('A' for Active; 'I' for Inactive)
ROOT
ATOM      1  C1  DEN d   1       0.444   2.353  -0.868  0.00  0.00     0.130 A 
ATOM      2  C2  DEN d   1       0.102   3.595  -0.180  0.00  0.00    -0.031 A 
ATOM      3  C3  DEN d   1      -0.526   3.245   1.110  0.00  0.00     0.027 A 
ATOM      4  C4  DEN d   1      -0.996   0.912   2.106  0.00  0.00     0.027 A 
ATOM      5  C5  DEN d   1      -0.894  -0.443   1.885  0.00  0.00    -0.003 A 
ATOM      6  C6  DEN d   1      -0.375  -0.958   0.727  0.00  0.00     0.001 A 
ATOM      7  C7  DEN d   1       0.104  -0.111  -0.237  0.00  0.00     0.017 A 
ATOM      8  C8  DEN d   1      -0.001   1.257  -0.025  0.00  0.00    -0.094 A 
ATOM      9  C9  DEN d   1      -0.518   1.758   1.158  0.00  0.00    -0.072 A 
ENDROOT
TORSDOF 0
ENDMDL
