MODEL 1
REMARK minimizedAffinity -3.79456663
REMARK minimizedRMSD -1
REMARK  0 active torsions:
REMARK  status: ('A' for Active; 'I' for Inactive)
ROOT
ATOM      1  C1  DEN d   1      -0.444  -3.243  -2.060  0.00  0.00     0.130 A 
ATOM      2  C2  DEN d   1       0.788  -3.722  -2.680  0.00  0.00    -0.031 A 
ATOM      3  C3  DEN d   1       1.876  -2.795  -2.309  0.00  0.00     0.027 A 
ATOM      4  C4  DEN d   1       1.774  -0.678  -0.839  0.00  0.00     0.027 A 
ATOM      5  C5  DEN d   1       0.944   0.136  -0.101  0.00  0.00    -0.003 A 
ATOM      6  C6  DEN d   1      -0.402  -0.097   0.007  0.00  0.00     0.001 A 
ATOM      7  C7  DEN d   1      -0.950  -1.198  -0.596  0.00  0.00     0.017 A 
ATOM      8  C8  DEN d   1      -0.121  -2.020  -1.349  0.00  0.00    -0.094 A 
ATOM      9  C9  DEN d   1       1.239  -1.774  -1.435  0.00  0.00    -0.072 A 
ENDROOT
TORSDOF 0
ENDMDL
