MODEL 1
REMARK minimizedAffinity -0.0380701572
REMARK minimizedRMSD -1
REMARK  0 active torsions:
REMARK  status: ('A' for Active; 'I' for Inactive)
ROOT
ATOM      1  C1  DEN d   1      -0.254  -0.130  -1.893  0.00  0.00     0.130 A 
ATOM      2  C2  DEN d   1       0.141   0.276  -0.547  0.00  0.00    -0.031 A 
ATOM      3  C3  DEN d   1       0.718  -0.901   0.134  0.00  0.00     0.027 A 
ATOM      4  C4  DEN d   1       1.038  -3.298  -0.761  0.00  0.00     0.027 A 
ATOM      5  C5  DEN d   1       0.845  -4.128  -1.843  0.00  0.00    -0.003 A 
ATOM      6  C6  DEN d   1       0.246  -3.695  -2.997  0.00  0.00     0.001 A 
ATOM      7  C7  DEN d   1      -0.141  -2.386  -3.111  0.00  0.00     0.017 A 
ATOM      8  C8  DEN d   1       0.044  -1.546  -2.021  0.00  0.00    -0.094 A 
ATOM      9  C9  DEN d   1       0.663  -1.999  -0.868  0.00  0.00    -0.072 A 
ENDROOT
TORSDOF 0
ENDMDL
