MODEL 1
REMARK minimizedAffinity -3.14241719
REMARK minimizedRMSD -1
REMARK  0 active torsions:
REMARK  status: ('A' for Active; 'I' for Inactive)
ROOT
ATOM      1  C1  DEN d   1       1.201  -1.821  -1.773  0.00  0.00     0.130 A 
ATOM      2  C2  DEN d   1       0.295  -2.878  -2.215  0.00  0.00    -0.031 A 
ATOM      3  C3  DEN d   1      -0.941  -2.784  -1.414  0.00  0.00     0.027 A 
ATOM      4  C4  DEN d   1      -1.541  -1.110   0.455  0.00  0.00     0.027 A 
ATOM      5  C5  DEN d   1      -1.087  -0.037   1.189  0.00  0.00    -0.003 A 
ATOM      6  C6  DEN d   1       0.165   0.491   1.012  0.00  0.00     0.001 A 
ATOM      7  C7  DEN d   1       0.989  -0.025   0.047  0.00  0.00     0.017 A 
ATOM      8  C8  DEN d   1       0.541  -1.112  -0.692  0.00  0.00    -0.094 A 
ATOM      9  C9  DEN d   1      -0.732  -1.624  -0.506  0.00  0.00    -0.072 A 
ENDROOT
TORSDOF 0
ENDMDL
