MODEL 1
REMARK minimizedAffinity -0.994436145
REMARK minimizedRMSD -1
REMARK  0 active torsions:
REMARK  status: ('A' for Active; 'I' for Inactive)
ROOT
ATOM      1  C1  DEN d   1      -1.384  -0.417   1.722  0.00  0.00     0.130 A 
ATOM      2  C2  DEN d   1      -1.043   0.891   2.273  0.00  0.00    -0.031 A 
ATOM      3  C3  DEN d   1      -0.038   1.512   1.388  0.00  0.00     0.027 A 
ATOM      4  C4  DEN d   1       1.017   0.582  -0.774  0.00  0.00     0.027 A 
ATOM      5  C5  DEN d   1       1.050  -0.494  -1.633  0.00  0.00    -0.003 A 
ATOM      6  C6  DEN d   1       0.307  -1.624  -1.418  0.00  0.00     0.001 A 
ATOM      7  C7  DEN d   1      -0.537  -1.687  -0.341  0.00  0.00     0.017 A 
ATOM      8  C8  DEN d   1      -0.571  -0.609   0.534  0.00  0.00    -0.094 A 
ATOM      9  C9  DEN d   1       0.179   0.530   0.293  0.00  0.00    -0.072 A 
ENDROOT
TORSDOF 0
ENDMDL
