MODEL 1
REMARK minimizedAffinity -2.31168032
REMARK minimizedRMSD -1
REMARK  0 active torsions:
REMARK  status: ('A' for Active; 'I' for Inactive)
ROOT
ATOM      1  C1  DEN d   1      -0.290   3.185   0.022  0.00  0.00     0.130 A 
ATOM      2  C2  DEN d   1       0.388   3.151  -1.271  0.00  0.00    -0.031 A 
ATOM      3  C3  DEN d   1       0.866   1.772  -1.499  0.00  0.00     0.027 A 
ATOM      4  C4  DEN d   1       0.620  -0.302   0.013  0.00  0.00     0.027 A 
ATOM      5  C5  DEN d   1       0.130  -0.763   1.215  0.00  0.00    -0.003 A 
ATOM      6  C6  DEN d   1      -0.498   0.060   2.111  0.00  0.00     0.001 A 
ATOM      7  C7  DEN d   1      -0.695   1.379   1.799  0.00  0.00     0.017 A 
ATOM      8  C8  DEN d   1      -0.197   1.853   0.592  0.00  0.00    -0.094 A 
ATOM      9  C9  DEN d   1       0.425   1.002  -0.306  0.00  0.00    -0.072 A 
ENDROOT
TORSDOF 0
ENDMDL
