MODEL 1
REMARK minimizedAffinity -3.5729115
REMARK minimizedRMSD -1
REMARK  0 active torsions:
REMARK  status: ('A' for Active; 'I' for Inactive)
ROOT
ATOM      1  C1  DEN d   1       0.992   2.349  -1.081  0.00  0.00     0.130 A 
ATOM      2  C2  DEN d   1       0.482   3.617  -0.566  0.00  0.00    -0.031 A 
ATOM      3  C3  DEN d   1      -0.168   3.353   0.734  0.00  0.00     0.027 A 
ATOM      4  C4  DEN d   1      -0.428   1.118   1.994  0.00  0.00     0.027 A 
ATOM      5  C5  DEN d   1      -0.167  -0.233   1.948  0.00  0.00    -0.003 A 
ATOM      6  C6  DEN d   1       0.464  -0.819   0.883  0.00  0.00     0.001 A 
ATOM      7  C7  DEN d   1       0.895  -0.044  -0.161  0.00  0.00     0.017 A 
ATOM      8  C8  DEN d   1       0.629   1.318  -0.125  0.00  0.00    -0.094 A 
ATOM      9  C9  DEN d   1       0.001   1.894   0.966  0.00  0.00    -0.072 A 
ENDROOT
TORSDOF 0
ENDMDL
