MODEL 1
REMARK minimizedAffinity -1.82811058
REMARK minimizedRMSD -1
REMARK  0 active torsions:
REMARK  status: ('A' for Active; 'I' for Inactive)
ROOT
ATOM      1  C1  DEN d   1       1.472   0.635  -1.119  0.00  0.00     0.130 A 
ATOM      2  C2  DEN d   1       0.993   1.898  -1.675  0.00  0.00    -0.031 A 
ATOM      3  C3  DEN d   1       0.046   2.492  -0.710  0.00  0.00     0.027 A 
ATOM      4  C4  DEN d   1      -0.719   1.585   1.580  0.00  0.00     0.027 A 
ATOM      5  C5  DEN d   1      -0.595   0.543   2.473  0.00  0.00    -0.003 A 
ATOM      6  C6  DEN d   1       0.193  -0.547   2.219  0.00  0.00     0.001 A 
ATOM      7  C7  DEN d   1       0.924  -0.601   1.061  0.00  0.00     0.017 A 
ATOM      8  C8  DEN d   1       0.799   0.442   0.153  0.00  0.00    -0.094 A 
ATOM      9  C9  DEN d   1       0.006   1.541   0.434  0.00  0.00    -0.072 A 
ENDROOT
TORSDOF 0
ENDMDL
