MODEL 1
REMARK minimizedAffinity -3.98811483
REMARK minimizedRMSD -1
REMARK  0 active torsions:
REMARK  status: ('A' for Active; 'I' for Inactive)
ROOT
ATOM      1  C1  DEN d   1      -0.003   0.155   0.109  0.00  0.00     0.130 A 
ATOM      2  C2  DEN d   1      -0.808  -0.309   1.236  0.00  0.00    -0.031 A 
ATOM      3  C3  DEN d   1      -1.290   0.877   1.972  0.00  0.00     0.027 A 
ATOM      4  C4  DEN d   1      -0.873   3.374   1.475  0.00  0.00     0.027 A 
ATOM      5  C5  DEN d   1      -0.240   4.260   0.632  0.00  0.00    -0.003 A 
ATOM      6  C6  DEN d   1       0.537   3.843  -0.416  0.00  0.00     0.001 A 
ATOM      7  C7  DEN d   1       0.665   2.504  -0.675  0.00  0.00     0.017 A 
ATOM      8  C8  DEN d   1       0.036   1.604   0.175  0.00  0.00    -0.094 A 
ATOM      9  C9  DEN d   1      -0.755   2.046   1.222  0.00  0.00    -0.072 A 
ENDROOT
TORSDOF 0
ENDMDL
