MODEL 1
REMARK minimizedAffinity -4.18752956
REMARK minimizedRMSD -1
REMARK  0 active torsions:
REMARK  status: ('A' for Active; 'I' for Inactive)
ROOT
ATOM      1  C   UNL d   1       3.006  -0.809  -1.093  0.00  0.00     0.078 C 
ATOM      2  C1  UNL d   1       1.573  -0.397  -0.930  0.00  0.00    -0.077 A 
ATOM      3  C2  UNL d   1       0.624  -1.282  -0.403  0.00  0.00    -0.001 A 
ATOM      4  C3  UNL d   1      -0.708  -0.889  -0.266  0.00  0.00     0.003 A 
ATOM      5  C4  UNL d   1      -1.103   0.390  -0.654  0.00  0.00    -0.005 A 
ATOM      6  C5  UNL d   1      -0.167   1.277  -1.181  0.00  0.00     0.003 A 
ATOM      7  C6  UNL d   1       1.166   0.885  -1.319  0.00  0.00    -0.001 A 
ENDROOT
TORSDOF 0
ENDMDL
