MODEL 1
REMARK minimizedAffinity -0.727999926
REMARK minimizedRMSD -1
REMARK  0 active torsions:
REMARK  status: ('A' for Active; 'I' for Inactive)
ROOT
ATOM      1  C   UNL d   1      -1.499   0.023   1.148  0.00  0.00     0.078 C 
ATOM      2  C1  UNL d   1      -0.389  -0.312   0.196  0.00  0.00    -0.077 A 
ATOM      3  C2  UNL d   1      -0.018  -1.641  -0.040  0.00  0.00    -0.001 A 
ATOM      4  C3  UNL d   1       1.023  -1.937  -0.921  0.00  0.00     0.003 A 
ATOM      5  C4  UNL d   1       1.702  -0.909  -1.573  0.00  0.00    -0.005 A 
ATOM      6  C5  UNL d   1       1.341   0.417  -1.343  0.00  0.00     0.003 A 
ATOM      7  C6  UNL d   1       0.300   0.715  -0.462  0.00  0.00    -0.001 A 
ENDROOT
TORSDOF 0
ENDMDL
