MODEL 1
REMARK minimizedAffinity -5.83277416
REMARK minimizedRMSD -1
REMARK  0 active torsions:
REMARK  status: ('A' for Active; 'I' for Inactive)
ROOT
ATOM      1  C   UNL d   1       2.979  -0.552  -1.045  0.00  0.00     0.078 C 
ATOM      2  C1  UNL d   1       1.549  -0.227  -0.734  0.00  0.00    -0.077 A 
ATOM      3  C2  UNL d   1       0.679  -1.204  -0.236  0.00  0.00    -0.001 A 
ATOM      4  C3  UNL d   1      -0.653  -0.890   0.040  0.00  0.00     0.003 A 
ATOM      5  C4  UNL d   1      -1.127   0.402  -0.181  0.00  0.00    -0.005 A 
ATOM      6  C5  UNL d   1      -0.269   1.381  -0.678  0.00  0.00     0.003 A 
ATOM      7  C6  UNL d   1       1.063   1.068  -0.955  0.00  0.00    -0.001 A 
ENDROOT
TORSDOF 0
ENDMDL
