MODEL 1
REMARK minimizedAffinity -5.13013124
REMARK minimizedRMSD -1
REMARK  0 active torsions:
REMARK  status: ('A' for Active; 'I' for Inactive)
ROOT
ATOM      1  C   UNL d   1       0.037   1.961  -2.236  0.00  0.00     0.078 C 
ATOM      2  C1  UNL d   1       0.477   0.713  -1.530  0.00  0.00    -0.077 A 
ATOM      3  C2  UNL d   1      -0.212   0.238  -0.407  0.00  0.00    -0.001 A 
ATOM      4  C3  UNL d   1       0.215  -0.919   0.246  0.00  0.00     0.003 A 
ATOM      5  C4  UNL d   1       1.334  -1.611  -0.216  0.00  0.00    -0.005 A 
ATOM      6  C5  UNL d   1       2.027  -1.145  -1.331  0.00  0.00     0.003 A 
ATOM      7  C6  UNL d   1       1.601   0.012  -1.985  0.00  0.00    -0.001 A 
ENDROOT
TORSDOF 0
ENDMDL
