MODEL 1
REMARK minimizedAffinity -5.85303164
REMARK minimizedRMSD -1
REMARK  0 active torsions:
REMARK  status: ('A' for Active; 'I' for Inactive)
ROOT
ATOM      1  C   UNL d   1      -1.354   0.295   0.154  0.00  0.00     0.078 C 
ATOM      2  C1  UNL d   1       0.060   0.001  -0.250  0.00  0.00    -0.077 A 
ATOM      3  C2  UNL d   1       0.850   0.977  -0.870  0.00  0.00    -0.001 A 
ATOM      4  C3  UNL d   1       2.162   0.686  -1.249  0.00  0.00     0.003 A 
ATOM      5  C4  UNL d   1       2.694  -0.580  -1.014  0.00  0.00    -0.005 A 
ATOM      6  C5  UNL d   1       1.914  -1.558  -0.400  0.00  0.00     0.003 A 
ATOM      7  C6  UNL d   1       0.602  -1.269  -0.020  0.00  0.00    -0.001 A 
ENDROOT
TORSDOF 0
ENDMDL
