MODEL 1
REMARK minimizedAffinity -4.80928087
REMARK minimizedRMSD -1
REMARK  0 active torsions:
REMARK  status: ('A' for Active; 'I' for Inactive)
ROOT
ATOM      1  C   UNL d   1       2.991  -0.745  -1.362  0.00  0.00     0.078 C 
ATOM      2  C1  UNL d   1       1.599  -0.466  -0.877  0.00  0.00    -0.077 A 
ATOM      3  C2  UNL d   1       1.106   0.843  -0.815  0.00  0.00    -0.001 A 
ATOM      4  C3  UNL d   1      -0.188   1.088  -0.352  0.00  0.00     0.003 A 
ATOM      5  C4  UNL d   1      -0.999   0.030   0.053  0.00  0.00    -0.005 A 
ATOM      6  C5  UNL d   1      -0.516  -1.276  -0.004  0.00  0.00     0.003 A 
ATOM      7  C6  UNL d   1       0.778  -1.523  -0.466  0.00  0.00    -0.001 A 
ENDROOT
TORSDOF 0
ENDMDL
