MODEL 1
REMARK minimizedAffinity -4.81568289
REMARK minimizedRMSD -1
REMARK  0 active torsions:
REMARK  status: ('A' for Active; 'I' for Inactive)
ROOT
ATOM      1  C   UNL d   1       2.946  -0.334  -0.989  0.00  0.00     0.078 C 
ATOM      2  C1  UNL d   1       1.474  -0.133  -0.789  0.00  0.00    -0.077 A 
ATOM      3  C2  UNL d   1       0.868   1.095  -1.084  0.00  0.00    -0.001 A 
ATOM      4  C3  UNL d   1      -0.502   1.271  -0.884  0.00  0.00     0.003 A 
ATOM      5  C4  UNL d   1      -1.277   0.225  -0.387  0.00  0.00    -0.005 A 
ATOM      6  C5  UNL d   1      -0.682  -0.999  -0.089  0.00  0.00     0.003 A 
ATOM      7  C6  UNL d   1       0.687  -1.178  -0.288  0.00  0.00    -0.001 A 
ENDROOT
TORSDOF 0
ENDMDL
