MODEL 1
REMARK minimizedAffinity -5.37054825
REMARK minimizedRMSD -1
REMARK  0 active torsions:
REMARK  status: ('A' for Active; 'I' for Inactive)
ROOT
ATOM      1  C   UNL d   1       2.928  -1.040  -1.755  0.00  0.00     0.078 C 
ATOM      2  C1  UNL d   1       1.631  -0.540  -1.194  0.00  0.00    -0.077 A 
ATOM      3  C2  UNL d   1       0.714  -1.419  -0.604  0.00  0.00    -0.001 A 
ATOM      4  C3  UNL d   1      -0.495  -0.941  -0.095  0.00  0.00     0.003 A 
ATOM      5  C4  UNL d   1      -0.798   0.417  -0.171  0.00  0.00    -0.005 A 
ATOM      6  C5  UNL d   1       0.107   1.298  -0.758  0.00  0.00     0.003 A 
ATOM      7  C6  UNL d   1       1.316   0.822  -1.268  0.00  0.00    -0.001 A 
ENDROOT
TORSDOF 0
ENDMDL
