MODEL 1
REMARK minimizedAffinity -5.43144894
REMARK minimizedRMSD -1
REMARK  0 active torsions:
REMARK  status: ('A' for Active; 'I' for Inactive)
ROOT
ATOM      1  C   UNL d   1      -1.075   0.233   0.508  0.00  0.00     0.078 C 
ATOM      2  C1  UNL d   1       0.214  -0.127  -0.167  0.00  0.00    -0.077 A 
ATOM      3  C2  UNL d   1       1.248   0.809  -0.295  0.00  0.00    -0.001 A 
ATOM      4  C3  UNL d   1       2.439   0.462  -0.935  0.00  0.00     0.003 A 
ATOM      5  C4  UNL d   1       2.608  -0.821  -1.452  0.00  0.00    -0.005 A 
ATOM      6  C5  UNL d   1       1.584  -1.758  -1.331  0.00  0.00     0.003 A 
ATOM      7  C6  UNL d   1       0.392  -1.413  -0.692  0.00  0.00    -0.001 A 
ENDROOT
TORSDOF 0
ENDMDL
