MODEL 1
REMARK minimizedAffinity -5.52380371
REMARK minimizedRMSD -1
REMARK  0 active torsions:
REMARK  status: ('A' for Active; 'I' for Inactive)
ROOT
ATOM      1  C   UNL d   1       3.060  -0.565  -1.343  0.00  0.00     0.078 C 
ATOM      2  C1  UNL d   1       1.642  -0.418  -0.880  0.00  0.00    -0.077 A 
ATOM      3  C2  UNL d   1       0.943  -1.505  -0.341  0.00  0.00    -0.001 A 
ATOM      4  C3  UNL d   1      -0.380  -1.357   0.077  0.00  0.00     0.003 A 
ATOM      5  C4  UNL d   1      -1.017  -0.123  -0.040  0.00  0.00    -0.005 A 
ATOM      6  C5  UNL d   1      -0.330   0.965  -0.576  0.00  0.00     0.003 A 
ATOM      7  C6  UNL d   1       0.993   0.818  -0.995  0.00  0.00    -0.001 A 
ENDROOT
TORSDOF 0
ENDMDL
