MODEL 1
REMARK minimizedAffinity -4.91064692
REMARK minimizedRMSD -1
REMARK  0 active torsions:
REMARK  status: ('A' for Active; 'I' for Inactive)
ROOT
ATOM      1  C   UNL d   1       3.205  -0.452  -1.666  0.00  0.00     0.078 C 
ATOM      2  C1  UNL d   1       1.825  -0.511  -1.082  0.00  0.00    -0.077 A 
ATOM      3  C2  UNL d   1       0.932   0.557  -1.234  0.00  0.00    -0.001 A 
ATOM      4  C3  UNL d   1      -0.346   0.493  -0.676  0.00  0.00     0.003 A 
ATOM      5  C4  UNL d   1      -0.743  -0.637   0.037  0.00  0.00    -0.005 A 
ATOM      6  C5  UNL d   1       0.140  -1.704   0.194  0.00  0.00     0.003 A 
ATOM      7  C6  UNL d   1       1.418  -1.641  -0.362  0.00  0.00    -0.001 A 
ENDROOT
TORSDOF 0
ENDMDL
