MODEL 1
REMARK minimizedAffinity -4.76653528
REMARK minimizedRMSD -1
REMARK  0 active torsions:
REMARK  status: ('A' for Active; 'I' for Inactive)
ROOT
ATOM      1  C   UNL d   1       3.192  -0.791  -1.501  0.00  0.00     0.078 C 
ATOM      2  C1  UNL d   1       1.806  -0.692  -0.938  0.00  0.00    -0.077 A 
ATOM      3  C2  UNL d   1       1.063   0.490  -1.055  0.00  0.00    -0.001 A 
ATOM      4  C3  UNL d   1      -0.223   0.571  -0.518  0.00  0.00     0.003 A 
ATOM      5  C4  UNL d   1      -0.777  -0.526   0.140  0.00  0.00    -0.005 A 
ATOM      6  C5  UNL d   1      -0.045  -1.705   0.263  0.00  0.00     0.003 A 
ATOM      7  C6  UNL d   1       1.241  -1.788  -0.274  0.00  0.00    -0.001 A 
ENDROOT
TORSDOF 0
ENDMDL
