MODEL 1
REMARK minimizedAffinity -4.24939919
REMARK minimizedRMSD -1
REMARK  0 active torsions:
REMARK  status: ('A' for Active; 'I' for Inactive)
ROOT
ATOM      1  C   UNL d   1      -1.469   0.425   1.137  0.00  0.00     0.078 C 
ATOM      2  C1  UNL d   1      -0.332  -0.054   0.285  0.00  0.00    -0.077 A 
ATOM      3  C2  UNL d   1       0.138   0.711  -0.790  0.00  0.00    -0.001 A 
ATOM      4  C3  UNL d   1       1.190   0.247  -1.580  0.00  0.00     0.003 A 
ATOM      5  C4  UNL d   1       1.782  -0.984  -1.305  0.00  0.00    -0.005 A 
ATOM      6  C5  UNL d   1       1.320  -1.754  -0.240  0.00  0.00     0.003 A 
ATOM      7  C6  UNL d   1       0.268  -1.292   0.552  0.00  0.00    -0.001 A 
ENDROOT
TORSDOF 0
ENDMDL
