MODEL 1
REMARK minimizedAffinity -4.45284224
REMARK minimizedRMSD -1
REMARK  0 active torsions:
REMARK  status: ('A' for Active; 'I' for Inactive)
ROOT
ATOM      1  C   UNL d   1      -1.385   1.422   3.162  0.00  0.00     0.078 C 
ATOM      2  C1  UNL d   1      -0.931   0.829   1.861  0.00  0.00    -0.077 A 
ATOM      3  C2  UNL d   1      -1.841   0.213   0.994  0.00  0.00    -0.001 A 
ATOM      4  C3  UNL d   1      -1.404  -0.343  -0.210  0.00  0.00     0.003 A 
ATOM      5  C4  UNL d   1      -0.055  -0.289  -0.556  0.00  0.00    -0.005 A 
ATOM      6  C5  UNL d   1       0.858   0.321   0.302  0.00  0.00     0.003 A 
ATOM      7  C6  UNL d   1       0.423   0.877   1.506  0.00  0.00    -0.001 A 
ENDROOT
TORSDOF 0
ENDMDL
