MODEL 1
REMARK minimizedAffinity -5.10919762
REMARK minimizedRMSD -1
REMARK  0 active torsions:
REMARK  status: ('A' for Active; 'I' for Inactive)
ROOT
ATOM      1  C   UNL d   1      -1.148   0.398   0.802  0.00  0.00     0.078 C 
ATOM      2  C1  UNL d   1       0.054  -0.031   0.015  0.00  0.00    -0.077 A 
ATOM      3  C2  UNL d   1       0.482  -1.364   0.020  0.00  0.00    -0.001 A 
ATOM      4  C3  UNL d   1       1.609  -1.746  -0.710  0.00  0.00     0.003 A 
ATOM      5  C4  UNL d   1       2.317  -0.801  -1.449  0.00  0.00    -0.005 A 
ATOM      6  C5  UNL d   1       1.900   0.528  -1.459  0.00  0.00     0.003 A 
ATOM      7  C6  UNL d   1       0.773   0.912  -0.730  0.00  0.00    -0.001 A 
ENDROOT
TORSDOF 0
ENDMDL
