MODEL 1
REMARK minimizedAffinity 0.916554451
REMARK minimizedRMSD -1
REMARK  3 active torsions:
REMARK  status: ('A' for Active; 'I' for Inactive)
REMARK    1  A    between atoms: C3'_2  and  C2'_3 
REMARK    2  A    between atoms: C2'_3  and  C1'_4 
REMARK    3  A    between atoms: C1'_4  and  C1_5 
ROOT
ATOM      1  C1  N4B d   1       0.465   5.551   5.205  0.00  0.00    -0.075 A 
ATOM      2  C2  N4B d   1       0.510   5.382   3.804  0.00  0.00     0.002 A 
ATOM      3  C3  N4B d   1      -0.611   4.969   3.126  0.00  0.00     0.002 A 
ATOM      4  C4  N4B d   1      -1.777   4.702   3.828  0.00  0.00    -0.004 A 
ATOM      5  C5  N4B d   1      -1.819   4.892   5.178  0.00  0.00     0.002 A 
ATOM      6  C6  N4B d   1      -0.701   5.311   5.872  0.00  0.00     0.002 A 
ENDROOT
BRANCH   1   7
ATOM      7  C1' N4B d   1       1.689   5.917   6.000  0.00  0.00     0.057 C 
BRANCH   7   8
ATOM      8  C2' N4B d   1       2.913   5.856   5.091  0.00  0.00     0.009 C 
BRANCH   8   9
ATOM      9  C3' N4B d   1       4.209   5.828   5.885  0.00  0.00     0.004 C 
ATOM     10  C4' N4B d   1       5.301   5.076   5.186  0.00  0.00     0.003 C 
ENDBRANCH   8   9
ENDBRANCH   7   8
ENDBRANCH   1   7
TORSDOF 3
ENDMDL
