MODEL 1
REMARK minimizedAffinity -2.63863564
REMARK minimizedRMSD -1
REMARK  3 active torsions:
REMARK  status: ('A' for Active; 'I' for Inactive)
REMARK    1  A    between atoms: C3'_2  and  C2'_3 
REMARK    2  A    between atoms: C2'_3  and  C1'_4 
REMARK    3  A    between atoms: C1'_4  and  C1_5 
ROOT
ATOM      1  C1  N4B d   1      -0.252   5.617   5.299  0.00  0.00    -0.075 A 
ATOM      2  C2  N4B d   1      -0.265   4.895   4.085  0.00  0.00     0.002 A 
ATOM      3  C3  N4B d   1      -1.461   4.525   3.519  0.00  0.00     0.002 A 
ATOM      4  C4  N4B d   1      -2.650   4.849   4.155  0.00  0.00    -0.004 A 
ATOM      5  C5  N4B d   1      -2.629   5.568   5.314  0.00  0.00     0.002 A 
ATOM      6  C6  N4B d   1      -1.435   5.950   5.892  0.00  0.00     0.002 A 
ENDROOT
BRANCH   1   7
ATOM      7  C1' N4B d   1       1.032   5.968   6.000  0.00  0.00     0.057 C 
BRANCH   7   8
ATOM      8  C2' N4B d   1       2.169   5.987   4.983  0.00  0.00     0.009 C 
BRANCH   8   9
ATOM      9  C3' N4B d   1       3.532   5.997   5.654  0.00  0.00     0.004 C 
ATOM     10  C4' N4B d   1       4.534   5.135   4.947  0.00  0.00     0.003 C 
ENDBRANCH   8   9
ENDBRANCH   7   8
ENDBRANCH   1   7
TORSDOF 3
ENDMDL
