MODEL 1
REMARK minimizedAffinity -1.8724246
REMARK minimizedRMSD -1
REMARK  3 active torsions:
REMARK  status: ('A' for Active; 'I' for Inactive)
REMARK    1  A    between atoms: C3'_2  and  C2'_3 
REMARK    2  A    between atoms: C2'_3  and  C1'_4 
REMARK    3  A    between atoms: C1'_4  and  C1_5 
ROOT
ATOM      1  C1  N4B d   1       4.234  -3.558   1.698  0.00  0.00    -0.075 A 
ATOM      2  C2  N4B d   1       3.069  -4.351   1.618  0.00  0.00     0.002 A 
ATOM      3  C3  N4B d   1       1.837  -3.753   1.508  0.00  0.00     0.002 A 
ATOM      4  C4  N4B d   1       1.745  -2.370   1.496  0.00  0.00    -0.004 A 
ATOM      5  C5  N4B d   1       2.878  -1.611   1.548  0.00  0.00     0.002 A 
ATOM      6  C6  N4B d   1       4.122  -2.198   1.654  0.00  0.00     0.002 A 
ENDROOT
BRANCH   1   7
ATOM      7  C1' N4B d   1       5.595  -4.164   1.904  0.00  0.00     0.057 C 
BRANCH   7   8
ATOM      8  C2' N4B d   1       5.975  -4.975   0.669  0.00  0.00     0.009 C 
BRANCH   8   9
ATOM      9  C3' N4B d   1       4.912  -5.999   0.312  0.00  0.00     0.004 C 
ATOM     10  C4' N4B d   1       4.571  -5.997  -1.148  0.00  0.00     0.003 C 
ENDBRANCH   8   9
ENDBRANCH   7   8
ENDBRANCH   1   7
TORSDOF 3
ENDMDL
