MODEL 1
REMARK minimizedAffinity -3.02761555
REMARK minimizedRMSD -1
REMARK  3 active torsions:
REMARK  status: ('A' for Active; 'I' for Inactive)
REMARK    1  A    between atoms: C3'_2  and  C2'_3 
REMARK    2  A    between atoms: C2'_3  and  C1'_4 
REMARK    3  A    between atoms: C1'_4  and  C1_5 
ROOT
ATOM      1  C1  N4B d   1       1.826   5.737   5.150  0.00  0.00    -0.075 A 
ATOM      2  C2  N4B d   1       0.710   5.985   5.978  0.00  0.00     0.002 A 
ATOM      3  C3  N4B d   1      -0.561   5.817   5.486  0.00  0.00     0.002 A 
ATOM      4  C4  N4B d   1      -0.740   5.422   4.168  0.00  0.00    -0.004 A 
ATOM      5  C5  N4B d   1       0.344   5.160   3.382  0.00  0.00     0.002 A 
ATOM      6  C6  N4B d   1       1.627   5.320   3.865  0.00  0.00     0.002 A 
ENDROOT
BRANCH   1   7
ATOM      7  C1' N4B d   1       3.233   5.989   5.618  0.00  0.00     0.057 C 
BRANCH   7   8
ATOM      8  C2' N4B d   1       4.168   6.000   4.411  0.00  0.00     0.009 C 
BRANCH   8   9
ATOM      9  C3' N4B d   1       5.547   5.465   4.756  0.00  0.00     0.004 C 
ATOM     10  C4' N4B d   1       5.551   4.627   6.000  0.00  0.00     0.003 C 
ENDBRANCH   8   9
ENDBRANCH   7   8
ENDBRANCH   1   7
TORSDOF 3
ENDMDL
