MODEL 1
REMARK minimizedAffinity -3.06634521
REMARK minimizedRMSD -1
REMARK  3 active torsions:
REMARK  status: ('A' for Active; 'I' for Inactive)
REMARK    1  A    between atoms: C3'_2  and  C2'_3 
REMARK    2  A    between atoms: C2'_3  and  C1'_4 
REMARK    3  A    between atoms: C1'_4  and  C1_5 
ROOT
ATOM      1  C1  N4B d   1      -1.632   4.719   4.705  0.00  0.00    -0.075 A 
ATOM      2  C2  N4B d   1      -0.882   4.517   5.885  0.00  0.00     0.002 A 
ATOM      3  C3  N4B d   1       0.375   5.059   6.000  0.00  0.00     0.002 A 
ATOM      4  C4  N4B d   1       0.908   5.786   4.946  0.00  0.00    -0.004 A 
ATOM      5  C5  N4B d   1       0.167   5.997   3.820  0.00  0.00     0.002 A 
ATOM      6  C6  N4B d   1      -1.099   5.463   3.692  0.00  0.00     0.002 A 
ENDROOT
BRANCH   1   7
ATOM      7  C1' N4B d   1      -2.976   4.075   4.499  0.00  0.00     0.057 C 
BRANCH   7   8
ATOM      8  C2' N4B d   1      -2.990   2.715   5.190  0.00  0.00     0.009 C 
BRANCH   8   9
ATOM      9  C3' N4B d   1      -4.227   1.909   4.831  0.00  0.00     0.004 C 
ATOM     10  C4' N4B d   1      -5.069   2.573   3.782  0.00  0.00     0.003 C 
ENDBRANCH   8   9
ENDBRANCH   7   8
ENDBRANCH   1   7
TORSDOF 3
ENDMDL
