MODEL 1
REMARK minimizedAffinity -0.670096278
REMARK minimizedRMSD -1
REMARK  3 active torsions:
REMARK  status: ('A' for Active; 'I' for Inactive)
REMARK    1  A    between atoms: C3'_2  and  C2'_3 
REMARK    2  A    between atoms: C2'_3  and  C1'_4 
REMARK    3  A    between atoms: C1'_4  and  C1_5 
ROOT
ATOM      1  C1  N4B d   1       0.827   5.736   5.299  0.00  0.00    -0.075 A 
ATOM      2  C2  N4B d   1       0.777   5.270   3.967  0.00  0.00     0.002 A 
ATOM      3  C3  N4B d   1      -0.432   4.965   3.391  0.00  0.00     0.002 A 
ATOM      4  C4  N4B d   1      -1.597   5.100   4.131  0.00  0.00    -0.004 A 
ATOM      5  C5  N4B d   1      -1.542   5.575   5.408  0.00  0.00     0.002 A 
ATOM      6  C6  N4B d   1      -0.335   5.889   5.999  0.00  0.00     0.002 A 
ENDROOT
BRANCH   1   7
ATOM      7  C1' N4B d   1       2.132   6.000   6.000  0.00  0.00     0.057 C 
BRANCH   7   8
ATOM      8  C2' N4B d   1       3.273   5.888   4.993  0.00  0.00     0.009 C 
BRANCH   8   9
ATOM      9  C3' N4B d   1       4.560   5.411   5.643  0.00  0.00     0.004 C 
ATOM     10  C4' N4B d   1       5.786   5.954   4.971  0.00  0.00     0.003 C 
ENDBRANCH   8   9
ENDBRANCH   7   8
ENDBRANCH   1   7
TORSDOF 3
ENDMDL
