MODEL 1
REMARK minimizedAffinity -2.93269897
REMARK minimizedRMSD -1
REMARK  3 active torsions:
REMARK  status: ('A' for Active; 'I' for Inactive)
REMARK    1  A    between atoms: C3'_2  and  C2'_3 
REMARK    2  A    between atoms: C2'_3  and  C1'_4 
REMARK    3  A    between atoms: C1'_4  and  C1_5 
ROOT
ATOM      1  C1  N4B d   1       0.979   5.588   5.278  0.00  0.00    -0.075 A 
ATOM      2  C2  N4B d   1       0.003   4.866   6.000  0.00  0.00     0.002 A 
ATOM      3  C3  N4B d   1      -1.208   4.578   5.419  0.00  0.00     0.002 A 
ATOM      4  C4  N4B d   1      -1.472   5.017   4.131  0.00  0.00    -0.004 A 
ATOM      5  C5  N4B d   1      -0.515   5.692   3.431  0.00  0.00     0.002 A 
ATOM      6  C6  N4B d   1       0.708   5.984   4.000  0.00  0.00     0.002 A 
ENDROOT
BRANCH   1   7
ATOM      7  C1' N4B d   1       2.284   6.000   5.901  0.00  0.00     0.057 C 
BRANCH   7   8
ATOM      8  C2' N4B d   1       3.404   5.825   4.879  0.00  0.00     0.009 C 
BRANCH   8   9
ATOM      9  C3' N4B d   1       4.777   5.996   5.506  0.00  0.00     0.004 C 
ATOM     10  C4' N4B d   1       5.720   4.885   5.151  0.00  0.00     0.003 C 
ENDBRANCH   8   9
ENDBRANCH   7   8
ENDBRANCH   1   7
TORSDOF 3
ENDMDL
