MODEL 1
REMARK minimizedAffinity 9.60385418
REMARK minimizedRMSD -1
REMARK  1 active torsions:
REMARK  status: ('A' for Active; 'I' for Inactive)
REMARK    1  A    between atoms: C1_2  and  C2_3 
ROOT
ATOM      1  C2  UNL d   1       0.288   3.047   1.290  0.00  0.00    -0.073 A 
ATOM      2  C3  UNL d   1      -0.487   2.020   1.843  0.00  0.00    -0.002 A 
ATOM      3  C4  UNL d   1      -0.180   1.506   3.103  0.00  0.00     0.004 A 
ATOM      4  C5  UNL d   1       0.898   2.015   3.826  0.00  0.00    -0.004 A 
ATOM      5  C6  UNL d   1       1.677   3.049   3.296  0.00  0.00    -0.075 A 
ATOM      6  C7  UNL d   1       2.842   3.607   4.060  0.00  0.00     0.076 C 
ATOM      7  C8  UNL d   1       1.364   3.559   2.029  0.00  0.00     0.001 A 
ENDROOT
BRANCH   1   8
ATOM      8  C1  UNL d   1      -0.044   3.610  -0.067  0.00  0.00     0.053 C 
ATOM      9  C   UNL d   1       0.097   5.123  -0.107  0.00  0.00     0.018 C 
ENDBRANCH   1   8
TORSDOF 1
ENDMDL
