MODEL 1
REMARK minimizedAffinity 9.84490395
REMARK minimizedRMSD -1
REMARK  1 active torsions:
REMARK  status: ('A' for Active; 'I' for Inactive)
REMARK    1  A    between atoms: C1_2  and  C2_3 
ROOT
ATOM      1  C2  UNL d   1       0.127   2.074   0.158  0.00  0.00    -0.073 A 
ATOM      2  C3  UNL d   1      -1.065   1.468  -0.256  0.00  0.00    -0.002 A 
ATOM      3  C4  UNL d   1      -1.066   0.145  -0.700  0.00  0.00     0.004 A 
ATOM      4  C5  UNL d   1       0.121  -0.587  -0.727  0.00  0.00    -0.004 A 
ATOM      5  C6  UNL d   1       1.320  -0.003  -0.306  0.00  0.00    -0.075 A 
ATOM      6  C7  UNL d   1       2.606  -0.777  -0.332  0.00  0.00     0.076 C 
ATOM      7  C8  UNL d   1       1.314   1.327   0.135  0.00  0.00     0.001 A 
ENDROOT
BRANCH   1   8
ATOM      8  C1  UNL d   1       0.132   3.500   0.644  0.00  0.00     0.053 C 
ATOM      9  C   UNL d   1       0.738   4.449  -0.379  0.00  0.00     0.018 C 
ENDBRANCH   1   8
TORSDOF 1
ENDMDL
