MODEL 1
REMARK minimizedAffinity 11.5052443
REMARK minimizedRMSD -1
REMARK  1 active torsions:
REMARK  status: ('A' for Active; 'I' for Inactive)
REMARK    1  A    between atoms: C1_2  and  C2_3 
ROOT
ATOM      1  C2  UNL d   1       0.652   3.768   1.018  0.00  0.00    -0.073 A 
ATOM      2  C3  UNL d   1      -0.489   4.382   1.548  0.00  0.00    -0.002 A 
ATOM      3  C4  UNL d   1      -1.048   5.494   0.917  0.00  0.00     0.004 A 
ATOM      4  C5  UNL d   1      -0.477   5.999  -0.252  0.00  0.00    -0.004 A 
ATOM      5  C6  UNL d   1       0.655   5.391  -0.803  0.00  0.00    -0.075 A 
ATOM      6  C7  UNL d   1       1.282   5.923  -2.059  0.00  0.00     0.076 C 
ATOM      7  C8  UNL d   1       1.212   4.276  -0.162  0.00  0.00     0.001 A 
ENDROOT
BRANCH   1   8
ATOM      8  C1  UNL d   1       1.255   2.563   1.692  0.00  0.00     0.053 C 
ATOM      9  C   UNL d   1       0.676   2.337   3.080  0.00  0.00     0.018 C 
ENDBRANCH   1   8
TORSDOF 1
ENDMDL
