MODEL 1
REMARK minimizedAffinity -2.33946323
REMARK minimizedRMSD -1
REMARK  1 active torsions:
REMARK  status: ('A' for Active; 'I' for Inactive)
REMARK    1  A    between atoms: C1_2  and  C2_3 
ROOT
ATOM      1  C2  UNL d   1      -4.026  -3.137  -5.236  0.00  0.00    -0.076 A 
ATOM      2  C3  UNL d   1      -3.221  -2.254  -5.976  0.00  0.00     0.004 A 
ATOM      3  C4  UNL d   1      -3.490  -0.886  -5.999  0.00  0.00    -0.003 A 
ATOM      4  C5  UNL d   1      -4.569  -0.380  -5.282  0.00  0.00     0.000 A 
ATOM      5  C6  UNL d   1      -5.367  -1.240  -4.529  0.00  0.00     0.000 A 
ATOM      6  C7  UNL d   1      -5.100  -2.619  -4.482  0.00  0.00    -0.073 A 
ATOM      7  C8  UNL d   1      -5.998  -3.501  -3.658  0.00  0.00     0.078 C 
ENDROOT
BRANCH   1   8
ATOM      8  C1  UNL d   1      -3.702  -4.614  -5.271  0.00  0.00     0.053 C 
ATOM      9  C   UNL d   1      -2.258  -4.903  -4.891  0.00  0.00     0.018 C 
ENDBRANCH   1   8
TORSDOF 1
ENDMDL
