MODEL 1
REMARK minimizedAffinity -0.528925538
REMARK minimizedRMSD -1
REMARK  1 active torsions:
REMARK  status: ('A' for Active; 'I' for Inactive)
REMARK    1  A    between atoms: C1_2  and  C2_3 
ROOT
ATOM      1  C2  UNL d   1      -5.334  -3.525  -3.936  0.00  0.00    -0.076 A 
ATOM      2  C3  UNL d   1      -5.999  -3.911  -5.113  0.00  0.00     0.004 A 
ATOM      3  C4  UNL d   1      -5.419  -4.817  -6.000  0.00  0.00    -0.003 A 
ATOM      4  C5  UNL d   1      -4.165  -5.351  -5.724  0.00  0.00     0.000 A 
ATOM      5  C6  UNL d   1      -3.499  -4.992  -4.553  0.00  0.00     0.000 A 
ATOM      6  C7  UNL d   1      -4.076  -4.093  -3.640  0.00  0.00    -0.073 A 
ATOM      7  C8  UNL d   1      -3.310  -3.736  -2.395  0.00  0.00     0.078 C 
ENDROOT
BRANCH   1   8
ATOM      8  C1  UNL d   1      -6.000  -2.518  -3.025  0.00  0.00     0.053 C 
ATOM      9  C   UNL d   1      -5.985  -1.111  -3.602  0.00  0.00     0.018 C 
ENDBRANCH   1   8
TORSDOF 1
ENDMDL
