MODEL 1
REMARK minimizedAffinity -2.36071825
REMARK minimizedRMSD -1
REMARK  1 active torsions:
REMARK  status: ('A' for Active; 'I' for Inactive)
REMARK    1  A    between atoms: C1_2  and  C2_3 
ROOT
ATOM      1  C2  UNL d   1      -3.963  -3.745  -4.409  0.00  0.00    -0.076 A 
ATOM      2  C3  UNL d   1      -3.913  -4.350  -5.677  0.00  0.00     0.004 A 
ATOM      3  C4  UNL d   1      -2.913  -5.267  -5.997  0.00  0.00    -0.003 A 
ATOM      4  C5  UNL d   1      -1.946  -5.594  -5.052  0.00  0.00     0.000 A 
ATOM      5  C6  UNL d   1      -1.990  -5.018  -3.784  0.00  0.00     0.000 A 
ATOM      6  C7  UNL d   1      -3.001  -4.104  -3.440  0.00  0.00    -0.073 A 
ATOM      7  C8  UNL d   1      -2.997  -3.508  -2.059  0.00  0.00     0.078 C 
ENDROOT
BRANCH   1   8
ATOM      8  C1  UNL d   1      -5.055  -2.738  -4.129  0.00  0.00     0.053 C 
ATOM      9  C   UNL d   1      -6.000  -2.560  -5.307  0.00  0.00     0.018 C 
ENDBRANCH   1   8
TORSDOF 1
ENDMDL
