MODEL 1
REMARK minimizedAffinity -0.668718994
REMARK minimizedRMSD -1
REMARK  1 active torsions:
REMARK  status: ('A' for Active; 'I' for Inactive)
REMARK    1  A    between atoms: C1_2  and  C2_3 
ROOT
ATOM      1  C2  UNL d   1      -4.251  -3.846  -5.702  0.00  0.00    -0.076 A 
ATOM      2  C3  UNL d   1      -2.985  -3.242  -5.613  0.00  0.00     0.004 A 
ATOM      3  C4  UNL d   1      -1.820  -4.005  -5.669  0.00  0.00    -0.003 A 
ATOM      4  C5  UNL d   1      -1.903  -5.385  -5.816  0.00  0.00     0.000 A 
ATOM      5  C6  UNL d   1      -3.150  -6.000  -5.923  0.00  0.00     0.000 A 
ATOM      6  C7  UNL d   1      -4.333  -5.243  -5.885  0.00  0.00    -0.073 A 
ATOM      7  C8  UNL d   1      -5.652  -5.958  -5.999  0.00  0.00     0.078 C 
ENDROOT
BRANCH   1   8
ATOM      8  C1  UNL d   1      -5.480  -2.970  -5.607  0.00  0.00     0.053 C 
ATOM      9  C   UNL d   1      -5.825  -2.603  -4.172  0.00  0.00     0.018 C 
ENDBRANCH   1   8
TORSDOF 1
ENDMDL
