MODEL 1
REMARK minimizedAffinity -2.01672149
REMARK minimizedRMSD -1
REMARK  1 active torsions:
REMARK  status: ('A' for Active; 'I' for Inactive)
REMARK    1  A    between atoms: C1_2  and  C2_3 
ROOT
ATOM      1  C2  UNL d   1      -4.733  -3.364  -3.845  0.00  0.00    -0.076 A 
ATOM      2  C3  UNL d   1      -3.598  -3.902  -3.213  0.00  0.00     0.004 A 
ATOM      3  C4  UNL d   1      -2.584  -4.509  -3.953  0.00  0.00    -0.003 A 
ATOM      4  C5  UNL d   1      -2.689  -4.587  -5.337  0.00  0.00     0.000 A 
ATOM      5  C6  UNL d   1      -3.799  -4.043  -5.982  0.00  0.00     0.000 A 
ATOM      6  C7  UNL d   1      -4.822  -3.413  -5.252  0.00  0.00    -0.073 A 
ATOM      7  C8  UNL d   1      -5.999  -2.849  -5.999  0.00  0.00     0.078 C 
ENDROOT
BRANCH   1   8
ATOM      8  C1  UNL d   1      -5.812  -2.742  -2.988  0.00  0.00     0.053 C 
ATOM      9  C   UNL d   1      -5.997  -1.259  -3.269  0.00  0.00     0.018 C 
ENDBRANCH   1   8
TORSDOF 1
ENDMDL
