MODEL 1
REMARK minimizedAffinity 3.57803416
REMARK minimizedRMSD -1
REMARK  1 active torsions:
REMARK  status: ('A' for Active; 'I' for Inactive)
REMARK    1  A    between atoms: C1_2  and  C2_3 
ROOT
ATOM      1  C2  UNL d   1      -3.785  -3.660  -3.499  0.00  0.00    -0.076 A 
ATOM      2  C3  UNL d   1      -5.167  -3.428  -3.381  0.00  0.00     0.004 A 
ATOM      3  C4  UNL d   1      -5.996  -3.450  -4.501  0.00  0.00    -0.003 A 
ATOM      4  C5  UNL d   1      -5.458  -3.705  -5.757  0.00  0.00     0.000 A 
ATOM      5  C6  UNL d   1      -4.092  -3.955  -5.890  0.00  0.00     0.000 A 
ATOM      6  C7  UNL d   1      -3.245  -3.953  -4.769  0.00  0.00    -0.073 A 
ATOM      7  C8  UNL d   1      -1.779  -4.222  -4.972  0.00  0.00     0.078 C 
ENDROOT
BRANCH   1   8
ATOM      8  C1  UNL d   1      -2.931  -3.597  -2.253  0.00  0.00     0.053 C 
ATOM      9  C   UNL d   1      -3.030  -2.253  -1.547  0.00  0.00     0.018 C 
ENDBRANCH   1   8
TORSDOF 1
ENDMDL
