MODEL 1
REMARK minimizedAffinity 0.545981109
REMARK minimizedRMSD -1
REMARK  1 active torsions:
REMARK  status: ('A' for Active; 'I' for Inactive)
REMARK    1  A    between atoms: C1_2  and  C2_3 
ROOT
ATOM      1  C2  UNL d   1      -4.745  -3.283  -3.800  0.00  0.00    -0.076 A 
ATOM      2  C3  UNL d   1      -3.653  -3.831  -3.105  0.00  0.00     0.004 A 
ATOM      3  C4  UNL d   1      -2.714  -4.628  -3.757  0.00  0.00    -0.003 A 
ATOM      4  C5  UNL d   1      -2.851  -4.890  -5.116  0.00  0.00     0.000 A 
ATOM      5  C6  UNL d   1      -3.919  -4.341  -5.825  0.00  0.00     0.000 A 
ATOM      6  C7  UNL d   1      -4.865  -3.521  -5.186  0.00  0.00    -0.073 A 
ATOM      7  C8  UNL d   1      -5.999  -2.959  -5.998  0.00  0.00     0.078 C 
ENDROOT
BRANCH   1   8
ATOM      8  C1  UNL d   1      -5.746  -2.448  -3.034  0.00  0.00     0.053 C 
ATOM      9  C   UNL d   1      -5.951  -1.073  -3.651  0.00  0.00     0.018 C 
ENDBRANCH   1   8
TORSDOF 1
ENDMDL
