MODEL 1
REMARK minimizedAffinity 3.45984769
REMARK minimizedRMSD -1
REMARK  1 active torsions:
REMARK  status: ('A' for Active; 'I' for Inactive)
REMARK    1  A    between atoms: C1_2  and  C2_3 
ROOT
ATOM      1  C2  UNL d   1      -0.968  -0.711   0.518  0.00  0.00    -0.076 A 
ATOM      2  C3  UNL d   1      -2.062  -0.263  -0.243  0.00  0.00     0.004 A 
ATOM      3  C4  UNL d   1      -3.161  -1.088  -0.474  0.00  0.00    -0.003 A 
ATOM      4  C5  UNL d   1      -3.186  -2.375   0.052  0.00  0.00     0.000 A 
ATOM      5  C6  UNL d   1      -2.117  -2.830   0.825  0.00  0.00     0.000 A 
ATOM      6  C7  UNL d   1      -1.008  -2.005   1.081  0.00  0.00    -0.073 A 
ATOM      7  C8  UNL d   1       0.119  -2.549   1.915  0.00  0.00     0.078 C 
ENDROOT
BRANCH   1   8
ATOM      8  C1  UNL d   1       0.208   0.218   0.712  0.00  0.00     0.053 C 
ATOM      9  C   UNL d   1       1.469  -0.287   0.029  0.00  0.00     0.018 C 
ENDBRANCH   1   8
TORSDOF 1
ENDMDL
