MODEL 1
REMARK minimizedAffinity -0.7308954
REMARK minimizedRMSD -1
REMARK  1 active torsions:
REMARK  status: ('A' for Active; 'I' for Inactive)
REMARK    1  A    between atoms: C1_2  and  C2_3 
ROOT
ATOM      1  C2  UNL d   1      -3.404  -5.362  -5.113  0.00  0.00    -0.076 A 
ATOM      2  C3  UNL d   1      -4.386  -5.875  -5.978  0.00  0.00     0.004 A 
ATOM      3  C4  UNL d   1      -5.673  -5.340  -5.999  0.00  0.00    -0.003 A 
ATOM      4  C5  UNL d   1      -5.999  -4.285  -5.155  0.00  0.00     0.000 A 
ATOM      5  C6  UNL d   1      -5.032  -3.752  -4.302  0.00  0.00     0.000 A 
ATOM      6  C7  UNL d   1      -3.725  -4.269  -4.281  0.00  0.00    -0.073 A 
ATOM      7  C8  UNL d   1      -2.724  -3.660  -3.337  0.00  0.00     0.078 C 
ENDROOT
BRANCH   1   8
ATOM      8  C1  UNL d   1      -2.033  -6.000  -5.115  0.00  0.00     0.053 C 
ATOM      9  C   UNL d   1      -1.040  -5.245  -5.986  0.00  0.00     0.018 C 
ENDBRANCH   1   8
TORSDOF 1
ENDMDL
