MODEL 1
REMARK minimizedAffinity -1.58025336
REMARK minimizedRMSD -1
REMARK  1 active torsions:
REMARK  status: ('A' for Active; 'I' for Inactive)
REMARK    1  A    between atoms: C1_2  and  C2_3 
ROOT
ATOM      1  C2  UNL d   1      -4.320  -4.482  -4.648  0.00  0.00    -0.076 A 
ATOM      2  C3  UNL d   1      -4.154  -5.287  -5.789  0.00  0.00     0.004 A 
ATOM      3  C4  UNL d   1      -2.974  -5.998  -6.000  0.00  0.00    -0.003 A 
ATOM      4  C5  UNL d   1      -1.941  -5.917  -5.073  0.00  0.00     0.000 A 
ATOM      5  C6  UNL d   1      -2.094  -5.137  -3.927  0.00  0.00     0.000 A 
ATOM      6  C7  UNL d   1      -3.284  -4.427  -3.691  0.00  0.00    -0.073 A 
ATOM      7  C8  UNL d   1      -3.393  -3.597  -2.441  0.00  0.00     0.078 C 
ENDROOT
BRANCH   1   8
ATOM      8  C1  UNL d   1      -5.611  -3.712  -4.486  0.00  0.00     0.053 C 
ATOM      9  C   UNL d   1      -5.859  -2.743  -5.632  0.00  0.00     0.018 C 
ENDBRANCH   1   8
TORSDOF 1
ENDMDL
