MODEL 1
REMARK minimizedAffinity -0.896881461
REMARK minimizedRMSD -1
REMARK  1 active torsions:
REMARK  status: ('A' for Active; 'I' for Inactive)
REMARK    1  A    between atoms: C1_2  and  C2_3 
ROOT
ATOM      1  C2  UNL d   1      -3.750  -5.053  -4.911  0.00  0.00    -0.076 A 
ATOM      2  C3  UNL d   1      -4.652  -5.057  -5.990  0.00  0.00     0.004 A 
ATOM      3  C4  UNL d   1      -5.768  -4.222  -5.994  0.00  0.00    -0.003 A 
ATOM      4  C5  UNL d   1      -5.999  -3.368  -4.921  0.00  0.00     0.000 A 
ATOM      5  C6  UNL d   1      -5.106  -3.339  -3.851  0.00  0.00     0.000 A 
ATOM      6  C7  UNL d   1      -3.967  -4.162  -3.838  0.00  0.00    -0.073 A 
ATOM      7  C8  UNL d   1      -3.040  -4.094  -2.656  0.00  0.00     0.078 C 
ENDROOT
BRANCH   1   8
ATOM      8  C1  UNL d   1      -2.572  -6.000  -4.949  0.00  0.00     0.053 C 
ATOM      9  C   UNL d   1      -1.275  -5.334  -4.514  0.00  0.00     0.018 C 
ENDBRANCH   1   8
TORSDOF 1
ENDMDL
