MODEL 1
REMARK minimizedAffinity 1.8501296
REMARK minimizedRMSD -1
REMARK  1 active torsions:
REMARK  status: ('A' for Active; 'I' for Inactive)
REMARK    1  A    between atoms: C1_2  and  C2_3 
ROOT
ATOM      1  C2  UNL d   1      -3.751  -5.047  -4.934  0.00  0.00    -0.076 A 
ATOM      2  C3  UNL d   1      -4.710  -5.175  -5.954  0.00  0.00     0.004 A 
ATOM      3  C4  UNL d   1      -5.824  -4.340  -6.000  0.00  0.00    -0.003 A 
ATOM      4  C5  UNL d   1      -5.998  -3.362  -5.027  0.00  0.00     0.000 A 
ATOM      5  C6  UNL d   1      -5.048  -3.208  -4.018  0.00  0.00     0.000 A 
ATOM      6  C7  UNL d   1      -3.910  -4.032  -3.966  0.00  0.00    -0.073 A 
ATOM      7  C8  UNL d   1      -2.920  -3.826  -2.853  0.00  0.00     0.078 C 
ENDROOT
BRANCH   1   8
ATOM      8  C1  UNL d   1      -2.576  -5.999  -4.920  0.00  0.00     0.053 C 
ATOM      9  C   UNL d   1      -1.547  -5.671  -5.990  0.00  0.00     0.018 C 
ENDBRANCH   1   8
TORSDOF 1
ENDMDL
