MODEL 1
REMARK minimizedAffinity 9.47559929
REMARK minimizedRMSD -1
REMARK  1 active torsions:
REMARK  status: ('A' for Active; 'I' for Inactive)
REMARK    1  A    between atoms: C1_2  and  C2_3 
ROOT
ATOM      1  C2  UNL d   1      -3.714  -3.770  -3.657  0.00  0.00    -0.076 A 
ATOM      2  C3  UNL d   1      -5.061  -4.092  -3.413  0.00  0.00     0.004 A 
ATOM      3  C4  UNL d   1      -5.998  -4.084  -4.444  0.00  0.00    -0.003 A 
ATOM      4  C5  UNL d   1      -5.605  -3.754  -5.736  0.00  0.00     0.000 A 
ATOM      5  C6  UNL d   1      -4.270  -3.449  -6.000  0.00  0.00     0.000 A 
ATOM      6  C7  UNL d   1      -3.309  -3.468  -4.974  0.00  0.00    -0.073 A 
ATOM      7  C8  UNL d   1      -1.884  -3.125  -5.314  0.00  0.00     0.078 C 
ENDROOT
BRANCH   1   8
ATOM      8  C1  UNL d   1      -2.748  -3.769  -2.494  0.00  0.00     0.053 C 
ATOM      9  C   UNL d   1      -2.941  -2.572  -1.576  0.00  0.00     0.018 C 
ENDBRANCH   1   8
TORSDOF 1
ENDMDL
