MODEL 1
REMARK minimizedAffinity -0.291736633
REMARK minimizedRMSD -1
REMARK  1 active torsions:
REMARK  status: ('A' for Active; 'I' for Inactive)
REMARK    1  A    between atoms: C1_2  and  C2_3 
ROOT
ATOM      1  C2  UNL d   1      -4.324  -4.155  -4.718  0.00  0.00    -0.076 A 
ATOM      2  C3  UNL d   1      -3.015  -3.785  -4.364  0.00  0.00     0.004 A 
ATOM      3  C4  UNL d   1      -1.916  -4.516  -4.813  0.00  0.00    -0.003 A 
ATOM      4  C5  UNL d   1      -2.109  -5.629  -5.624  0.00  0.00     0.000 A 
ATOM      5  C6  UNL d   1      -3.399  -6.000  -6.000  0.00  0.00     0.000 A 
ATOM      6  C7  UNL d   1      -4.517  -5.264  -5.569  0.00  0.00    -0.073 A 
ATOM      7  C8  UNL d   1      -5.886  -5.713  -6.000  0.00  0.00     0.078 C 
ENDROOT
BRANCH   1   8
ATOM      8  C1  UNL d   1      -5.478  -3.340  -4.179  0.00  0.00     0.053 C 
ATOM      9  C   UNL d   1      -5.983  -2.312  -5.180  0.00  0.00     0.018 C 
ENDBRANCH   1   8
TORSDOF 1
ENDMDL
