MODEL 1
REMARK minimizedAffinity 0.274882883
REMARK minimizedRMSD -1
REMARK  1 active torsions:
REMARK  status: ('A' for Active; 'I' for Inactive)
REMARK    1  A    between atoms: C1_2  and  C2_3 
ROOT
ATOM      1  C2  UNL d   1      -4.712  -4.530  -4.353  0.00  0.00    -0.076 A 
ATOM      2  C3  UNL d   1      -4.774  -5.266  -5.549  0.00  0.00     0.004 A 
ATOM      3  C4  UNL d   1      -3.674  -5.995  -6.000  0.00  0.00    -0.003 A 
ATOM      4  C5  UNL d   1      -2.496  -6.000  -5.262  0.00  0.00     0.000 A 
ATOM      5  C6  UNL d   1      -2.423  -5.289  -4.064  0.00  0.00     0.000 A 
ATOM      6  C7  UNL d   1      -3.527  -4.562  -3.587  0.00  0.00    -0.073 A 
ATOM      7  C8  UNL d   1      -3.391  -3.809  -2.292  0.00  0.00     0.078 C 
ENDROOT
BRANCH   1   8
ATOM      8  C1  UNL d   1      -5.927  -3.736  -3.928  0.00  0.00     0.053 C 
ATOM      9  C   UNL d   1      -5.978  -2.359  -4.571  0.00  0.00     0.018 C 
ENDBRANCH   1   8
TORSDOF 1
ENDMDL
