MODEL 1
REMARK minimizedAffinity -0.294775248
REMARK minimizedRMSD -1
REMARK  1 active torsions:
REMARK  status: ('A' for Active; 'I' for Inactive)
REMARK    1  A    between atoms: C1_2  and  C2_3 
ROOT
ATOM      1  C2  UNL d   1      -3.149  -5.250  -4.921  0.00  0.00    -0.076 A 
ATOM      2  C3  UNL d   1      -4.051  -5.317  -5.997  0.00  0.00     0.004 A 
ATOM      3  C4  UNL d   1      -5.282  -4.665  -5.943  0.00  0.00    -0.003 A 
ATOM      4  C5  UNL d   1      -5.630  -3.934  -4.812  0.00  0.00     0.000 A 
ATOM      5  C6  UNL d   1      -4.740  -3.842  -3.743  0.00  0.00     0.000 A 
ATOM      6  C7  UNL d   1      -3.488  -4.480  -3.788  0.00  0.00    -0.073 A 
ATOM      7  C8  UNL d   1      -2.570  -4.353  -2.603  0.00  0.00     0.078 C 
ENDROOT
BRANCH   1   8
ATOM      8  C1  UNL d   1      -1.840  -6.000  -5.026  0.00  0.00     0.053 C 
ATOM      9  C   UNL d   1      -1.062  -5.999  -3.719  0.00  0.00     0.018 C 
ENDBRANCH   1   8
TORSDOF 1
ENDMDL
