MODEL 1
REMARK minimizedAffinity -0.870034814
REMARK minimizedRMSD -1
REMARK  1 active torsions:
REMARK  status: ('A' for Active; 'I' for Inactive)
REMARK    1  A    between atoms: C1_2  and  C2_3 
ROOT
ATOM      1  C2  UNL d   1      -4.414  -4.239  -4.637  0.00  0.00    -0.076 A 
ATOM      2  C3  UNL d   1      -3.115  -3.854  -4.260  0.00  0.00     0.004 A 
ATOM      3  C4  UNL d   1      -1.997  -4.535  -4.737  0.00  0.00    -0.003 A 
ATOM      4  C5  UNL d   1      -2.159  -5.613  -5.601  0.00  0.00     0.000 A 
ATOM      5  C6  UNL d   1      -3.439  -5.998  -6.000  0.00  0.00     0.000 A 
ATOM      6  C7  UNL d   1      -4.576  -5.312  -5.540  0.00  0.00    -0.073 A 
ATOM      7  C8  UNL d   1      -5.932  -5.774  -5.998  0.00  0.00     0.078 C 
ENDROOT
BRANCH   1   8
ATOM      8  C1  UNL d   1      -5.590  -3.480  -4.065  0.00  0.00     0.053 C 
ATOM      9  C   UNL d   1      -5.993  -2.295  -4.929  0.00  0.00     0.018 C 
ENDBRANCH   1   8
TORSDOF 1
ENDMDL
