MODEL 1
REMARK minimizedAffinity 1.2559073
REMARK minimizedRMSD -1
REMARK  1 active torsions:
REMARK  status: ('A' for Active; 'I' for Inactive)
REMARK    1  A    between atoms: N_2  and  C1_3 
ROOT
ATOM      1  C1  UNL d   1      -0.725  -5.908  -4.375  0.00  0.00     0.143 A 
ATOM      2  C2  UNL d   1       0.132  -5.903  -3.269  0.00  0.00    -0.057 A 
ATOM      3  C3  UNL d   1      -0.368  -5.962  -1.963  0.00  0.00     0.033 A 
ATOM      4  C4  UNL d   1      -1.740  -5.999  -1.738  0.00  0.00    -0.042 A 
ATOM      5  C5  UNL d   1      -2.611  -5.979  -2.821  0.00  0.00     0.033 A 
ATOM      6  C6  UNL d   1      -2.105  -5.926  -4.124  0.00  0.00    -0.057 A 
ENDROOT
BRANCH   1   7
ATOM      7  N   UNL d   1      -0.293  -5.751  -5.694  0.00  0.00    -0.732 N 
ATOM      8  C   UNL d   1       1.117  -5.635  -6.000  0.00  0.00     0.284 C 
ATOM      9  H3  UNL d   1      -0.813  -6.335  -6.345  0.00  0.00     0.395 HD
ENDBRANCH   1   7
TORSDOF 1
ENDMDL
