MODEL 1
REMARK minimizedAffinity 8.17127037
REMARK minimizedRMSD -1
REMARK  1 active torsions:
REMARK  status: ('A' for Active; 'I' for Inactive)
REMARK    1  A    between atoms: N_2  and  C1_3 
ROOT
ATOM      1  C1  UNL d   1       2.637   0.266  -0.523  0.00  0.00     0.143 A 
ATOM      2  C2  UNL d   1       1.443   0.977  -0.688  0.00  0.00    -0.057 A 
ATOM      3  C3  UNL d   1       0.316   0.694   0.094  0.00  0.00     0.033 A 
ATOM      4  C4  UNL d   1       0.354  -0.328   1.036  0.00  0.00    -0.042 A 
ATOM      5  C5  UNL d   1       1.522  -1.065   1.199  0.00  0.00     0.033 A 
ATOM      6  C6  UNL d   1       2.646  -0.773   0.420  0.00  0.00    -0.057 A 
ENDROOT
BRANCH   1   7
ATOM      7  N   UNL d   1       3.760   0.433  -1.337  0.00  0.00    -0.732 N 
ATOM      8  C   UNL d   1       4.055  -0.514  -2.390  0.00  0.00     0.284 C 
ATOM      9  H3  UNL d   1       3.909   1.405  -1.598  0.00  0.00     0.395 HD
ENDBRANCH   1   7
TORSDOF 1
ENDMDL
