MODEL 1
REMARK minimizedAffinity 1.03854704
REMARK minimizedRMSD -1
REMARK  1 active torsions:
REMARK  status: ('A' for Active; 'I' for Inactive)
REMARK    1  A    between atoms: N_2  and  C1_3 
ROOT
ATOM      1  C1  UNL d   1       1.425  -0.867   0.893  0.00  0.00     0.143 A 
ATOM      2  C2  UNL d   1       2.628  -0.513   0.272  0.00  0.00    -0.057 A 
ATOM      3  C3  UNL d   1       2.767   0.707  -0.400  0.00  0.00     0.033 A 
ATOM      4  C4  UNL d   1       1.693   1.585  -0.489  0.00  0.00    -0.042 A 
ATOM      5  C5  UNL d   1       0.480   1.244   0.100  0.00  0.00     0.033 A 
ATOM      6  C6  UNL d   1       0.349   0.027   0.776  0.00  0.00    -0.057 A 
ENDROOT
BRANCH   1   7
ATOM      7  N   UNL d   1       1.194  -2.107   1.492  0.00  0.00    -0.732 N 
ATOM      8  C   UNL d   1       0.400  -3.114   0.821  0.00  0.00     0.284 C 
ATOM      9  H3  UNL d   1       2.021  -2.473   1.959  0.00  0.00     0.395 HD
ENDBRANCH   1   7
TORSDOF 1
ENDMDL
