MODEL 1
REMARK minimizedAffinity 1.18144584
REMARK minimizedRMSD -1
REMARK  1 active torsions:
REMARK  status: ('A' for Active; 'I' for Inactive)
REMARK    1  A    between atoms: N_2  and  C1_3 
ROOT
ATOM      1  C1  UNL d   1      -1.809  -5.908  -3.694  0.00  0.00     0.143 A 
ATOM      2  C2  UNL d   1      -0.500  -5.973  -3.204  0.00  0.00    -0.057 A 
ATOM      3  C3  UNL d   1       0.599  -6.000  -4.071  0.00  0.00     0.033 A 
ATOM      4  C4  UNL d   1       0.407  -5.990  -5.448  0.00  0.00    -0.042 A 
ATOM      5  C5  UNL d   1      -0.886  -5.951  -5.958  0.00  0.00     0.033 A 
ATOM      6  C6  UNL d   1      -1.980  -5.918  -5.087  0.00  0.00    -0.057 A 
ENDROOT
BRANCH   1   7
ATOM      7  N   UNL d   1      -2.946  -5.979  -2.886  0.00  0.00    -0.732 N 
ATOM      8  C   UNL d   1      -2.829  -5.945  -1.444  0.00  0.00     0.284 C 
ATOM      9  H3  UNL d   1      -3.719  -5.428  -3.253  0.00  0.00     0.395 HD
ENDBRANCH   1   7
TORSDOF 1
ENDMDL
