MODEL 1
REMARK minimizedAffinity 1.0055896
REMARK minimizedRMSD -1
REMARK  1 active torsions:
REMARK  status: ('A' for Active; 'I' for Inactive)
REMARK    1  A    between atoms: N_2  and  C1_3 
ROOT
ATOM      1  C1  UNL d   1       0.059  -0.677   0.348  0.00  0.00     0.143 A 
ATOM      2  C2  UNL d   1       0.750   0.488  -0.002  0.00  0.00    -0.057 A 
ATOM      3  C3  UNL d   1       2.149   0.513  -0.058  0.00  0.00     0.033 A 
ATOM      4  C4  UNL d   1       2.884  -0.622   0.266  0.00  0.00    -0.042 A 
ATOM      5  C5  UNL d   1       2.219  -1.784   0.641  0.00  0.00     0.033 A 
ATOM      6  C6  UNL d   1       0.822  -1.805   0.688  0.00  0.00    -0.057 A 
ENDROOT
BRANCH   1   7
ATOM      7  N   UNL d   1      -1.327  -0.738   0.517  0.00  0.00    -0.732 N 
ATOM      8  C   UNL d   1      -2.039  -1.982   0.318  0.00  0.00     0.284 C 
ATOM      9  H3  UNL d   1      -1.644  -0.202   1.321  0.00  0.00     0.395 HD
ENDBRANCH   1   7
TORSDOF 1
ENDMDL
