MODEL 1
REMARK minimizedAffinity 0.225712433
REMARK minimizedRMSD -1
REMARK  1 active torsions:
REMARK  status: ('A' for Active; 'I' for Inactive)
REMARK    1  A    between atoms: N_2  and  C1_3 
ROOT
ATOM      1  C1  UNL d   1      -4.610  -5.986  -0.277  0.00  0.00     0.143 A 
ATOM      2  C2  UNL d   1      -5.627  -5.959  -1.237  0.00  0.00    -0.057 A 
ATOM      3  C3  UNL d   1      -5.335  -5.975  -2.606  0.00  0.00     0.033 A 
ATOM      4  C4  UNL d   1      -4.014  -5.991  -3.041  0.00  0.00    -0.042 A 
ATOM      5  C5  UNL d   1      -2.986  -5.994  -2.105  0.00  0.00     0.033 A 
ATOM      6  C6  UNL d   1      -3.284  -5.984  -0.739  0.00  0.00    -0.057 A 
ENDROOT
BRANCH   1   7
ATOM      7  N   UNL d   1      -4.834  -5.872   1.097  0.00  0.00    -0.732 N 
ATOM      8  C   UNL d   1      -4.501  -4.651   1.799  0.00  0.00     0.284 C 
ATOM      9  H3  UNL d   1      -5.717  -6.289   1.383  0.00  0.00     0.395 HD
ENDBRANCH   1   7
TORSDOF 1
ENDMDL
