MODEL 1
REMARK minimizedAffinity 3.81504178
REMARK minimizedRMSD -1
REMARK  1 active torsions:
REMARK  status: ('A' for Active; 'I' for Inactive)
REMARK    1  A    between atoms: N_2  and  C1_3 
ROOT
ATOM      1  C1  UNL d   1       2.347  -0.062  -0.342  0.00  0.00     0.143 A 
ATOM      2  C2  UNL d   1       0.960   0.096  -0.439  0.00  0.00    -0.057 A 
ATOM      3  C3  UNL d   1       0.084  -0.712   0.296  0.00  0.00     0.033 A 
ATOM      4  C4  UNL d   1       0.580  -1.714   1.123  0.00  0.00    -0.042 A 
ATOM      5  C5  UNL d   1       1.954  -1.906   1.216  0.00  0.00     0.033 A 
ATOM      6  C6  UNL d   1       2.824  -1.092   0.484  0.00  0.00    -0.057 A 
ENDROOT
BRANCH   1   7
ATOM      7  N   UNL d   1       3.266   0.643  -1.122  0.00  0.00    -0.732 N 
ATOM      8  C   UNL d   1       4.044  -0.033  -2.138  0.00  0.00     0.284 C 
ATOM      9  H3  UNL d   1       2.916   1.556  -1.405  0.00  0.00     0.395 HD
ENDBRANCH   1   7
TORSDOF 1
ENDMDL
