MODEL 1
REMARK minimizedAffinity 0.682698429
REMARK minimizedRMSD -1
REMARK  1 active torsions:
REMARK  status: ('A' for Active; 'I' for Inactive)
REMARK    1  A    between atoms: N_2  and  C1_3 
ROOT
ATOM      1  C1  UNL d   1       0.187  -6.000  -5.194  0.00  0.00     0.143 A 
ATOM      2  C2  UNL d   1       0.209  -5.984  -3.796  0.00  0.00    -0.057 A 
ATOM      3  C3  UNL d   1      -0.976  -5.995  -3.050  0.00  0.00     0.033 A 
ATOM      4  C4  UNL d   1      -2.209  -5.992  -3.693  0.00  0.00    -0.042 A 
ATOM      5  C5  UNL d   1      -2.256  -5.983  -5.083  0.00  0.00     0.033 A 
ATOM      6  C6  UNL d   1      -1.069  -5.979  -5.822  0.00  0.00    -0.057 A 
ENDROOT
BRANCH   1   7
ATOM      7  N   UNL d   1       1.328  -5.891  -5.992  0.00  0.00    -0.732 N 
ATOM      8  C   UNL d   1       2.113  -4.674  -5.994  0.00  0.00     0.284 C 
ATOM      9  H3  UNL d   1       1.884  -6.743  -5.995  0.00  0.00     0.395 HD
ENDBRANCH   1   7
TORSDOF 1
ENDMDL
