MODEL 1
REMARK minimizedAffinity -0.85912931
REMARK minimizedRMSD -1
REMARK  1 active torsions:
REMARK  status: ('A' for Active; 'I' for Inactive)
REMARK    1  A    between atoms: N_2  and  C1_3 
ROOT
ATOM      1  C1  UNL d   1       0.964  -0.588   0.725  0.00  0.00     0.143 A 
ATOM      2  C2  UNL d   1      -0.224  -1.289   0.494  0.00  0.00    -0.057 A 
ATOM      3  C3  UNL d   1      -0.328  -2.655   0.781  0.00  0.00     0.033 A 
ATOM      4  C4  UNL d   1       0.767  -3.353   1.279  0.00  0.00    -0.042 A 
ATOM      5  C5  UNL d   1       1.966  -2.682   1.492  0.00  0.00     0.033 A 
ATOM      6  C6  UNL d   1       2.062  -1.316   1.210  0.00  0.00    -0.057 A 
ENDROOT
BRANCH   1   7
ATOM      7  N   UNL d   1       1.161   0.749   0.368  0.00  0.00    -0.732 N 
ATOM      8  C   UNL d   1       2.213   1.118  -0.554  0.00  0.00     0.284 C 
ATOM      9  H3  UNL d   1       0.285   1.244   0.219  0.00  0.00     0.395 HD
ENDBRANCH   1   7
TORSDOF 1
ENDMDL
