MODEL 1
REMARK minimizedAffinity -3.01481962
REMARK minimizedRMSD -1
REMARK  1 active torsions:
REMARK  status: ('A' for Active; 'I' for Inactive)
REMARK    1  A    between atoms: N_2  and  C1_3 
ROOT
ATOM      1  C1  UNL d   1      -2.031  -5.833  -4.075  0.00  0.00     0.143 A 
ATOM      2  C2  UNL d   1      -1.910  -5.468  -5.420  0.00  0.00    -0.057 A 
ATOM      3  C3  UNL d   1      -0.658  -5.218  -5.995  0.00  0.00     0.033 A 
ATOM      4  C4  UNL d   1       0.497  -5.301  -5.224  0.00  0.00    -0.042 A 
ATOM      5  C5  UNL d   1       0.398  -5.638  -3.879  0.00  0.00     0.033 A 
ATOM      6  C6  UNL d   1      -0.854  -5.893  -3.313  0.00  0.00    -0.057 A 
ENDROOT
BRANCH   1   7
ATOM      7  N   UNL d   1      -3.255  -5.998  -3.421  0.00  0.00    -0.732 N 
ATOM      8  C   UNL d   1      -3.324  -5.993  -1.976  0.00  0.00     0.284 C 
ATOM      9  H3  UNL d   1      -4.010  -5.490  -3.875  0.00  0.00     0.395 HD
ENDBRANCH   1   7
TORSDOF 1
ENDMDL
