MODEL 1
REMARK minimizedAffinity 2.12804461
REMARK minimizedRMSD -1
REMARK  1 active torsions:
REMARK  status: ('A' for Active; 'I' for Inactive)
REMARK    1  A    between atoms: N_2  and  C1_3 
ROOT
ATOM      1  C1  UNL d   1       1.139  -5.644  -3.347  0.00  0.00     0.143 A 
ATOM      2  C2  UNL d   1       2.029  -5.649  -4.426  0.00  0.00    -0.057 A 
ATOM      3  C3  UNL d   1       1.574  -5.799  -5.742  0.00  0.00     0.033 A 
ATOM      4  C4  UNL d   1       0.219  -5.977  -6.000  0.00  0.00    -0.042 A 
ATOM      5  C5  UNL d   1      -0.682  -6.000  -4.941  0.00  0.00     0.033 A 
ATOM      6  C6  UNL d   1      -0.222  -5.842  -3.630  0.00  0.00    -0.057 A 
ENDROOT
BRANCH   1   7
ATOM      7  N   UNL d   1       1.538  -5.597  -2.009  0.00  0.00    -0.732 N 
ATOM      8  C   UNL d   1       0.820  -4.782  -1.053  0.00  0.00     0.284 C 
ATOM      9  H3  UNL d   1       1.813  -6.510  -1.654  0.00  0.00     0.395 HD
ENDBRANCH   1   7
TORSDOF 1
ENDMDL
