MODEL 1
REMARK minimizedAffinity -2.58602571
REMARK minimizedRMSD -1
REMARK  0 active torsions:
REMARK  status: ('A' for Active; 'I' for Inactive)
ROOT
ATOM      1  C4' PXY d   1       3.406   4.563   2.464  0.00  0.00     0.077 C 
ATOM      2  C1' PXY d   1      -0.296   0.729   0.225  0.00  0.00     0.077 C 
ATOM      3  C1  PXY d   1       0.681   1.725   0.819  0.00  0.00    -0.082 A 
ATOM      4  C2  PXY d   1       0.334   2.997   0.925  0.00  0.00     0.003 A 
ATOM      5  C3  PXY d   1       1.217   3.917   1.430  0.00  0.00     0.003 A 
ATOM      6  C4  PXY d   1       2.448   3.521   1.880  0.00  0.00    -0.082 A 
ATOM      7  C5  PXY d   1       2.806   2.223   1.785  0.00  0.00     0.003 A 
ATOM      8  C6  PXY d   1       1.910   1.312   1.231  0.00  0.00     0.003 A 
ENDROOT
TORSDOF 0
ENDMDL
