MODEL 1
REMARK minimizedAffinity 0.645830095
REMARK minimizedRMSD -1
REMARK  0 active torsions:
REMARK  status: ('A' for Active; 'I' for Inactive)
ROOT
ATOM      1  C4' PXY d   1       0.453   1.834   2.723  0.00  0.00     0.077 C 
ATOM      2  C1' PXY d   1      -1.457   3.322  -2.526  0.00  0.00     0.077 C 
ATOM      3  C1  PXY d   1      -0.968   2.929  -1.146  0.00  0.00    -0.082 A 
ATOM      4  C2  PXY d   1       0.139   3.470  -0.665  0.00  0.00     0.003 A 
ATOM      5  C3  PXY d   1       0.613   3.101   0.568  0.00  0.00     0.003 A 
ATOM      6  C4  PXY d   1      -0.083   2.209   1.339  0.00  0.00    -0.082 A 
ATOM      7  C5  PXY d   1      -1.219   1.660   0.859  0.00  0.00     0.003 A 
ATOM      8  C6  PXY d   1      -1.661   2.017  -0.412  0.00  0.00     0.003 A 
ENDROOT
TORSDOF 0
ENDMDL
