MODEL 1
REMARK minimizedAffinity 3.00703835
REMARK minimizedRMSD -1
REMARK  0 active torsions:
REMARK  status: ('A' for Active; 'I' for Inactive)
ROOT
ATOM      1  C4' PXY d   1      -4.194  -0.353   1.341  0.00  0.00     0.077 C 
ATOM      2  C1' PXY d   1       0.990   1.843   0.029  0.00  0.00     0.077 C 
ATOM      3  C1  PXY d   1      -0.375   1.278   0.370  0.00  0.00    -0.082 A 
ATOM      4  C2  PXY d   1      -0.472   0.269   1.220  0.00  0.00     0.003 A 
ATOM      5  C3  PXY d   1      -1.696  -0.275   1.515  0.00  0.00     0.003 A 
ATOM      6  C4  PXY d   1      -2.837   0.255   0.975  0.00  0.00    -0.082 A 
ATOM      7  C5  PXY d   1      -2.747   1.292   0.115  0.00  0.00     0.003 A 
ATOM      8  C6  PXY d   1      -1.492   1.803  -0.203  0.00  0.00     0.003 A 
ENDROOT
TORSDOF 0
ENDMDL
