MODEL 1
REMARK minimizedAffinity 9.27991104
REMARK minimizedRMSD -1
REMARK  0 active torsions:
REMARK  status: ('A' for Active; 'I' for Inactive)
ROOT
ATOM      1  C4' PXY d   1      -0.092   1.508   2.351  0.00  0.00     0.077 C 
ATOM      2  C1' PXY d   1       5.309   2.698   0.670  0.00  0.00     0.077 C 
ATOM      3  C1  PXY d   1       3.891   2.380   1.099  0.00  0.00    -0.082 A 
ATOM      4  C2  PXY d   1       3.308   3.119   2.029  0.00  0.00     0.003 A 
ATOM      5  C3  PXY d   1       2.037   2.826   2.452  0.00  0.00     0.003 A 
ATOM      6  C4  PXY d   1       1.336   1.798   1.880  0.00  0.00    -0.082 A 
ATOM      7  C5  PXY d   1       1.920   1.046   0.923  0.00  0.00     0.003 A 
ATOM      8  C6  PXY d   1       3.226   1.334   0.537  0.00  0.00     0.003 A 
ENDROOT
TORSDOF 0
ENDMDL
