MODEL 1
REMARK minimizedAffinity 6.44163847
REMARK minimizedRMSD -1
REMARK  0 active torsions:
REMARK  status: ('A' for Active; 'I' for Inactive)
ROOT
ATOM      1  C4' PXY d   1       2.712   3.367   2.632  0.00  0.00     0.077 C 
ATOM      2  C1' PXY d   1      -2.825   2.137   1.514  0.00  0.00     0.077 C 
ATOM      3  C1  PXY d   1      -1.376   2.462   1.820  0.00  0.00    -0.082 A 
ATOM      4  C2  PXY d   1      -0.583   2.891   0.851  0.00  0.00     0.003 A 
ATOM      5  C3  PXY d   1       0.738   3.158   1.103  0.00  0.00     0.003 A 
ATOM      6  C4  PXY d   1       1.239   3.036   2.371  0.00  0.00    -0.082 A 
ATOM      7  C5  PXY d   1       0.434   2.610   3.367  0.00  0.00     0.003 A 
ATOM      8  C6  PXY d   1      -0.893   2.304   3.082  0.00  0.00     0.003 A 
ENDROOT
TORSDOF 0
ENDMDL
