MODEL 1
REMARK minimizedAffinity 1.49972963
REMARK minimizedRMSD -1
REMARK  0 active torsions:
REMARK  status: ('A' for Active; 'I' for Inactive)
ROOT
ATOM      1  C4' PXY d   1       3.682   2.359   1.730  0.00  0.00     0.077 C 
ATOM      2  C1' PXY d   1      -1.570   0.951  -0.232  0.00  0.00     0.077 C 
ATOM      3  C1  PXY d   1      -0.191   1.308   0.286  0.00  0.00    -0.082 A 
ATOM      4  C2  PXY d   1       0.076   2.557   0.631  0.00  0.00     0.003 A 
ATOM      5  C3  PXY d   1       1.327   2.903   1.071  0.00  0.00     0.003 A 
ATOM      6  C4  PXY d   1       2.301   1.951   1.210  0.00  0.00    -0.082 A 
ATOM      7  C5  PXY d   1       2.033   0.672   0.871  0.00  0.00     0.003 A 
ATOM      8  C6  PXY d   1       0.769   0.349   0.388  0.00  0.00     0.003 A 
ENDROOT
TORSDOF 0
ENDMDL
