MODEL 1
REMARK minimizedAffinity 4.00980663
REMARK minimizedRMSD -1
REMARK  0 active torsions:
REMARK  status: ('A' for Active; 'I' for Inactive)
ROOT
ATOM      1  C4' PXY d   1       1.834   1.710   1.762  0.00  0.00     0.077 C 
ATOM      2  C1' PXY d   1      -3.401   1.724  -0.690  0.00  0.00     0.077 C 
ATOM      3  C1  PXY d   1      -2.024   1.729  -0.056  0.00  0.00    -0.082 A 
ATOM      4  C2  PXY d   1      -1.649   0.710   0.701  0.00  0.00     0.003 A 
ATOM      5  C3  PXY d   1      -0.419   0.713   1.307  0.00  0.00     0.003 A 
ATOM      6  C4  PXY d   1       0.456   1.744   1.095  0.00  0.00    -0.082 A 
ATOM      7  C5  PXY d   1       0.085   2.782   0.315  0.00  0.00     0.003 A 
ATOM      8  C6  PXY d   1      -1.183   2.779  -0.258  0.00  0.00     0.003 A 
ENDROOT
TORSDOF 0
ENDMDL
