MODEL 1
REMARK minimizedAffinity -1.37879193
REMARK minimizedRMSD -1
REMARK  0 active torsions:
REMARK  status: ('A' for Active; 'I' for Inactive)
ROOT
ATOM      1  C4' PXY d   1      -0.995   0.262   0.413  0.00  0.00     0.077 C 
ATOM      2  C1' PXY d   1       2.728   3.917   2.902  0.00  0.00     0.077 C 
ATOM      3  C1  PXY d   1       1.761   2.955   2.241  0.00  0.00    -0.082 A 
ATOM      4  C2  PXY d   1       0.459   3.172   2.330  0.00  0.00     0.003 A 
ATOM      5  C3  PXY d   1      -0.431   2.295   1.765  0.00  0.00     0.003 A 
ATOM      6  C4  PXY d   1       0.018   1.212   1.057  0.00  0.00    -0.082 A 
ATOM      7  C5  PXY d   1       1.346   0.990   0.952  0.00  0.00     0.003 A 
ATOM      8  C6  PXY d   1       2.231   1.870   1.568  0.00  0.00     0.003 A 
ENDROOT
TORSDOF 0
ENDMDL
