MODEL 1
REMARK minimizedAffinity 2.66799521
REMARK minimizedRMSD -1
REMARK  0 active torsions:
REMARK  status: ('A' for Active; 'I' for Inactive)
ROOT
ATOM      1  C4' PXY d   1       4.834   5.979  -0.498  0.00  0.00     0.077 C 
ATOM      2  C1' PXY d   1       4.270   6.000   5.255  0.00  0.00     0.077 C 
ATOM      3  C1  PXY d   1       4.430   5.999   3.747  0.00  0.00    -0.082 A 
ATOM      4  C2  PXY d   1       3.355   5.999   2.976  0.00  0.00     0.003 A 
ATOM      5  C3  PXY d   1       3.481   5.967   1.611  0.00  0.00     0.003 A 
ATOM      6  C4  PXY d   1       4.720   5.988   1.029  0.00  0.00    -0.082 A 
ATOM      7  C5  PXY d   1       5.822   5.999   1.809  0.00  0.00     0.003 A 
ATOM      8  C6  PXY d   1       5.672   5.990   3.193  0.00  0.00     0.003 A 
ENDROOT
TORSDOF 0
ENDMDL
