MODEL 1
REMARK minimizedAffinity 4.56859159
REMARK minimizedRMSD -1
REMARK  0 active torsions:
REMARK  status: ('A' for Active; 'I' for Inactive)
ROOT
ATOM      1  C4' PXY d   1       5.998   3.306  -1.322  0.00  0.00     0.077 C 
ATOM      2  C1' PXY d   1       4.061   6.000   3.412  0.00  0.00     0.077 C 
ATOM      3  C1  PXY d   1       4.561   5.300   2.163  0.00  0.00    -0.082 A 
ATOM      4  C2  PXY d   1       5.135   4.113   2.264  0.00  0.00     0.003 A 
ATOM      5  C3  PXY d   1       5.621   3.480   1.149  0.00  0.00     0.003 A 
ATOM      6  C4  PXY d   1       5.470   4.045  -0.089  0.00  0.00    -0.082 A 
ATOM      7  C5  PXY d   1       4.876   5.252  -0.201  0.00  0.00     0.003 A 
ATOM      8  C6  PXY d   1       4.426   5.896   0.948  0.00  0.00     0.003 A 
ENDROOT
TORSDOF 0
ENDMDL
