MODEL 1
REMARK minimizedAffinity 5.69727135
REMARK minimizedRMSD -1
REMARK  0 active torsions:
REMARK  status: ('A' for Active; 'I' for Inactive)
ROOT
ATOM      1  C4' PXY d   1      -1.589   2.960   3.428  0.00  0.00     0.077 C 
ATOM      2  C1' PXY d   1       2.090   0.483  -0.280  0.00  0.00     0.077 C 
ATOM      3  C1  PXY d   1       1.135   1.134   0.701  0.00  0.00    -0.082 A 
ATOM      4  C2  PXY d   1      -0.166   0.924   0.584  0.00  0.00     0.003 A 
ATOM      5  C3  PXY d   1      -1.046   1.530   1.443  0.00  0.00     0.003 A 
ATOM      6  C4  PXY d   1      -0.587   2.316   2.465  0.00  0.00    -0.082 A 
ATOM      7  C5  PXY d   1       0.740   2.527   2.598  0.00  0.00     0.003 A 
ATOM      8  C6  PXY d   1       1.614   1.936   1.691  0.00  0.00     0.003 A 
ENDROOT
TORSDOF 0
ENDMDL
