MODEL 1
REMARK minimizedAffinity 7.82833862
REMARK minimizedRMSD -1
REMARK  0 active torsions:
REMARK  status: ('A' for Active; 'I' for Inactive)
ROOT
ATOM      1  C4' PXY d   1      -1.255   3.341   3.116  0.00  0.00     0.077 C 
ATOM      2  C1' PXY d   1       2.257   0.573  -0.547  0.00  0.00     0.077 C 
ATOM      3  C1  PXY d   1       1.346   1.301   0.422  0.00  0.00    -0.082 A 
ATOM      4  C2  PXY d   1       0.044   1.064   0.400  0.00  0.00     0.003 A 
ATOM      5  C3  PXY d   1      -0.798   1.737   1.247  0.00  0.00     0.003 A 
ATOM      6  C4  PXY d   1      -0.297   2.622   2.163  0.00  0.00    -0.082 A 
ATOM      7  C5  PXY d   1       1.032   2.862   2.200  0.00  0.00     0.003 A 
ATOM      8  C6  PXY d   1       1.865   2.199   1.303  0.00  0.00     0.003 A 
ENDROOT
TORSDOF 0
ENDMDL
