MODEL 1
REMARK minimizedAffinity 3.8059442
REMARK minimizedRMSD -1
REMARK  0 active torsions:
REMARK  status: ('A' for Active; 'I' for Inactive)
ROOT
ATOM      1  C4' PXY d   1      -0.841   2.900   3.306  0.00  0.00     0.077 C 
ATOM      2  C1' PXY d   1       2.388   0.403  -0.788  0.00  0.00     0.077 C 
ATOM      3  C1  PXY d   1       1.551   1.058   0.294  0.00  0.00    -0.082 A 
ATOM      4  C2  PXY d   1       0.236   0.914   0.281  0.00  0.00     0.003 A 
ATOM      5  C3  PXY d   1      -0.538   1.526   1.233  0.00  0.00     0.003 A 
ATOM      6  C4  PXY d   1       0.044   2.249   2.240  0.00  0.00    -0.082 A 
ATOM      7  C5  PXY d   1       1.386   2.391   2.266  0.00  0.00     0.003 A 
ATOM      8  C6  PXY d   1       2.151   1.797   1.267  0.00  0.00     0.003 A 
ENDROOT
TORSDOF 0
ENDMDL
