MODEL 1
REMARK minimizedAffinity 2.00824261
REMARK minimizedRMSD -1
REMARK  0 active torsions:
REMARK  status: ('A' for Active; 'I' for Inactive)
ROOT
ATOM      1  C4' PXY d   1      -3.331   3.298  -5.897  0.00  0.00     0.077 C 
ATOM      2  C1' PXY d   1      -5.304   1.336  -0.831  0.00  0.00     0.077 C 
ATOM      3  C1  PXY d   1      -4.777   1.842  -2.159  0.00  0.00    -0.082 A 
ATOM      4  C2  PXY d   1      -5.053   3.077  -2.545  0.00  0.00     0.003 A 
ATOM      5  C3  PXY d   1      -4.612   3.540  -3.758  0.00  0.00     0.003 A 
ATOM      6  C4  PXY d   1      -3.834   2.748  -4.560  0.00  0.00    -0.082 A 
ATOM      7  C5  PXY d   1      -3.538   1.491  -4.168  0.00  0.00     0.003 A 
ATOM      8  C6  PXY d   1      -4.031   1.026  -2.952  0.00  0.00     0.003 A 
ENDROOT
TORSDOF 0
ENDMDL
