MODEL 1
REMARK minimizedAffinity -1.00882018
REMARK minimizedRMSD -1
REMARK  0 active torsions:
REMARK  status: ('A' for Active; 'I' for Inactive)
ROOT
ATOM      1  C4' PXY d   1       3.532   2.517   1.955  0.00  0.00     0.077 C 
ATOM      2  C1' PXY d   1      -1.869   0.955   0.613  0.00  0.00     0.077 C 
ATOM      3  C1  PXY d   1      -0.457   1.376   0.969  0.00  0.00    -0.082 A 
ATOM      4  C2  PXY d   1       0.569   0.806   0.359  0.00  0.00     0.003 A 
ATOM      5  C3  PXY d   1       1.853   1.152   0.692  0.00  0.00     0.003 A 
ATOM      6  C4  PXY d   1       2.089   2.130   1.621  0.00  0.00    -0.082 A 
ATOM      7  C5  PXY d   1       1.047   2.724   2.240  0.00  0.00     0.003 A 
ATOM      8  C6  PXY d   1      -0.249   2.329   1.918  0.00  0.00     0.003 A 
ENDROOT
TORSDOF 0
ENDMDL
