MODEL 1
REMARK minimizedAffinity 4.57095623
REMARK minimizedRMSD -1
REMARK  0 active torsions:
REMARK  status: ('A' for Active; 'I' for Inactive)
ROOT
ATOM      1  C4' PXY d   1      -1.447   3.406   3.004  0.00  0.00     0.077 C 
ATOM      2  C1' PXY d   1       2.650   0.437   0.207  0.00  0.00     0.077 C 
ATOM      3  C1  PXY d   1       1.584   1.218   0.950  0.00  0.00    -0.082 A 
ATOM      4  C2  PXY d   1       0.306   0.987   0.695  0.00  0.00     0.003 A 
ATOM      5  C3  PXY d   1      -0.670   1.706   1.335  0.00  0.00     0.003 A 
ATOM      6  C4  PXY d   1      -0.337   2.635   2.284  0.00  0.00    -0.082 A 
ATOM      7  C5  PXY d   1       0.964   2.869   2.558  0.00  0.00     0.003 A 
ATOM      8  C6  PXY d   1       1.941   2.157   1.868  0.00  0.00     0.003 A 
ENDROOT
TORSDOF 0
ENDMDL
