MODEL 1
REMARK minimizedAffinity 2.91736746
REMARK minimizedRMSD -1
REMARK  0 active torsions:
REMARK  status: ('A' for Active; 'I' for Inactive)
ROOT
ATOM      1  C4' PXY d   1       1.355   4.197   4.465  0.00  0.00     0.077 C 
ATOM      2  C1' PXY d   1       0.486   0.791  -0.124  0.00  0.00     0.077 C 
ATOM      3  C1  PXY d   1       0.702   1.689   1.079  0.00  0.00    -0.082 A 
ATOM      4  C2  PXY d   1       1.929   2.056   1.409  0.00  0.00     0.003 A 
ATOM      5  C3  PXY d   1       2.145   2.841   2.512  0.00  0.00     0.003 A 
ATOM      6  C4  PXY d   1       1.089   3.299   3.254  0.00  0.00    -0.082 A 
ATOM      7  C5  PXY d   1      -0.167   2.938   2.917  0.00  0.00     0.003 A 
ATOM      8  C6  PXY d   1      -0.362   2.106   1.818  0.00  0.00     0.003 A 
ENDROOT
TORSDOF 0
ENDMDL
