MODEL 1
REMARK minimizedAffinity 5.20088625
REMARK minimizedRMSD -1
REMARK  0 active torsions:
REMARK  status: ('A' for Active; 'I' for Inactive)
ROOT
ATOM      1  C4' PXY d   1      -1.225   3.135   3.511  0.00  0.00     0.077 C 
ATOM      2  C1' PXY d   1       2.635   0.731  -0.058  0.00  0.00     0.077 C 
ATOM      3  C1  PXY d   1       1.632   1.364   0.887  0.00  0.00    -0.082 A 
ATOM      4  C2  PXY d   1       0.357   1.018   0.815  0.00  0.00     0.003 A 
ATOM      5  C3  PXY d   1      -0.568   1.604   1.640  0.00  0.00     0.003 A 
ATOM      6  C4  PXY d   1      -0.176   2.515   2.584  0.00  0.00    -0.082 A 
ATOM      7  C5  PXY d   1       1.124   2.866   2.670  0.00  0.00     0.003 A 
ATOM      8  C6  PXY d   1       2.042   2.290   1.796  0.00  0.00     0.003 A 
ENDROOT
TORSDOF 0
ENDMDL
