MODEL 1
REMARK minimizedAffinity 7.27873325
REMARK minimizedRMSD -1
REMARK  0 active torsions:
REMARK  status: ('A' for Active; 'I' for Inactive)
ROOT
ATOM      1  C4' PXY d   1      -1.985   0.675   0.277  0.00  0.00     0.077 C 
ATOM      2  C1' PXY d   1       2.363   3.117   3.200  0.00  0.00     0.077 C 
ATOM      3  C1  PXY d   1       1.231   2.474   2.423  0.00  0.00    -0.082 A 
ATOM      4  C2  PXY d   1      -0.018   2.840   2.664  0.00  0.00     0.003 A 
ATOM      5  C3  PXY d   1      -1.056   2.245   1.994  0.00  0.00     0.003 A 
ATOM      6  C4  PXY d   1      -0.810   1.305   1.030  0.00  0.00    -0.082 A 
ATOM      7  C5  PXY d   1       0.462   0.934   0.771  0.00  0.00     0.003 A 
ATOM      8  C6  PXY d   1       1.499   1.520   1.491  0.00  0.00     0.003 A 
ENDROOT
TORSDOF 0
ENDMDL
