MODEL 1
REMARK minimizedAffinity 9.85263634
REMARK minimizedRMSD -1
REMARK  0 active torsions:
REMARK  status: ('A' for Active; 'I' for Inactive)
ROOT
ATOM      1  C2' OXE d   1      -1.818   2.078   1.087  0.00  0.00     0.078 C 
ATOM      2  C1' OXE d   1      -2.702   3.436  -1.206  0.00  0.00     0.078 C 
ATOM      3  C1  OXE d   1      -3.635   3.372  -0.023  0.00  0.00    -0.078 A 
ATOM      4  C2  OXE d   1      -3.213   2.665   1.078  0.00  0.00    -0.078 A 
ATOM      5  C3  OXE d   1      -4.012   2.621   2.217  0.00  0.00     0.003 A 
ATOM      6  C4  OXE d   1      -5.305   3.158   2.197  0.00  0.00    -0.002 A 
ATOM      7  C5  OXE d   1      -5.770   3.847   1.072  0.00  0.00    -0.002 A 
ATOM      8  C6  OXE d   1      -4.933   3.999  -0.028  0.00  0.00     0.003 A 
ENDROOT
TORSDOF 0
ENDMDL
