MODEL 1
REMARK minimizedAffinity 6.14260769
REMARK minimizedRMSD -1
REMARK  0 active torsions:
REMARK  status: ('A' for Active; 'I' for Inactive)
ROOT
ATOM      1  C2' OXE d   1       1.550  -0.042  -0.826  0.00  0.00     0.078 C 
ATOM      2  C1' OXE d   1      -0.945  -1.052  -0.028  0.00  0.00     0.078 C 
ATOM      3  C1  OXE d   1      -0.679   0.417   0.187  0.00  0.00    -0.078 A 
ATOM      4  C2  OXE d   1       0.561   0.893  -0.164  0.00  0.00    -0.078 A 
ATOM      5  C3  OXE d   1       0.840   2.251  -0.037  0.00  0.00     0.003 A 
ATOM      6  C4  OXE d   1      -0.076   3.107   0.586  0.00  0.00    -0.002 A 
ATOM      7  C5  OXE d   1      -1.331   2.634   0.987  0.00  0.00    -0.002 A 
ATOM      8  C6  OXE d   1      -1.663   1.304   0.756  0.00  0.00     0.003 A 
ENDROOT
TORSDOF 0
ENDMDL
