MODEL 1
REMARK minimizedAffinity 11.0784636
REMARK minimizedRMSD -1
REMARK  0 active torsions:
REMARK  status: ('A' for Active; 'I' for Inactive)
ROOT
ATOM      1  C2' OXE d   1       3.365   0.193  -3.022  0.00  0.00     0.078 C 
ATOM      2  C1' OXE d   1       4.684   1.872  -4.845  0.00  0.00     0.078 C 
ATOM      3  C1  OXE d   1       4.916   0.387  -4.962  0.00  0.00    -0.078 A 
ATOM      4  C2  OXE d   1       4.303  -0.424  -4.037  0.00  0.00    -0.078 A 
ATOM      5  C3  OXE d   1       4.440  -1.806  -4.133  0.00  0.00     0.003 A 
ATOM      6  C4  OXE d   1       5.317  -2.368  -5.068  0.00  0.00    -0.002 A 
ATOM      7  C5  OXE d   1       5.982  -1.558  -5.994  0.00  0.00    -0.002 A 
ATOM      8  C6  OXE d   1       5.760  -0.185  -5.982  0.00  0.00     0.003 A 
ENDROOT
TORSDOF 0
ENDMDL
