MODEL 1
REMARK minimizedAffinity 9.24504185
REMARK minimizedRMSD -1
REMARK  0 active torsions:
REMARK  status: ('A' for Active; 'I' for Inactive)
ROOT
ATOM      1  C2' OXE d   1       1.375  -3.064   5.419  0.00  0.00     0.078 C 
ATOM      2  C1' OXE d   1       2.831  -4.210   3.310  0.00  0.00     0.078 C 
ATOM      3  C1  OXE d   1       2.314  -2.805   3.126  0.00  0.00    -0.078 A 
ATOM      4  C2  OXE d   1       1.563  -2.270   4.144  0.00  0.00    -0.078 A 
ATOM      5  C3  OXE d   1       1.108  -0.958   4.049  0.00  0.00     0.003 A 
ATOM      6  C4  OXE d   1       1.277  -0.233   2.862  0.00  0.00    -0.002 A 
ATOM      7  C5  OXE d   1       2.004  -0.775   1.797  0.00  0.00    -0.002 A 
ATOM      8  C6  OXE d   1       2.565  -2.041   1.929  0.00  0.00     0.003 A 
ENDROOT
TORSDOF 0
ENDMDL
