MODEL 1
REMARK minimizedAffinity 12.8045301
REMARK minimizedRMSD -1
REMARK  0 active torsions:
REMARK  status: ('A' for Active; 'I' for Inactive)
ROOT
ATOM      1  C2' OXE d   1      -1.798   2.073   0.778  0.00  0.00     0.078 C 
ATOM      2  C1' OXE d   1      -1.871   4.203  -1.048  0.00  0.00     0.078 C 
ATOM      3  C1  OXE d   1      -3.054   4.022  -0.131  0.00  0.00    -0.078 A 
ATOM      4  C2  OXE d   1      -3.031   2.949   0.727  0.00  0.00    -0.078 A 
ATOM      5  C3  OXE d   1      -4.072   2.767   1.633  0.00  0.00     0.003 A 
ATOM      6  C4  OXE d   1      -5.214   3.576   1.572  0.00  0.00    -0.002 A 
ATOM      7  C5  OXE d   1      -5.275   4.651   0.678  0.00  0.00    -0.002 A 
ATOM      8  C6  OXE d   1      -4.189   4.912  -0.149  0.00  0.00     0.003 A 
ENDROOT
TORSDOF 0
ENDMDL
