MODEL 1
REMARK minimizedAffinity 5.15952349
REMARK minimizedRMSD -1
REMARK  0 active torsions:
REMARK  status: ('A' for Active; 'I' for Inactive)
ROOT
ATOM      1  C2' OXE d   1       1.675  -2.166   4.879  0.00  0.00     0.078 C 
ATOM      2  C1' OXE d   1       3.016  -0.985   2.714  0.00  0.00     0.078 C 
ATOM      3  C1  OXE d   1       3.851  -1.534   3.843  0.00  0.00    -0.078 A 
ATOM      4  C2  OXE d   1       3.185  -2.068   4.920  0.00  0.00    -0.078 A 
ATOM      5  C3  OXE d   1       3.908  -2.638   5.965  0.00  0.00     0.003 A 
ATOM      6  C4  OXE d   1       5.303  -2.534   6.000  0.00  0.00    -0.002 A 
ATOM      7  C5  OXE d   1       6.000  -1.959   4.932  0.00  0.00    -0.002 A 
ATOM      8  C6  OXE d   1       5.293  -1.494   3.829  0.00  0.00     0.003 A 
ENDROOT
TORSDOF 0
ENDMDL
