MODEL 1
REMARK minimizedAffinity 1.36152494
REMARK minimizedRMSD -1
REMARK  0 active torsions:
REMARK  status: ('A' for Active; 'I' for Inactive)
ROOT
ATOM      1  C2' OXE d   1       2.692  -0.735   3.345  0.00  0.00     0.078 C 
ATOM      2  C1' OXE d   1       1.847  -2.938   4.866  0.00  0.00     0.078 C 
ATOM      3  C1  OXE d   1       3.309  -2.569   4.915  0.00  0.00    -0.078 A 
ATOM      4  C2  OXE d   1       3.722  -1.519   4.131  0.00  0.00    -0.078 A 
ATOM      5  C3  OXE d   1       5.049  -1.102   4.180  0.00  0.00     0.003 A 
ATOM      6  C4  OXE d   1       5.997  -1.838   4.901  0.00  0.00    -0.002 A 
ATOM      7  C5  OXE d   1       5.604  -2.935   5.675  0.00  0.00    -0.002 A 
ATOM      8  C6  OXE d   1       4.260  -3.287   5.726  0.00  0.00     0.003 A 
ENDROOT
TORSDOF 0
ENDMDL
