MODEL 1
REMARK minimizedAffinity -1.84041321
REMARK minimizedRMSD -1
REMARK  1 active torsions:
REMARK  status: ('A' for Active; 'I' for Inactive)
REMARK    1  A    between atoms: C1_2  and  C2_3 
ROOT
ATOM      1  C2  UNL d   1      -3.850  -4.973  -5.065  0.00  0.00    -0.076 A 
ATOM      2  C3  UNL d   1      -4.893  -5.090  -5.999  0.00  0.00     0.004 A 
ATOM      3  C4  UNL d   1      -5.960  -4.193  -6.000  0.00  0.00    -0.003 A 
ATOM      4  C5  UNL d   1      -6.000  -3.163  -5.066  0.00  0.00     0.000 A 
ATOM      5  C6  UNL d   1      -4.964  -3.021  -4.143  0.00  0.00     0.000 A 
ATOM      6  C7  UNL d   1      -3.874  -3.907  -4.139  0.00  0.00    -0.073 A 
ATOM      7  C8  UNL d   1      -2.787  -3.711  -3.117  0.00  0.00     0.078 C 
ENDROOT
BRANCH   1   8
ATOM      8  C1  UNL d   1      -2.733  -5.991  -5.095  0.00  0.00     0.053 C 
ATOM      9  C   UNL d   1      -1.523  -5.507  -5.879  0.00  0.00     0.018 C 
ENDBRANCH   1   8
TORSDOF 1
ENDMDL
