MODEL 1
REMARK minimizedAffinity -2.02044535
REMARK minimizedRMSD -1
REMARK  1 active torsions:
REMARK  status: ('A' for Active; 'I' for Inactive)
REMARK    1  A    between atoms: C1_2  and  C2_3 
ROOT
ATOM      1  C2  UNL d   1      -3.939  -4.109  -5.255  0.00  0.00    -0.076 A 
ATOM      2  C3  UNL d   1      -4.921  -3.431  -5.998  0.00  0.00     0.004 A 
ATOM      3  C4  UNL d   1      -5.943  -2.728  -5.363  0.00  0.00    -0.003 A 
ATOM      4  C5  UNL d   1      -5.999  -2.689  -3.974  0.00  0.00     0.000 A 
ATOM      5  C6  UNL d   1      -5.023  -3.341  -3.221  0.00  0.00     0.000 A 
ATOM      6  C7  UNL d   1      -3.977  -4.042  -3.846  0.00  0.00    -0.073 A 
ATOM      7  C8  UNL d   1      -2.954  -4.732  -2.985  0.00  0.00     0.078 C 
ENDROOT
BRANCH   1   8
ATOM      8  C1  UNL d   1      -2.871  -4.878  -5.999  0.00  0.00     0.053 C 
ATOM      9  C   UNL d   1      -2.200  -5.932  -5.130  0.00  0.00     0.018 C 
ENDBRANCH   1   8
TORSDOF 1
ENDMDL
