MODEL 1
REMARK minimizedAffinity -1.79759741
REMARK minimizedRMSD -1
REMARK  1 active torsions:
REMARK  status: ('A' for Active; 'I' for Inactive)
REMARK    1  A    between atoms: C1_2  and  C2_3 
ROOT
ATOM      1  C2  UNL d   1      -3.813  -3.710  -5.055  0.00  0.00    -0.076 A 
ATOM      2  C3  UNL d   1      -3.791  -4.932  -4.361  0.00  0.00     0.004 A 
ATOM      3  C4  UNL d   1      -4.852  -5.310  -3.540  0.00  0.00    -0.003 A 
ATOM      4  C5  UNL d   1      -5.953  -4.472  -3.400  0.00  0.00     0.000 A 
ATOM      5  C6  UNL d   1      -5.999  -3.264  -4.095  0.00  0.00     0.000 A 
ATOM      6  C7  UNL d   1      -4.945  -2.875  -4.939  0.00  0.00    -0.073 A 
ATOM      7  C8  UNL d   1      -5.045  -1.558  -5.659  0.00  0.00     0.078 C 
ENDROOT
BRANCH   1   8
ATOM      8  C1  UNL d   1      -2.621  -3.340  -5.909  0.00  0.00     0.053 C 
ATOM      9  C   UNL d   1      -1.599  -4.463  -6.000  0.00  0.00     0.018 C 
ENDBRANCH   1   8
TORSDOF 1
ENDMDL
