MODEL 1
REMARK minimizedAffinity -3.66163135
REMARK minimizedRMSD -1
REMARK  1 active torsions:
REMARK  status: ('A' for Active; 'I' for Inactive)
REMARK    1  A    between atoms: C1_2  and  C2_3 
ROOT
ATOM      1  C2  UNL d   1      -4.265  -3.951  -5.509  0.00  0.00    -0.076 A 
ATOM      2  C3  UNL d   1      -3.077  -3.363  -5.978  0.00  0.00     0.004 A 
ATOM      3  C4  UNL d   1      -1.881  -4.078  -5.998  0.00  0.00    -0.003 A 
ATOM      4  C5  UNL d   1      -1.853  -5.394  -5.551  0.00  0.00     0.000 A 
ATOM      5  C6  UNL d   1      -3.025  -6.000  -5.099  0.00  0.00     0.000 A 
ATOM      6  C7  UNL d   1      -4.243  -5.298  -5.087  0.00  0.00    -0.073 A 
ATOM      7  C8  UNL d   1      -5.475  -5.998  -4.584  0.00  0.00     0.078 C 
ENDROOT
BRANCH   1   8
ATOM      8  C1  UNL d   1      -5.526  -3.118  -5.485  0.00  0.00     0.053 C 
ATOM      9  C   UNL d   1      -5.748  -2.436  -4.144  0.00  0.00     0.018 C 
ENDBRANCH   1   8
TORSDOF 1
ENDMDL
