MODEL 1
REMARK minimizedAffinity -3.45782518
REMARK minimizedRMSD -1
REMARK  1 active torsions:
REMARK  status: ('A' for Active; 'I' for Inactive)
REMARK    1  A    between atoms: C1_2  and  C2_3 
ROOT
ATOM      1  C2  UNL d   1      -3.878  -4.822  -4.723  0.00  0.00    -0.076 A 
ATOM      2  C3  UNL d   1      -3.423  -3.704  -4.004  0.00  0.00     0.004 A 
ATOM      3  C4  UNL d   1      -4.239  -2.589  -3.817  0.00  0.00    -0.003 A 
ATOM      4  C5  UNL d   1      -5.525  -2.576  -4.347  0.00  0.00     0.000 A 
ATOM      5  C6  UNL d   1      -5.999  -3.684  -5.048  0.00  0.00     0.000 A 
ATOM      6  C7  UNL d   1      -5.195  -4.822  -5.230  0.00  0.00    -0.073 A 
ATOM      7  C8  UNL d   1      -5.756  -5.986  -6.000  0.00  0.00     0.078 C 
ENDROOT
BRANCH   1   8
ATOM      8  C1  UNL d   1      -2.939  -5.991  -4.915  0.00  0.00     0.053 C 
ATOM      9  C   UNL d   1      -1.652  -5.594  -5.622  0.00  0.00     0.018 C 
ENDBRANCH   1   8
TORSDOF 1
ENDMDL
