MODEL 1
REMARK minimizedAffinity -2.41973019
REMARK minimizedRMSD -1
REMARK  1 active torsions:
REMARK  status: ('A' for Active; 'I' for Inactive)
REMARK    1  A    between atoms: C1_2  and  C2_3 
ROOT
ATOM      1  C2  UNL d   1      -4.693  -4.176  -4.784  0.00  0.00    -0.076 A 
ATOM      2  C3  UNL d   1      -3.455  -3.600  -4.448  0.00  0.00     0.004 A 
ATOM      3  C4  UNL d   1      -2.258  -4.174  -4.871  0.00  0.00    -0.003 A 
ATOM      4  C5  UNL d   1      -2.279  -5.334  -5.638  0.00  0.00     0.000 A 
ATOM      5  C6  UNL d   1      -3.498  -5.909  -5.996  0.00  0.00     0.000 A 
ATOM      6  C7  UNL d   1      -4.714  -5.333  -5.591  0.00  0.00    -0.073 A 
ATOM      7  C8  UNL d   1      -5.999  -5.999  -6.000  0.00  0.00     0.078 C 
ENDROOT
BRANCH   1   8
ATOM      8  C1  UNL d   1      -5.958  -3.523  -4.274  0.00  0.00     0.053 C 
ATOM      9  C   UNL d   1      -5.966  -2.018  -4.492  0.00  0.00     0.018 C 
ENDBRANCH   1   8
TORSDOF 1
ENDMDL
