MODEL 1
REMARK minimizedAffinity -2.18177152
REMARK minimizedRMSD -1
REMARK  1 active torsions:
REMARK  status: ('A' for Active; 'I' for Inactive)
REMARK    1  A    between atoms: C1_2  and  C2_3 
ROOT
ATOM      1  C2  UNL d   1      -3.743  -4.885  -4.696  0.00  0.00    -0.076 A 
ATOM      2  C3  UNL d   1      -3.322  -3.890  -3.797  0.00  0.00     0.004 A 
ATOM      3  C4  UNL d   1      -4.224  -2.959  -3.284  0.00  0.00    -0.003 A 
ATOM      4  C5  UNL d   1      -5.562  -3.009  -3.661  0.00  0.00     0.000 A 
ATOM      5  C6  UNL d   1      -6.000  -4.000  -4.538  0.00  0.00     0.000 A 
ATOM      6  C7  UNL d   1      -5.107  -4.956  -5.052  0.00  0.00    -0.073 A 
ATOM      7  C8  UNL d   1      -5.633  -5.999  -6.000  0.00  0.00     0.078 C 
ENDROOT
BRANCH   1   8
ATOM      8  C1  UNL d   1      -2.715  -5.851  -5.241  0.00  0.00     0.053 C 
ATOM      9  C   UNL d   1      -1.546  -5.142  -5.909  0.00  0.00     0.018 C 
ENDBRANCH   1   8
TORSDOF 1
ENDMDL
