MODEL 1
REMARK minimizedAffinity -3.40994096
REMARK minimizedRMSD -1
REMARK  1 active torsions:
REMARK  status: ('A' for Active; 'I' for Inactive)
REMARK    1  A    between atoms: C1_2  and  C2_3 
ROOT
ATOM      1  C2  UNL d   1      -4.117  -3.295  -5.131  0.00  0.00    -0.076 A 
ATOM      2  C3  UNL d   1      -2.899  -3.367  -5.830  0.00  0.00     0.004 A 
ATOM      3  C4  UNL d   1      -2.240  -4.583  -6.000  0.00  0.00    -0.003 A 
ATOM      4  C5  UNL d   1      -2.788  -5.748  -5.475  0.00  0.00     0.000 A 
ATOM      5  C6  UNL d   1      -4.004  -5.698  -4.794  0.00  0.00     0.000 A 
ATOM      6  C7  UNL d   1      -4.690  -4.483  -4.628  0.00  0.00    -0.073 A 
ATOM      7  C8  UNL d   1      -5.995  -4.487  -3.880  0.00  0.00     0.078 C 
ENDROOT
BRANCH   1   8
ATOM      8  C1  UNL d   1      -4.773  -1.944  -4.955  0.00  0.00     0.053 C 
ATOM      9  C   UNL d   1      -5.977  -1.758  -5.864  0.00  0.00     0.018 C 
ENDBRANCH   1   8
TORSDOF 1
ENDMDL
