MODEL 1
REMARK minimizedAffinity -3.5523324
REMARK minimizedRMSD -1
REMARK  1 active torsions:
REMARK  status: ('A' for Active; 'I' for Inactive)
REMARK    1  A    between atoms: C1_2  and  C2_3 
ROOT
ATOM      1  C2  UNL d   1      -4.321  -4.815  -5.224  0.00  0.00    -0.076 A 
ATOM      2  C3  UNL d   1      -2.989  -5.263  -5.200  0.00  0.00     0.004 A 
ATOM      3  C4  UNL d   1      -1.943  -4.423  -5.578  0.00  0.00    -0.003 A 
ATOM      4  C5  UNL d   1      -2.212  -3.121  -5.986  0.00  0.00     0.000 A 
ATOM      5  C6  UNL d   1      -3.526  -2.654  -5.998  0.00  0.00     0.000 A 
ATOM      6  C7  UNL d   1      -4.591  -3.483  -5.605  0.00  0.00    -0.073 A 
ATOM      7  C8  UNL d   1      -5.989  -2.930  -5.643  0.00  0.00     0.078 C 
ENDROOT
BRANCH   1   8
ATOM      8  C1  UNL d   1      -5.416  -5.780  -4.829  0.00  0.00     0.053 C 
ATOM      9  C   UNL d   1      -5.853  -5.605  -3.382  0.00  0.00     0.018 C 
ENDBRANCH   1   8
TORSDOF 1
ENDMDL
