MODEL 1
REMARK minimizedAffinity -2.34440732
REMARK minimizedRMSD -1
REMARK  1 active torsions:
REMARK  status: ('A' for Active; 'I' for Inactive)
REMARK    1  A    between atoms: C1_2  and  C2_3 
ROOT
ATOM      1  C2  UNL d   1      -4.473  -3.225  -5.525  0.00  0.00    -0.076 A 
ATOM      2  C3  UNL d   1      -3.182  -2.934  -6.000  0.00  0.00     0.004 A 
ATOM      3  C4  UNL d   1      -2.078  -3.671  -5.576  0.00  0.00    -0.003 A 
ATOM      4  C5  UNL d   1      -2.246  -4.712  -4.670  0.00  0.00     0.000 A 
ATOM      5  C6  UNL d   1      -3.522  -5.027  -4.202  0.00  0.00     0.000 A 
ATOM      6  C7  UNL d   1      -4.648  -4.304  -4.632  0.00  0.00    -0.073 A 
ATOM      7  C8  UNL d   1      -5.999  -4.683  -4.091  0.00  0.00     0.078 C 
ENDROOT
BRANCH   1   8
ATOM      8  C1  UNL d   1      -5.629  -2.374  -6.000  0.00  0.00     0.053 C 
ATOM      9  C   UNL d   1      -5.923  -1.215  -5.060  0.00  0.00     0.018 C 
ENDBRANCH   1   8
TORSDOF 1
ENDMDL
