MODEL 1
REMARK minimizedAffinity -0.973306358
REMARK minimizedRMSD -1
REMARK  1 active torsions:
REMARK  status: ('A' for Active; 'I' for Inactive)
REMARK    1  A    between atoms: C1_2  and  C2_3 
ROOT
ATOM      1  C2  UNL d   1      -4.809  -3.578  -5.261  0.00  0.00    -0.076 A 
ATOM      2  C3  UNL d   1      -3.677  -3.967  -5.999  0.00  0.00     0.004 A 
ATOM      3  C4  UNL d   1      -2.558  -4.505  -5.366  0.00  0.00    -0.003 A 
ATOM      4  C5  UNL d   1      -2.552  -4.664  -3.985  0.00  0.00     0.000 A 
ATOM      5  C6  UNL d   1      -3.673  -4.300  -3.239  0.00  0.00     0.000 A 
ATOM      6  C7  UNL d   1      -4.815  -3.771  -3.863  0.00  0.00    -0.073 A 
ATOM      7  C8  UNL d   1      -5.993  -3.390  -3.009  0.00  0.00     0.078 C 
ENDROOT
BRANCH   1   8
ATOM      8  C1  UNL d   1      -5.982  -2.975  -5.999  0.00  0.00     0.053 C 
ATOM      9  C   UNL d   1      -6.000  -1.456  -5.924  0.00  0.00     0.018 C 
ENDBRANCH   1   8
TORSDOF 1
ENDMDL
