MODEL 1
REMARK minimizedAffinity -3.32726836
REMARK minimizedRMSD -1
REMARK  1 active torsions:
REMARK  status: ('A' for Active; 'I' for Inactive)
REMARK    1  A    between atoms: C1_2  and  C2_3 
ROOT
ATOM      1  C2  UNL d   1      -4.725  -3.883  -5.150  0.00  0.00    -0.076 A 
ATOM      2  C3  UNL d   1      -3.498  -3.213  -5.004  0.00  0.00     0.004 A 
ATOM      3  C4  UNL d   1      -2.291  -3.861  -5.261  0.00  0.00    -0.003 A 
ATOM      4  C5  UNL d   1      -2.292  -5.190  -5.670  0.00  0.00     0.000 A 
ATOM      5  C6  UNL d   1      -3.501  -5.865  -5.837  0.00  0.00     0.000 A 
ATOM      6  C7  UNL d   1      -4.727  -5.221  -5.597  0.00  0.00    -0.073 A 
ATOM      7  C8  UNL d   1      -6.000  -5.999  -5.787  0.00  0.00     0.078 C 
ENDROOT
BRANCH   1   8
ATOM      8  C1  UNL d   1      -6.000  -3.136  -4.829  0.00  0.00     0.053 C 
ATOM      9  C   UNL d   1      -5.818  -1.627  -4.871  0.00  0.00     0.018 C 
ENDBRANCH   1   8
TORSDOF 1
ENDMDL
