MODEL 1
REMARK minimizedAffinity -6.31401587
REMARK minimizedRMSD -1
REMARK  1 active torsions:
REMARK  status: ('A' for Active; 'I' for Inactive)
REMARK    1  A    between atoms: C1_2  and  C2_3 
ROOT
ATOM      1  C2  UNL d   1      -0.392  -0.362   0.603  0.00  0.00    -0.073 A 
ATOM      2  C3  UNL d   1       0.378   0.761   0.276  0.00  0.00    -0.002 A 
ATOM      3  C4  UNL d   1       1.741   0.792   0.573  0.00  0.00     0.004 A 
ATOM      4  C5  UNL d   1       2.349  -0.299   1.193  0.00  0.00    -0.004 A 
ATOM      5  C6  UNL d   1       1.600  -1.435   1.517  0.00  0.00    -0.075 A 
ATOM      6  C7  UNL d   1       2.239  -2.616   2.186  0.00  0.00     0.076 C 
ATOM      7  C8  UNL d   1       0.231  -1.457   1.218  0.00  0.00     0.001 A 
ENDROOT
BRANCH   1   8
ATOM      8  C1  UNL d   1      -1.863  -0.402   0.278  0.00  0.00     0.053 C 
ATOM      9  C   UNL d   1      -2.143   0.028  -1.153  0.00  0.00     0.018 C 
ENDBRANCH   1   8
TORSDOF 1
ENDMDL
