MODEL 1
REMARK minimizedAffinity -6.03526926
REMARK minimizedRMSD -1
REMARK  1 active torsions:
REMARK  status: ('A' for Active; 'I' for Inactive)
REMARK    1  A    between atoms: C1_2  and  C2_3 
ROOT
ATOM      1  C2  UNL d   1       1.085   0.089   0.305  0.00  0.00    -0.073 A 
ATOM      2  C3  UNL d   1       2.328   0.583  -0.106  0.00  0.00    -0.002 A 
ATOM      3  C4  UNL d   1       3.487   0.250   0.597  0.00  0.00     0.004 A 
ATOM      4  C5  UNL d   1       3.415  -0.585   1.712  0.00  0.00    -0.004 A 
ATOM      5  C6  UNL d   1       2.184  -1.098   2.131  0.00  0.00    -0.075 A 
ATOM      6  C7  UNL d   1       2.090  -1.995   3.330  0.00  0.00     0.076 C 
ATOM      7  C8  UNL d   1       1.025  -0.757   1.422  0.00  0.00     0.001 A 
ENDROOT
BRANCH   1   8
ATOM      8  C1  UNL d   1      -0.168   0.441  -0.456  0.00  0.00     0.053 C 
ATOM      9  C   UNL d   1      -1.411   0.327   0.412  0.00  0.00     0.018 C 
ENDBRANCH   1   8
TORSDOF 1
ENDMDL
