MODEL 1
REMARK minimizedAffinity -3.97053194
REMARK minimizedRMSD -1
REMARK  1 active torsions:
REMARK  status: ('A' for Active; 'I' for Inactive)
REMARK    1  A    between atoms: C1_2  and  C2_3 
ROOT
ATOM      1  C2  UNL d   1       0.065   0.383  -0.534  0.00  0.00    -0.073 A 
ATOM      2  C3  UNL d   1       1.209   1.190  -0.548  0.00  0.00    -0.002 A 
ATOM      3  C4  UNL d   1       2.377   0.767   0.086  0.00  0.00     0.004 A 
ATOM      4  C5  UNL d   1       2.417  -0.468   0.735  0.00  0.00    -0.004 A 
ATOM      5  C6  UNL d   1       1.288  -1.293   0.750  0.00  0.00    -0.075 A 
ATOM      6  C7  UNL d   1       1.313  -2.622   1.445  0.00  0.00     0.076 C 
ATOM      7  C8  UNL d   1       0.117  -0.860   0.113  0.00  0.00     0.001 A 
ENDROOT
BRANCH   1   8
ATOM      8  C1  UNL d   1      -1.197   0.833  -1.224  0.00  0.00     0.053 C 
ATOM      9  C   UNL d   1      -1.864  -0.300  -1.988  0.00  0.00     0.018 C 
ENDBRANCH   1   8
TORSDOF 1
ENDMDL
