MODEL 1
REMARK minimizedAffinity -4.06426239
REMARK minimizedRMSD -1
REMARK  0 active torsions:
REMARK  status: ('A' for Active; 'I' for Inactive)
ROOT
ATOM      1  C   UNL d   1      -3.067   1.735  -3.008  0.00  0.00     0.078 C 
ATOM      2  C1  UNL d   1      -2.824   3.145  -3.458  0.00  0.00    -0.077 A 
ATOM      3  C2  UNL d   1      -2.679   4.183  -2.530  0.00  0.00    -0.001 A 
ATOM      4  C3  UNL d   1      -2.464   5.492  -2.964  0.00  0.00     0.003 A 
ATOM      5  C4  UNL d   1      -2.391   5.775  -4.326  0.00  0.00    -0.005 A 
ATOM      6  C5  UNL d   1      -2.536   4.749  -5.257  0.00  0.00     0.003 A 
ATOM      7  C6  UNL d   1      -2.752   3.439  -4.826  0.00  0.00    -0.001 A 
ENDROOT
TORSDOF 0
ENDMDL
