MODEL 1
REMARK minimizedAffinity -2.67726469
REMARK minimizedRMSD -1
REMARK  0 active torsions:
REMARK  status: ('A' for Active; 'I' for Inactive)
ROOT
ATOM      1  C   UNL d   1      -2.818   4.944  -3.671  0.00  0.00     0.078 C 
ATOM      2  C1  UNL d   1      -2.837   3.471  -3.394  0.00  0.00    -0.077 A 
ATOM      3  C2  UNL d   1      -1.706   2.816  -2.891  0.00  0.00    -0.001 A 
ATOM      4  C3  UNL d   1      -1.735   1.442  -2.647  0.00  0.00     0.003 A 
ATOM      5  C4  UNL d   1      -2.892   0.711  -2.904  0.00  0.00    -0.005 A 
ATOM      6  C5  UNL d   1      -4.022   1.353  -3.407  0.00  0.00     0.003 A 
ATOM      7  C6  UNL d   1      -3.995   2.727  -3.651  0.00  0.00    -0.001 A 
ENDROOT
TORSDOF 0
ENDMDL
