MODEL 1
REMARK minimizedAffinity -2.39041138
REMARK minimizedRMSD -1
REMARK  0 active torsions:
REMARK  status: ('A' for Active; 'I' for Inactive)
ROOT
ATOM      1  C   UNL d   1       1.149  -1.751   1.503  0.00  0.00     0.078 C 
ATOM      2  C1  UNL d   1      -0.228  -1.205   1.740  0.00  0.00    -0.077 A 
ATOM      3  C2  UNL d   1      -0.547  -0.547   2.934  0.00  0.00    -0.001 A 
ATOM      4  C3  UNL d   1      -1.836  -0.053   3.144  0.00  0.00     0.003 A 
ATOM      5  C4  UNL d   1      -2.815  -0.213   2.166  0.00  0.00    -0.005 A 
ATOM      6  C5  UNL d   1      -2.507  -0.868   0.976  0.00  0.00     0.003 A 
ATOM      7  C6  UNL d   1      -1.219  -1.363   0.763  0.00  0.00    -0.001 A 
ENDROOT
TORSDOF 0
ENDMDL
