MODEL 1
REMARK minimizedAffinity 2.44639277
REMARK minimizedRMSD -1
REMARK  0 active torsions:
REMARK  status: ('A' for Active; 'I' for Inactive)
ROOT
ATOM      1  C   UNL d   1      -1.948   5.738  -4.105  0.00  0.00     0.078 C 
ATOM      2  C1  UNL d   1      -2.394   4.652  -3.172  0.00  0.00    -0.077 A 
ATOM      3  C2  UNL d   1      -2.524   3.330  -3.613  0.00  0.00    -0.001 A 
ATOM      4  C3  UNL d   1      -2.950   2.331  -2.735  0.00  0.00     0.003 A 
ATOM      5  C4  UNL d   1      -3.250   2.645  -1.411  0.00  0.00    -0.005 A 
ATOM      6  C5  UNL d   1      -3.126   3.959  -0.963  0.00  0.00     0.003 A 
ATOM      7  C6  UNL d   1      -2.700   4.958  -1.840  0.00  0.00    -0.001 A 
ENDROOT
TORSDOF 0
ENDMDL
