MODEL 1
REMARK minimizedAffinity -4.18175459
REMARK minimizedRMSD -1
REMARK  0 active torsions:
REMARK  status: ('A' for Active; 'I' for Inactive)
ROOT
ATOM      1  C   UNL d   1      -1.777  -0.050  -1.584  0.00  0.00     0.078 C 
ATOM      2  C1  UNL d   1      -2.001   1.318  -2.157  0.00  0.00    -0.077 A 
ATOM      3  C2  UNL d   1      -2.981   1.540  -3.132  0.00  0.00    -0.001 A 
ATOM      4  C3  UNL d   1      -3.172   2.816  -3.663  0.00  0.00     0.003 A 
ATOM      5  C4  UNL d   1      -2.386   3.881  -3.226  0.00  0.00    -0.005 A 
ATOM      6  C5  UNL d   1      -1.407   3.669  -2.258  0.00  0.00     0.003 A 
ATOM      7  C6  UNL d   1      -1.214   2.393  -1.726  0.00  0.00    -0.001 A 
ENDROOT
TORSDOF 0
ENDMDL
