MODEL 1
REMARK minimizedAffinity -3.03405428
REMARK minimizedRMSD -1
REMARK  0 active torsions:
REMARK  status: ('A' for Active; 'I' for Inactive)
ROOT
ATOM      1  C   UNL d   1       1.749  -2.799  -0.159  0.00  0.00     0.078 C 
ATOM      2  C1  UNL d   1       0.878  -2.243   0.927  0.00  0.00    -0.077 A 
ATOM      3  C2  UNL d   1       1.281  -2.286   2.267  0.00  0.00    -0.001 A 
ATOM      4  C3  UNL d   1       0.455  -1.773   3.269  0.00  0.00     0.003 A 
ATOM      5  C4  UNL d   1      -0.779  -1.214   2.941  0.00  0.00    -0.005 A 
ATOM      6  C5  UNL d   1      -1.189  -1.169   1.611  0.00  0.00     0.003 A 
ATOM      7  C6  UNL d   1      -0.365  -1.682   0.607  0.00  0.00    -0.001 A 
ENDROOT
TORSDOF 0
ENDMDL
