MODEL 1
REMARK minimizedAffinity 1.63944793
REMARK minimizedRMSD -1
REMARK  0 active torsions:
REMARK  status: ('A' for Active; 'I' for Inactive)
ROOT
ATOM      1  C   UNL d   1       1.561  -1.052   4.647  0.00  0.00     0.172 C 
ATOM      2  N   UNL d   1       1.008   0.133   4.035  0.00  0.00    -0.070 N 
ATOM      3  C1  UNL d   1      -0.225   0.667   4.298  0.00  0.00    -0.004 A 
ATOM      4  C2  UNL d   1      -0.375   1.790   3.515  0.00  0.00    -0.047 A 
ATOM      5  C3  UNL d   1       0.809   1.937   2.754  0.00  0.00    -0.047 A 
ATOM      6  C4  UNL d   1       1.648   0.898   3.095  0.00  0.00    -0.004 A 
ENDROOT
TORSDOF 0
ENDMDL
