MODEL 1
REMARK minimizedAffinity -1.47607899
REMARK minimizedRMSD -1
REMARK  0 active torsions:
REMARK  status: ('A' for Active; 'I' for Inactive)
ROOT
ATOM      1  C   UNL d   1      -5.961   5.867  -5.451  0.00  0.00     0.172 C 
ATOM      2  N   UNL d   1      -5.973   4.465  -5.108  0.00  0.00    -0.070 N 
ATOM      3  C1  UNL d   1      -5.996   3.425  -6.000  0.00  0.00    -0.004 A 
ATOM      4  C2  UNL d   1      -6.000   2.251  -5.278  0.00  0.00    -0.047 A 
ATOM      5  C3  UNL d   1      -5.979   2.597  -3.906  0.00  0.00    -0.047 A 
ATOM      6  C4  UNL d   1      -5.963   3.973  -3.830  0.00  0.00    -0.004 A 
ENDROOT
TORSDOF 0
ENDMDL
