MODEL 1
REMARK minimizedAffinity 3.0709486
REMARK minimizedRMSD -1
REMARK  0 active torsions:
REMARK  status: ('A' for Active; 'I' for Inactive)
ROOT
ATOM      1  C   UNL d   1      -2.056   1.194   0.781  0.00  0.00     0.172 C 
ATOM      2  N   UNL d   1      -0.722   0.666   0.616  0.00  0.00    -0.070 N 
ATOM      3  C1  UNL d   1       0.173   0.427   1.624  0.00  0.00    -0.004 A 
ATOM      4  C2  UNL d   1       1.325  -0.073   1.057  0.00  0.00    -0.047 A 
ATOM      5  C3  UNL d   1       1.116  -0.136  -0.341  0.00  0.00    -0.047 A 
ATOM      6  C4  UNL d   1      -0.159   0.327  -0.587  0.00  0.00    -0.004 A 
ENDROOT
TORSDOF 0
ENDMDL
