MODEL 1
REMARK minimizedAffinity 0.144716814
REMARK minimizedRMSD -1
REMARK  0 active torsions:
REMARK  status: ('A' for Active; 'I' for Inactive)
ROOT
ATOM      1  C   UNL d   1      -0.947  -0.124  -0.760  0.00  0.00     0.172 C 
ATOM      2  N   UNL d   1      -1.117  -1.550  -0.610  0.00  0.00    -0.070 N 
ATOM      3  C1  UNL d   1      -1.563  -2.187   0.517  0.00  0.00    -0.004 A 
ATOM      4  C2  UNL d   1      -1.585  -3.540   0.257  0.00  0.00    -0.047 A 
ATOM      5  C3  UNL d   1      -1.136  -3.723  -1.072  0.00  0.00    -0.047 A 
ATOM      6  C4  UNL d   1      -0.853  -2.475  -1.586  0.00  0.00    -0.004 A 
ENDROOT
TORSDOF 0
ENDMDL
