MODEL 1
REMARK minimizedAffinity -1.03615403
REMARK minimizedRMSD -1
REMARK  0 active torsions:
REMARK  status: ('A' for Active; 'I' for Inactive)
ROOT
ATOM      1  C   UNL d   1      -5.245   3.214  -5.902  0.00  0.00     0.172 C 
ATOM      2  N   UNL d   1      -5.015   1.789  -5.926  0.00  0.00    -0.070 N 
ATOM      3  C1  UNL d   1      -3.790   1.178  -5.888  0.00  0.00    -0.004 A 
ATOM      4  C2  UNL d   1      -3.996  -0.184  -5.929  0.00  0.00    -0.047 A 
ATOM      5  C3  UNL d   1      -5.394  -0.399  -5.994  0.00  0.00    -0.047 A 
ATOM      6  C4  UNL d   1      -6.000   0.840  -5.991  0.00  0.00    -0.004 A 
ENDROOT
TORSDOF 0
ENDMDL
