MODEL 1
REMARK minimizedAffinity -1.35196853
REMARK minimizedRMSD -1
REMARK  0 active torsions:
REMARK  status: ('A' for Active; 'I' for Inactive)
ROOT
ATOM      1  C   UNL d   1       2.195  -1.344   0.712  0.00  0.00     0.172 C 
ATOM      2  N   UNL d   1       1.027  -0.560   0.383  0.00  0.00    -0.070 N 
ATOM      3  C1  UNL d   1       0.815   0.745   0.739  0.00  0.00    -0.004 A 
ATOM      4  C2  UNL d   1      -0.410   1.126   0.237  0.00  0.00    -0.047 A 
ATOM      5  C3  UNL d   1      -0.954   0.011  -0.445  0.00  0.00    -0.047 A 
ATOM      6  C4  UNL d   1      -0.044  -1.019  -0.338  0.00  0.00    -0.004 A 
ENDROOT
TORSDOF 0
ENDMDL
