MODEL 1
REMARK minimizedAffinity -0.716445029
REMARK minimizedRMSD -1
REMARK  0 active torsions:
REMARK  status: ('A' for Active; 'I' for Inactive)
ROOT
ATOM      1  C   UNL d   1      -3.615   0.638   1.646  0.00  0.00     0.172 C 
ATOM      2  N   UNL d   1      -2.497   0.597   0.732  0.00  0.00    -0.070 N 
ATOM      3  C1  UNL d   1      -2.424   1.251  -0.469  0.00  0.00    -0.004 A 
ATOM      4  C2  UNL d   1      -1.202   0.958  -1.034  0.00  0.00    -0.047 A 
ATOM      5  C3  UNL d   1      -0.517   0.099  -0.143  0.00  0.00    -0.047 A 
ATOM      6  C4  UNL d   1      -1.342  -0.109   0.943  0.00  0.00    -0.004 A 
ENDROOT
TORSDOF 0
ENDMDL
