MODEL 1
REMARK minimizedAffinity 0.302375674
REMARK minimizedRMSD -1
REMARK  0 active torsions:
REMARK  status: ('A' for Active; 'I' for Inactive)
ROOT
ATOM      1  C   UNL d   1       2.969  -2.009  -2.340  0.00  0.00     0.172 C 
ATOM      2  N   UNL d   1       2.177  -1.964  -1.133  0.00  0.00    -0.070 N 
ATOM      3  C1  UNL d   1       2.666  -2.004   0.145  0.00  0.00    -0.004 A 
ATOM      4  C2  UNL d   1       1.594  -1.939   1.009  0.00  0.00    -0.047 A 
ATOM      5  C3  UNL d   1       0.420  -1.858   0.223  0.00  0.00    -0.047 A 
ATOM      6  C4  UNL d   1       0.810  -1.876  -1.099  0.00  0.00    -0.004 A 
ENDROOT
TORSDOF 0
ENDMDL
