MODEL 1
REMARK minimizedAffinity -2.54385567
REMARK minimizedRMSD -1
REMARK  0 active torsions:
REMARK  status: ('A' for Active; 'I' for Inactive)
ROOT
ATOM      1  C   UNL d   1      -0.061   1.073  -0.453  0.00  0.00     0.172 C 
ATOM      2  N   UNL d   1       0.747  -0.123  -0.406  0.00  0.00    -0.070 N 
ATOM      3  C1  UNL d   1       2.096  -0.166  -0.177  0.00  0.00    -0.004 A 
ATOM      4  C2  UNL d   1       2.487  -1.487  -0.210  0.00  0.00    -0.047 A 
ATOM      5  C3  UNL d   1       1.333  -2.264  -0.468  0.00  0.00    -0.047 A 
ATOM      6  C4  UNL d   1       0.270  -1.394  -0.585  0.00  0.00    -0.004 A 
ENDROOT
TORSDOF 0
ENDMDL
