MODEL 1
REMARK minimizedAffinity -3.72788024
REMARK minimizedRMSD -1
REMARK  0 active torsions:
REMARK  status: ('A' for Active; 'I' for Inactive)
ROOT
ATOM      1  C   UNL d   1      -0.555   1.155  -0.626  0.00  0.00     0.172 C 
ATOM      2  N   UNL d   1       0.455   0.173  -0.309  0.00  0.00    -0.070 N 
ATOM      3  C1  UNL d   1       0.494  -1.113  -0.780  0.00  0.00    -0.004 A 
ATOM      4  C2  UNL d   1       1.609  -1.723  -0.248  0.00  0.00    -0.047 A 
ATOM      5  C3  UNL d   1       2.263  -0.772   0.571  0.00  0.00    -0.047 A 
ATOM      6  C4  UNL d   1       1.527   0.393   0.515  0.00  0.00    -0.004 A 
ENDROOT
TORSDOF 0
ENDMDL
