MODEL 1
REMARK minimizedAffinity -3.97003722
REMARK minimizedRMSD -1
REMARK  1 active torsions:
REMARK  status: ('A' for Active; 'I' for Inactive)
REMARK    1  A    between atoms: C1_2  and  C2_3 
ROOT
ATOM      1  C2  UNL d   1       3.558   1.658  -1.100  0.00  0.00    -0.073 A 
ATOM      2  C3  UNL d   1       2.507   1.821  -0.191  0.00  0.00    -0.002 A 
ATOM      3  C4  UNL d   1       1.581   0.795   0.007  0.00  0.00     0.004 A 
ATOM      4  C5  UNL d   1       1.702  -0.404  -0.695  0.00  0.00    -0.004 A 
ATOM      5  C6  UNL d   1       2.752  -0.590  -1.599  0.00  0.00    -0.075 A 
ATOM      6  C7  UNL d   1       2.894  -1.874  -2.363  0.00  0.00     0.076 C 
ATOM      7  C8  UNL d   1       3.676   0.445  -1.795  0.00  0.00     0.001 A 
ENDROOT
BRANCH   1   8
ATOM      8  C1  UNL d   1       4.563   2.760  -1.313  0.00  0.00     0.053 C 
ATOM      9  C   UNL d   1       5.360   3.056  -0.053  0.00  0.00     0.018 C 
ENDBRANCH   1   8
TORSDOF 1
ENDMDL
