MODEL 1
REMARK minimizedAffinity 6.10267401
REMARK minimizedRMSD -1
REMARK  1 active torsions:
REMARK  status: ('A' for Active; 'I' for Inactive)
REMARK    1  A    between atoms: C1_2  and  C2_3 
ROOT
ATOM      1  C2  UNL d   1      -5.303   1.315  -0.201  0.00  0.00    -0.073 A 
ATOM      2  C3  UNL d   1      -4.093   1.711  -0.782  0.00  0.00    -0.002 A 
ATOM      3  C4  UNL d   1      -3.508   2.928  -0.431  0.00  0.00     0.004 A 
ATOM      4  C5  UNL d   1      -4.122   3.757   0.508  0.00  0.00    -0.004 A 
ATOM      5  C6  UNL d   1      -5.325   3.373   1.108  0.00  0.00    -0.075 A 
ATOM      6  C7  UNL d   1      -5.999   4.255   2.118  0.00  0.00     0.076 C 
ATOM      7  C8  UNL d   1      -5.908   2.151   0.748  0.00  0.00     0.001 A 
ENDROOT
BRANCH   1   8
ATOM      8  C1  UNL d   1      -5.935  -0.001  -0.573  0.00  0.00     0.053 C 
ATOM      9  C   UNL d   1      -4.909  -1.007  -1.070  0.00  0.00     0.018 C 
ENDBRANCH   1   8
TORSDOF 1
ENDMDL
