MODEL 1
REMARK minimizedAffinity 8.43099976
REMARK minimizedRMSD -1
REMARK  1 active torsions:
REMARK  status: ('A' for Active; 'I' for Inactive)
REMARK    1  A    between atoms: C1_2  and  C2_3 
ROOT
ATOM      1  C2  UNL d   1       3.039   1.039  -0.346  0.00  0.00    -0.073 A 
ATOM      2  C3  UNL d   1       2.822  -0.328  -0.552  0.00  0.00    -0.002 A 
ATOM      3  C4  UNL d   1       1.918  -1.027   0.249  0.00  0.00     0.004 A 
ATOM      4  C5  UNL d   1       1.218  -0.366   1.259  0.00  0.00    -0.004 A 
ATOM      5  C6  UNL d   1       1.412   1.002   1.472  0.00  0.00    -0.075 A 
ATOM      6  C7  UNL d   1       0.668   1.727   2.555  0.00  0.00     0.076 C 
ATOM      7  C8  UNL d   1       2.323   1.697   0.665  0.00  0.00     0.001 A 
ENDROOT
BRANCH   1   8
ATOM      8  C1  UNL d   1       4.009   1.799  -1.213  0.00  0.00     0.053 C 
ATOM      9  C   UNL d   1       5.363   1.965  -0.543  0.00  0.00     0.018 C 
ENDBRANCH   1   8
TORSDOF 1
ENDMDL
