MODEL 1
REMARK minimizedAffinity 0.631854475
REMARK minimizedRMSD -1
REMARK  1 active torsions:
REMARK  status: ('A' for Active; 'I' for Inactive)
REMARK    1  A    between atoms: C1_2  and  C2_3 
ROOT
ATOM      1  C2  UNL d   1       3.043  -0.699   0.343  0.00  0.00    -0.073 A 
ATOM      2  C3  UNL d   1       3.672   0.525   0.086  0.00  0.00    -0.002 A 
ATOM      3  C4  UNL d   1       4.006   0.886  -1.220  0.00  0.00     0.004 A 
ATOM      4  C5  UNL d   1       3.709   0.031  -2.282  0.00  0.00    -0.004 A 
ATOM      5  C6  UNL d   1       3.070  -1.190  -2.047  0.00  0.00    -0.075 A 
ATOM      6  C7  UNL d   1       2.746  -2.122  -3.178  0.00  0.00     0.076 C 
ATOM      7  C8  UNL d   1       2.740  -1.547  -0.732  0.00  0.00     0.001 A 
ENDROOT
BRANCH   1   8
ATOM      8  C1  UNL d   1       2.675  -1.089   1.751  0.00  0.00     0.053 C 
ATOM      9  C   UNL d   1       1.597  -0.187   2.329  0.00  0.00     0.018 C 
ENDBRANCH   1   8
TORSDOF 1
ENDMDL
