MODEL 1
REMARK minimizedAffinity 2.68243432
REMARK minimizedRMSD -1
REMARK  1 active torsions:
REMARK  status: ('A' for Active; 'I' for Inactive)
REMARK    1  A    between atoms: C1_2  and  C2_3 
ROOT
ATOM      1  C2  UNL d   1      -4.052   0.883  -3.696  0.00  0.00    -0.073 A 
ATOM      2  C3  UNL d   1      -4.956   1.865  -4.120  0.00  0.00    -0.002 A 
ATOM      3  C4  UNL d   1      -5.927   2.353  -3.245  0.00  0.00     0.004 A 
ATOM      4  C5  UNL d   1      -6.000   1.873  -1.937  0.00  0.00    -0.004 A 
ATOM      5  C6  UNL d   1      -5.098   0.901  -1.492  0.00  0.00    -0.075 A 
ATOM      6  C7  UNL d   1      -5.164   0.371  -0.089  0.00  0.00     0.076 C 
ATOM      7  C8  UNL d   1      -4.127   0.413  -2.377  0.00  0.00     0.001 A 
ENDROOT
BRANCH   1   8
ATOM      8  C1  UNL d   1      -2.998   0.357  -4.636  0.00  0.00     0.053 C 
ATOM      9  C   UNL d   1      -1.874  -0.349  -3.894  0.00  0.00     0.018 C 
ENDBRANCH   1   8
TORSDOF 1
ENDMDL
