MODEL 1
REMARK minimizedAffinity -5.6512208
REMARK minimizedRMSD -1
REMARK  1 active torsions:
REMARK  status: ('A' for Active; 'I' for Inactive)
REMARK    1  A    between atoms: C1_2  and  C2_3 
ROOT
ATOM      1  C2  UNL d   1      -0.767   0.503   0.834  0.00  0.00    -0.081 A 
ATOM      2  C3  UNL d   1       0.067  -0.473   1.393  0.00  0.00     0.006 A 
ATOM      3  C4  UNL d   1       1.265  -0.824   0.766  0.00  0.00     0.002 A 
ATOM      4  C5  UNL d   1       1.652  -0.200  -0.425  0.00  0.00    -0.080 A 
ATOM      5  C6  UNL d   1       2.951  -0.546  -1.092  0.00  0.00     0.076 C 
ATOM      6  C7  UNL d   1       0.811   0.763  -0.992  0.00  0.00     0.002 A 
ATOM      7  C8  UNL d   1      -0.388   1.113  -0.366  0.00  0.00     0.006 A 
ENDROOT
BRANCH   1   8
ATOM      8  C1  UNL d   1      -2.028   0.930   1.541  0.00  0.00     0.054 C 
ATOM      9  C   UNL d   1      -1.886   0.802   3.051  0.00  0.00     0.018 C 
ENDBRANCH   1   8
TORSDOF 1
ENDMDL
