MODEL 1
REMARK minimizedAffinity -4.10722351
REMARK minimizedRMSD -1
REMARK  1 active torsions:
REMARK  status: ('A' for Active; 'I' for Inactive)
REMARK    1  A    between atoms: C1_2  and  C2_3 
ROOT
ATOM      1  C2  UNL d   1      -0.897   0.037   0.488  0.00  0.00    -0.081 A 
ATOM      2  C3  UNL d   1      -0.367  -1.252   0.353  0.00  0.00     0.006 A 
ATOM      3  C4  UNL d   1       0.881  -1.445  -0.245  0.00  0.00     0.002 A 
ATOM      4  C5  UNL d   1       1.622  -0.353  -0.710  0.00  0.00    -0.080 A 
ATOM      5  C6  UNL d   1       2.976  -0.544  -1.326  0.00  0.00     0.076 C 
ATOM      6  C7  UNL d   1       1.085   0.933  -0.590  0.00  0.00     0.002 A 
ATOM      7  C8  UNL d   1      -0.163   1.126   0.007  0.00  0.00     0.006 A 
ENDROOT
BRANCH   1   8
ATOM      8  C1  UNL d   1      -2.213   0.254   1.191  0.00  0.00     0.054 C 
ATOM      9  C   UNL d   1      -2.034   0.290   2.702  0.00  0.00     0.018 C 
ENDBRANCH   1   8
TORSDOF 1
ENDMDL
