MODEL 1
REMARK minimizedAffinity 1.97237921
REMARK minimizedRMSD -1
REMARK  1 active torsions:
REMARK  status: ('A' for Active; 'I' for Inactive)
REMARK    1  A    between atoms: C1_2  and  C2_3 
ROOT
ATOM      1  C2  UNL d   1      -1.065  -0.280   0.766  0.00  0.00    -0.081 A 
ATOM      2  C3  UNL d   1      -0.762  -1.624   0.516  0.00  0.00     0.006 A 
ATOM      3  C4  UNL d   1       0.288  -1.966  -0.339  0.00  0.00     0.002 A 
ATOM      4  C5  UNL d   1       1.056  -0.971  -0.953  0.00  0.00    -0.080 A 
ATOM      5  C6  UNL d   1       2.205  -1.325  -1.850  0.00  0.00     0.076 C 
ATOM      6  C7  UNL d   1       0.743   0.372  -0.717  0.00  0.00     0.002 A 
ATOM      7  C8  UNL d   1      -0.307   0.715   0.137  0.00  0.00     0.006 A 
ENDROOT
BRANCH   1   8
ATOM      8  C1  UNL d   1      -2.155   0.093   1.738  0.00  0.00     0.054 C 
ATOM      9  C   UNL d   1      -1.583   0.426   3.109  0.00  0.00     0.018 C 
ENDBRANCH   1   8
TORSDOF 1
ENDMDL
