MODEL 1
REMARK minimizedAffinity -3.32311249
REMARK minimizedRMSD -1
REMARK  1 active torsions:
REMARK  status: ('A' for Active; 'I' for Inactive)
REMARK    1  A    between atoms: C1_2  and  C2_3 
ROOT
ATOM      1  C2  UNL d   1      -0.158   0.191  -0.354  0.00  0.00    -0.081 A 
ATOM      2  C3  UNL d   1       0.262   1.239  -1.183  0.00  0.00     0.006 A 
ATOM      3  C4  UNL d   1       1.443   1.128  -1.920  0.00  0.00     0.002 A 
ATOM      4  C5  UNL d   1       2.219  -0.034  -1.847  0.00  0.00    -0.080 A 
ATOM      5  C6  UNL d   1       3.473  -0.178  -2.657  0.00  0.00     0.076 C 
ATOM      6  C7  UNL d   1       1.808  -1.074  -1.005  0.00  0.00     0.002 A 
ATOM      7  C8  UNL d   1       0.628  -0.963  -0.267  0.00  0.00     0.006 A 
ENDROOT
BRANCH   1   8
ATOM      8  C1  UNL d   1      -1.465   0.282   0.393  0.00  0.00     0.054 C 
ATOM      9  C   UNL d   1      -1.238   0.552   1.873  0.00  0.00     0.018 C 
ENDBRANCH   1   8
TORSDOF 1
ENDMDL
