MODEL 1
REMARK minimizedAffinity 0.62580359
REMARK minimizedRMSD -1
REMARK  1 active torsions:
REMARK  status: ('A' for Active; 'I' for Inactive)
REMARK    1  A    between atoms: C1_2  and  C2_3 
ROOT
ATOM      1  C2  UNL d   1       0.559   0.790  -0.861  0.00  0.00    -0.081 A 
ATOM      2  C3  UNL d   1       1.854   0.322  -0.608  0.00  0.00     0.006 A 
ATOM      3  C4  UNL d   1       2.061  -0.995  -0.191  0.00  0.00     0.002 A 
ATOM      4  C5  UNL d   1       0.979  -1.867  -0.027  0.00  0.00    -0.080 A 
ATOM      5  C6  UNL d   1       1.191  -3.292   0.390  0.00  0.00     0.076 C 
ATOM      6  C7  UNL d   1      -0.316  -1.394  -0.263  0.00  0.00     0.002 A 
ATOM      7  C8  UNL d   1      -0.524  -0.077  -0.679  0.00  0.00     0.006 A 
ENDROOT
BRANCH   1   8
ATOM      8  C1  UNL d   1       0.337   2.191  -1.373  0.00  0.00     0.054 C 
ATOM      9  C   UNL d   1      -1.147   2.509  -1.489  0.00  0.00     0.018 C 
ENDBRANCH   1   8
TORSDOF 1
ENDMDL
