MODEL 1
REMARK minimizedAffinity -5.29674387
REMARK minimizedRMSD -1
REMARK  1 active torsions:
REMARK  status: ('A' for Active; 'I' for Inactive)
REMARK    1  A    between atoms: C1_2  and  C2_3 
ROOT
ATOM      1  C2  UNL d   1      -0.256   0.214   0.345  0.00  0.00    -0.081 A 
ATOM      2  C3  UNL d   1       0.003   1.096  -0.712  0.00  0.00     0.006 A 
ATOM      3  C4  UNL d   1       1.152   0.948  -1.493  0.00  0.00     0.002 A 
ATOM      4  C5  UNL d   1       2.056  -0.088  -1.236  0.00  0.00    -0.080 A 
ATOM      5  C6  UNL d   1       3.278  -0.276  -2.086  0.00  0.00     0.076 C 
ATOM      6  C7  UNL d   1       1.807  -0.958  -0.170  0.00  0.00     0.002 A 
ATOM      7  C8  UNL d   1       0.659  -0.811   0.612  0.00  0.00     0.006 A 
ENDROOT
BRANCH   1   8
ATOM      8  C1  UNL d   1      -1.526   0.332   1.148  0.00  0.00     0.054 C 
ATOM      9  C   UNL d   1      -1.306   1.146   2.415  0.00  0.00     0.018 C 
ENDBRANCH   1   8
TORSDOF 1
ENDMDL
