MODEL 1
REMARK minimizedAffinity -3.37790108
REMARK minimizedRMSD -1
REMARK  1 active torsions:
REMARK  status: ('A' for Active; 'I' for Inactive)
REMARK    1  A    between atoms: C1_2  and  C2_3 
ROOT
ATOM      1  C2  UNL d   1      -0.546   0.440  -0.046  0.00  0.00    -0.081 A 
ATOM      2  C3  UNL d   1      -0.415   1.493  -0.959  0.00  0.00     0.006 A 
ATOM      3  C4  UNL d   1       0.660   1.527  -1.851  0.00  0.00     0.002 A 
ATOM      4  C5  UNL d   1       1.616   0.505  -1.850  0.00  0.00    -0.080 A 
ATOM      5  C6  UNL d   1       2.757   0.514  -2.823  0.00  0.00     0.076 C 
ATOM      6  C7  UNL d   1       1.494  -0.538  -0.926  0.00  0.00     0.002 A 
ATOM      7  C8  UNL d   1       0.421  -0.572  -0.033  0.00  0.00     0.006 A 
ENDROOT
BRANCH   1   8
ATOM      8  C1  UNL d   1      -1.738   0.367   0.874  0.00  0.00     0.054 C 
ATOM      9  C   UNL d   1      -1.362   0.747   2.299  0.00  0.00     0.018 C 
ENDBRANCH   1   8
TORSDOF 1
ENDMDL
