MODEL 1
REMARK minimizedAffinity -3.49852586
REMARK minimizedRMSD -1
REMARK  1 active torsions:
REMARK  status: ('A' for Active; 'I' for Inactive)
REMARK    1  A    between atoms: C1_2  and  C2_3 
ROOT
ATOM      1  C2  UNL d   1      -0.481  -0.025  -0.603  0.00  0.00    -0.081 A 
ATOM      2  C3  UNL d   1       0.438  -1.079  -0.671  0.00  0.00     0.006 A 
ATOM      3  C4  UNL d   1       1.555  -0.992  -1.506  0.00  0.00     0.002 A 
ATOM      4  C5  UNL d   1       1.775   0.152  -2.280  0.00  0.00    -0.080 A 
ATOM      5  C6  UNL d   1       2.986   0.271  -3.157  0.00  0.00     0.076 C 
ATOM      6  C7  UNL d   1       0.847   1.198  -2.225  0.00  0.00     0.002 A 
ATOM      7  C8  UNL d   1      -0.270   1.112  -1.391  0.00  0.00     0.006 A 
ENDROOT
BRANCH   1   8
ATOM      8  C1  UNL d   1      -1.652  -0.089   0.345  0.00  0.00     0.054 C 
ATOM      9  C   UNL d   1      -1.246   0.320   1.754  0.00  0.00     0.018 C 
ENDBRANCH   1   8
TORSDOF 1
ENDMDL
