MODEL 1
REMARK minimizedAffinity -4.06534958
REMARK minimizedRMSD -1
REMARK  1 active torsions:
REMARK  status: ('A' for Active; 'I' for Inactive)
REMARK    1  A    between atoms: C1_2  and  C2_3 
ROOT
ATOM      1  C2  UNL d   1      -0.482   0.163   0.074  0.00  0.00    -0.081 A 
ATOM      2  C3  UNL d   1       0.001  -1.150  -0.003  0.00  0.00     0.006 A 
ATOM      3  C4  UNL d   1       1.243  -1.414  -0.584  0.00  0.00     0.002 A 
ATOM      4  C5  UNL d   1       2.026  -0.372  -1.092  0.00  0.00    -0.080 A 
ATOM      5  C6  UNL d   1       3.374  -0.639  -1.691  0.00  0.00     0.076 C 
ATOM      6  C7  UNL d   1       1.536   0.937  -1.031  0.00  0.00     0.002 A 
ATOM      7  C8  UNL d   1       0.294   1.202  -0.450  0.00  0.00     0.006 A 
ENDROOT
BRANCH   1   8
ATOM      8  C1  UNL d   1      -1.792   0.459   0.758  0.00  0.00     0.054 C 
ATOM      9  C   UNL d   1      -1.585   0.787   2.230  0.00  0.00     0.018 C 
ENDBRANCH   1   8
TORSDOF 1
ENDMDL
