MODEL 1
REMARK minimizedAffinity -1.39485109
REMARK minimizedRMSD -1
REMARK  1 active torsions:
REMARK  status: ('A' for Active; 'I' for Inactive)
REMARK    1  A    between atoms: C1_2  and  C2_3 
ROOT
ATOM      1  C2  UNL d   1      -0.683   0.203  -0.004  0.00  0.00    -0.081 A 
ATOM      2  C3  UNL d   1       0.128  -0.935   0.078  0.00  0.00     0.006 A 
ATOM      3  C4  UNL d   1       1.412  -0.930  -0.472  0.00  0.00     0.002 A 
ATOM      4  C5  UNL d   1       1.909   0.214  -1.105  0.00  0.00    -0.080 A 
ATOM      5  C6  UNL d   1       3.297   0.242  -1.673  0.00  0.00     0.076 C 
ATOM      6  C7  UNL d   1       1.092   1.345  -1.203  0.00  0.00     0.002 A 
ATOM      7  C8  UNL d   1      -0.192   1.341  -0.654  0.00  0.00     0.006 A 
ENDROOT
BRANCH   1   8
ATOM      8  C1  UNL d   1      -2.044   0.223   0.644  0.00  0.00     0.054 C 
ATOM      9  C   UNL d   1      -1.940   0.051   2.153  0.00  0.00     0.018 C 
ENDBRANCH   1   8
TORSDOF 1
ENDMDL
