MODEL 1
REMARK minimizedAffinity -4.47501183
REMARK minimizedRMSD -1
REMARK  1 active torsions:
REMARK  status: ('A' for Active; 'I' for Inactive)
REMARK    1  A    between atoms: C1_2  and  C2_3 
ROOT
ATOM      1  C2  UNL d   1      -0.591  -0.057   0.471  0.00  0.00    -0.081 A 
ATOM      2  C3  UNL d   1      -0.052  -1.345   0.374  0.00  0.00     0.006 A 
ATOM      3  C4  UNL d   1       1.187  -1.550  -0.238  0.00  0.00     0.002 A 
ATOM      4  C5  UNL d   1       1.910  -0.471  -0.755  0.00  0.00    -0.080 A 
ATOM      5  C6  UNL d   1       3.255  -0.673  -1.387  0.00  0.00     0.076 C 
ATOM      6  C7  UNL d   1       1.364   0.815  -0.674  0.00  0.00     0.002 A 
ATOM      7  C8  UNL d   1       0.125   1.020  -0.063  0.00  0.00     0.006 A 
ENDROOT
BRANCH   1   8
ATOM      8  C1  UNL d   1      -1.897   0.176   1.188  0.00  0.00     0.054 C 
ATOM      9  C   UNL d   1      -1.668   0.639   2.619  0.00  0.00     0.018 C 
ENDBRANCH   1   8
TORSDOF 1
ENDMDL
