MODEL 1
REMARK minimizedAffinity -4.50647497
REMARK minimizedRMSD -1
REMARK  1 active torsions:
REMARK  status: ('A' for Active; 'I' for Inactive)
REMARK    1  A    between atoms: C1_2  and  C2_3 
ROOT
ATOM      1  C2  UNL d   1      -0.082   0.078   0.360  0.00  0.00    -0.081 A 
ATOM      2  C3  UNL d   1       0.409  -1.229   0.245  0.00  0.00     0.006 A 
ATOM      3  C4  UNL d   1       1.616  -1.476  -0.412  0.00  0.00     0.002 A 
ATOM      4  C5  UNL d   1       2.356  -0.421  -0.959  0.00  0.00    -0.080 A 
ATOM      5  C6  UNL d   1       3.668  -0.670  -1.642  0.00  0.00     0.076 C 
ATOM      6  C7  UNL d   1       1.856   0.882  -0.860  0.00  0.00     0.002 A 
ATOM      7  C8  UNL d   1       0.649   1.129  -0.203  0.00  0.00     0.006 A 
ENDROOT
BRANCH   1   8
ATOM      8  C1  UNL d   1      -1.351   0.355   1.125  0.00  0.00     0.054 C 
ATOM      9  C   UNL d   1      -1.074   1.170   2.380  0.00  0.00     0.018 C 
ENDBRANCH   1   8
TORSDOF 1
ENDMDL
