MODEL 1
REMARK minimizedAffinity -5.85489273
REMARK minimizedRMSD -1
REMARK  1 active torsions:
REMARK  status: ('A' for Active; 'I' for Inactive)
REMARK    1  A    between atoms: C1_2  and  C2_3 
ROOT
ATOM      1  C2  UNL d   1      -0.714   0.474   0.093  0.00  0.00    -0.081 A 
ATOM      2  C3  UNL d   1      -0.212  -0.833   0.041  0.00  0.00     0.006 A 
ATOM      3  C4  UNL d   1       0.953  -1.116  -0.675  0.00  0.00     0.002 A 
ATOM      4  C5  UNL d   1       1.640  -0.097  -1.345  0.00  0.00    -0.080 A 
ATOM      5  C6  UNL d   1       2.908  -0.383  -2.092  0.00  0.00     0.076 C 
ATOM      6  C7  UNL d   1       1.129   1.204  -1.308  0.00  0.00     0.002 A 
ATOM      7  C8  UNL d   1      -0.037   1.488  -0.592  0.00  0.00     0.006 A 
ENDROOT
BRANCH   1   8
ATOM      8  C1  UNL d   1      -1.935   0.794   0.918  0.00  0.00     0.054 C 
ATOM      9  C   UNL d   1      -1.766   0.332   2.358  0.00  0.00     0.018 C 
ENDBRANCH   1   8
TORSDOF 1
ENDMDL
