MODEL 1
REMARK minimizedAffinity -3.54512405
REMARK minimizedRMSD -1
REMARK  1 active torsions:
REMARK  status: ('A' for Active; 'I' for Inactive)
REMARK    1  A    between atoms: N_2  and  C1_3 
ROOT
ATOM      1  C1  UNL d   1      -0.282  -0.096   0.002  0.00  0.00     0.143 A 
ATOM      2  C2  UNL d   1       0.236   1.178   0.257  0.00  0.00    -0.057 A 
ATOM      3  C3  UNL d   1       1.602   1.372   0.497  0.00  0.00     0.033 A 
ATOM      4  C4  UNL d   1       2.472   0.287   0.515  0.00  0.00    -0.042 A 
ATOM      5  C5  UNL d   1       1.975  -0.992   0.288  0.00  0.00     0.033 A 
ATOM      6  C6  UNL d   1       0.612  -1.178   0.042  0.00  0.00    -0.057 A 
ENDROOT
BRANCH   1   7
ATOM      7  N   UNL d   1      -1.644  -0.367  -0.147  0.00  0.00    -0.732 N 
ATOM      8  C   UNL d   1      -2.265  -0.330  -1.453  0.00  0.00     0.284 C 
ATOM      9  H3  UNL d   1      -1.953  -1.140   0.439  0.00  0.00     0.395 HD
ENDBRANCH   1   7
TORSDOF 1
ENDMDL
