MODEL 1
REMARK minimizedAffinity -3.8504045
REMARK minimizedRMSD -1
REMARK  1 active torsions:
REMARK  status: ('A' for Active; 'I' for Inactive)
REMARK    1  A    between atoms: N_2  and  C1_3 
ROOT
ATOM      1  C1  UNL d   1       1.079   0.761  -0.889  0.00  0.00     0.143 A 
ATOM      2  C2  UNL d   1       0.803   0.644   0.478  0.00  0.00    -0.057 A 
ATOM      3  C3  UNL d   1       1.783   0.218   1.383  0.00  0.00     0.033 A 
ATOM      4  C4  UNL d   1       3.053  -0.127   0.931  0.00  0.00    -0.042 A 
ATOM      5  C5  UNL d   1       3.342  -0.043  -0.426  0.00  0.00     0.033 A 
ATOM      6  C6  UNL d   1       2.361   0.390  -1.324  0.00  0.00    -0.057 A 
ENDROOT
BRANCH   1   7
ATOM      7  N   UNL d   1       0.120   1.084  -1.851  0.00  0.00    -0.732 N 
ATOM      8  C   UNL d   1      -1.268   0.723  -1.659  0.00  0.00     0.284 C 
ATOM      9  H3  UNL d   1       0.258   2.014  -2.240  0.00  0.00     0.395 HD
ENDBRANCH   1   7
TORSDOF 1
ENDMDL
