MODEL 1
REMARK minimizedAffinity -4.07003355
REMARK minimizedRMSD -1
REMARK  1 active torsions:
REMARK  status: ('A' for Active; 'I' for Inactive)
REMARK    1  A    between atoms: N_2  and  C1_3 
ROOT
ATOM      1  C1  UNL d   1       0.076  -0.313   0.492  0.00  0.00     0.143 A 
ATOM      2  C2  UNL d   1      -0.317   0.948   0.031  0.00  0.00    -0.057 A 
ATOM      3  C3  UNL d   1       0.617   1.970  -0.175  0.00  0.00     0.033 A 
ATOM      4  C4  UNL d   1       1.963   1.757   0.106  0.00  0.00    -0.042 A 
ATOM      5  C5  UNL d   1       2.373   0.519   0.589  0.00  0.00     0.033 A 
ATOM      6  C6  UNL d   1       1.436  -0.499   0.786  0.00  0.00    -0.057 A 
ENDROOT
BRANCH   1   7
ATOM      7  N   UNL d   1      -0.818  -1.338   0.810  0.00  0.00    -0.732 N 
ATOM      8  C   UNL d   1      -0.339  -2.594   1.347  0.00  0.00     0.284 C 
ATOM      9  H3  UNL d   1      -1.664  -0.991   1.256  0.00  0.00     0.395 HD
ENDBRANCH   1   7
TORSDOF 1
ENDMDL
