MODEL 1
REMARK minimizedAffinity -4.02756214
REMARK minimizedRMSD -1
REMARK  1 active torsions:
REMARK  status: ('A' for Active; 'I' for Inactive)
REMARK    1  A    between atoms: N_2  and  C1_3 
ROOT
ATOM      1  C1  UNL d   1       1.575   0.013   0.172  0.00  0.00     0.143 A 
ATOM      2  C2  UNL d   1       0.769  -1.116   0.355  0.00  0.00    -0.057 A 
ATOM      3  C3  UNL d   1      -0.628  -1.021   0.345  0.00  0.00     0.033 A 
ATOM      4  C4  UNL d   1      -1.246   0.215   0.180  0.00  0.00    -0.042 A 
ATOM      5  C5  UNL d   1      -0.464   1.354   0.021  0.00  0.00     0.033 A 
ATOM      6  C6  UNL d   1       0.930   1.251   0.026  0.00  0.00    -0.057 A 
ENDROOT
BRANCH   1   7
ATOM      7  N   UNL d   1       2.968  -0.002   0.270  0.00  0.00    -0.732 N 
ATOM      8  C   UNL d   1       3.616  -0.423   1.493  0.00  0.00     0.284 C 
ATOM      9  H3  UNL d   1       3.413  -0.348  -0.577  0.00  0.00     0.395 HD
ENDBRANCH   1   7
TORSDOF 1
ENDMDL
