MODEL 1
REMARK minimizedAffinity -4.09600163
REMARK minimizedRMSD -1
REMARK  1 active torsions:
REMARK  status: ('A' for Active; 'I' for Inactive)
REMARK    1  A    between atoms: N_2  and  C1_3 
ROOT
ATOM      1  C1  UNL d   1       1.270  -0.143   0.437  0.00  0.00     0.143 A 
ATOM      2  C2  UNL d   1       2.574   0.145   0.855  0.00  0.00    -0.057 A 
ATOM      3  C3  UNL d   1       3.261  -0.706   1.730  0.00  0.00     0.033 A 
ATOM      4  C4  UNL d   1       2.642  -1.848   2.227  0.00  0.00    -0.042 A 
ATOM      5  C5  UNL d   1       1.338  -2.141   1.846  0.00  0.00     0.033 A 
ATOM      6  C6  UNL d   1       0.660  -1.291   0.967  0.00  0.00    -0.057 A 
ENDROOT
BRANCH   1   7
ATOM      7  N   UNL d   1       0.500   0.713  -0.353  0.00  0.00    -0.732 N 
ATOM      8  C   UNL d   1      -0.937   0.558  -0.423  0.00  0.00     0.284 C 
ATOM      9  H3  UNL d   1       0.811   1.680  -0.295  0.00  0.00     0.395 HD
ENDBRANCH   1   7
TORSDOF 1
ENDMDL
