MODEL 1
REMARK minimizedAffinity -5.1959219
REMARK minimizedRMSD -1
REMARK  1 active torsions:
REMARK  status: ('A' for Active; 'I' for Inactive)
REMARK    1  A    between atoms: N_2  and  C1_3 
ROOT
ATOM      1  C1  UNL d   1       0.552  -0.317   0.764  0.00  0.00     0.143 A 
ATOM      2  C2  UNL d   1       0.767  -1.538   1.410  0.00  0.00    -0.057 A 
ATOM      3  C3  UNL d   1       2.060  -1.985   1.707  0.00  0.00     0.033 A 
ATOM      4  C4  UNL d   1       3.166  -1.228   1.336  0.00  0.00    -0.042 A 
ATOM      5  C5  UNL d   1       2.977  -0.022   0.670  0.00  0.00     0.033 A 
ATOM      6  C6  UNL d   1       1.683   0.422   0.382  0.00  0.00    -0.057 A 
ENDROOT
BRANCH   1   7
ATOM      7  N   UNL d   1      -0.705   0.136   0.353  0.00  0.00    -0.732 N 
ATOM      8  C   UNL d   1      -1.906  -0.568   0.747  0.00  0.00     0.284 C 
ATOM      9  H3  UNL d   1      -0.785   1.149   0.392  0.00  0.00     0.395 HD
ENDBRANCH   1   7
TORSDOF 1
ENDMDL
