MODEL 1
REMARK minimizedAffinity -1.47680616
REMARK minimizedRMSD -1
REMARK  1 active torsions:
REMARK  status: ('A' for Active; 'I' for Inactive)
REMARK    1  A    between atoms: N_2  and  C1_3 
ROOT
ATOM      1  C1  UNL d   1      -1.902   0.366  -0.998  0.00  0.00     0.143 A 
ATOM      2  C2  UNL d   1      -1.349  -0.806  -0.470  0.00  0.00    -0.057 A 
ATOM      3  C3  UNL d   1      -0.384  -0.761   0.544  0.00  0.00     0.033 A 
ATOM      4  C4  UNL d   1       0.066   0.462   1.030  0.00  0.00    -0.042 A 
ATOM      5  C5  UNL d   1      -0.452   1.640   0.503  0.00  0.00     0.033 A 
ATOM      6  C6  UNL d   1      -1.419   1.589  -0.505  0.00  0.00    -0.057 A 
ENDROOT
BRANCH   1   7
ATOM      7  N   UNL d   1      -2.792   0.390  -2.075  0.00  0.00    -0.732 N 
ATOM      8  C   UNL d   1      -2.424  -0.193  -3.347  0.00  0.00     0.284 C 
ATOM      9  H3  UNL d   1      -3.750   0.200  -1.791  0.00  0.00     0.395 HD
ENDBRANCH   1   7
TORSDOF 1
ENDMDL
