MODEL 1
REMARK minimizedAffinity -3.09508181
REMARK minimizedRMSD -1
REMARK  1 active torsions:
REMARK  status: ('A' for Active; 'I' for Inactive)
REMARK    1  A    between atoms: N_2  and  C1_3 
ROOT
ATOM      1  C1  UNL d   1      -1.647   0.033  -1.172  0.00  0.00     0.143 A 
ATOM      2  C2  UNL d   1      -0.463   0.778  -1.188  0.00  0.00    -0.057 A 
ATOM      3  C3  UNL d   1       0.563   0.530  -0.268  0.00  0.00     0.033 A 
ATOM      4  C4  UNL d   1       0.410  -0.451   0.706  0.00  0.00    -0.042 A 
ATOM      5  C5  UNL d   1      -0.768  -1.187   0.757  0.00  0.00     0.033 A 
ATOM      6  C6  UNL d   1      -1.787  -0.939  -0.169  0.00  0.00    -0.057 A 
ENDROOT
BRANCH   1   7
ATOM      7  N   UNL d   1      -2.743   0.297  -1.996  0.00  0.00    -0.732 N 
ATOM      8  C   UNL d   1      -2.793  -0.224  -3.345  0.00  0.00     0.284 C 
ATOM      9  H3  UNL d   1      -3.627   0.243  -1.496  0.00  0.00     0.395 HD
ENDBRANCH   1   7
TORSDOF 1
ENDMDL
