MODEL 1
REMARK minimizedAffinity -4.08035231
REMARK minimizedRMSD -1
REMARK  0 active torsions:
REMARK  status: ('A' for Active; 'I' for Inactive)
ROOT
ATOM      1  C   UNL d   1       2.482  -2.556  -0.198  0.00  0.00     0.020 A 
ATOM      2  C1  UNL d   1       1.751  -3.725   0.007  0.00  0.00     0.020 A 
ATOM      3  C2  UNL d   1       0.438  -3.654   0.478  0.00  0.00     0.034 A 
ATOM      4  C3  UNL d   1      -0.147  -2.411   0.745  0.00  0.00     0.017 A 
ATOM      5  C4  UNL d   1       0.588  -1.238   0.538  0.00  0.00     0.017 A 
ATOM      6  C5  UNL d   1       1.902  -1.315   0.066  0.00  0.00     0.034 A 
ATOM      7 Cl   UNL d   1      -0.067   0.332   0.844  0.00  0.00    -0.070 Cl
ATOM      8 Cl1  UNL d   1      -1.775  -2.397   1.324  0.00  0.00    -0.070 Cl
ENDROOT
TORSDOF 0
ENDMDL
