MODEL 1
REMARK minimizedAffinity -1.0235002
REMARK minimizedRMSD -1
REMARK  0 active torsions:
REMARK  status: ('A' for Active; 'I' for Inactive)
ROOT
ATOM      1  C   UNL d   1       0.580  -1.159   0.645  0.00  0.00     0.020 A 
ATOM      2  C1  UNL d   1       0.218  -2.496   0.486  0.00  0.00     0.020 A 
ATOM      3  C2  UNL d   1       1.195  -3.457   0.216  0.00  0.00     0.034 A 
ATOM      4  C3  UNL d   1       2.539  -3.082   0.105  0.00  0.00     0.017 A 
ATOM      5  C4  UNL d   1       2.901  -1.739   0.265  0.00  0.00     0.017 A 
ATOM      6  C5  UNL d   1       1.919  -0.782   0.535  0.00  0.00     0.034 A 
ATOM      7 Cl   UNL d   1       4.539  -1.201   0.142  0.00  0.00    -0.070 Cl
ATOM      8 Cl1  UNL d   1       3.694  -4.322  -0.230  0.00  0.00    -0.070 Cl
ENDROOT
TORSDOF 0
ENDMDL
