MODEL 1
REMARK minimizedAffinity -1.18972635
REMARK minimizedRMSD -1
REMARK  0 active torsions:
REMARK  status: ('A' for Active; 'I' for Inactive)
ROOT
ATOM      1  C   UNL d   1       0.786  -1.413   0.510  0.00  0.00     0.020 A 
ATOM      2  C1  UNL d   1       0.366  -2.718   0.253  0.00  0.00     0.020 A 
ATOM      3  C2  UNL d   1       1.308  -3.716  -0.005  0.00  0.00     0.034 A 
ATOM      4  C3  UNL d   1       2.674  -3.411  -0.005  0.00  0.00     0.017 A 
ATOM      5  C4  UNL d   1       3.095  -2.102   0.253  0.00  0.00     0.017 A 
ATOM      6  C5  UNL d   1       2.147  -1.106   0.511  0.00  0.00     0.034 A 
ATOM      7 Cl   UNL d   1       4.763  -1.649   0.270  0.00  0.00    -0.070 Cl
ATOM      8 Cl1  UNL d   1       3.784  -4.695  -0.331  0.00  0.00    -0.070 Cl
ENDROOT
TORSDOF 0
ENDMDL
