MODEL 1
REMARK minimizedAffinity -3.62556124
REMARK minimizedRMSD -1
REMARK  0 active torsions:
REMARK  status: ('A' for Active; 'I' for Inactive)
ROOT
ATOM      1  C   UNL d   1      -0.752  -1.210   0.929  0.00  0.00     0.020 A 
ATOM      2  C1  UNL d   1      -0.621  -2.584   0.731  0.00  0.00     0.020 A 
ATOM      3  C2  UNL d   1       0.622  -3.125   0.394  0.00  0.00     0.034 A 
ATOM      4  C3  UNL d   1       1.738  -2.291   0.254  0.00  0.00     0.017 A 
ATOM      5  C4  UNL d   1       1.604  -0.912   0.453  0.00  0.00     0.017 A 
ATOM      6  C5  UNL d   1       0.358  -0.376   0.790  0.00  0.00     0.034 A 
ATOM      7 Cl   UNL d   1       2.935   0.180   0.298  0.00  0.00    -0.070 Cl
ATOM      8 Cl1  UNL d   1       3.244  -3.028  -0.163  0.00  0.00    -0.070 Cl
ENDROOT
TORSDOF 0
ENDMDL
