MODEL 1
REMARK minimizedAffinity 0.00524857733
REMARK minimizedRMSD -1
REMARK  0 active torsions:
REMARK  status: ('A' for Active; 'I' for Inactive)
ROOT
ATOM      1  C   UNL d   1       3.239  -4.059  -0.931  0.00  0.00     0.020 A 
ATOM      2  C1  UNL d   1       4.172  -3.307  -0.216  0.00  0.00     0.020 A 
ATOM      3  C2  UNL d   1       3.739  -2.320   0.671  0.00  0.00     0.034 A 
ATOM      4  C3  UNL d   1       2.371  -2.081   0.847  0.00  0.00     0.017 A 
ATOM      5  C4  UNL d   1       1.437  -2.836   0.130  0.00  0.00     0.017 A 
ATOM      6  C5  UNL d   1       1.875  -3.823  -0.758  0.00  0.00     0.034 A 
ATOM      7 Cl   UNL d   1      -0.268  -2.599   0.294  0.00  0.00    -0.070 Cl
ATOM      8 Cl1  UNL d   1       1.908  -0.844   1.962  0.00  0.00    -0.070 Cl
ENDROOT
TORSDOF 0
ENDMDL
