MODEL 1
REMARK minimizedAffinity -2.48852897
REMARK minimizedRMSD -1
REMARK  0 active torsions:
REMARK  status: ('A' for Active; 'I' for Inactive)
ROOT
ATOM      1  C   UNL d   1       2.378  -3.827  -0.307  0.00  0.00     0.020 A 
ATOM      2  C1  UNL d   1       1.286  -3.907   0.557  0.00  0.00     0.020 A 
ATOM      3  C2  UNL d   1       0.583  -2.751   0.902  0.00  0.00     0.034 A 
ATOM      4  C3  UNL d   1       0.972  -1.510   0.384  0.00  0.00     0.017 A 
ATOM      5  C4  UNL d   1       2.068  -1.431  -0.483  0.00  0.00     0.017 A 
ATOM      6  C5  UNL d   1       2.768  -2.592  -0.825  0.00  0.00     0.034 A 
ATOM      7 Cl   UNL d   1       2.607   0.064  -1.162  0.00  0.00    -0.070 Cl
ATOM      8 Cl1  UNL d   1       0.057  -0.121   0.853  0.00  0.00    -0.070 Cl
ENDROOT
TORSDOF 0
ENDMDL
