MODEL 1
REMARK minimizedAffinity 0.16575487
REMARK minimizedRMSD -1
REMARK  0 active torsions:
REMARK  status: ('A' for Active; 'I' for Inactive)
ROOT
ATOM      1  C   UNL d   1       0.238  -1.910   1.473  0.00  0.00     0.020 A 
ATOM      2  C1  UNL d   1      -0.746  -1.909   0.485  0.00  0.00     0.020 A 
ATOM      3  C2  UNL d   1      -0.509  -2.542  -0.737  0.00  0.00     0.034 A 
ATOM      4  C3  UNL d   1       0.714  -3.180  -0.974  0.00  0.00     0.017 A 
ATOM      5  C4  UNL d   1       1.701  -3.181   0.018  0.00  0.00     0.017 A 
ATOM      6  C5  UNL d   1       1.459  -2.546   1.240  0.00  0.00     0.034 A 
ATOM      7 Cl   UNL d   1       3.235  -3.947  -0.201  0.00  0.00    -0.070 Cl
ATOM      8 Cl1  UNL d   1       0.938  -3.943  -2.508  0.00  0.00    -0.070 Cl
ENDROOT
TORSDOF 0
ENDMDL
