MODEL 1
REMARK minimizedAffinity 5.73452759
REMARK minimizedRMSD -1
REMARK  0 active torsions:
REMARK  status: ('A' for Active; 'I' for Inactive)
ROOT
ATOM      1  C   UNL d   1       0.510  -1.984  -0.385  0.00  0.00     0.020 A 
ATOM      2  C1  UNL d   1      -0.595  -2.099   0.458  0.00  0.00     0.020 A 
ATOM      3  C2  UNL d   1      -0.537  -1.593   1.758  0.00  0.00     0.034 A 
ATOM      4  C3  UNL d   1       0.628  -0.970   2.220  0.00  0.00     0.017 A 
ATOM      5  C4  UNL d   1       1.737  -0.855   1.374  0.00  0.00     0.017 A 
ATOM      6  C5  UNL d   1       1.673  -1.363   0.073  0.00  0.00     0.034 A 
ATOM      7 Cl   UNL d   1       3.209  -0.100   1.873  0.00  0.00    -0.070 Cl
ATOM      8 Cl1  UNL d   1       0.629  -0.368   3.840  0.00  0.00    -0.070 Cl
ENDROOT
TORSDOF 0
ENDMDL
