MODEL 1
REMARK minimizedAffinity 1.53512359
REMARK minimizedRMSD -1
REMARK  0 active torsions:
REMARK  status: ('A' for Active; 'I' for Inactive)
ROOT
ATOM      1  C   UNL d   1       0.095  -0.395   1.629  0.00  0.00     0.020 A 
ATOM      2  C1  UNL d   1      -0.930  -1.158   1.072  0.00  0.00     0.020 A 
ATOM      3  C2  UNL d   1      -0.648  -2.067   0.050  0.00  0.00     0.034 A 
ATOM      4  C3  UNL d   1       0.663  -2.214  -0.418  0.00  0.00     0.017 A 
ATOM      5  C4  UNL d   1       1.692  -1.448   0.142  0.00  0.00     0.017 A 
ATOM      6  C5  UNL d   1       1.403  -0.540   1.165  0.00  0.00     0.034 A 
ATOM      7 Cl   UNL d   1       3.333  -1.575  -0.383  0.00  0.00    -0.070 Cl
ATOM      8 Cl1  UNL d   1       0.940  -3.357  -1.684  0.00  0.00    -0.070 Cl
ENDROOT
TORSDOF 0
ENDMDL
