MODEL 1
REMARK minimizedAffinity 4.69681501
REMARK minimizedRMSD -1
REMARK  0 active torsions:
REMARK  status: ('A' for Active; 'I' for Inactive)
ROOT
ATOM      1  C   UNL d   1      -0.190  -2.882  -0.013  0.00  0.00     0.020 A 
ATOM      2  C1  UNL d   1      -0.750  -2.335   1.141  0.00  0.00     0.020 A 
ATOM      3  C2  UNL d   1       0.012  -1.494   1.956  0.00  0.00     0.034 A 
ATOM      4  C3  UNL d   1       1.338  -1.199   1.618  0.00  0.00     0.017 A 
ATOM      5  C4  UNL d   1       1.899  -1.749   0.460  0.00  0.00     0.017 A 
ATOM      6  C5  UNL d   1       1.132  -2.590  -0.352  0.00  0.00     0.034 A 
ATOM      7 Cl   UNL d   1       3.528  -1.430  -0.022  0.00  0.00    -0.070 Cl
ATOM      8 Cl1  UNL d   1       2.221  -0.152   2.671  0.00  0.00    -0.070 Cl
ENDROOT
TORSDOF 0
ENDMDL
