MODEL 1
REMARK minimizedAffinity 13.8134556
REMARK minimizedRMSD -1
REMARK  0 active torsions:
REMARK  status: ('A' for Active; 'I' for Inactive)
ROOT
ATOM      1  C   UNL d   1       2.217   1.118  -3.692  0.00  0.00     0.020 A 
ATOM      2  C1  UNL d   1       3.341   0.950  -4.500  0.00  0.00     0.020 A 
ATOM      3  C2  UNL d   1       4.498   0.371  -3.976  0.00  0.00     0.034 A 
ATOM      4  C3  UNL d   1       4.535  -0.042  -2.639  0.00  0.00     0.017 A 
ATOM      5  C4  UNL d   1       3.407   0.128  -1.828  0.00  0.00     0.017 A 
ATOM      6  C5  UNL d   1       2.251   0.708  -2.358  0.00  0.00     0.034 A 
ATOM      7 Cl   UNL d   1       3.377  -0.357  -0.169  0.00  0.00    -0.070 Cl
ATOM      8 Cl1  UNL d   1       6.000  -0.750  -2.058  0.00  0.00    -0.070 Cl
ENDROOT
TORSDOF 0
ENDMDL
