MODEL 1
REMARK minimizedAffinity 3.98159337
REMARK minimizedRMSD -1
REMARK  0 active torsions:
REMARK  status: ('A' for Active; 'I' for Inactive)
ROOT
ATOM      1  C   UNL d   1       5.907  -5.047   0.052  0.00  0.00     0.020 A 
ATOM      2  C1  UNL d   1       4.889  -5.998   0.111  0.00  0.00     0.020 A 
ATOM      3  C2  UNL d   1       3.554  -5.591   0.154  0.00  0.00     0.034 A 
ATOM      4  C3  UNL d   1       3.234  -4.228   0.138  0.00  0.00     0.017 A 
ATOM      5  C4  UNL d   1       4.256  -3.274   0.079  0.00  0.00     0.017 A 
ATOM      6  C5  UNL d   1       5.591  -3.688   0.036  0.00  0.00     0.034 A 
ATOM      7 Cl   UNL d   1       3.939  -1.576   0.056  0.00  0.00    -0.070 Cl
ATOM      8 Cl1  UNL d   1       1.562  -3.796   0.193  0.00  0.00    -0.070 Cl
ENDROOT
TORSDOF 0
ENDMDL
