MODEL 1
REMARK minimizedAffinity 0.725100338
REMARK minimizedRMSD -1
REMARK  0 active torsions:
REMARK  status: ('A' for Active; 'I' for Inactive)
ROOT
ATOM      1  C   UNL d   1      -0.705  -2.589   0.657  0.00  0.00     0.020 A 
ATOM      2  C1  UNL d   1      -0.644  -1.197   0.701  0.00  0.00     0.020 A 
ATOM      3  C2  UNL d   1       0.567  -0.543   0.461  0.00  0.00     0.034 A 
ATOM      4  C3  UNL d   1       1.721  -1.282   0.177  0.00  0.00     0.017 A 
ATOM      5  C4  UNL d   1       1.659  -2.679   0.133  0.00  0.00     0.017 A 
ATOM      6  C5  UNL d   1       0.444  -3.329   0.373  0.00  0.00     0.034 A 
ATOM      7 Cl   UNL d   1       3.041  -3.658  -0.211  0.00  0.00    -0.070 Cl
ATOM      8 Cl1  UNL d   1       3.184  -0.408  -0.109  0.00  0.00    -0.070 Cl
ENDROOT
TORSDOF 0
ENDMDL
