MODEL 1
REMARK minimizedAffinity 4.30072451
REMARK minimizedRMSD -1
REMARK  0 active torsions:
REMARK  status: ('A' for Active; 'I' for Inactive)
ROOT
ATOM      1  C   UNL d   1      -0.363  -3.227  -0.131  0.00  0.00     0.020 A 
ATOM      2  C1  UNL d   1      -0.397  -1.902   0.301  0.00  0.00     0.020 A 
ATOM      3  C2  UNL d   1       0.794  -1.222   0.565  0.00  0.00     0.034 A 
ATOM      4  C3  UNL d   1       2.024  -1.867   0.397  0.00  0.00     0.017 A 
ATOM      5  C4  UNL d   1       2.058  -3.197  -0.037  0.00  0.00     0.017 A 
ATOM      6  C5  UNL d   1       0.863  -3.873  -0.300  0.00  0.00     0.034 A 
ATOM      7 Cl   UNL d   1       3.538  -4.060  -0.267  0.00  0.00    -0.070 Cl
ATOM      8 Cl1  UNL d   1       3.458  -0.966   0.741  0.00  0.00    -0.070 Cl
ENDROOT
TORSDOF 0
ENDMDL
