MODEL 1
REMARK minimizedAffinity -0.216073573
REMARK minimizedRMSD -1
REMARK  0 active torsions:
REMARK  status: ('A' for Active; 'I' for Inactive)
ROOT
ATOM      1  C   UNL d   1      -0.208  -0.792   1.461  0.00  0.00     0.020 A 
ATOM      2  C1  UNL d   1      -0.474  -1.900   0.658  0.00  0.00     0.020 A 
ATOM      3  C2  UNL d   1       0.580  -2.637   0.114  0.00  0.00     0.034 A 
ATOM      4  C3  UNL d   1       1.905  -2.266   0.371  0.00  0.00     0.017 A 
ATOM      5  C4  UNL d   1       2.171  -1.154   1.177  0.00  0.00     0.017 A 
ATOM      6  C5  UNL d   1       1.112  -0.420   1.720  0.00  0.00     0.034 A 
ATOM      7 Cl   UNL d   1       3.779  -0.635   1.540  0.00  0.00    -0.070 Cl
ATOM      8 Cl1  UNL d   1       3.158  -3.223  -0.335  0.00  0.00    -0.070 Cl
ENDROOT
TORSDOF 0
ENDMDL
