MODEL 1
REMARK minimizedAffinity -2.33443737
REMARK minimizedRMSD -1
REMARK  0 active torsions:
REMARK  status: ('A' for Active; 'I' for Inactive)
ROOT
ATOM      1  C   UNL d   1       0.273  -2.837   0.117  0.00  0.00     0.020 A 
ATOM      2  C1  UNL d   1       0.654  -1.503   0.251  0.00  0.00     0.020 A 
ATOM      3  C2  UNL d   1       2.008  -1.166   0.312  0.00  0.00     0.034 A 
ATOM      4  C3  UNL d   1       2.986  -2.165   0.239  0.00  0.00     0.017 A 
ATOM      5  C4  UNL d   1       2.602  -3.505   0.105  0.00  0.00     0.017 A 
ATOM      6  C5  UNL d   1       1.245  -3.836   0.044  0.00  0.00     0.034 A 
ATOM      7 Cl   UNL d   1       3.751  -4.793   0.009  0.00  0.00    -0.070 Cl
ATOM      8 Cl1  UNL d   1       4.641  -1.677   0.321  0.00  0.00    -0.070 Cl
ENDROOT
TORSDOF 0
ENDMDL
