MODEL 1
REMARK minimizedAffinity 1.84611189
REMARK minimizedRMSD -1
REMARK  0 active torsions:
REMARK  status: ('A' for Active; 'I' for Inactive)
ROOT
ATOM      1  C   UNL d   1       0.547  -2.393   0.871  0.00  0.00     0.020 A 
ATOM      2  C1  UNL d   1       0.505  -3.719   0.440  0.00  0.00     0.020 A 
ATOM      3  C2  UNL d   1       1.690  -4.390   0.132  0.00  0.00     0.034 A 
ATOM      4  C3  UNL d   1       2.922  -3.736   0.253  0.00  0.00     0.017 A 
ATOM      5  C4  UNL d   1       2.962  -2.405   0.686  0.00  0.00     0.017 A 
ATOM      6  C5  UNL d   1       1.773  -1.738   0.994  0.00  0.00     0.034 A 
ATOM      7 Cl   UNL d   1       4.444  -1.532   0.861  0.00  0.00    -0.070 Cl
ATOM      8 Cl1  UNL d   1       4.348  -4.627  -0.145  0.00  0.00    -0.070 Cl
ENDROOT
TORSDOF 0
ENDMDL
