MODEL 1
REMARK minimizedAffinity 4.14694643
REMARK minimizedRMSD -1
REMARK  0 active torsions:
REMARK  status: ('A' for Active; 'I' for Inactive)
ROOT
ATOM      1  C   UNL d   1       0.452  -2.763   0.235  0.00  0.00     0.020 A 
ATOM      2  C1  UNL d   1       0.552  -4.124  -0.051  0.00  0.00     0.020 A 
ATOM      3  C2  UNL d   1       1.806  -4.736  -0.101  0.00  0.00     0.034 A 
ATOM      4  C3  UNL d   1       2.965  -3.988   0.135  0.00  0.00     0.017 A 
ATOM      5  C4  UNL d   1       2.863  -2.622   0.422  0.00  0.00     0.017 A 
ATOM      6  C5  UNL d   1       1.605  -2.013   0.471  0.00  0.00     0.034 A 
ATOM      7 Cl   UNL d   1       4.248  -1.633   0.724  0.00  0.00    -0.070 Cl
ATOM      8 Cl1  UNL d   1       4.482  -4.810   0.057  0.00  0.00    -0.070 Cl
ENDROOT
TORSDOF 0
ENDMDL
