MODEL 1
REMARK minimizedAffinity -0.365322024
REMARK minimizedRMSD -1
REMARK  0 active torsions:
REMARK  status: ('A' for Active; 'I' for Inactive)
ROOT
ATOM      1  C1  BNZ d   1       5.999  -0.028  -0.436  0.00  0.00     0.000 A 
ATOM      2  C2  BNZ d   1       6.000   1.341  -0.421  0.00  0.00     0.000 A 
ATOM      3  C3  BNZ d   1       6.000   2.028   0.760  0.00  0.00     0.000 A 
ATOM      4  C4  BNZ d   1       5.958   1.347   1.924  0.00  0.00     0.000 A 
ATOM      5  C5  BNZ d   1       5.947  -0.034   1.925  0.00  0.00     0.000 A 
ATOM      6  C6  BNZ d   1       5.987  -0.722   0.735  0.00  0.00     0.000 A 
ENDROOT
TORSDOF 0
ENDMDL
