MODEL 1
REMARK minimizedAffinity 5.08339453
REMARK minimizedRMSD -1
REMARK  0 active torsions:
REMARK  status: ('A' for Active; 'I' for Inactive)
ROOT
ATOM      1  C1  BNZ d   1       1.906  -3.703   0.630  0.00  0.00     0.000 A 
ATOM      2  C2  BNZ d   1       1.807  -2.493  -0.004  0.00  0.00     0.000 A 
ATOM      3  C3  BNZ d   1       1.898  -1.325   0.699  0.00  0.00     0.000 A 
ATOM      4  C4  BNZ d   1       2.046  -1.367   2.039  0.00  0.00     0.000 A 
ATOM      5  C5  BNZ d   1       2.138  -2.579   2.694  0.00  0.00     0.000 A 
ATOM      6  C6  BNZ d   1       2.085  -3.753   1.978  0.00  0.00     0.000 A 
ENDROOT
TORSDOF 0
ENDMDL
