MODEL 1
REMARK minimizedAffinity 4.1112566
REMARK minimizedRMSD -1
REMARK  0 active torsions:
REMARK  status: ('A' for Active; 'I' for Inactive)
ROOT
ATOM      1  C1  BNZ d   1      -1.000   2.219  -3.659  0.00  0.00     0.000 A 
ATOM      2  C2  BNZ d   1      -1.267   0.876  -3.654  0.00  0.00     0.000 A 
ATOM      3  C3  BNZ d   1      -1.132   0.140  -2.510  0.00  0.00     0.000 A 
ATOM      4  C4  BNZ d   1      -0.692   0.738  -1.385  0.00  0.00     0.000 A 
ATOM      5  C5  BNZ d   1      -0.411   2.090  -1.376  0.00  0.00     0.000 A 
ATOM      6  C6  BNZ d   1      -0.585   2.835  -2.519  0.00  0.00     0.000 A 
ENDROOT
TORSDOF 0
ENDMDL
