MODEL 1
REMARK minimizedAffinity 4.52285671
REMARK minimizedRMSD -1
REMARK  0 active torsions:
REMARK  status: ('A' for Active; 'I' for Inactive)
ROOT
ATOM      1  C1  BNZ d   1       2.966  -2.099   0.953  0.00  0.00     0.000 A 
ATOM      2  C2  BNZ d   1       3.140  -3.453   1.058  0.00  0.00     0.000 A 
ATOM      3  C3  BNZ d   1       2.086  -4.274   1.345  0.00  0.00     0.000 A 
ATOM      4  C4  BNZ d   1       0.869  -3.737   1.567  0.00  0.00     0.000 A 
ATOM      5  C5  BNZ d   1       0.679  -2.373   1.474  0.00  0.00     0.000 A 
ATOM      6  C6  BNZ d   1       1.735  -1.553   1.146  0.00  0.00     0.000 A 
ENDROOT
TORSDOF 0
ENDMDL
