MODEL 1
REMARK minimizedAffinity 4.69933319
REMARK minimizedRMSD -1
REMARK  0 active torsions:
REMARK  status: ('A' for Active; 'I' for Inactive)
ROOT
ATOM      1  C1  BNZ d   1       1.665  -2.962   1.551  0.00  0.00     0.000 A 
ATOM      2  C2  BNZ d   1       1.786  -2.346   0.334  0.00  0.00     0.000 A 
ATOM      3  C3  BNZ d   1       0.918  -1.358  -0.040  0.00  0.00     0.000 A 
ATOM      4  C4  BNZ d   1      -0.092  -1.016   0.785  0.00  0.00     0.000 A 
ATOM      5  C5  BNZ d   1      -0.233  -1.634   2.011  0.00  0.00     0.000 A 
ATOM      6  C6  BNZ d   1       0.666  -2.600   2.401  0.00  0.00     0.000 A 
ENDROOT
TORSDOF 0
ENDMDL
