MODEL 1
REMARK minimizedAffinity -0.856640279
REMARK minimizedRMSD -1
REMARK  0 active torsions:
REMARK  status: ('A' for Active; 'I' for Inactive)
ROOT
ATOM      1  C   UNL d   1      -1.139  -0.179   0.462  0.00  0.00     0.172 C 
ATOM      2  N   UNL d   1       0.245   0.222   0.361  0.00  0.00    -0.070 N 
ATOM      3  C1  UNL d   1       0.706   1.344  -0.275  0.00  0.00    -0.004 A 
ATOM      4  C2  UNL d   1       2.078   1.367  -0.147  0.00  0.00    -0.047 A 
ATOM      5  C3  UNL d   1       2.455   0.219   0.590  0.00  0.00    -0.047 A 
ATOM      6  C4  UNL d   1       1.300  -0.472   0.891  0.00  0.00    -0.004 A 
ENDROOT
TORSDOF 0
ENDMDL
