MODEL 1
REMARK minimizedAffinity -2.76070333
REMARK minimizedRMSD -1
REMARK  0 active torsions:
REMARK  status: ('A' for Active; 'I' for Inactive)
ROOT
ATOM      1  C   UNL d   1       1.572  -0.641   0.773  0.00  0.00     0.172 C 
ATOM      2  N   UNL d   1       0.418  -0.018   1.378  0.00  0.00    -0.070 N 
ATOM      3  C1  UNL d   1      -0.862  -0.068   0.893  0.00  0.00    -0.004 A 
ATOM      4  C2  UNL d   1      -1.667   0.647   1.753  0.00  0.00    -0.047 A 
ATOM      5  C3  UNL d   1      -0.843   1.144   2.790  0.00  0.00    -0.047 A 
ATOM      6  C4  UNL d   1       0.443   0.717   2.533  0.00  0.00    -0.004 A 
ENDROOT
TORSDOF 0
ENDMDL
