MODEL 1
REMARK minimizedAffinity -2.99541903
REMARK minimizedRMSD -1
REMARK  0 active torsions:
REMARK  status: ('A' for Active; 'I' for Inactive)
ROOT
ATOM      1  C   UNL d   1      -1.058   0.473   2.537  0.00  0.00     0.172 C 
ATOM      2  N   UNL d   1      -0.014   0.076   1.621  0.00  0.00    -0.070 N 
ATOM      3  C1  UNL d   1      -0.094   0.114   0.255  0.00  0.00    -0.004 A 
ATOM      4  C2  UNL d   1       1.104  -0.344  -0.251  0.00  0.00    -0.047 A 
ATOM      5  C3  UNL d   1       1.931  -0.670   0.850  0.00  0.00    -0.047 A 
ATOM      6  C4  UNL d   1       1.215  -0.400   1.996  0.00  0.00    -0.004 A 
ENDROOT
TORSDOF 0
ENDMDL
