MODEL 1
REMARK minimizedAffinity -2.99312449
REMARK minimizedRMSD -1
REMARK  0 active torsions:
REMARK  status: ('A' for Active; 'I' for Inactive)
ROOT
ATOM      1  C   UNL d   1       1.336   0.796  -3.350  0.00  0.00     0.172 C 
ATOM      2  N   UNL d   1       1.204   0.258  -2.016  0.00  0.00    -0.070 N 
ATOM      3  C1  UNL d   1       0.191   0.538  -1.139  0.00  0.00    -0.004 A 
ATOM      4  C2  UNL d   1       0.428  -0.171   0.019  0.00  0.00    -0.047 A 
ATOM      5  C3  UNL d   1       1.625  -0.902  -0.169  0.00  0.00    -0.047 A 
ATOM      6  C4  UNL d   1       2.084  -0.618  -1.438  0.00  0.00    -0.004 A 
ENDROOT
TORSDOF 0
ENDMDL
