MODEL 1
REMARK minimizedAffinity -2.64447594
REMARK minimizedRMSD -1
REMARK  0 active torsions:
REMARK  status: ('A' for Active; 'I' for Inactive)
ROOT
ATOM      1  C   UNL d   1       0.888  -0.818   0.386  0.00  0.00     0.172 C 
ATOM      2  N   UNL d   1      -0.169  -0.522   1.324  0.00  0.00    -0.070 N 
ATOM      3  C1  UNL d   1      -1.415  -0.055   1.000  0.00  0.00    -0.004 A 
ATOM      4  C2  UNL d   1      -2.126   0.098   2.171  0.00  0.00    -0.047 A 
ATOM      5  C3  UNL d   1      -1.277  -0.291   3.235  0.00  0.00    -0.047 A 
ATOM      6  C4  UNL d   1      -0.072  -0.670   2.682  0.00  0.00    -0.004 A 
ENDROOT
TORSDOF 0
ENDMDL
