MODEL 1
REMARK minimizedAffinity -0.976655006
REMARK minimizedRMSD -1
REMARK  0 active torsions:
REMARK  status: ('A' for Active; 'I' for Inactive)
ROOT
ATOM      1  C   UNL d   1       0.655  -0.155   0.584  0.00  0.00     0.172 C 
ATOM      2  N   UNL d   1      -0.012   0.085   1.842  0.00  0.00    -0.070 N 
ATOM      3  C1  UNL d   1       0.595   0.479   3.005  0.00  0.00    -0.004 A 
ATOM      4  C2  UNL d   1      -0.381   0.599   3.971  0.00  0.00    -0.047 A 
ATOM      5  C3  UNL d   1      -1.617   0.265   3.368  0.00  0.00    -0.047 A 
ATOM      6  C4  UNL d   1      -1.360  -0.049   2.050  0.00  0.00    -0.004 A 
ENDROOT
TORSDOF 0
ENDMDL
