MODEL 1
REMARK minimizedAffinity 7.64854574
REMARK minimizedRMSD -1
REMARK  0 active torsions:
REMARK  status: ('A' for Active; 'I' for Inactive)
ROOT
ATOM      1  C   UNL d   1      -0.013   1.882   2.424  0.00  0.00     0.077 C 
ATOM      2  C1  UNL d   1       0.087   2.494   1.058  0.00  0.00    -0.074 A 
ATOM      3  C2  UNL d   1       1.228   3.204   0.670  0.00  0.00    -0.005 A 
ATOM      4  C3  UNL d   1       1.311   3.759  -0.607  0.00  0.00     0.006 A 
ATOM      5  C4  UNL d   1       0.255   3.610  -1.507  0.00  0.00    -0.005 A 
ATOM      6  C5  UNL d   1      -0.893   2.903  -1.138  0.00  0.00    -0.074 A 
ATOM      7  C6  UNL d   1      -2.032   2.725  -2.097  0.00  0.00     0.077 C 
ATOM      8  C7  UNL d   1      -0.966   2.342   0.145  0.00  0.00    -0.001 A 
ENDROOT
TORSDOF 0
ENDMDL
