MODEL 1
REMARK minimizedAffinity 14.8560047
REMARK minimizedRMSD -1
REMARK  0 active torsions:
REMARK  status: ('A' for Active; 'I' for Inactive)
ROOT
ATOM      1  C   UNL d   1       1.586   1.815   1.976  0.00  0.00     0.077 C 
ATOM      2  C1  UNL d   1       0.706   2.443   0.937  0.00  0.00    -0.074 A 
ATOM      3  C2  UNL d   1      -0.676   2.226   0.939  0.00  0.00    -0.005 A 
ATOM      4  C3  UNL d   1      -1.483   2.824  -0.028  0.00  0.00     0.006 A 
ATOM      5  C4  UNL d   1      -0.918   3.645  -1.005  0.00  0.00    -0.005 A 
ATOM      6  C5  UNL d   1       0.461   3.875  -1.022  0.00  0.00    -0.074 A 
ATOM      7  C6  UNL d   1       1.083   4.763  -2.059  0.00  0.00     0.077 C 
ATOM      8  C7  UNL d   1       1.265   3.276  -0.042  0.00  0.00    -0.001 A 
ENDROOT
TORSDOF 0
ENDMDL
