MODEL 1
REMARK minimizedAffinity 8.26236725
REMARK minimizedRMSD -1
REMARK  0 active torsions:
REMARK  status: ('A' for Active; 'I' for Inactive)
ROOT
ATOM      1  C   UNL d   1       1.116   1.708   2.983  0.00  0.00     0.077 C 
ATOM      2  C1  UNL d   1       0.424   2.232   1.760  0.00  0.00    -0.074 A 
ATOM      3  C2  UNL d   1      -0.971   2.231   1.668  0.00  0.00    -0.005 A 
ATOM      4  C3  UNL d   1      -1.601   2.731   0.528  0.00  0.00     0.006 A 
ATOM      5  C4  UNL d   1      -0.843   3.236  -0.529  0.00  0.00    -0.005 A 
ATOM      6  C5  UNL d   1       0.553   3.246  -0.454  0.00  0.00    -0.074 A 
ATOM      7  C6  UNL d   1       1.383   3.794  -1.577  0.00  0.00     0.077 C 
ATOM      8  C7  UNL d   1       1.178   2.748   0.697  0.00  0.00    -0.001 A 
ENDROOT
TORSDOF 0
ENDMDL
