MODEL 1
REMARK minimizedAffinity 9.69065952
REMARK minimizedRMSD -1
REMARK  0 active torsions:
REMARK  status: ('A' for Active; 'I' for Inactive)
ROOT
ATOM      1  C   UNL d   1       1.178   3.274  -1.502  0.00  0.00     0.077 C 
ATOM      2  C1  UNL d   1       0.498   2.965  -0.201  0.00  0.00    -0.074 A 
ATOM      3  C2  UNL d   1       1.056   2.058   0.704  0.00  0.00    -0.005 A 
ATOM      4  C3  UNL d   1       0.417   1.787   1.914  0.00  0.00     0.006 A 
ATOM      5  C4  UNL d   1      -0.786   2.420   2.230  0.00  0.00    -0.005 A 
ATOM      6  C5  UNL d   1      -1.359   3.332   1.337  0.00  0.00    -0.074 A 
ATOM      7  C6  UNL d   1      -2.646   4.028   1.665  0.00  0.00     0.077 C 
ATOM      8  C7  UNL d   1      -0.707   3.603   0.127  0.00  0.00    -0.001 A 
ENDROOT
TORSDOF 0
ENDMDL
