MODEL 1
REMARK minimizedAffinity 12.2320395
REMARK minimizedRMSD -1
REMARK  0 active torsions:
REMARK  status: ('A' for Active; 'I' for Inactive)
ROOT
ATOM      1  C   UNL d   1      -1.906   5.999   0.678  0.00  0.00     0.077 C 
ATOM      2  C1  UNL d   1      -1.100   4.934  -0.004  0.00  0.00    -0.074 A 
ATOM      3  C2  UNL d   1      -0.527   5.160  -1.260  0.00  0.00    -0.005 A 
ATOM      4  C3  UNL d   1       0.228   4.163  -1.878  0.00  0.00     0.006 A 
ATOM      5  C4  UNL d   1       0.417   2.933  -1.248  0.00  0.00    -0.005 A 
ATOM      6  C5  UNL d   1      -0.148   2.689   0.008  0.00  0.00    -0.074 A 
ATOM      7  C6  UNL d   1       0.053   1.375   0.703  0.00  0.00     0.077 C 
ATOM      8  C7  UNL d   1      -0.900   3.698   0.626  0.00  0.00    -0.001 A 
ENDROOT
TORSDOF 0
ENDMDL
