MODEL 1
REMARK minimizedAffinity 10.5639191
REMARK minimizedRMSD -1
REMARK  0 active torsions:
REMARK  status: ('A' for Active; 'I' for Inactive)
ROOT
ATOM      1  C   UNL d   1       0.980   4.766  -1.640  0.00  0.00     0.077 C 
ATOM      2  C1  UNL d   1       0.298   3.662  -0.889  0.00  0.00    -0.074 A 
ATOM      3  C2  UNL d   1      -0.894   3.102  -1.360  0.00  0.00    -0.005 A 
ATOM      4  C3  UNL d   1      -1.512   2.069  -0.656  0.00  0.00     0.006 A 
ATOM      5  C4  UNL d   1      -0.946   1.586   0.525  0.00  0.00    -0.005 A 
ATOM      6  C5  UNL d   1       0.245   2.134   1.011  0.00  0.00    -0.074 A 
ATOM      7  C6  UNL d   1       0.872   1.620   2.273  0.00  0.00     0.077 C 
ATOM      8  C7  UNL d   1       0.864   3.167   0.294  0.00  0.00    -0.001 A 
ENDROOT
TORSDOF 0
ENDMDL
