MODEL 1
REMARK minimizedAffinity 10.7858629
REMARK minimizedRMSD -1
REMARK  0 active torsions:
REMARK  status: ('A' for Active; 'I' for Inactive)
ROOT
ATOM      1  C   UNL d   1      -0.001   2.999  -1.185  0.00  0.00     0.077 C 
ATOM      2  C1  UNL d   1      -0.795   3.093   0.084  0.00  0.00    -0.074 A 
ATOM      3  C2  UNL d   1      -0.834   2.026   0.988  0.00  0.00    -0.005 A 
ATOM      4  C3  UNL d   1      -1.569   2.131   2.169  0.00  0.00     0.006 A 
ATOM      5  C4  UNL d   1      -2.271   3.302   2.457  0.00  0.00    -0.005 A 
ATOM      6  C5  UNL d   1      -2.243   4.379   1.566  0.00  0.00    -0.074 A 
ATOM      7  C6  UNL d   1      -2.984   5.649   1.865  0.00  0.00     0.077 C 
ATOM      8  C7  UNL d   1      -1.496   4.268   0.385  0.00  0.00    -0.001 A 
ENDROOT
TORSDOF 0
ENDMDL
