MODEL 1
REMARK minimizedAffinity 10.4505959
REMARK minimizedRMSD -1
REMARK  0 active torsions:
REMARK  status: ('A' for Active; 'I' for Inactive)
ROOT
ATOM      1  C   UNL d   1       2.345   1.944   2.012  0.00  0.00     0.077 C 
ATOM      2  C1  UNL d   1       1.387   2.496   0.999  0.00  0.00    -0.074 A 
ATOM      3  C2  UNL d   1       0.063   2.048   0.942  0.00  0.00    -0.005 A 
ATOM      4  C3  UNL d   1      -0.819   2.578   0.001  0.00  0.00     0.006 A 
ATOM      5  C4  UNL d   1      -0.387   3.560  -0.892  0.00  0.00    -0.005 A 
ATOM      6  C5  UNL d   1       0.933   4.021  -0.850  0.00  0.00    -0.074 A 
ATOM      7  C6  UNL d   1       1.410   5.082  -1.796  0.00  0.00     0.077 C 
ATOM      8  C7  UNL d   1       1.811   3.488   0.104  0.00  0.00    -0.001 A 
ENDROOT
TORSDOF 0
ENDMDL
