MODEL 1
REMARK minimizedAffinity 10.847331
REMARK minimizedRMSD -1
REMARK  0 active torsions:
REMARK  status: ('A' for Active; 'I' for Inactive)
ROOT
ATOM      1  C   UNL d   1       0.030  -3.263  -3.948  0.00  0.00     0.077 C 
ATOM      2  C1  UNL d   1       0.890  -4.043  -2.998  0.00  0.00    -0.074 A 
ATOM      3  C2  UNL d   1       0.486  -4.261  -1.677  0.00  0.00    -0.005 A 
ATOM      4  C3  UNL d   1       1.292  -4.996  -0.808  0.00  0.00     0.006 A 
ATOM      5  C4  UNL d   1       2.508  -5.519  -1.250  0.00  0.00    -0.005 A 
ATOM      6  C5  UNL d   1       2.928  -5.311  -2.568  0.00  0.00    -0.074 A 
ATOM      7  C6  UNL d   1       4.227  -5.875  -3.062  0.00  0.00     0.077 C 
ATOM      8  C7  UNL d   1       2.109  -4.578  -3.437  0.00  0.00    -0.001 A 
ENDROOT
TORSDOF 0
ENDMDL
