MODEL 1
REMARK minimizedAffinity -4.14580345
REMARK minimizedRMSD -1
REMARK  3 active torsions:
REMARK  status: ('A' for Active; 'I' for Inactive)
REMARK    1  A    between atoms: C3'_2  and  C2'_3 
REMARK    2  A    between atoms: C2'_3  and  C1'_4 
REMARK    3  A    between atoms: C1'_4  and  C1_5 
ROOT
ATOM      1  C1  N4B d   1      -0.093  -0.005   0.104  0.00  0.00    -0.075 A 
ATOM      2  C2  N4B d   1       0.685   0.664   1.074  0.00  0.00     0.002 A 
ATOM      3  C3  N4B d   1       0.098   1.126   2.226  0.00  0.00     0.002 A 
ATOM      4  C4  N4B d   1      -1.263   0.947   2.421  0.00  0.00    -0.004 A 
ATOM      5  C5  N4B d   1      -2.003   0.276   1.492  0.00  0.00     0.002 A 
ATOM      6  C6  N4B d   1      -1.425  -0.196   0.331  0.00  0.00     0.002 A 
ENDROOT
BRANCH   1   7
ATOM      7  C1' N4B d   1       0.488  -0.452  -1.210  0.00  0.00     0.057 C 
BRANCH   7   8
ATOM      8  C2' N4B d   1       0.748   0.771  -2.084  0.00  0.00     0.009 C 
BRANCH   8   9
ATOM      9  C3' N4B d   1       1.419   0.400  -3.395  0.00  0.00     0.004 C 
ATOM     10  C4' N4B d   1       1.512   1.555  -4.347  0.00  0.00     0.003 C 
ENDBRANCH   8   9
ENDBRANCH   7   8
ENDBRANCH   1   7
TORSDOF 3
ENDMDL
