MODEL 1
REMARK minimizedAffinity 2.18958426
REMARK minimizedRMSD -1
REMARK  3 active torsions:
REMARK  status: ('A' for Active; 'I' for Inactive)
REMARK    1  A    between atoms: C3'_2  and  C2'_3 
REMARK    2  A    between atoms: C2'_3  and  C1'_4 
REMARK    3  A    between atoms: C1'_4  and  C1_5 
ROOT
ATOM      1  C1  N4B d   1       1.828  -1.074  -2.423  0.00  0.00    -0.075 A 
ATOM      2  C2  N4B d   1       0.959  -0.377  -3.292  0.00  0.00     0.002 A 
ATOM      3  C3  N4B d   1       1.469   0.525  -4.193  0.00  0.00     0.002 A 
ATOM      4  C4  N4B d   1       2.835   0.760  -4.231  0.00  0.00    -0.004 A 
ATOM      5  C5  N4B d   1       3.670   0.064  -3.406  0.00  0.00     0.002 A 
ATOM      6  C6  N4B d   1       3.172  -0.849  -2.498  0.00  0.00     0.002 A 
ENDROOT
BRANCH   1   7
ATOM      7  C1' N4B d   1       1.310  -2.006  -1.362  0.00  0.00     0.057 C 
BRANCH   7   8
ATOM      8  C2' N4B d   1       2.147  -1.841  -0.098  0.00  0.00     0.009 C 
BRANCH   8   9
ATOM      9  C3' N4B d   1       1.563  -0.796   0.838  0.00  0.00     0.004 C 
ATOM     10  C4' N4B d   1       2.320  -0.685   2.128  0.00  0.00     0.003 C 
ENDBRANCH   8   9
ENDBRANCH   7   8
ENDBRANCH   1   7
TORSDOF 3
ENDMDL
