MODEL 1
REMARK minimizedAffinity 4.00693369
REMARK minimizedRMSD -1
REMARK  3 active torsions:
REMARK  status: ('A' for Active; 'I' for Inactive)
REMARK    1  A    between atoms: C3'_2  and  C2'_3 
REMARK    2  A    between atoms: C2'_3  and  C1'_4 
REMARK    3  A    between atoms: C1'_4  and  C1_5 
ROOT
ATOM      1  C1  N4B d   1       0.424  -2.772  -5.234  0.00  0.00    -0.075 A 
ATOM      2  C2  N4B d   1      -0.570  -3.713  -4.886  0.00  0.00     0.002 A 
ATOM      3  C3  N4B d   1      -0.292  -5.056  -4.939  0.00  0.00     0.002 A 
ATOM      4  C4  N4B d   1       0.962  -5.482  -5.352  0.00  0.00    -0.004 A 
ATOM      5  C5  N4B d   1       1.924  -4.566  -5.662  0.00  0.00     0.002 A 
ATOM      6  C6  N4B d   1       1.660  -3.212  -5.609  0.00  0.00     0.002 A 
ENDROOT
BRANCH   1   7
ATOM      7  C1' N4B d   1       0.141  -1.295  -5.274  0.00  0.00     0.057 C 
BRANCH   7   8
ATOM      8  C2' N4B d   1       0.549  -0.670  -3.944  0.00  0.00     0.009 C 
BRANCH   8   9
ATOM      9  C3' N4B d   1       1.283   0.646  -4.135  0.00  0.00     0.004 C 
ATOM     10  C4' N4B d   1       2.013   1.089  -2.903  0.00  0.00     0.003 C 
ENDBRANCH   8   9
ENDBRANCH   7   8
ENDBRANCH   1   7
TORSDOF 3
ENDMDL
