MODEL 1
REMARK minimizedAffinity 1.77926242
REMARK minimizedRMSD -1
REMARK  3 active torsions:
REMARK  status: ('A' for Active; 'I' for Inactive)
REMARK    1  A    between atoms: C3'_2  and  C2'_3 
REMARK    2  A    between atoms: C2'_3  and  C1'_4 
REMARK    3  A    between atoms: C1'_4  and  C1_5 
ROOT
ATOM      1  C1  N4B d   1       3.602  -0.323  -3.600  0.00  0.00    -0.075 A 
ATOM      2  C2  N4B d   1       3.668  -1.292  -4.626  0.00  0.00     0.002 A 
ATOM      3  C3  N4B d   1       4.497  -2.379  -4.490  0.00  0.00     0.002 A 
ATOM      4  C4  N4B d   1       5.278  -2.508  -3.352  0.00  0.00    -0.004 A 
ATOM      5  C5  N4B d   1       5.189  -1.581  -2.355  0.00  0.00     0.002 A 
ATOM      6  C6  N4B d   1       4.358  -0.486  -2.476  0.00  0.00     0.002 A 
ENDROOT
BRANCH   1   7
ATOM      7  C1' N4B d   1       2.776   0.926  -3.741  0.00  0.00     0.057 C 
BRANCH   7   8
ATOM      8  C2' N4B d   1       1.704   0.942  -2.655  0.00  0.00     0.009 C 
BRANCH   8   9
ATOM      9  C3' N4B d   1       0.516   0.068  -3.017  0.00  0.00     0.004 C 
ATOM     10  C4' N4B d   1       0.223   0.065  -4.488  0.00  0.00     0.003 C 
ENDBRANCH   8   9
ENDBRANCH   7   8
ENDBRANCH   1   7
TORSDOF 3
ENDMDL
