MODEL 1
REMARK minimizedAffinity 3.72797799
REMARK minimizedRMSD -1
REMARK  0 active torsions:
REMARK  status: ('A' for Active; 'I' for Inactive)
ROOT
ATOM      1  C   UNL d   1      -5.240  -2.080  -5.464  0.00  0.00     0.077 C 
ATOM      2  C1  UNL d   1      -4.661  -3.451  -5.644  0.00  0.00    -0.074 A 
ATOM      3  C2  UNL d   1      -5.489  -4.564  -5.824  0.00  0.00    -0.005 A 
ATOM      4  C3  UNL d   1      -4.935  -5.832  -6.000  0.00  0.00     0.006 A 
ATOM      5  C4  UNL d   1      -3.550  -6.000  -5.998  0.00  0.00    -0.005 A 
ATOM      6  C5  UNL d   1      -2.706  -4.899  -5.820  0.00  0.00    -0.074 A 
ATOM      7  C6  UNL d   1      -1.215  -5.061  -5.825  0.00  0.00     0.077 C 
ATOM      8  C7  UNL d   1      -3.270  -3.627  -5.651  0.00  0.00    -0.001 A 
ENDROOT
TORSDOF 0
ENDMDL
