MODEL 1
REMARK minimizedAffinity -1.5150249
REMARK minimizedRMSD -1
REMARK  0 active torsions:
REMARK  status: ('A' for Active; 'I' for Inactive)
ROOT
ATOM      1  C   UNL d   1      -0.517  -5.963  -5.997  0.00  0.00     0.077 C 
ATOM      2  C1  UNL d   1      -1.707  -5.459  -5.236  0.00  0.00    -0.074 A 
ATOM      3  C2  UNL d   1      -1.688  -5.382  -3.840  0.00  0.00    -0.005 A 
ATOM      4  C3  UNL d   1      -2.799  -4.901  -3.146  0.00  0.00     0.006 A 
ATOM      5  C4  UNL d   1      -3.938  -4.494  -3.841  0.00  0.00    -0.005 A 
ATOM      6  C5  UNL d   1      -3.976  -4.562  -5.237  0.00  0.00    -0.074 A 
ATOM      7  C6  UNL d   1      -5.189  -4.119  -5.999  0.00  0.00     0.077 C 
ATOM      8  C7  UNL d   1      -2.853  -5.040  -5.927  0.00  0.00    -0.001 A 
ENDROOT
TORSDOF 0
ENDMDL
