MODEL 1
REMARK minimizedAffinity -0.823901892
REMARK minimizedRMSD -1
REMARK  0 active torsions:
REMARK  status: ('A' for Active; 'I' for Inactive)
ROOT
ATOM      1  C   UNL d   1      -1.277  -5.975  -6.000  0.00  0.00     0.077 C 
ATOM      2  C1  UNL d   1      -2.371  -5.288  -5.239  0.00  0.00    -0.074 A 
ATOM      3  C2  UNL d   1      -2.315  -5.171  -3.847  0.00  0.00    -0.005 A 
ATOM      4  C3  UNL d   1      -3.336  -4.520  -3.154  0.00  0.00     0.006 A 
ATOM      5  C4  UNL d   1      -4.422  -3.982  -3.845  0.00  0.00    -0.005 A 
ATOM      6  C5  UNL d   1      -4.495  -4.089  -5.238  0.00  0.00    -0.074 A 
ATOM      7  C6  UNL d   1      -5.650  -3.507  -5.997  0.00  0.00     0.077 C 
ATOM      8  C7  UNL d   1      -3.462  -4.737  -5.927  0.00  0.00    -0.001 A 
ENDROOT
TORSDOF 0
ENDMDL
