MODEL 1
REMARK minimizedAffinity -0.123361856
REMARK minimizedRMSD -1
REMARK  0 active torsions:
REMARK  status: ('A' for Active; 'I' for Inactive)
ROOT
ATOM      1  C   UNL d   1      -2.385  -4.156  -2.090  0.00  0.00     0.077 C 
ATOM      2  C1  UNL d   1      -2.642  -4.720  -3.456  0.00  0.00    -0.074 A 
ATOM      3  C2  UNL d   1      -1.666  -5.473  -4.118  0.00  0.00    -0.005 A 
ATOM      4  C3  UNL d   1      -1.922  -5.999  -5.384  0.00  0.00     0.006 A 
ATOM      5  C4  UNL d   1      -3.154  -5.779  -6.000  0.00  0.00    -0.005 A 
ATOM      6  C5  UNL d   1      -4.143  -5.030  -5.353  0.00  0.00    -0.074 A 
ATOM      7  C6  UNL d   1      -5.476  -4.793  -5.997  0.00  0.00     0.077 C 
ATOM      8  C7  UNL d   1      -3.880  -4.511  -4.078  0.00  0.00    -0.001 A 
ENDROOT
TORSDOF 0
ENDMDL
