MODEL 1
REMARK minimizedAffinity -0.676353276
REMARK minimizedRMSD -1
REMARK  0 active torsions:
REMARK  status: ('A' for Active; 'I' for Inactive)
ROOT
ATOM      1  C   UNL d   1      -1.774  -5.071  -4.878  0.00  0.00     0.077 C 
ATOM      2  C1  UNL d   1      -3.244  -4.933  -5.141  0.00  0.00    -0.074 A 
ATOM      3  C2  UNL d   1      -3.962  -5.955  -5.770  0.00  0.00    -0.005 A 
ATOM      4  C3  UNL d   1      -5.330  -5.816  -6.000  0.00  0.00     0.006 A 
ATOM      5  C4  UNL d   1      -5.995  -4.655  -5.603  0.00  0.00    -0.005 A 
ATOM      6  C5  UNL d   1      -5.294  -3.622  -4.971  0.00  0.00    -0.074 A 
ATOM      7  C6  UNL d   1      -5.995  -2.372  -4.529  0.00  0.00     0.077 C 
ATOM      8  C7  UNL d   1      -3.921  -3.773  -4.738  0.00  0.00    -0.001 A 
ENDROOT
TORSDOF 0
ENDMDL
