MODEL 1
REMARK minimizedAffinity 0.961638629
REMARK minimizedRMSD -1
REMARK  0 active torsions:
REMARK  status: ('A' for Active; 'I' for Inactive)
ROOT
ATOM      1  C   UNL d   1       0.976   0.513   0.526  0.00  0.00     0.077 C 
ATOM      2  C1  UNL d   1      -0.176  -0.386   0.864  0.00  0.00    -0.074 A 
ATOM      3  C2  UNL d   1      -0.393  -1.574   0.158  0.00  0.00    -0.005 A 
ATOM      4  C3  UNL d   1      -1.463  -2.404   0.491  0.00  0.00     0.006 A 
ATOM      5  C4  UNL d   1      -2.326  -2.056   1.530  0.00  0.00    -0.005 A 
ATOM      6  C5  UNL d   1      -2.125  -0.872   2.248  0.00  0.00    -0.074 A 
ATOM      7  C6  UNL d   1      -3.038  -0.488   3.374  0.00  0.00     0.077 C 
ATOM      8  C7  UNL d   1      -1.043  -0.047   1.912  0.00  0.00    -0.001 A 
ENDROOT
TORSDOF 0
ENDMDL
