MODEL 1
REMARK minimizedAffinity 0.568570316
REMARK minimizedRMSD -1
REMARK  0 active torsions:
REMARK  status: ('A' for Active; 'I' for Inactive)
ROOT
ATOM      1  C   UNL d   1      -5.158  -2.912  -6.000  0.00  0.00     0.077 C 
ATOM      2  C1  UNL d   1      -4.058  -3.600  -5.246  0.00  0.00    -0.074 A 
ATOM      3  C2  UNL d   1      -3.933  -3.451  -3.861  0.00  0.00    -0.005 A 
ATOM      4  C3  UNL d   1      -2.911  -4.104  -3.173  0.00  0.00     0.006 A 
ATOM      5  C4  UNL d   1      -2.005  -4.912  -3.861  0.00  0.00    -0.005 A 
ATOM      6  C5  UNL d   1      -2.115  -5.074  -5.246  0.00  0.00    -0.074 A 
ATOM      7  C6  UNL d   1      -1.156  -5.946  -6.000  0.00  0.00     0.077 C 
ATOM      8  C7  UNL d   1      -3.149  -4.420  -5.930  0.00  0.00    -0.001 A 
ENDROOT
TORSDOF 0
ENDMDL
