MODEL 1
REMARK minimizedAffinity -2.8129344
REMARK minimizedRMSD -1
REMARK  0 active torsions:
REMARK  status: ('A' for Active; 'I' for Inactive)
ROOT
ATOM      1  C   UNL d   1      -2.250  -5.802  -2.262  0.00  0.00     0.077 C 
ATOM      2  C1  UNL d   1      -2.731  -5.242  -3.568  0.00  0.00    -0.074 A 
ATOM      3  C2  UNL d   1      -1.983  -5.405  -4.739  0.00  0.00    -0.005 A 
ATOM      4  C3  UNL d   1      -2.447  -4.887  -5.948  0.00  0.00     0.006 A 
ATOM      5  C4  UNL d   1      -3.662  -4.202  -5.998  0.00  0.00    -0.005 A 
ATOM      6  C5  UNL d   1      -4.424  -4.030  -4.838  0.00  0.00    -0.074 A 
ATOM      7  C6  UNL d   1      -5.736  -3.304  -4.877  0.00  0.00     0.077 C 
ATOM      8  C7  UNL d   1      -3.954  -4.559  -3.629  0.00  0.00    -0.001 A 
ENDROOT
TORSDOF 0
ENDMDL
