MODEL 1
REMARK minimizedAffinity -0.591838479
REMARK minimizedRMSD -1
REMARK  0 active torsions:
REMARK  status: ('A' for Active; 'I' for Inactive)
ROOT
ATOM      1  C   UNL d   1      -2.484  -5.968  -1.839  0.00  0.00     0.077 C 
ATOM      2  C1  UNL d   1      -2.324  -5.615  -3.288  0.00  0.00    -0.074 A 
ATOM      3  C2  UNL d   1      -1.183  -6.000  -3.999  0.00  0.00    -0.005 A 
ATOM      4  C3  UNL d   1      -1.052  -5.673  -5.349  0.00  0.00     0.006 A 
ATOM      5  C4  UNL d   1      -2.060  -4.960  -6.000  0.00  0.00    -0.005 A 
ATOM      6  C5  UNL d   1      -3.208  -4.568  -5.305  0.00  0.00    -0.074 A 
ATOM      7  C6  UNL d   1      -4.305  -3.810  -5.992  0.00  0.00     0.077 C 
ATOM      8  C7  UNL d   1      -3.335  -4.906  -3.951  0.00  0.00    -0.001 A 
ENDROOT
TORSDOF 0
ENDMDL
