MODEL 1
REMARK minimizedAffinity -2.888134
REMARK minimizedRMSD -1
REMARK  0 active torsions:
REMARK  status: ('A' for Active; 'I' for Inactive)
ROOT
ATOM      1  C   UNL d   1      -1.738  -4.930  -5.279  0.00  0.00     0.077 C 
ATOM      2  C1  UNL d   1      -3.222  -4.865  -5.068  0.00  0.00    -0.074 A 
ATOM      3  C2  UNL d   1      -3.942  -5.998  -4.676  0.00  0.00    -0.005 A 
ATOM      4  C3  UNL d   1      -5.320  -5.920  -4.474  0.00  0.00     0.006 A 
ATOM      5  C4  UNL d   1      -5.990  -4.710  -4.663  0.00  0.00    -0.005 A 
ATOM      6  C5  UNL d   1      -5.286  -3.567  -5.055  0.00  0.00    -0.074 A 
ATOM      7  C6  UNL d   1      -5.990  -2.257  -5.252  0.00  0.00     0.077 C 
ATOM      8  C7  UNL d   1      -3.901  -3.652  -5.248  0.00  0.00    -0.001 A 
ENDROOT
TORSDOF 0
ENDMDL
