MODEL 1
REMARK minimizedAffinity -2.16488123
REMARK minimizedRMSD -1
REMARK  0 active torsions:
REMARK  status: ('A' for Active; 'I' for Inactive)
ROOT
ATOM      1  C   UNL d   1      -1.727  -4.841  -5.264  0.00  0.00     0.077 C 
ATOM      2  C1  UNL d   1      -3.203  -4.815  -5.527  0.00  0.00    -0.074 A 
ATOM      3  C2  UNL d   1      -3.916  -6.000  -5.735  0.00  0.00    -0.005 A 
ATOM      4  C3  UNL d   1      -5.291  -5.961  -5.970  0.00  0.00     0.006 A 
ATOM      5  C4  UNL d   1      -5.964  -4.739  -5.999  0.00  0.00    -0.005 A 
ATOM      6  C5  UNL d   1      -5.268  -3.545  -5.792  0.00  0.00    -0.074 A 
ATOM      7  C6  UNL d   1      -5.978  -2.224  -5.810  0.00  0.00     0.077 C 
ATOM      8  C7  UNL d   1      -3.888  -3.592  -5.550  0.00  0.00    -0.001 A 
ENDROOT
TORSDOF 0
ENDMDL
