MODEL 1
REMARK minimizedAffinity -2.20065188
REMARK minimizedRMSD -1
REMARK  0 active torsions:
REMARK  status: ('A' for Active; 'I' for Inactive)
ROOT
ATOM      1  C   UNL d   1      -5.999  -2.123  -4.833  0.00  0.00     0.077 C 
ATOM      2  C1  UNL d   1      -5.344  -3.455  -5.046  0.00  0.00    -0.074 A 
ATOM      3  C2  UNL d   1      -5.969  -4.451  -5.803  0.00  0.00    -0.005 A 
ATOM      4  C3  UNL d   1      -5.343  -5.682  -6.000  0.00  0.00     0.006 A 
ATOM      5  C4  UNL d   1      -4.087  -5.928  -5.444  0.00  0.00    -0.005 A 
ATOM      6  C5  UNL d   1      -3.446  -4.944  -4.685  0.00  0.00    -0.074 A 
ATOM      7  C6  UNL d   1      -2.092  -5.189  -4.089  0.00  0.00     0.077 C 
ATOM      8  C7  UNL d   1      -4.079  -3.707  -4.497  0.00  0.00    -0.001 A 
ENDROOT
TORSDOF 0
ENDMDL
