MODEL 1
REMARK minimizedAffinity 5.93178082
REMARK minimizedRMSD -1
REMARK  0 active torsions:
REMARK  status: ('A' for Active; 'I' for Inactive)
ROOT
ATOM      1  C   UNL d   1      -5.998  -1.201  -3.374  0.00  0.00     0.077 C 
ATOM      2  C1  UNL d   1      -5.434  -2.377  -4.114  0.00  0.00    -0.074 A 
ATOM      3  C2  UNL d   1      -6.000  -2.807  -5.318  0.00  0.00    -0.005 A 
ATOM      4  C3  UNL d   1      -5.459  -3.897  -6.000  0.00  0.00     0.006 A 
ATOM      5  C4  UNL d   1      -4.348  -4.567  -5.485  0.00  0.00    -0.005 A 
ATOM      6  C5  UNL d   1      -3.768  -4.151  -4.283  0.00  0.00    -0.074 A 
ATOM      7  C6  UNL d   1      -2.568  -4.853  -3.720  0.00  0.00     0.077 C 
ATOM      8  C7  UNL d   1      -4.314  -3.050  -3.607  0.00  0.00    -0.001 A 
ENDROOT
TORSDOF 0
ENDMDL
