MODEL 1
REMARK minimizedAffinity -3.08225393
REMARK minimizedRMSD -1
REMARK  0 active torsions:
REMARK  status: ('A' for Active; 'I' for Inactive)
ROOT
ATOM      1  C   UNL d   1      -1.730  -5.031  -5.050  0.00  0.00     0.077 C 
ATOM      2  C1  UNL d   1      -3.212  -4.936  -5.260  0.00  0.00    -0.074 A 
ATOM      3  C2  UNL d   1      -3.928  -5.999  -5.820  0.00  0.00    -0.005 A 
ATOM      4  C3  UNL d   1      -5.308  -5.899  -6.000  0.00  0.00     0.006 A 
ATOM      5  C4  UNL d   1      -5.984  -4.738  -5.624  0.00  0.00    -0.005 A 
ATOM      6  C5  UNL d   1      -5.284  -3.665  -5.062  0.00  0.00    -0.074 A 
ATOM      7  C6  UNL d   1      -5.997  -2.414  -4.643  0.00  0.00     0.077 C 
ATOM      8  C7  UNL d   1      -3.899  -3.775  -4.878  0.00  0.00    -0.001 A 
ENDROOT
TORSDOF 0
ENDMDL
