MODEL 1
REMARK minimizedAffinity -2.73744154
REMARK minimizedRMSD -1
REMARK  0 active torsions:
REMARK  status: ('A' for Active; 'I' for Inactive)
ROOT
ATOM      1  C   UNL d   1      -1.112  -5.958  -5.246  0.00  0.00     0.077 C 
ATOM      2  C1  UNL d   1      -2.442  -5.284  -5.410  0.00  0.00    -0.074 A 
ATOM      3  C2  UNL d   1      -3.558  -5.996  -5.862  0.00  0.00    -0.005 A 
ATOM      4  C3  UNL d   1      -4.791  -5.358  -6.000  0.00  0.00     0.006 A 
ATOM      5  C4  UNL d   1      -4.920  -4.004  -5.687  0.00  0.00    -0.005 A 
ATOM      6  C5  UNL d   1      -3.816  -3.276  -5.233  0.00  0.00    -0.074 A 
ATOM      7  C6  UNL d   1      -3.940  -1.823  -4.883  0.00  0.00     0.077 C 
ATOM      8  C7  UNL d   1      -2.582  -3.926  -5.090  0.00  0.00    -0.001 A 
ENDROOT
TORSDOF 0
ENDMDL
