MODEL 1
REMARK minimizedAffinity -1.63988292
REMARK minimizedRMSD -1
REMARK  0 active torsions:
REMARK  status: ('A' for Active; 'I' for Inactive)
ROOT
ATOM      1  C   UNL d   1      -4.975  -2.108  -4.882  0.00  0.00     0.077 C 
ATOM      2  C1  UNL d   1      -4.471  -3.470  -5.258  0.00  0.00    -0.074 A 
ATOM      3  C2  UNL d   1      -5.356  -4.482  -5.644  0.00  0.00    -0.005 A 
ATOM      4  C3  UNL d   1      -4.872  -5.741  -6.000  0.00  0.00     0.006 A 
ATOM      5  C4  UNL d   1      -3.501  -6.000  -5.973  0.00  0.00    -0.005 A 
ATOM      6  C5  UNL d   1      -2.601  -5.000  -5.590  0.00  0.00    -0.074 A 
ATOM      7  C6  UNL d   1      -1.124  -5.259  -5.566  0.00  0.00     0.077 C 
ATOM      8  C7  UNL d   1      -3.095  -3.736  -5.241  0.00  0.00    -0.001 A 
ENDROOT
TORSDOF 0
ENDMDL
