MODEL 1
REMARK minimizedAffinity 1.69353569
REMARK minimizedRMSD -1
REMARK  0 active torsions:
REMARK  status: ('A' for Active; 'I' for Inactive)
ROOT
ATOM      1  C   UNL d   1      -0.846  -4.783  -6.000  0.00  0.00     0.077 C 
ATOM      2  C1  UNL d   1      -2.346  -4.794  -5.991  0.00  0.00    -0.074 A 
ATOM      3  C2  UNL d   1      -3.055  -6.000  -5.970  0.00  0.00    -0.005 A 
ATOM      4  C3  UNL d   1      -4.450  -5.995  -5.952  0.00  0.00     0.006 A 
ATOM      5  C4  UNL d   1      -5.149  -4.787  -5.954  0.00  0.00    -0.005 A 
ATOM      6  C5  UNL d   1      -4.456  -3.572  -5.974  0.00  0.00    -0.074 A 
ATOM      7  C6  UNL d   1      -5.192  -2.265  -5.968  0.00  0.00     0.077 C 
ATOM      8  C7  UNL d   1      -3.055  -3.585  -5.985  0.00  0.00    -0.001 A 
ENDROOT
TORSDOF 0
ENDMDL
