MODEL 1
REMARK minimizedAffinity 2.72533655
REMARK minimizedRMSD -1
REMARK  0 active torsions:
REMARK  status: ('A' for Active; 'I' for Inactive)
ROOT
ATOM      1  C   UNL d   1      -2.141   1.084  -4.791  0.00  0.00     0.077 C 
ATOM      2  C1  UNL d   1      -3.348   0.193  -4.816  0.00  0.00    -0.074 A 
ATOM      3  C2  UNL d   1      -3.737  -0.457  -5.991  0.00  0.00    -0.005 A 
ATOM      4  C3  UNL d   1      -4.856  -1.289  -5.997  0.00  0.00     0.006 A 
ATOM      5  C4  UNL d   1      -5.596  -1.480  -4.829  0.00  0.00    -0.005 A 
ATOM      6  C5  UNL d   1      -5.221  -0.839  -3.644  0.00  0.00    -0.074 A 
ATOM      7  C6  UNL d   1      -6.000  -1.040  -2.378  0.00  0.00     0.077 C 
ATOM      8  C7  UNL d   1      -4.092  -0.009  -3.645  0.00  0.00    -0.001 A 
ENDROOT
TORSDOF 0
ENDMDL
