MODEL 1
REMARK minimizedAffinity 7.4846611
REMARK minimizedRMSD -1
REMARK  2 active torsions:
REMARK  status: ('A' for Active; 'I' for Inactive)
REMARK    1  A    between atoms: C1_2  and  C2_3 
REMARK    2  A    between atoms: C2_3  and  C3_4 
ROOT
ATOM      1  C3  UNL d   1       1.715   4.309   2.934  0.00  0.00    -0.075 A 
ATOM      2  C4  UNL d   1       2.576   4.642   3.991  0.00  0.00     0.002 A 
ATOM      3  C5  UNL d   1       2.143   5.478   5.020  0.00  0.00     0.002 A 
ATOM      4  C6  UNL d   1       0.851   5.999   5.002  0.00  0.00    -0.004 A 
ATOM      5  C7  UNL d   1      -0.007   5.688   3.950  0.00  0.00     0.002 A 
ATOM      6  C8  UNL d   1       0.422   4.849   2.920  0.00  0.00     0.002 A 
ENDROOT
BRANCH   1   7
ATOM      7  C2  UNL d   1       2.168   3.382   1.832  0.00  0.00     0.056 C 
BRANCH   7   8
ATOM      8  C1  UNL d   1       3.655   3.019   1.893  0.00  0.00     0.007 C 
ATOM      9  C   UNL d   1       4.270   2.770   0.522  0.00  0.00     0.009 C 
ENDBRANCH   7   8
ENDBRANCH   1   7
TORSDOF 2
ENDMDL
