MODEL 1
REMARK minimizedAffinity -2.47569776
REMARK minimizedRMSD -1
REMARK  2 active torsions:
REMARK  status: ('A' for Active; 'I' for Inactive)
REMARK    1  A    between atoms: C1_2  and  C2_3 
REMARK    2  A    between atoms: C2_3  and  C3_4 
ROOT
ATOM      1  C3  UNL d   1       4.008  -3.946   2.341  0.00  0.00    -0.075 A 
ATOM      2  C4  UNL d   1       2.854  -3.199   2.061  0.00  0.00     0.002 A 
ATOM      3  C5  UNL d   1       2.461  -2.970   0.743  0.00  0.00     0.002 A 
ATOM      4  C6  UNL d   1       3.218  -3.475  -0.311  0.00  0.00    -0.004 A 
ATOM      5  C7  UNL d   1       4.375  -4.205  -0.046  0.00  0.00     0.002 A 
ATOM      6  C8  UNL d   1       4.769  -4.439   1.273  0.00  0.00     0.002 A 
ENDROOT
BRANCH   1   7
ATOM      7  C2  UNL d   1       4.423  -4.222   3.766  0.00  0.00     0.056 C 
BRANCH   7   8
ATOM      8  C1  UNL d   1       4.487  -2.972   4.650  0.00  0.00     0.007 C 
ATOM      9  C   UNL d   1       5.548  -3.061   5.739  0.00  0.00     0.009 C 
ENDBRANCH   7   8
ENDBRANCH   1   7
TORSDOF 2
ENDMDL
