MODEL 1
REMARK minimizedAffinity 3.68102884
REMARK minimizedRMSD -1
REMARK  2 active torsions:
REMARK  status: ('A' for Active; 'I' for Inactive)
REMARK    1  A    between atoms: C1_2  and  C2_3 
REMARK    2  A    between atoms: C2_3  and  C3_4 
ROOT
ATOM      1  C3  UNL d   1       4.337  -3.285   3.623  0.00  0.00    -0.075 A 
ATOM      2  C4  UNL d   1       4.835  -2.245   4.423  0.00  0.00     0.002 A 
ATOM      3  C5  UNL d   1       5.529  -2.527   5.600  0.00  0.00     0.002 A 
ATOM      4  C6  UNL d   1       5.726  -3.848   5.997  0.00  0.00    -0.004 A 
ATOM      5  C7  UNL d   1       5.221  -4.888   5.219  0.00  0.00     0.002 A 
ATOM      6  C8  UNL d   1       4.530  -4.609   4.039  0.00  0.00     0.002 A 
ENDROOT
BRANCH   1   7
ATOM      7  C2  UNL d   1       3.611  -2.987   2.334  0.00  0.00     0.056 C 
BRANCH   7   8
ATOM      8  C1  UNL d   1       2.342  -2.147   2.512  0.00  0.00     0.007 C 
ATOM      9  C   UNL d   1       1.553  -1.970   1.221  0.00  0.00     0.009 C 
ENDBRANCH   7   8
ENDBRANCH   1   7
TORSDOF 2
ENDMDL
