MODEL 1
REMARK minimizedAffinity 0.495054066
REMARK minimizedRMSD -1
REMARK  2 active torsions:
REMARK  status: ('A' for Active; 'I' for Inactive)
REMARK    1  A    between atoms: C1_2  and  C2_3 
REMARK    2  A    between atoms: C2_3  and  C3_4 
ROOT
ATOM      1  C3  UNL d   1       4.590  -4.270   3.376  0.00  0.00    -0.075 A 
ATOM      2  C4  UNL d   1       4.907  -3.005   3.891  0.00  0.00     0.002 A 
ATOM      3  C5  UNL d   1       5.388  -2.871   5.194  0.00  0.00     0.002 A 
ATOM      4  C6  UNL d   1       5.549  -3.996   6.000  0.00  0.00    -0.004 A 
ATOM      5  C7  UNL d   1       5.222  -5.256   5.503  0.00  0.00     0.002 A 
ATOM      6  C8  UNL d   1       4.745  -5.394   4.199  0.00  0.00     0.002 A 
ENDROOT
BRANCH   1   7
ATOM      7  C2  UNL d   1       4.097  -4.425   1.957  0.00  0.00     0.056 C 
BRANCH   7   8
ATOM      8  C1  UNL d   1       4.485  -3.267   1.032  0.00  0.00     0.007 C 
ATOM      9  C   UNL d   1       3.358  -2.839   0.102  0.00  0.00     0.009 C 
ENDBRANCH   7   8
ENDBRANCH   1   7
TORSDOF 2
ENDMDL
