MODEL 1
REMARK minimizedAffinity -0.65198189
REMARK minimizedRMSD -1
REMARK  2 active torsions:
REMARK  status: ('A' for Active; 'I' for Inactive)
REMARK    1  A    between atoms: C1_2  and  C2_3 
REMARK    2  A    between atoms: C2_3  and  C3_4 
ROOT
ATOM      1  C3  UNL d   1      -3.043   0.810  -2.864  0.00  0.00    -0.075 A 
ATOM      2  C4  UNL d   1      -3.390   0.170  -4.062  0.00  0.00     0.002 A 
ATOM      3  C5  UNL d   1      -4.236  -0.939  -4.054  0.00  0.00     0.002 A 
ATOM      4  C6  UNL d   1      -4.736  -1.428  -2.849  0.00  0.00    -0.004 A 
ATOM      5  C7  UNL d   1      -4.385  -0.810  -1.651  0.00  0.00     0.002 A 
ATOM      6  C8  UNL d   1      -3.542   0.302  -1.657  0.00  0.00     0.002 A 
ENDROOT
BRANCH   1   7
ATOM      7  C2  UNL d   1      -2.151   2.029  -2.869  0.00  0.00     0.056 C 
BRANCH   7   8
ATOM      8  C1  UNL d   1      -2.182   2.818  -4.182  0.00  0.00     0.007 C 
ATOM      9  C   UNL d   1      -3.475   3.595  -4.386  0.00  0.00     0.009 C 
ENDBRANCH   7   8
ENDBRANCH   1   7
TORSDOF 2
ENDMDL
