MODEL 1
REMARK minimizedAffinity -3.14862776
REMARK minimizedRMSD -1
REMARK  0 active torsions:
REMARK  status: ('A' for Active; 'I' for Inactive)
ROOT
ATOM      1  C   UNL d   1      -2.989  -1.553   1.231  0.00  0.00    -0.002 A 
ATOM      2  C1  UNL d   1      -2.081  -2.558   1.532  0.00  0.00     0.010 A 
ATOM      3  C2  UNL d   1      -0.717  -2.376   1.300  0.00  0.00     0.041 A 
ATOM      4  C3  UNL d   1      -0.276  -1.153   0.755  0.00  0.00    -0.075 A 
ATOM      5  S   UNL d   1       1.348  -0.705   0.386  0.00  0.00     0.015 SA
ATOM      6  C4  UNL d   1       0.874   0.831  -0.179  0.00  0.00     0.022 A 
ATOM      7  C5  UNL d   1      -0.486   1.015  -0.096  0.00  0.00     0.026 A 
ATOM      8  C6  UNL d   1      -1.171  -0.126   0.444  0.00  0.00    -0.082 A 
ATOM      9  C7  UNL d   1      -2.548  -0.342   0.691  0.00  0.00     0.045 A 
ENDROOT
TORSDOF 0
ENDMDL
