MODEL 1
REMARK minimizedAffinity -2.71234417
REMARK minimizedRMSD -1
REMARK  0 active torsions:
REMARK  status: ('A' for Active; 'I' for Inactive)
ROOT
ATOM      1  C   UNL d   1       3.592   1.112  -3.550  0.00  0.00    -0.002 A 
ATOM      2  C1  UNL d   1       4.067   1.479  -2.299  0.00  0.00     0.010 A 
ATOM      3  C2  UNL d   1       3.183   1.855  -1.285  0.00  0.00     0.041 A 
ATOM      4  C3  UNL d   1       1.800   1.853  -1.552  0.00  0.00    -0.075 A 
ATOM      5  S   UNL d   1       0.530   2.274  -0.464  0.00  0.00     0.015 SA
ATOM      6  C4  UNL d   1      -0.673   1.975  -1.634  0.00  0.00     0.022 A 
ATOM      7  C5  UNL d   1      -0.137   1.564  -2.831  0.00  0.00     0.026 A 
ATOM      8  C6  UNL d   1       1.297   1.486  -2.804  0.00  0.00    -0.082 A 
ATOM      9  C7  UNL d   1       2.219   1.111  -3.811  0.00  0.00     0.045 A 
ENDROOT
TORSDOF 0
ENDMDL
