MODEL 1
REMARK minimizedAffinity -2.61467195
REMARK minimizedRMSD -1
REMARK  0 active torsions:
REMARK  status: ('A' for Active; 'I' for Inactive)
ROOT
ATOM      1  C   UNL d   1      -0.216   0.566  -0.615  0.00  0.00    -0.002 A 
ATOM      2  C1  UNL d   1       1.032   0.138  -0.184  0.00  0.00     0.010 A 
ATOM      3  C2  UNL d   1       1.148  -0.923   0.716  0.00  0.00     0.041 A 
ATOM      4  C3  UNL d   1      -0.023  -1.555   1.179  0.00  0.00    -0.075 A 
ATOM      5  S   UNL d   1      -0.125  -2.875   2.283  0.00  0.00     0.015 SA
ATOM      6  C4  UNL d   1      -1.827  -2.903   2.208  0.00  0.00     0.022 A 
ATOM      7  C5  UNL d   1      -2.323  -1.936   1.366  0.00  0.00     0.026 A 
ATOM      8  C6  UNL d   1      -1.291  -1.143   0.759  0.00  0.00    -0.082 A 
ATOM      9  C7  UNL d   1      -1.375  -0.063  -0.153  0.00  0.00     0.045 A 
ENDROOT
TORSDOF 0
ENDMDL
