MODEL 1
REMARK minimizedAffinity -5.01788712
REMARK minimizedRMSD -1
REMARK  0 active torsions:
REMARK  status: ('A' for Active; 'I' for Inactive)
ROOT
ATOM      1  C   UNL d   1      -2.380  -2.254   1.605  0.00  0.00    -0.002 A 
ATOM      2  C1  UNL d   1      -2.875  -1.159   2.298  0.00  0.00     0.010 A 
ATOM      3  C2  UNL d   1      -2.391   0.125   2.036  0.00  0.00     0.041 A 
ATOM      4  C3  UNL d   1      -1.394   0.291   1.055  0.00  0.00    -0.075 A 
ATOM      5  S   UNL d   1      -0.653   1.768   0.565  0.00  0.00     0.015 SA
ATOM      6  C4  UNL d   1       0.337   0.980  -0.577  0.00  0.00     0.022 A 
ATOM      7  C5  UNL d   1       0.121  -0.377  -0.597  0.00  0.00     0.026 A 
ATOM      8  C6  UNL d   1      -0.881  -0.797   0.343  0.00  0.00    -0.082 A 
ATOM      9  C7  UNL d   1      -1.391  -2.086   0.632  0.00  0.00     0.045 A 
ENDROOT
TORSDOF 0
ENDMDL
