MODEL 1
REMARK minimizedAffinity 6.0281415
REMARK minimizedRMSD -1
REMARK  0 active torsions:
REMARK  status: ('A' for Active; 'I' for Inactive)
ROOT
ATOM      1  C   UNL d   1      -0.879  -2.973   2.751  0.00  0.00    -0.002 A 
ATOM      2  C1  UNL d   1       0.363  -3.064   2.139  0.00  0.00     0.010 A 
ATOM      3  C2  UNL d   1       0.788  -2.078   1.247  0.00  0.00     0.041 A 
ATOM      4  C3  UNL d   1      -0.063  -0.987   0.979  0.00  0.00    -0.075 A 
ATOM      5  S   UNL d   1       0.248   0.339  -0.077  0.00  0.00     0.015 SA
ATOM      6  C4  UNL d   1      -1.260   1.058   0.261  0.00  0.00     0.022 A 
ATOM      7  C5  UNL d   1      -1.996   0.317   1.155  0.00  0.00     0.026 A 
ATOM      8  C6  UNL d   1      -1.318  -0.874   1.585  0.00  0.00    -0.082 A 
ATOM      9  C7  UNL d   1      -1.721  -1.890   2.484  0.00  0.00     0.045 A 
ENDROOT
TORSDOF 0
ENDMDL
