MODEL 1
REMARK minimizedAffinity 1.51286948
REMARK minimizedRMSD -1
REMARK  0 active torsions:
REMARK  status: ('A' for Active; 'I' for Inactive)
ROOT
ATOM      1  C   UNL d   1      -2.723  -1.081   0.320  0.00  0.00    -0.002 A 
ATOM      2  C1  UNL d   1      -3.215   0.129   0.788  0.00  0.00     0.010 A 
ATOM      3  C2  UNL d   1      -2.409   1.269   0.794  0.00  0.00     0.041 A 
ATOM      4  C3  UNL d   1      -1.088   1.172   0.315  0.00  0.00    -0.075 A 
ATOM      5  S   UNL d   1       0.081   2.436   0.225  0.00  0.00     0.015 SA
ATOM      6  C4  UNL d   1       1.261   1.401  -0.438  0.00  0.00     0.022 A 
ATOM      7  C5  UNL d   1       0.791   0.118  -0.594  0.00  0.00     0.026 A 
ATOM      8  C6  UNL d   1      -0.570  -0.035  -0.163  0.00  0.00    -0.082 A 
ATOM      9  C7  UNL d   1      -1.412  -1.173  -0.155  0.00  0.00     0.045 A 
ENDROOT
TORSDOF 0
ENDMDL
