MODEL 1
REMARK minimizedAffinity -1.52258134
REMARK minimizedRMSD -1
REMARK  0 active torsions:
REMARK  status: ('A' for Active; 'I' for Inactive)
ROOT
ATOM      1  C   UNL d   1      -1.072  -2.402   1.187  0.00  0.00    -0.002 A 
ATOM      2  C1  UNL d   1      -2.093  -1.500   0.925  0.00  0.00     0.010 A 
ATOM      3  C2  UNL d   1      -1.808  -0.236   0.405  0.00  0.00     0.041 A 
ATOM      4  C3  UNL d   1      -0.466   0.109   0.148  0.00  0.00    -0.075 A 
ATOM      5  S   UNL d   1       0.121   1.599  -0.489  0.00  0.00     0.015 SA
ATOM      6  C4  UNL d   1       1.741   1.073  -0.430  0.00  0.00     0.022 A 
ATOM      7  C5  UNL d   1       1.850  -0.206   0.062  0.00  0.00     0.026 A 
ATOM      8  C6  UNL d   1       0.579  -0.783   0.403  0.00  0.00    -0.082 A 
ATOM      9  C7  UNL d   1       0.258  -2.057   0.931  0.00  0.00     0.045 A 
ENDROOT
TORSDOF 0
ENDMDL
