MODEL 1
REMARK minimizedAffinity -1.47478294
REMARK minimizedRMSD -1
REMARK  0 active torsions:
REMARK  status: ('A' for Active; 'I' for Inactive)
ROOT
ATOM      1  C   UNL d   1      -0.229   2.345   0.337  0.00  0.00    -0.002 A 
ATOM      2  C1  UNL d   1      -1.540   2.027   0.665  0.00  0.00     0.010 A 
ATOM      3  C2  UNL d   1      -1.930   0.695   0.819  0.00  0.00     0.041 A 
ATOM      4  C3  UNL d   1      -0.971  -0.321   0.639  0.00  0.00    -0.075 A 
ATOM      5  S   UNL d   1      -1.220  -2.021   0.778  0.00  0.00     0.015 SA
ATOM      6  C4  UNL d   1       0.407  -2.365   0.406  0.00  0.00     0.022 A 
ATOM      7  C5  UNL d   1       1.137  -1.222   0.178  0.00  0.00     0.026 A 
ATOM      8  C6  UNL d   1       0.355  -0.025   0.309  0.00  0.00    -0.082 A 
ATOM      9  C7  UNL d   1       0.719   1.335   0.158  0.00  0.00     0.045 A 
ENDROOT
TORSDOF 0
ENDMDL
