MODEL 1
REMARK minimizedAffinity -3.42597079
REMARK minimizedRMSD -1
REMARK  0 active torsions:
REMARK  status: ('A' for Active; 'I' for Inactive)
ROOT
ATOM      1  C   UNL d   1       0.001   2.058   0.418  0.00  0.00    -0.002 A 
ATOM      2  C1  UNL d   1      -1.191   1.730   1.048  0.00  0.00     0.010 A 
ATOM      3  C2  UNL d   1      -1.472   0.407   1.392  0.00  0.00     0.041 A 
ATOM      4  C3  UNL d   1      -0.525  -0.592   1.092  0.00  0.00    -0.075 A 
ATOM      5  S   UNL d   1      -0.653  -2.279   1.421  0.00  0.00     0.015 SA
ATOM      6  C4  UNL d   1       0.872  -2.605   0.734  0.00  0.00     0.022 A 
ATOM      7  C5  UNL d   1       1.478  -1.466   0.260  0.00  0.00     0.026 A 
ATOM      8  C6  UNL d   1       0.683  -0.286   0.459  0.00  0.00    -0.082 A 
ATOM      9  C7  UNL d   1       0.938   1.065   0.121  0.00  0.00     0.045 A 
ENDROOT
TORSDOF 0
ENDMDL
