MODEL 1
REMARK minimizedAffinity -3.59845281
REMARK minimizedRMSD -1
REMARK  0 active torsions:
REMARK  status: ('A' for Active; 'I' for Inactive)
ROOT
ATOM      1  C   UNL d   1      -2.110  -2.420   1.004  0.00  0.00    -0.002 A 
ATOM      2  C1  UNL d   1      -1.026  -2.821   1.772  0.00  0.00     0.010 A 
ATOM      3  C2  UNL d   1       0.193  -2.146   1.687  0.00  0.00     0.041 A 
ATOM      4  C3  UNL d   1       0.305  -1.049   0.810  0.00  0.00    -0.075 A 
ATOM      5  S   UNL d   1       1.700  -0.072   0.541  0.00  0.00     0.015 SA
ATOM      6  C4  UNL d   1       0.889   0.902  -0.600  0.00  0.00     0.022 A 
ATOM      7  C5  UNL d   1      -0.414   0.505  -0.783  0.00  0.00     0.026 A 
ATOM      8  C6  UNL d   1      -0.773  -0.626   0.027  0.00  0.00    -0.082 A 
ATOM      9  C7  UNL d   1      -1.995  -1.332   0.135  0.00  0.00     0.045 A 
ENDROOT
TORSDOF 0
ENDMDL
