MODEL 1
REMARK minimizedAffinity -2.68297243
REMARK minimizedRMSD -1
REMARK  0 active torsions:
REMARK  status: ('A' for Active; 'I' for Inactive)
ROOT
ATOM      1  C   UNL d   1       0.041   1.985  -0.162  0.00  0.00    -0.002 A 
ATOM      2  C1  UNL d   1      -1.023   1.982   0.729  0.00  0.00     0.010 A 
ATOM      3  C2  UNL d   1      -1.490   0.784   1.274  0.00  0.00     0.041 A 
ATOM      4  C3  UNL d   1      -0.862  -0.422   0.906  0.00  0.00    -0.075 A 
ATOM      5  S   UNL d   1      -1.262  -2.009   1.448  0.00  0.00     0.015 SA
ATOM      6  C4  UNL d   1      -0.029  -2.721   0.510  0.00  0.00     0.022 A 
ATOM      7  C5  UNL d   1       0.680  -1.785  -0.205  0.00  0.00     0.026 A 
ATOM      8  C6  UNL d   1       0.212  -0.444   0.012  0.00  0.00    -0.082 A 
ATOM      9  C7  UNL d   1       0.662   0.786  -0.524  0.00  0.00     0.045 A 
ENDROOT
TORSDOF 0
ENDMDL
