MODEL 1
REMARK minimizedAffinity -0.498334676
REMARK minimizedRMSD -1
REMARK  0 active torsions:
REMARK  status: ('A' for Active; 'I' for Inactive)
ROOT
ATOM      1  C   UNL d   1      -0.055  -2.796   1.179  0.00  0.00    -0.002 A 
ATOM      2  C1  UNL d   1       1.166  -2.568   0.561  0.00  0.00     0.010 A 
ATOM      3  C2  UNL d   1       1.498  -1.296   0.090  0.00  0.00     0.041 A 
ATOM      4  C3  UNL d   1       0.573  -0.246   0.254  0.00  0.00    -0.075 A 
ATOM      5  S   UNL d   1       0.764   1.394  -0.242  0.00  0.00     0.015 SA
ATOM      6  C4  UNL d   1      -0.771   1.831   0.355  0.00  0.00     0.022 A 
ATOM      7  C5  UNL d   1      -1.427   0.765   0.923  0.00  0.00     0.026 A 
ATOM      8  C6  UNL d   1      -0.662  -0.450   0.875  0.00  0.00    -0.082 A 
ATOM      9  C7  UNL d   1      -0.970  -1.751   1.340  0.00  0.00     0.045 A 
ENDROOT
TORSDOF 0
ENDMDL
