MODEL 1
REMARK minimizedAffinity -5.17095709
REMARK minimizedRMSD -1
REMARK  0 active torsions:
REMARK  status: ('A' for Active; 'I' for Inactive)
ROOT
ATOM      1  O1  BZF d   1       1.272   1.064  -0.108  0.00  0.00    -0.204 OA
ATOM      2  C2  BZF d   1       2.427   0.616   0.503  0.00  0.00     0.174 A 
ATOM      3  C3  BZF d   1       2.178  -0.474   1.257  0.00  0.00    -0.012 A 
ATOM      4  C3A BZF d   1       0.797  -0.776   1.036  0.00  0.00    -0.107 A 
ATOM      5  C4  BZF d   1      -0.035  -1.757   1.497  0.00  0.00     0.055 A 
ATOM      6  C5  BZF d   1      -1.348  -1.727   1.147  0.00  0.00    -0.016 A 
ATOM      7  C6  BZF d   1      -1.863  -0.731   0.343  0.00  0.00     0.022 A 
ATOM      8  C7  BZF d   1      -1.076   0.260  -0.142  0.00  0.00     0.029 A 
ATOM      9  C7A BZF d   1       0.258   0.215   0.183  0.00  0.00     0.058 A 
ENDROOT
TORSDOF 0
ENDMDL
