MODEL 1
REMARK minimizedAffinity -3.83369446
REMARK minimizedRMSD -1
REMARK  0 active torsions:
REMARK  status: ('A' for Active; 'I' for Inactive)
ROOT
ATOM      1  O1  BZF d   1       0.449  -1.998   1.851  0.00  0.00    -0.204 OA
ATOM      2  C2  BZF d   1       1.580  -2.173   2.625  0.00  0.00     0.174 A 
ATOM      3  C3  BZF d   1       2.451  -1.161   2.436  0.00  0.00    -0.012 A 
ATOM      4  C3A BZF d   1       1.785  -0.252   1.553  0.00  0.00    -0.107 A 
ATOM      5  C4  BZF d   1       2.132   0.951   1.008  0.00  0.00     0.055 A 
ATOM      6  C5  BZF d   1       1.285   1.546   0.128  0.00  0.00    -0.016 A 
ATOM      7  C6  BZF d   1       0.088   0.964  -0.234  0.00  0.00     0.022 A 
ATOM      8  C7  BZF d   1      -0.302  -0.226   0.284  0.00  0.00     0.029 A 
ATOM      9  C7A BZF d   1       0.537  -0.814   1.199  0.00  0.00     0.058 A 
ENDROOT
TORSDOF 0
ENDMDL
