MODEL 1
REMARK minimizedAffinity -3.27123308
REMARK minimizedRMSD -1
REMARK  0 active torsions:
REMARK  status: ('A' for Active; 'I' for Inactive)
ROOT
ATOM      1  O1  BZF d   1      -1.066   1.335  -1.223  0.00  0.00    -0.204 OA
ATOM      2  C2  BZF d   1      -1.890   0.228  -1.297  0.00  0.00     0.174 A 
ATOM      3  C3  BZF d   1      -1.337  -0.823  -0.659  0.00  0.00    -0.012 A 
ATOM      4  C3A BZF d   1      -0.132  -0.318  -0.075  0.00  0.00    -0.107 A 
ATOM      5  C4  BZF d   1       0.844  -0.880   0.696  0.00  0.00     0.055 A 
ATOM      6  C5  BZF d   1       1.926  -0.133   1.039  0.00  0.00    -0.016 A 
ATOM      7  C6  BZF d   1       2.066   1.175   0.625  0.00  0.00     0.022 A 
ATOM      8  C7  BZF d   1       1.121   1.778  -0.137  0.00  0.00     0.029 A 
ATOM      9  C7A BZF d   1       0.011   1.035  -0.458  0.00  0.00     0.058 A 
ENDROOT
TORSDOF 0
ENDMDL
