MODEL 1
REMARK minimizedAffinity -2.56626797
REMARK minimizedRMSD -1
REMARK  0 active torsions:
REMARK  status: ('A' for Active; 'I' for Inactive)
ROOT
ATOM      1  O1  BZF d   1       0.219  -1.997   2.182  0.00  0.00    -0.204 OA
ATOM      2  C2  BZF d   1       1.259  -2.472   2.958  0.00  0.00     0.174 A 
ATOM      3  C3  BZF d   1       2.396  -1.793   2.700  0.00  0.00    -0.012 A 
ATOM      4  C3A BZF d   1       2.022  -0.773   1.769  0.00  0.00    -0.107 A 
ATOM      5  C4  BZF d   1       2.711   0.229   1.149  0.00  0.00     0.055 A 
ATOM      6  C5  BZF d   1       2.068   1.008   0.239  0.00  0.00    -0.016 A 
ATOM      7  C6  BZF d   1       0.740   0.809  -0.078  0.00  0.00     0.022 A 
ATOM      8  C7  BZF d   1       0.014  -0.170   0.515  0.00  0.00     0.029 A 
ATOM      9  C7A BZF d   1       0.652  -0.938   1.459  0.00  0.00     0.058 A 
ENDROOT
TORSDOF 0
ENDMDL
