MODEL 1
REMARK minimizedAffinity -5.35525227
REMARK minimizedRMSD -1
REMARK  0 active torsions:
REMARK  status: ('A' for Active; 'I' for Inactive)
ROOT
ATOM      1  O1  BZF d   1      -1.045  -1.584   1.519  0.00  0.00    -0.204 OA
ATOM      2  C2  BZF d   1      -1.871  -0.864   0.677  0.00  0.00     0.174 A 
ATOM      3  C3  BZF d   1      -1.214   0.188   0.147  0.00  0.00    -0.012 A 
ATOM      4  C3A BZF d   1       0.131   0.068   0.620  0.00  0.00    -0.107 A 
ATOM      5  C4  BZF d   1       1.263   0.806   0.425  0.00  0.00     0.055 A 
ATOM      6  C5  BZF d   1       2.398   0.462   1.088  0.00  0.00    -0.016 A 
ATOM      7  C6  BZF d   1       2.435  -0.609   1.957  0.00  0.00     0.022 A 
ATOM      8  C7  BZF d   1       1.338  -1.373   2.179  0.00  0.00     0.029 A 
ATOM      9  C7A BZF d   1       0.198  -1.048   1.485  0.00  0.00     0.058 A 
ENDROOT
TORSDOF 0
ENDMDL
