MODEL 1
REMARK minimizedAffinity -0.938488305
REMARK minimizedRMSD -1
REMARK  0 active torsions:
REMARK  status: ('A' for Active; 'I' for Inactive)
ROOT
ATOM      1  O1  BZF d   1      -0.925  -0.988   0.752  0.00  0.00    -0.204 OA
ATOM      2  C2  BZF d   1      -1.784  -0.272  -0.059  0.00  0.00     0.174 A 
ATOM      3  C3  BZF d   1      -1.233   0.906  -0.417  0.00  0.00    -0.012 A 
ATOM      4  C3A BZF d   1       0.087   0.887   0.134  0.00  0.00    -0.107 A 
ATOM      5  C4  BZF d   1       1.129   1.770   0.106  0.00  0.00     0.055 A 
ATOM      6  C5  BZF d   1       2.257   1.482   0.807  0.00  0.00    -0.016 A 
ATOM      7  C6  BZF d   1       2.376   0.325   1.548  0.00  0.00     0.022 A 
ATOM      8  C7  BZF d   1       1.371  -0.584   1.602  0.00  0.00     0.029 A 
ATOM      9  C7A BZF d   1       0.242  -0.311   0.869  0.00  0.00     0.058 A 
ENDROOT
TORSDOF 0
ENDMDL
