MODEL 1
REMARK minimizedAffinity -1.54141235
REMARK minimizedRMSD -1
REMARK  0 active torsions:
REMARK  status: ('A' for Active; 'I' for Inactive)
ROOT
ATOM      1  O1  BZF d   1       2.631  -1.166   2.274  0.00  0.00    -0.204 OA
ATOM      2  C2  BZF d   1       3.503  -0.095   2.314  0.00  0.00     0.174 A 
ATOM      3  C3  BZF d   1       2.998   0.957   1.638  0.00  0.00    -0.012 A 
ATOM      4  C3A BZF d   1       1.692   0.547   1.224  0.00  0.00    -0.107 A 
ATOM      5  C4  BZF d   1       0.691   1.163   0.527  0.00  0.00     0.055 A 
ATOM      6  C5  BZF d   1      -0.433   0.460   0.226  0.00  0.00    -0.016 A 
ATOM      7  C6  BZF d   1      -0.587  -0.858   0.600  0.00  0.00     0.022 A 
ATOM      8  C7  BZF d   1       0.376  -1.510   1.296  0.00  0.00     0.029 A 
ATOM      9  C7A BZF d   1       1.499  -0.793   1.631  0.00  0.00     0.058 A 
ENDROOT
TORSDOF 0
ENDMDL
