MODEL 1
REMARK minimizedAffinity -3.23145723
REMARK minimizedRMSD -1
REMARK  0 active torsions:
REMARK  status: ('A' for Active; 'I' for Inactive)
ROOT
ATOM      1  O1  BZF d   1      -1.319  -0.932  -0.072  0.00  0.00    -0.204 OA
ATOM      2  C2  BZF d   1      -2.173  -0.199  -0.874  0.00  0.00     0.174 A 
ATOM      3  C3  BZF d   1      -1.697   1.048  -1.065  0.00  0.00    -0.012 A 
ATOM      4  C3A BZF d   1      -0.424   1.070  -0.413  0.00  0.00    -0.107 A 
ATOM      5  C4  BZF d   1       0.540   2.026  -0.266  0.00  0.00     0.055 A 
ATOM      6  C5  BZF d   1       1.634   1.750   0.491  0.00  0.00    -0.016 A 
ATOM      7  C6  BZF d   1       1.794   0.532   1.120  0.00  0.00     0.022 A 
ATOM      8  C7  BZF d   1       0.867  -0.449   0.999  0.00  0.00     0.029 A 
ATOM      9  C7A BZF d   1      -0.224  -0.185   0.207  0.00  0.00     0.058 A 
ENDROOT
TORSDOF 0
ENDMDL
