MODEL 1
REMARK minimizedAffinity -5.08098269
REMARK minimizedRMSD -1
REMARK  0 active torsions:
REMARK  status: ('A' for Active; 'I' for Inactive)
ROOT
ATOM      1  O1  BZF d   1      -0.831  -1.040   0.626  0.00  0.00    -0.204 OA
ATOM      2  C2  BZF d   1      -1.126   0.119  -0.065  0.00  0.00     0.174 A 
ATOM      3  C3  BZF d   1      -0.096   0.988  -0.004  0.00  0.00    -0.012 A 
ATOM      4  C3A BZF d   1       0.940   0.294   0.696  0.00  0.00    -0.107 A 
ATOM      5  C4  BZF d   1       2.215   0.626   1.058  0.00  0.00     0.055 A 
ATOM      6  C5  BZF d   1       2.941  -0.251   1.799  0.00  0.00    -0.016 A 
ATOM      7  C6  BZF d   1       2.424  -1.465   2.200  0.00  0.00     0.022 A 
ATOM      8  C7  BZF d   1       1.166  -1.841   1.862  0.00  0.00     0.029 A 
ATOM      9  C7A BZF d   1       0.441  -0.971   1.085  0.00  0.00     0.058 A 
ENDROOT
TORSDOF 0
ENDMDL
