MODEL 1
REMARK minimizedAffinity -4.43339348
REMARK minimizedRMSD -1
REMARK  0 active torsions:
REMARK  status: ('A' for Active; 'I' for Inactive)
ROOT
ATOM      1  O1  BZF d   1       0.792  -1.697   1.881  0.00  0.00    -0.204 OA
ATOM      2  C2  BZF d   1       1.908  -1.634   2.692  0.00  0.00     0.174 A 
ATOM      3  C3  BZF d   1       2.698  -0.600   2.338  0.00  0.00    -0.012 A 
ATOM      4  C3A BZF d   1       1.988   0.077   1.296  0.00  0.00    -0.107 A 
ATOM      5  C4  BZF d   1       2.252   1.189   0.549  0.00  0.00     0.055 A 
ATOM      6  C5  BZF d   1       1.387   1.543  -0.438  0.00  0.00    -0.016 A 
ATOM      7  C6  BZF d   1       0.254   0.805  -0.708  0.00  0.00     0.022 A 
ATOM      8  C7  BZF d   1      -0.053  -0.304   0.009  0.00  0.00     0.029 A 
ATOM      9  C7A BZF d   1       0.802  -0.645   1.028  0.00  0.00     0.058 A 
ENDROOT
TORSDOF 0
ENDMDL
