MODEL 1
REMARK minimizedAffinity -2.7882185
REMARK minimizedRMSD -1
REMARK  0 active torsions:
REMARK  status: ('A' for Active; 'I' for Inactive)
ROOT
ATOM      1  O1  BZF d   1      -0.294  -1.383   1.224  0.00  0.00    -0.204 OA
ATOM      2  C2  BZF d   1      -1.354  -1.140   0.373  0.00  0.00     0.174 A 
ATOM      3  C3  BZF d   1      -1.087  -0.095  -0.437  0.00  0.00    -0.012 A 
ATOM      4  C3A BZF d   1       0.259   0.283  -0.132  0.00  0.00    -0.107 A 
ATOM      5  C4  BZF d   1       1.096   1.247  -0.617  0.00  0.00     0.055 A 
ATOM      6  C5  BZF d   1       2.323   1.400  -0.053  0.00  0.00    -0.016 A 
ATOM      7  C6  BZF d   1       2.742   0.612   0.999  0.00  0.00     0.022 A 
ATOM      8  C7  BZF d   1       1.949  -0.360   1.511  0.00  0.00     0.029 A 
ATOM      9  C7A BZF d   1       0.721  -0.539   0.922  0.00  0.00     0.058 A 
ENDROOT
TORSDOF 0
ENDMDL
