MODEL 1
REMARK minimizedAffinity 9.45888996
REMARK minimizedRMSD -1
REMARK  0 active torsions:
REMARK  status: ('A' for Active; 'I' for Inactive)
ROOT
ATOM      1  C   UNL d   1       2.625   1.337   0.443  0.00  0.00     0.078 C 
ATOM      2  C1  UNL d   1       3.795   2.269   0.539  0.00  0.00    -0.077 A 
ATOM      3  C2  UNL d   1       4.182   3.056  -0.553  0.00  0.00    -0.001 A 
ATOM      4  C3  UNL d   1       5.279   3.913  -0.452  0.00  0.00     0.003 A 
ATOM      5  C4  UNL d   1       5.999   3.990   0.738  0.00  0.00    -0.005 A 
ATOM      6  C5  UNL d   1       5.623   3.210   1.830  0.00  0.00     0.003 A 
ATOM      7  C6  UNL d   1       4.526   2.353   1.731  0.00  0.00    -0.001 A 
ENDROOT
TORSDOF 0
ENDMDL
