MODEL 1
REMARK minimizedAffinity 6.92638493
REMARK minimizedRMSD -1
REMARK  0 active torsions:
REMARK  status: ('A' for Active; 'I' for Inactive)
ROOT
ATOM      1  C   UNL d   1      -2.164   4.857  -5.361  0.00  0.00     0.078 C 
ATOM      2  C1  UNL d   1      -1.444   5.250  -4.106  0.00  0.00    -0.077 A 
ATOM      3  C2  UNL d   1      -2.150   5.622  -2.955  0.00  0.00    -0.001 A 
ATOM      4  C3  UNL d   1      -1.467   5.994  -1.797  0.00  0.00     0.003 A 
ATOM      5  C4  UNL d   1      -0.073   6.000  -1.778  0.00  0.00    -0.005 A 
ATOM      6  C5  UNL d   1       0.638   5.633  -2.919  0.00  0.00     0.003 A 
ATOM      7  C6  UNL d   1      -0.044   5.260  -4.078  0.00  0.00    -0.001 A 
ENDROOT
TORSDOF 0
ENDMDL
