MODEL 1
REMARK minimizedAffinity 8.3381815
REMARK minimizedRMSD -1
REMARK  0 active torsions:
REMARK  status: ('A' for Active; 'I' for Inactive)
ROOT
ATOM      1  C   UNL d   1       5.720   5.077  -2.903  0.00  0.00     0.078 C 
ATOM      2  C1  UNL d   1       5.374   5.086  -1.444  0.00  0.00    -0.077 A 
ATOM      3  C2  UNL d   1       4.441   5.994  -0.929  0.00  0.00    -0.001 A 
ATOM      4  C3  UNL d   1       4.137   5.998   0.433  0.00  0.00     0.003 A 
ATOM      5  C4  UNL d   1       4.762   5.096   1.292  0.00  0.00    -0.005 A 
ATOM      6  C5  UNL d   1       5.693   4.190   0.789  0.00  0.00     0.003 A 
ATOM      7  C6  UNL d   1       5.999   4.185  -0.573  0.00  0.00    -0.001 A 
ENDROOT
TORSDOF 0
ENDMDL
