MODEL 1
REMARK minimizedAffinity 7.77324724
REMARK minimizedRMSD -1
REMARK  0 active torsions:
REMARK  status: ('A' for Active; 'I' for Inactive)
ROOT
ATOM      1  C   UNL d   1      -5.795  -0.107  -2.988  0.00  0.00     0.078 C 
ATOM      2  C1  UNL d   1      -5.621   0.505  -1.630  0.00  0.00    -0.077 A 
ATOM      3  C2  UNL d   1      -5.475  -0.296  -0.492  0.00  0.00    -0.001 A 
ATOM      4  C3  UNL d   1      -5.324   0.287   0.767  0.00  0.00     0.003 A 
ATOM      5  C4  UNL d   1      -5.318   1.674   0.900  0.00  0.00    -0.005 A 
ATOM      6  C5  UNL d   1      -5.465   2.480  -0.227  0.00  0.00     0.003 A 
ATOM      7  C6  UNL d   1      -5.617   1.898  -1.487  0.00  0.00    -0.001 A 
ENDROOT
TORSDOF 0
ENDMDL
