MODEL 1
REMARK minimizedAffinity 9.90748405
REMARK minimizedRMSD -1
REMARK  0 active torsions:
REMARK  status: ('A' for Active; 'I' for Inactive)
ROOT
ATOM      1  C   UNL d   1      -5.995  -0.066  -3.323  0.00  0.00     0.078 C 
ATOM      2  C1  UNL d   1      -5.710   0.358  -1.914  0.00  0.00    -0.077 A 
ATOM      3  C2  UNL d   1      -5.166  -0.540  -0.987  0.00  0.00    -0.001 A 
ATOM      4  C3  UNL d   1      -4.914  -0.134   0.325  0.00  0.00     0.003 A 
ATOM      5  C4  UNL d   1      -5.204   1.170   0.722  0.00  0.00    -0.005 A 
ATOM      6  C5  UNL d   1      -5.747   2.070  -0.193  0.00  0.00     0.003 A 
ATOM      7  C6  UNL d   1      -6.000   1.666  -1.505  0.00  0.00    -0.001 A 
ENDROOT
TORSDOF 0
ENDMDL
