MODEL 1
REMARK minimizedAffinity 6.74237442
REMARK minimizedRMSD -1
REMARK  0 active torsions:
REMARK  status: ('A' for Active; 'I' for Inactive)
ROOT
ATOM      1  C   UNL d   1      -1.044   3.863  -4.142  0.00  0.00     0.078 C 
ATOM      2  C1  UNL d   1       0.157   3.277  -3.461  0.00  0.00    -0.077 A 
ATOM      3  C2  UNL d   1       0.019   2.279  -2.489  0.00  0.00    -0.001 A 
ATOM      4  C3  UNL d   1       1.145   1.749  -1.857  0.00  0.00     0.003 A 
ATOM      5  C4  UNL d   1       2.417   2.211  -2.189  0.00  0.00    -0.005 A 
ATOM      6  C5  UNL d   1       2.564   3.206  -3.154  0.00  0.00     0.003 A 
ATOM      7  C6  UNL d   1       1.439   3.737  -3.787  0.00  0.00    -0.001 A 
ENDROOT
TORSDOF 0
ENDMDL
