MODEL 1
REMARK minimizedAffinity 2.0778594
REMARK minimizedRMSD -1
REMARK  0 active torsions:
REMARK  status: ('A' for Active; 'I' for Inactive)
ROOT
ATOM      1  C   UNL d   1      -4.751  -2.623   3.807  0.00  0.00     0.078 C 
ATOM      2  C1  UNL d   1      -4.068  -1.709   2.833  0.00  0.00    -0.077 A 
ATOM      3  C2  UNL d   1      -4.803  -0.992   1.880  0.00  0.00    -0.001 A 
ATOM      4  C3  UNL d   1      -4.153  -0.153   0.974  0.00  0.00     0.003 A 
ATOM      5  C4  UNL d   1      -2.766  -0.023   1.010  0.00  0.00    -0.005 A 
ATOM      6  C5  UNL d   1      -2.027  -0.734   1.953  0.00  0.00     0.003 A 
ATOM      7  C6  UNL d   1      -2.675  -1.574   2.861  0.00  0.00    -0.001 A 
ENDROOT
TORSDOF 0
ENDMDL
