MODEL 1
REMARK minimizedAffinity 10.1655798
REMARK minimizedRMSD -1
REMARK  0 active torsions:
REMARK  status: ('A' for Active; 'I' for Inactive)
ROOT
ATOM      1  C   UNL d   1       2.231   3.104  -3.000  0.00  0.00     0.078 C 
ATOM      2  C1  UNL d   1       3.476   3.657  -3.625  0.00  0.00    -0.077 A 
ATOM      3  C2  UNL d   1       3.779   3.412  -4.970  0.00  0.00    -0.001 A 
ATOM      4  C3  UNL d   1       4.946   3.925  -5.536  0.00  0.00     0.003 A 
ATOM      5  C4  UNL d   1       5.822   4.687  -4.765  0.00  0.00    -0.005 A 
ATOM      6  C5  UNL d   1       5.531   4.934  -3.425  0.00  0.00     0.003 A 
ATOM      7  C6  UNL d   1       4.364   4.422  -2.857  0.00  0.00    -0.001 A 
ENDROOT
TORSDOF 0
ENDMDL
