MODEL 1
REMARK minimizedAffinity 4.87546778
REMARK minimizedRMSD -1
REMARK  0 active torsions:
REMARK  status: ('A' for Active; 'I' for Inactive)
ROOT
ATOM      1  C   UNL d   1       2.310  -5.962  -4.151  0.00  0.00     0.078 C 
ATOM      2  C1  UNL d   1       0.858  -5.588  -4.167  0.00  0.00    -0.077 A 
ATOM      3  C2  UNL d   1       0.294  -4.841  -3.126  0.00  0.00    -0.001 A 
ATOM      4  C3  UNL d   1      -1.062  -4.508  -3.150  0.00  0.00     0.003 A 
ATOM      5  C4  UNL d   1      -1.864  -4.919  -4.213  0.00  0.00    -0.005 A 
ATOM      6  C5  UNL d   1      -1.312  -5.665  -5.252  0.00  0.00     0.003 A 
ATOM      7  C6  UNL d   1       0.043  -5.999  -5.230  0.00  0.00    -0.001 A 
ENDROOT
TORSDOF 0
ENDMDL
