MODEL 1
REMARK minimizedAffinity 7.55421829
REMARK minimizedRMSD -1
REMARK  0 active torsions:
REMARK  status: ('A' for Active; 'I' for Inactive)
ROOT
ATOM      1  C   UNL d   1      -5.137  -0.359   0.617  0.00  0.00     0.078 C 
ATOM      2  C1  UNL d   1      -3.885  -0.183   1.424  0.00  0.00    -0.077 A 
ATOM      3  C2  UNL d   1      -2.816  -1.078   1.302  0.00  0.00    -0.001 A 
ATOM      4  C3  UNL d   1      -1.661  -0.907   2.067  0.00  0.00     0.003 A 
ATOM      5  C4  UNL d   1      -1.565   0.157   2.961  0.00  0.00    -0.005 A 
ATOM      6  C5  UNL d   1      -2.625   1.052   3.092  0.00  0.00     0.003 A 
ATOM      7  C6  UNL d   1      -3.781   0.883   2.327  0.00  0.00    -0.001 A 
ENDROOT
TORSDOF 0
ENDMDL
