MODEL 1
REMARK minimizedAffinity -3.107795
REMARK minimizedRMSD -1
REMARK  0 active torsions:
REMARK  status: ('A' for Active; 'I' for Inactive)
ROOT
ATOM      1  C   UNL d   1      -5.562   1.209   4.103  0.00  0.00     0.078 C 
ATOM      2  C1  UNL d   1      -4.412   0.608   3.352  0.00  0.00    -0.077 A 
ATOM      3  C2  UNL d   1      -4.626  -0.179   2.214  0.00  0.00    -0.001 A 
ATOM      4  C3  UNL d   1      -3.546  -0.740   1.530  0.00  0.00     0.003 A 
ATOM      5  C4  UNL d   1      -2.245  -0.521   1.977  0.00  0.00    -0.005 A 
ATOM      6  C5  UNL d   1      -2.022   0.259   3.110  0.00  0.00     0.003 A 
ATOM      7  C6  UNL d   1      -3.101   0.820   3.795  0.00  0.00    -0.001 A 
ENDROOT
TORSDOF 0
ENDMDL
