MODEL 1
REMARK minimizedAffinity 6.55207253
REMARK minimizedRMSD -1
REMARK  0 active torsions:
REMARK  status: ('A' for Active; 'I' for Inactive)
ROOT
ATOM      1  C   UNL d   1      -2.527   0.754   4.133  0.00  0.00     0.078 C 
ATOM      2  C1  UNL d   1      -2.246  -0.407   3.227  0.00  0.00    -0.077 A 
ATOM      3  C2  UNL d   1      -0.940  -0.705   2.820  0.00  0.00    -0.001 A 
ATOM      4  C3  UNL d   1      -0.694  -1.783   1.969  0.00  0.00     0.003 A 
ATOM      5  C4  UNL d   1      -1.750  -2.573   1.517  0.00  0.00    -0.005 A 
ATOM      6  C5  UNL d   1      -3.053  -2.284   1.916  0.00  0.00     0.003 A 
ATOM      7  C6  UNL d   1      -3.301  -1.205   2.767  0.00  0.00    -0.001 A 
ENDROOT
TORSDOF 0
ENDMDL
