MODEL 1
REMARK minimizedAffinity 5.87895012
REMARK minimizedRMSD -1
REMARK  0 active torsions:
REMARK  status: ('A' for Active; 'I' for Inactive)
ROOT
ATOM      1  C   UNL d   1       2.816   1.421   0.305  0.00  0.00     0.078 C 
ATOM      2  C1  UNL d   1       3.924   2.391   0.589  0.00  0.00    -0.077 A 
ATOM      3  C2  UNL d   1       4.820   2.776  -0.415  0.00  0.00    -0.001 A 
ATOM      4  C3  UNL d   1       5.853   3.672  -0.135  0.00  0.00     0.003 A 
ATOM      5  C4  UNL d   1       5.999   4.191   1.150  0.00  0.00    -0.005 A 
ATOM      6  C5  UNL d   1       5.113   3.812   2.157  0.00  0.00     0.003 A 
ATOM      7  C6  UNL d   1       4.080   2.916   1.878  0.00  0.00    -0.001 A 
ENDROOT
TORSDOF 0
ENDMDL
