MODEL 1
REMARK minimizedAffinity 2.30209279
REMARK minimizedRMSD -1
REMARK  0 active torsions:
REMARK  status: ('A' for Active; 'I' for Inactive)
ROOT
ATOM      1  C   UNL d   1       2.283   2.248  -0.029  0.00  0.00     0.078 C 
ATOM      2  C1  UNL d   1       3.573   2.883   0.398  0.00  0.00    -0.077 A 
ATOM      3  C2  UNL d   1       3.580   4.058   1.159  0.00  0.00    -0.001 A 
ATOM      4  C3  UNL d   1       4.788   4.644   1.542  0.00  0.00     0.003 A 
ATOM      5  C4  UNL d   1       5.998   4.062   1.166  0.00  0.00    -0.005 A 
ATOM      6  C5  UNL d   1       6.000   2.894   0.407  0.00  0.00     0.003 A 
ATOM      7  C6  UNL d   1       4.793   2.307   0.023  0.00  0.00    -0.001 A 
ENDROOT
TORSDOF 0
ENDMDL
