MODEL 1
REMARK minimizedAffinity 9.66823959
REMARK minimizedRMSD -1
REMARK  0 active torsions:
REMARK  status: ('A' for Active; 'I' for Inactive)
ROOT
ATOM      1  C   UNL d   1      -0.441   4.504  -3.241  0.00  0.00     0.078 C 
ATOM      2  C1  UNL d   1       0.679   3.582  -2.861  0.00  0.00    -0.077 A 
ATOM      3  C2  UNL d   1       0.487   2.566  -1.916  0.00  0.00    -0.001 A 
ATOM      4  C3  UNL d   1       1.541   1.721  -1.564  0.00  0.00     0.003 A 
ATOM      5  C4  UNL d   1       2.794   1.883  -2.152  0.00  0.00    -0.005 A 
ATOM      6  C5  UNL d   1       2.995   2.892  -3.092  0.00  0.00     0.003 A 
ATOM      7  C6  UNL d   1       1.942   3.738  -3.445  0.00  0.00    -0.001 A 
ENDROOT
TORSDOF 0
ENDMDL
