MODEL 1
REMARK minimizedAffinity 10.7795048
REMARK minimizedRMSD -1
REMARK  0 active torsions:
REMARK  status: ('A' for Active; 'I' for Inactive)
ROOT
ATOM      1  C   UNL d   1       5.020   3.435   1.907  0.00  0.00     0.078 C 
ATOM      2  C1  UNL d   1       3.944   2.672   1.195  0.00  0.00    -0.077 A 
ATOM      3  C2  UNL d   1       2.639   3.172   1.111  0.00  0.00    -0.001 A 
ATOM      4  C3  UNL d   1       1.645   2.446   0.453  0.00  0.00     0.003 A 
ATOM      5  C4  UNL d   1       1.945   1.214  -0.126  0.00  0.00    -0.005 A 
ATOM      6  C5  UNL d   1       3.240   0.707  -0.046  0.00  0.00     0.003 A 
ATOM      7  C6  UNL d   1       4.236   1.432   0.612  0.00  0.00    -0.001 A 
ENDROOT
TORSDOF 0
ENDMDL
