MODEL 1
REMARK minimizedAffinity -5.53842545
REMARK minimizedRMSD -1
REMARK  0 active torsions:
REMARK  status: ('A' for Active; 'I' for Inactive)
ROOT
ATOM      1  C   UNL d   1       2.191  -3.060   1.828  0.00  0.00     0.078 C 
ATOM      2  C1  UNL d   1       1.337  -1.939   1.313  0.00  0.00    -0.077 A 
ATOM      3  C2  UNL d   1       1.838  -1.020   0.383  0.00  0.00    -0.001 A 
ATOM      4  C3  UNL d   1       1.035   0.024  -0.080  0.00  0.00     0.003 A 
ATOM      5  C4  UNL d   1      -0.273   0.159   0.382  0.00  0.00    -0.005 A 
ATOM      6  C5  UNL d   1      -0.779  -0.750   1.309  0.00  0.00     0.003 A 
ATOM      7  C6  UNL d   1       0.022  -1.795   1.773  0.00  0.00    -0.001 A 
ENDROOT
TORSDOF 0
ENDMDL
