MODEL 1
REMARK minimizedAffinity -6.20706129
REMARK minimizedRMSD -1
REMARK  0 active torsions:
REMARK  status: ('A' for Active; 'I' for Inactive)
ROOT
ATOM      1  C   UNL d   1       1.446  -0.876  -0.581  0.00  0.00     0.078 C 
ATOM      2  C1  UNL d   1       0.842  -1.350   0.707  0.00  0.00    -0.077 A 
ATOM      3  C2  UNL d   1       1.465  -2.344   1.472  0.00  0.00    -0.001 A 
ATOM      4  C3  UNL d   1       0.887  -2.783   2.664  0.00  0.00     0.003 A 
ATOM      5  C4  UNL d   1      -0.317  -2.234   3.102  0.00  0.00    -0.005 A 
ATOM      6  C5  UNL d   1      -0.944  -1.246   2.347  0.00  0.00     0.003 A 
ATOM      7  C6  UNL d   1      -0.368  -0.806   1.154  0.00  0.00    -0.001 A 
ENDROOT
TORSDOF 0
ENDMDL
