MODEL 1
REMARK minimizedAffinity -4.44368362
REMARK minimizedRMSD -1
REMARK  0 active torsions:
REMARK  status: ('A' for Active; 'I' for Inactive)
ROOT
ATOM      1  C   UNL d   1      -0.487   1.206  -0.332  0.00  0.00     0.078 C 
ATOM      2  C1  UNL d   1       0.165  -0.100   0.011  0.00  0.00    -0.077 A 
ATOM      3  C2  UNL d   1       1.479  -0.376  -0.389  0.00  0.00    -0.001 A 
ATOM      4  C3  UNL d   1       2.070  -1.600  -0.072  0.00  0.00     0.003 A 
ATOM      5  C4  UNL d   1       1.355  -2.558   0.645  0.00  0.00    -0.005 A 
ATOM      6  C5  UNL d   1       0.047  -2.292   1.045  0.00  0.00     0.003 A 
ATOM      7  C6  UNL d   1      -0.546  -1.069   0.729  0.00  0.00    -0.001 A 
ENDROOT
TORSDOF 0
ENDMDL
