MODEL 1
REMARK minimizedAffinity -4.48085308
REMARK minimizedRMSD -1
REMARK  0 active torsions:
REMARK  status: ('A' for Active; 'I' for Inactive)
ROOT
ATOM      1  C   UNL d   1      -0.883   0.214   0.153  0.00  0.00     0.078 C 
ATOM      2  C1  UNL d   1      -0.223  -0.940   0.846  0.00  0.00    -0.077 A 
ATOM      3  C2  UNL d   1      -0.744  -1.459   2.038  0.00  0.00    -0.001 A 
ATOM      4  C3  UNL d   1      -0.114  -2.528   2.677  0.00  0.00     0.003 A 
ATOM      5  C4  UNL d   1       1.041  -3.087   2.132  0.00  0.00    -0.005 A 
ATOM      6  C5  UNL d   1       1.568  -2.575   0.948  0.00  0.00     0.003 A 
ATOM      7  C6  UNL d   1       0.939  -1.507   0.307  0.00  0.00    -0.001 A 
ENDROOT
TORSDOF 0
ENDMDL
