MODEL 1
REMARK minimizedAffinity -5.92411757
REMARK minimizedRMSD -1
REMARK  0 active torsions:
REMARK  status: ('A' for Active; 'I' for Inactive)
ROOT
ATOM      1  C   UNL d   1      -1.872  -1.273   2.762  0.00  0.00     0.078 C 
ATOM      2  C1  UNL d   1      -0.694  -1.459   1.853  0.00  0.00    -0.077 A 
ATOM      3  C2  UNL d   1      -0.377  -0.505   0.879  0.00  0.00    -0.001 A 
ATOM      4  C3  UNL d   1       0.717  -0.696   0.033  0.00  0.00     0.003 A 
ATOM      5  C4  UNL d   1       1.502  -1.841   0.153  0.00  0.00    -0.005 A 
ATOM      6  C5  UNL d   1       1.194  -2.797   1.119  0.00  0.00     0.003 A 
ATOM      7  C6  UNL d   1       0.100  -2.608   1.965  0.00  0.00    -0.001 A 
ENDROOT
TORSDOF 0
ENDMDL
