MODEL 1
REMARK minimizedAffinity -5.4919219
REMARK minimizedRMSD -1
REMARK  0 active torsions:
REMARK  status: ('A' for Active; 'I' for Inactive)
ROOT
ATOM      1  C   UNL d   1      -1.249  -1.406   3.161  0.00  0.00     0.078 C 
ATOM      2  C1  UNL d   1      -0.236  -1.878   2.161  0.00  0.00    -0.077 A 
ATOM      3  C2  UNL d   1       0.682  -2.884   2.485  0.00  0.00    -0.001 A 
ATOM      4  C3  UNL d   1       1.626  -3.307   1.548  0.00  0.00     0.003 A 
ATOM      5  C4  UNL d   1       1.663  -2.727   0.282  0.00  0.00    -0.005 A 
ATOM      6  C5  UNL d   1       0.755  -1.723  -0.049  0.00  0.00     0.003 A 
ATOM      7  C6  UNL d   1      -0.190  -1.299   0.887  0.00  0.00    -0.001 A 
ENDROOT
TORSDOF 0
ENDMDL
