MODEL 1
REMARK minimizedAffinity -2.97653842
REMARK minimizedRMSD -1
REMARK  0 active torsions:
REMARK  status: ('A' for Active; 'I' for Inactive)
ROOT
ATOM      1  C   UNL d   1      -0.339   4.250  -4.611  0.00  0.00     0.078 C 
ATOM      2  C1  UNL d   1      -1.081   3.376  -3.645  0.00  0.00    -0.077 A 
ATOM      3  C2  UNL d   1      -2.216   2.659  -4.045  0.00  0.00    -0.001 A 
ATOM      4  C3  UNL d   1      -2.902   1.856  -3.133  0.00  0.00     0.003 A 
ATOM      5  C4  UNL d   1      -2.463   1.764  -1.814  0.00  0.00    -0.005 A 
ATOM      6  C5  UNL d   1      -1.337   2.475  -1.405  0.00  0.00     0.003 A 
ATOM      7  C6  UNL d   1      -0.649   3.278  -2.316  0.00  0.00    -0.001 A 
ENDROOT
TORSDOF 0
ENDMDL
