MODEL 1
REMARK minimizedAffinity -3.07990479
REMARK minimizedRMSD -1
REMARK  0 active torsions:
REMARK  status: ('A' for Active; 'I' for Inactive)
ROOT
ATOM      1  C   UNL d   1      -1.380   1.120  -1.283  0.00  0.00     0.078 C 
ATOM      2  C1  UNL d   1      -0.244   0.228  -0.882  0.00  0.00    -0.077 A 
ATOM      3  C2  UNL d   1      -0.349  -1.165  -0.986  0.00  0.00    -0.001 A 
ATOM      4  C3  UNL d   1       0.713  -1.984  -0.600  0.00  0.00     0.003 A 
ATOM      5  C4  UNL d   1       1.888  -1.420  -0.107  0.00  0.00    -0.005 A 
ATOM      6  C5  UNL d   1       2.001  -0.036   0.003  0.00  0.00     0.003 A 
ATOM      7  C6  UNL d   1       0.940   0.785  -0.382  0.00  0.00    -0.001 A 
ENDROOT
TORSDOF 0
ENDMDL
