MODEL 1
REMARK minimizedAffinity -5.42934465
REMARK minimizedRMSD -1
REMARK  0 active torsions:
REMARK  status: ('A' for Active; 'I' for Inactive)
ROOT
ATOM      1  C   UNL d   1      -0.400   0.478  -0.387  0.00  0.00     0.078 C 
ATOM      2  C1  UNL d   1       0.010  -0.722   0.414  0.00  0.00    -0.077 A 
ATOM      3  C2  UNL d   1       1.125  -1.486   0.049  0.00  0.00    -0.001 A 
ATOM      4  C3  UNL d   1       1.489  -2.606   0.798  0.00  0.00     0.003 A 
ATOM      5  C4  UNL d   1       0.742  -2.973   1.916  0.00  0.00    -0.005 A 
ATOM      6  C5  UNL d   1      -0.371  -2.221   2.285  0.00  0.00     0.003 A 
ATOM      7  C6  UNL d   1      -0.736  -1.100   1.537  0.00  0.00    -0.001 A 
ENDROOT
TORSDOF 0
ENDMDL
