MODEL 1
REMARK minimizedAffinity -4.11541224
REMARK minimizedRMSD -1
REMARK  0 active torsions:
REMARK  status: ('A' for Active; 'I' for Inactive)
ROOT
ATOM      1  C   UNL d   1       0.416  -2.138   2.847  0.00  0.00     0.078 C 
ATOM      2  C1  UNL d   1       0.663  -1.437   1.545  0.00  0.00    -0.077 A 
ATOM      3  C2  UNL d   1       1.911  -1.506   0.914  0.00  0.00    -0.001 A 
ATOM      4  C3  UNL d   1       2.130  -0.841  -0.294  0.00  0.00     0.003 A 
ATOM      5  C4  UNL d   1       1.105  -0.101  -0.880  0.00  0.00    -0.005 A 
ATOM      6  C5  UNL d   1      -0.140  -0.024  -0.258  0.00  0.00     0.003 A 
ATOM      7  C6  UNL d   1      -0.360  -0.689   0.949  0.00  0.00    -0.001 A 
ENDROOT
TORSDOF 0
ENDMDL
