MODEL 1
REMARK minimizedAffinity -0.592318654
REMARK minimizedRMSD -1
REMARK  0 active torsions:
REMARK  status: ('A' for Active; 'I' for Inactive)
ROOT
ATOM      1  C   UNL d   1      -0.508   0.813  -0.194  0.00  0.00     0.078 C 
ATOM      2  C1  UNL d   1      -1.203   1.004  -1.508  0.00  0.00    -0.077 A 
ATOM      3  C2  UNL d   1      -0.843   2.047  -2.370  0.00  0.00    -0.001 A 
ATOM      4  C3  UNL d   1      -1.506   2.219  -3.586  0.00  0.00     0.003 A 
ATOM      5  C4  UNL d   1      -2.533   1.352  -3.952  0.00  0.00    -0.005 A 
ATOM      6  C5  UNL d   1      -2.900   0.312  -3.100  0.00  0.00     0.003 A 
ATOM      7  C6  UNL d   1      -2.239   0.139  -1.883  0.00  0.00    -0.001 A 
ENDROOT
TORSDOF 0
ENDMDL
