MODEL 1
REMARK minimizedAffinity -3.20201254
REMARK minimizedRMSD -1
REMARK  0 active torsions:
REMARK  status: ('A' for Active; 'I' for Inactive)
ROOT
ATOM      1  C   UNL d   1       0.014  -0.343  -0.830  0.00  0.00     0.078 C 
ATOM      2  C1  UNL d   1       0.304  -1.107   0.428  0.00  0.00    -0.077 A 
ATOM      3  C2  UNL d   1      -0.701  -1.349   1.372  0.00  0.00    -0.001 A 
ATOM      4  C3  UNL d   1      -0.415  -2.053   2.543  0.00  0.00     0.003 A 
ATOM      5  C4  UNL d   1       0.877  -2.519   2.781  0.00  0.00    -0.005 A 
ATOM      6  C5  UNL d   1       1.884  -2.281   1.848  0.00  0.00     0.003 A 
ATOM      7  C6  UNL d   1       1.599  -1.577   0.677  0.00  0.00    -0.001 A 
ENDROOT
TORSDOF 0
ENDMDL
