MODEL 1
REMARK minimizedAffinity -3.67214966
REMARK minimizedRMSD -1
REMARK  0 active torsions:
REMARK  status: ('A' for Active; 'I' for Inactive)
ROOT
ATOM      1  C   UNL d   1      -0.776   1.071  -0.368  0.00  0.00     0.078 C 
ATOM      2  C1  UNL d   1      -0.142  -0.057   0.391  0.00  0.00    -0.077 A 
ATOM      3  C2  UNL d   1       1.036  -0.660  -0.066  0.00  0.00    -0.001 A 
ATOM      4  C3  UNL d   1       1.609  -1.716   0.645  0.00  0.00     0.003 A 
ATOM      5  C4  UNL d   1       1.011  -2.178   1.815  0.00  0.00    -0.005 A 
ATOM      6  C5  UNL d   1      -0.163  -1.585   2.276  0.00  0.00     0.003 A 
ATOM      7  C6  UNL d   1      -0.738  -0.530   1.567  0.00  0.00    -0.001 A 
ENDROOT
TORSDOF 0
ENDMDL
