MODEL 1
REMARK minimizedAffinity -3.95871139
REMARK minimizedRMSD -1
REMARK  0 active torsions:
REMARK  status: ('A' for Active; 'I' for Inactive)
ROOT
ATOM      1  C   UNL d   1      -0.732   1.166  -0.503  0.00  0.00     0.078 C 
ATOM      2  C1  UNL d   1       0.069   0.208   0.327  0.00  0.00    -0.077 A 
ATOM      3  C2  UNL d   1      -0.381  -0.205   1.587  0.00  0.00    -0.001 A 
ATOM      4  C3  UNL d   1       0.379  -1.090   2.353  0.00  0.00     0.003 A 
ATOM      5  C4  UNL d   1       1.595  -1.568   1.869  0.00  0.00    -0.005 A 
ATOM      6  C5  UNL d   1       2.052  -1.161   0.618  0.00  0.00     0.003 A 
ATOM      7  C6  UNL d   1       1.293  -0.277  -0.150  0.00  0.00    -0.001 A 
ENDROOT
TORSDOF 0
ENDMDL
