MODEL 1
REMARK minimizedAffinity -2.79112935
REMARK minimizedRMSD -1
REMARK  0 active torsions:
REMARK  status: ('A' for Active; 'I' for Inactive)
ROOT
ATOM      1  C   UNL d   1      -2.841   1.943  -2.997  0.00  0.00     0.078 C 
ATOM      2  C1  UNL d   1      -1.850   1.316  -2.063  0.00  0.00    -0.077 A 
ATOM      3  C2  UNL d   1      -1.279   2.050  -1.016  0.00  0.00    -0.001 A 
ATOM      4  C3  UNL d   1      -0.351   1.456  -0.161  0.00  0.00     0.003 A 
ATOM      5  C4  UNL d   1       0.017   0.124  -0.344  0.00  0.00    -0.005 A 
ATOM      6  C5  UNL d   1      -0.544  -0.614  -1.384  0.00  0.00     0.003 A 
ATOM      7  C6  UNL d   1      -1.473  -0.022  -2.240  0.00  0.00    -0.001 A 
ENDROOT
TORSDOF 0
ENDMDL
