MODEL 1
REMARK minimizedAffinity -4.16645813
REMARK minimizedRMSD -1
REMARK  0 active torsions:
REMARK  status: ('A' for Active; 'I' for Inactive)
ROOT
ATOM      1  C   UNL d   1      -2.805   0.986  -1.519  0.00  0.00     0.078 C 
ATOM      2  C1  UNL d   1      -1.391   0.614  -1.187  0.00  0.00    -0.077 A 
ATOM      3  C2  UNL d   1      -0.635   1.381  -0.292  0.00  0.00    -0.001 A 
ATOM      4  C3  UNL d   1       0.684   1.029   0.000  0.00  0.00     0.003 A 
ATOM      5  C4  UNL d   1       1.258  -0.090  -0.599  0.00  0.00    -0.005 A 
ATOM      6  C5  UNL d   1       0.514  -0.858  -1.493  0.00  0.00     0.003 A 
ATOM      7  C6  UNL d   1      -0.805  -0.508  -1.786  0.00  0.00    -0.001 A 
ENDROOT
TORSDOF 0
ENDMDL
