MODEL 1
REMARK minimizedAffinity 13.9164238
REMARK minimizedRMSD -1
REMARK  0 active torsions:
REMARK  status: ('A' for Active; 'I' for Inactive)
ROOT
ATOM      1  C1  DEN d   1       1.549   6.000   3.932  0.00  0.00     0.130 A 
ATOM      2  C2  DEN d   1       0.607   4.958   3.532  0.00  0.00    -0.031 A 
ATOM      3  C3  DEN d   1       1.373   3.717   3.295  0.00  0.00     0.027 A 
ATOM      4  C4  DEN d   1       3.911   3.310   3.511  0.00  0.00     0.027 A 
ATOM      5  C5  DEN d   1       5.120   3.898   3.811  0.00  0.00    -0.003 A 
ATOM      6  C6  DEN d   1       5.227   5.224   4.136  0.00  0.00     0.001 A 
ATOM      7  C7  DEN d   1       4.099   5.997   4.213  0.00  0.00     0.017 A 
ATOM      8  C8  DEN d   1       2.877   5.414   3.905  0.00  0.00    -0.094 A 
ATOM      9  C9  DEN d   1       2.788   4.069   3.591  0.00  0.00    -0.072 A 
ENDROOT
TORSDOF 0
ENDMDL
