MODEL 1
REMARK minimizedAffinity 3.45429492
REMARK minimizedRMSD -1
REMARK  0 active torsions:
REMARK  status: ('A' for Active; 'I' for Inactive)
ROOT
ATOM      1  C1  DEN d   1      -5.852   6.000   4.441  0.00  0.00     0.130 A 
ATOM      2  C2  DEN d   1      -6.000   5.680   5.858  0.00  0.00    -0.031 A 
ATOM      3  C3  DEN d   1      -5.985   4.210   5.999  0.00  0.00     0.027 A 
ATOM      4  C4  DEN d   1      -5.744   2.408   4.170  0.00  0.00     0.027 A 
ATOM      5  C5  DEN d   1      -5.604   2.193   2.817  0.00  0.00    -0.003 A 
ATOM      6  C6  DEN d   1      -5.570   3.223   1.914  0.00  0.00     0.001 A 
ATOM      7  C7  DEN d   1      -5.633   4.517   2.358  0.00  0.00     0.017 A 
ATOM      8  C8  DEN d   1      -5.783   4.741   3.721  0.00  0.00    -0.094 A 
ATOM      9  C9  DEN d   1      -5.802   3.687   4.618  0.00  0.00    -0.072 A 
ENDROOT
TORSDOF 0
ENDMDL
