MODEL 1
REMARK minimizedAffinity 10.9754887
REMARK minimizedRMSD -1
REMARK  0 active torsions:
REMARK  status: ('A' for Active; 'I' for Inactive)
ROOT
ATOM      1  C1  DEN d   1       2.096   2.030   3.245  0.00  0.00     0.130 A 
ATOM      2  C2  DEN d   1       2.124   3.478   3.059  0.00  0.00    -0.031 A 
ATOM      3  C3  DEN d   1       1.981   3.757   1.616  0.00  0.00     0.027 A 
ATOM      4  C4  DEN d   1       1.715   2.095  -0.338  0.00  0.00     0.027 A 
ATOM      5  C5  DEN d   1       1.646   0.762  -0.677  0.00  0.00    -0.003 A 
ATOM      6  C6  DEN d   1       1.755  -0.235   0.257  0.00  0.00     0.001 A 
ATOM      7  C7  DEN d   1       1.894   0.087   1.581  0.00  0.00     0.017 A 
ATOM      8  C8  DEN d   1       1.972   1.429   1.929  0.00  0.00    -0.094 A 
ATOM      9  C9  DEN d   1       1.847   2.422   0.972  0.00  0.00    -0.072 A 
ENDROOT
TORSDOF 0
ENDMDL
