MODEL 1
REMARK minimizedAffinity 3.05993366
REMARK minimizedRMSD -1
REMARK  0 active torsions:
REMARK  status: ('A' for Active; 'I' for Inactive)
ROOT
ATOM      1  C1  DEN d   1       2.985  -2.368  -0.677  0.00  0.00     0.130 A 
ATOM      2  C2  DEN d   1       1.621  -2.858  -0.502  0.00  0.00    -0.031 A 
ATOM      3  C3  DEN d   1       0.784  -1.727  -0.051  0.00  0.00     0.027 A 
ATOM      4  C4  DEN d   1       1.465   0.722   0.385  0.00  0.00     0.027 A 
ATOM      5  C5  DEN d   1       2.516   1.612   0.384  0.00  0.00    -0.003 A 
ATOM      6  C6  DEN d   1       3.793   1.234   0.065  0.00  0.00     0.001 A 
ATOM      7  C7  DEN d   1       4.044  -0.060  -0.311  0.00  0.00     0.017 A 
ATOM      8  C8  DEN d   1       2.990  -0.965  -0.305  0.00  0.00    -0.094 A 
ATOM      9  C9  DEN d   1       1.704  -0.560   0.009  0.00  0.00    -0.072 A 
ENDROOT
TORSDOF 0
ENDMDL
