MODEL 1
REMARK minimizedAffinity 4.67361212
REMARK minimizedRMSD -1
REMARK  0 active torsions:
REMARK  status: ('A' for Active; 'I' for Inactive)
ROOT
ATOM      1  C1  DEN d   1      -4.799  -0.656   0.791  0.00  0.00     0.130 A 
ATOM      2  C2  DEN d   1      -5.995   0.148   1.026  0.00  0.00    -0.031 A 
ATOM      3  C3  DEN d   1      -6.000   1.255   0.050  0.00  0.00     0.027 A 
ATOM      4  C4  DEN d   1      -4.283   1.797  -1.798  0.00  0.00     0.027 A 
ATOM      5  C5  DEN d   1      -3.096   1.407  -2.376  0.00  0.00    -0.003 A 
ATOM      6  C6  DEN d   1      -2.381   0.331  -1.921  0.00  0.00     0.001 A 
ATOM      7  C7  DEN d   1      -2.871  -0.420  -0.885  0.00  0.00     0.017 A 
ATOM      8  C8  DEN d   1      -4.064  -0.029  -0.292  0.00  0.00    -0.094 A 
ATOM      9  C9  DEN d   1      -4.778   1.055  -0.775  0.00  0.00    -0.072 A 
ENDROOT
TORSDOF 0
ENDMDL
