MODEL 1
REMARK minimizedAffinity -0.212465063
REMARK minimizedRMSD -1
REMARK  0 active torsions:
REMARK  status: ('A' for Active; 'I' for Inactive)
ROOT
ATOM      1  C1  DEN d   1      -4.576  -1.496   0.670  0.00  0.00     0.130 A 
ATOM      2  C2  DEN d   1      -5.802  -0.846   1.126  0.00  0.00    -0.031 A 
ATOM      3  C3  DEN d   1      -6.000   0.373   0.317  0.00  0.00     0.027 A 
ATOM      4  C4  DEN d   1      -4.537   1.311  -1.590  0.00  0.00     0.027 A 
ATOM      5  C5  DEN d   1      -3.389   1.113  -2.325  0.00  0.00    -0.003 A 
ATOM      6  C6  DEN d   1      -2.546   0.059  -2.093  0.00  0.00     0.001 A 
ATOM      7  C7  DEN d   1      -2.861  -0.863  -1.130  0.00  0.00     0.017 A 
ATOM      8  C8  DEN d   1      -4.013  -0.667  -0.380  0.00  0.00    -0.094 A 
ATOM      9  C9  DEN d   1      -4.859   0.398  -0.638  0.00  0.00    -0.072 A 
ENDROOT
TORSDOF 0
ENDMDL
