MODEL 1
REMARK minimizedAffinity -1.64816761
REMARK minimizedRMSD -1
REMARK  0 active torsions:
REMARK  status: ('A' for Active; 'I' for Inactive)
ROOT
ATOM      1  C1  DEN d   1       0.752  -0.849  -1.572  0.00  0.00     0.130 A 
ATOM      2  C2  DEN d   1       2.092  -0.475  -1.129  0.00  0.00    -0.031 A 
ATOM      3  C3  DEN d   1       2.798  -1.706  -0.721  0.00  0.00     0.027 A 
ATOM      4  C4  DEN d   1       1.953  -4.143  -0.737  0.00  0.00     0.027 A 
ATOM      5  C5  DEN d   1       0.877  -4.956  -1.019  0.00  0.00    -0.003 A 
ATOM      6  C6  DEN d   1      -0.317  -4.458  -1.468  0.00  0.00     0.001 A 
ATOM      7  C7  DEN d   1      -0.450  -3.113  -1.693  0.00  0.00     0.017 A 
ATOM      8  C8  DEN d   1       0.628  -2.286  -1.404  0.00  0.00    -0.094 A 
ATOM      9  C9  DEN d   1       1.831  -2.810  -0.962  0.00  0.00    -0.072 A 
ENDROOT
TORSDOF 0
ENDMDL
