MODEL 1
REMARK minimizedAffinity 0.179581255
REMARK minimizedRMSD -1
REMARK  0 active torsions:
REMARK  status: ('A' for Active; 'I' for Inactive)
ROOT
ATOM      1  C1  DEN d   1      -4.532  -0.737   1.268  0.00  0.00     0.130 A 
ATOM      2  C2  DEN d   1      -5.914  -0.264   1.240  0.00  0.00    -0.031 A 
ATOM      3  C3  DEN d   1      -5.998   0.842   0.265  0.00  0.00     0.027 A 
ATOM      4  C4  DEN d   1      -4.134   1.860  -1.199  0.00  0.00     0.027 A 
ATOM      5  C5  DEN d   1      -2.795   1.798  -1.515  0.00  0.00    -0.003 A 
ATOM      6  C6  DEN d   1      -1.941   0.917  -0.906  0.00  0.00     0.001 A 
ATOM      7  C7  DEN d   1      -2.426   0.031   0.019  0.00  0.00     0.017 A 
ATOM      8  C8  DEN d   1      -3.774   0.092   0.348  0.00  0.00    -0.094 A 
ATOM      9  C9  DEN d   1      -4.623   0.981  -0.287  0.00  0.00    -0.072 A 
ENDROOT
TORSDOF 0
ENDMDL
