MODEL 1
REMARK minimizedAffinity -2.7789886
REMARK minimizedRMSD -1
REMARK  0 active torsions:
REMARK  status: ('A' for Active; 'I' for Inactive)
ROOT
ATOM      1  C1  DEN d   1       2.490  -3.138  -1.290  0.00  0.00     0.130 A 
ATOM      2  C2  DEN d   1       1.354  -4.032  -1.077  0.00  0.00    -0.031 A 
ATOM      3  C3  DEN d   1       0.136  -3.204  -0.966  0.00  0.00     0.027 A 
ATOM      4  C4  DEN d   1      -0.101  -0.639  -1.106  0.00  0.00     0.027 A 
ATOM      5  C5  DEN d   1       0.586   0.544  -1.266  0.00  0.00    -0.003 A 
ATOM      6  C6  DEN d   1       1.947   0.585  -1.409  0.00  0.00     0.001 A 
ATOM      7  C7  DEN d   1       2.662  -0.583  -1.441  0.00  0.00     0.017 A 
ATOM      8  C8  DEN d   1       1.978  -1.780  -1.274  0.00  0.00    -0.094 A 
ATOM      9  C9  DEN d   1       0.600  -1.801  -1.142  0.00  0.00    -0.072 A 
ENDROOT
TORSDOF 0
ENDMDL
