MODEL 1
REMARK minimizedAffinity -0.392783314
REMARK minimizedRMSD -1
REMARK  1 active torsions:
REMARK  status: ('A' for Active; 'I' for Inactive)
REMARK    1  A    between atoms: C1_2  and  C2_3 
ROOT
ATOM      1  C2  UNL d   1       0.887  -1.525  -1.130  0.00  0.00    -0.073 A 
ATOM      2  C3  UNL d   1       0.763  -1.284  -2.503  0.00  0.00    -0.002 A 
ATOM      3  C4  UNL d   1       0.805  -2.343  -3.411  0.00  0.00     0.004 A 
ATOM      4  C5  UNL d   1       0.964  -3.652  -2.956  0.00  0.00    -0.004 A 
ATOM      5  C6  UNL d   1       1.077  -3.914  -1.587  0.00  0.00    -0.075 A 
ATOM      6  C7  UNL d   1       1.251  -5.316  -1.081  0.00  0.00     0.076 C 
ATOM      7  C8  UNL d   1       1.037  -2.845  -0.681  0.00  0.00     0.001 A 
ENDROOT
BRANCH   1   8
ATOM      8  C1  UNL d   1       0.835  -0.385  -0.145  0.00  0.00     0.053 C 
ATOM      9  C   UNL d   1      -0.430  -0.416   0.697  0.00  0.00     0.018 C 
ENDBRANCH   1   8
TORSDOF 1
ENDMDL
