MODEL 1
REMARK minimizedAffinity -3.82845616
REMARK minimizedRMSD -1
REMARK  1 active torsions:
REMARK  status: ('A' for Active; 'I' for Inactive)
REMARK    1  A    between atoms: C1_2  and  C2_3 
ROOT
ATOM      1  C2  UNL d   1       0.026  -0.027   0.507  0.00  0.00    -0.073 A 
ATOM      2  C3  UNL d   1      -0.716   0.219   1.668  0.00  0.00    -0.002 A 
ATOM      3  C4  UNL d   1      -1.211   1.497   1.931  0.00  0.00     0.004 A 
ATOM      4  C5  UNL d   1      -0.975   2.539   1.034  0.00  0.00    -0.004 A 
ATOM      5  C6  UNL d   1      -0.246   2.311  -0.137  0.00  0.00    -0.075 A 
ATOM      6  C7  UNL d   1       0.019   3.422  -1.110  0.00  0.00     0.076 C 
ATOM      7  C8  UNL d   1       0.250   1.025  -0.393  0.00  0.00     0.001 A 
ENDROOT
BRANCH   1   8
ATOM      8  C1  UNL d   1       0.557  -1.407   0.216  0.00  0.00     0.053 C 
ATOM      9  C   UNL d   1       1.183  -1.496  -1.167  0.00  0.00     0.018 C 
ENDBRANCH   1   8
TORSDOF 1
ENDMDL
