MODEL 1
REMARK minimizedAffinity -4.71926641
REMARK minimizedRMSD -1
REMARK  1 active torsions:
REMARK  status: ('A' for Active; 'I' for Inactive)
REMARK    1  A    between atoms: C1_2  and  C2_3 
ROOT
ATOM      1  C2  UNL d   1       0.199  -0.319   0.006  0.00  0.00    -0.073 A 
ATOM      2  C3  UNL d   1       0.115  -1.153   1.127  0.00  0.00    -0.002 A 
ATOM      3  C4  UNL d   1      -0.685  -0.795   2.213  0.00  0.00     0.004 A 
ATOM      4  C5  UNL d   1      -1.413   0.394   2.187  0.00  0.00    -0.004 A 
ATOM      5  C6  UNL d   1      -1.351   1.235   1.071  0.00  0.00    -0.075 A 
ATOM      6  C7  UNL d   1      -2.126   2.519   1.028  0.00  0.00     0.076 C 
ATOM      7  C8  UNL d   1      -0.543   0.870  -0.015  0.00  0.00     0.001 A 
ENDROOT
BRANCH   1   8
ATOM      8  C1  UNL d   1       1.057  -0.704  -1.172  0.00  0.00     0.053 C 
ATOM      9  C   UNL d   1       0.553  -1.966  -1.855  0.00  0.00     0.018 C 
ENDBRANCH   1   8
TORSDOF 1
ENDMDL
