MODEL 1
REMARK minimizedAffinity -2.85020638
REMARK minimizedRMSD -1
REMARK  1 active torsions:
REMARK  status: ('A' for Active; 'I' for Inactive)
REMARK    1  A    between atoms: C1_2  and  C2_3 
ROOT
ATOM      1  C2  UNL d   1       0.838  -1.098   0.249  0.00  0.00    -0.073 A 
ATOM      2  C3  UNL d   1       0.151  -1.135   1.468  0.00  0.00    -0.002 A 
ATOM      3  C4  UNL d   1      -0.483   0.008   1.955  0.00  0.00     0.004 A 
ATOM      4  C5  UNL d   1      -0.444   1.197   1.226  0.00  0.00    -0.004 A 
ATOM      5  C6  UNL d   1       0.227   1.251   0.000  0.00  0.00    -0.075 A 
ATOM      6  C7  UNL d   1       0.281   2.523  -0.794  0.00  0.00     0.076 C 
ATOM      7  C8  UNL d   1       0.864   0.100  -0.481  0.00  0.00     0.001 A 
ENDROOT
BRANCH   1   8
ATOM      8  C1  UNL d   1       1.519  -2.331  -0.284  0.00  0.00     0.053 C 
ATOM      9  C   UNL d   1       0.758  -2.945  -1.448  0.00  0.00     0.018 C 
ENDBRANCH   1   8
TORSDOF 1
ENDMDL
