MODEL 1
REMARK minimizedAffinity -3.85420561
REMARK minimizedRMSD -1
REMARK  1 active torsions:
REMARK  status: ('A' for Active; 'I' for Inactive)
REMARK    1  A    between atoms: C1_2  and  C2_3 
ROOT
ATOM      1  C2  UNL d   1      -0.047  -0.170  -0.193  0.00  0.00    -0.073 A 
ATOM      2  C3  UNL d   1       0.097  -0.917   0.981  0.00  0.00    -0.002 A 
ATOM      3  C4  UNL d   1      -0.560  -0.528   2.149  0.00  0.00     0.004 A 
ATOM      4  C5  UNL d   1      -1.372   0.606   2.153  0.00  0.00    -0.004 A 
ATOM      5  C6  UNL d   1      -1.537   1.359   0.986  0.00  0.00    -0.075 A 
ATOM      6  C7  UNL d   1      -2.405   2.583   0.975  0.00  0.00     0.076 C 
ATOM      7  C8  UNL d   1      -0.872   0.964  -0.182  0.00  0.00     0.001 A 
ENDROOT
BRANCH   1   8
ATOM      8  C1  UNL d   1       0.656  -0.590  -1.459  0.00  0.00     0.053 C 
ATOM      9  C   UNL d   1       0.703  -2.102  -1.609  0.00  0.00     0.018 C 
ENDBRANCH   1   8
TORSDOF 1
ENDMDL
