MODEL 1
REMARK minimizedAffinity -5.4339571
REMARK minimizedRMSD -1
REMARK  1 active torsions:
REMARK  status: ('A' for Active; 'I' for Inactive)
REMARK    1  A    between atoms: C1_2  and  C2_3 
ROOT
ATOM      1  C2  UNL d   1       0.248  -0.251  -0.408  0.00  0.00    -0.073 A 
ATOM      2  C3  UNL d   1       0.342   0.804  -1.323  0.00  0.00    -0.002 A 
ATOM      3  C4  UNL d   1      -0.268   2.029  -1.052  0.00  0.00     0.004 A 
ATOM      4  C5  UNL d   1      -0.972   2.215   0.138  0.00  0.00    -0.004 A 
ATOM      5  C6  UNL d   1      -1.067   1.176   1.070  0.00  0.00    -0.075 A 
ATOM      6  C7  UNL d   1      -1.822   1.359   2.354  0.00  0.00     0.076 C 
ATOM      7  C8  UNL d   1      -0.454  -0.052   0.790  0.00  0.00     0.001 A 
ENDROOT
BRANCH   1   8
ATOM      8  C1  UNL d   1       0.911  -1.573  -0.694  0.00  0.00     0.053 C 
ATOM      9  C   UNL d   1       0.340  -2.241  -1.935  0.00  0.00     0.018 C 
ENDBRANCH   1   8
TORSDOF 1
ENDMDL
