MODEL 1
REMARK minimizedAffinity -2.50593281
REMARK minimizedRMSD -1
REMARK  1 active torsions:
REMARK  status: ('A' for Active; 'I' for Inactive)
REMARK    1  A    between atoms: C1_2  and  C2_3 
ROOT
ATOM      1  C2  UNL d   1      -0.201   0.116   0.422  0.00  0.00    -0.073 A 
ATOM      2  C3  UNL d   1       0.350   0.534  -0.795  0.00  0.00    -0.002 A 
ATOM      3  C4  UNL d   1       0.067   1.805  -1.297  0.00  0.00     0.004 A 
ATOM      4  C5  UNL d   1      -0.762   2.672  -0.586  0.00  0.00    -0.004 A 
ATOM      5  C6  UNL d   1      -1.312   2.278   0.637  0.00  0.00    -0.075 A 
ATOM      6  C7  UNL d   1      -2.207   3.199   1.413  0.00  0.00     0.076 C 
ATOM      7  C8  UNL d   1      -1.026   0.999   1.134  0.00  0.00     0.001 A 
ENDROOT
BRANCH   1   8
ATOM      8  C1  UNL d   1       0.106  -1.252   0.972  0.00  0.00     0.053 C 
ATOM      9  C   UNL d   1       0.766  -1.182   2.340  0.00  0.00     0.018 C 
ENDBRANCH   1   8
TORSDOF 1
ENDMDL
