MODEL 1
REMARK minimizedAffinity -4.10641575
REMARK minimizedRMSD -1
REMARK  1 active torsions:
REMARK  status: ('A' for Active; 'I' for Inactive)
REMARK    1  A    between atoms: C1_2  and  C2_3 
ROOT
ATOM      1  C2  UNL d   1       0.437  -0.464  -0.175  0.00  0.00    -0.073 A 
ATOM      2  C3  UNL d   1       0.821  -1.071   1.026  0.00  0.00    -0.002 A 
ATOM      3  C4  UNL d   1       0.234  -0.683   2.231  0.00  0.00     0.004 A 
ATOM      4  C5  UNL d   1      -0.746   0.310   2.247  0.00  0.00    -0.004 A 
ATOM      5  C6  UNL d   1      -1.151   0.920   1.056  0.00  0.00    -0.075 A 
ATOM      6  C7  UNL d   1      -2.203   1.991   1.057  0.00  0.00     0.076 C 
ATOM      7  C8  UNL d   1      -0.556   0.527  -0.150  0.00  0.00     0.001 A 
ENDROOT
BRANCH   1   8
ATOM      8  C1  UNL d   1       1.063  -0.884  -1.480  0.00  0.00     0.053 C 
ATOM      9  C   UNL d   1       0.640  -2.286  -1.889  0.00  0.00     0.018 C 
ENDBRANCH   1   8
TORSDOF 1
ENDMDL
