MODEL 1
REMARK minimizedAffinity -3.82589316
REMARK minimizedRMSD -1
REMARK  1 active torsions:
REMARK  status: ('A' for Active; 'I' for Inactive)
REMARK    1  A    between atoms: C1_2  and  C2_3 
ROOT
ATOM      1  C2  UNL d   1      -0.443   0.968   0.522  0.00  0.00    -0.073 A 
ATOM      2  C3  UNL d   1      -1.375   1.432   1.458  0.00  0.00    -0.002 A 
ATOM      3  C4  UNL d   1      -1.654   2.795   1.557  0.00  0.00     0.004 A 
ATOM      4  C5  UNL d   1      -1.012   3.707   0.719  0.00  0.00    -0.004 A 
ATOM      5  C6  UNL d   1      -0.087   3.261  -0.231  0.00  0.00    -0.075 A 
ATOM      6  C7  UNL d   1       0.613   4.229  -1.139  0.00  0.00     0.076 C 
ATOM      7  C8  UNL d   1       0.190   1.891  -0.323  0.00  0.00     0.001 A 
ENDROOT
BRANCH   1   8
ATOM      8  C1  UNL d   1      -0.143  -0.504   0.406  0.00  0.00     0.053 C 
ATOM      9  C   UNL d   1       1.149  -0.764  -0.353  0.00  0.00     0.018 C 
ENDBRANCH   1   8
TORSDOF 1
ENDMDL
