MODEL 1
REMARK minimizedAffinity -5.3940959
REMARK minimizedRMSD -1
REMARK  1 active torsions:
REMARK  status: ('A' for Active; 'I' for Inactive)
REMARK    1  A    between atoms: C1_2  and  C2_3 
ROOT
ATOM      1  C2  UNL d   1      -0.323   0.591  -0.137  0.00  0.00    -0.073 A 
ATOM      2  C3  UNL d   1       0.428   1.180  -1.161  0.00  0.00    -0.002 A 
ATOM      3  C4  UNL d   1       0.324   2.549  -1.411  0.00  0.00     0.004 A 
ATOM      4  C5  UNL d   1      -0.524   3.342  -0.639  0.00  0.00    -0.004 A 
ATOM      5  C6  UNL d   1      -1.274   2.774   0.396  0.00  0.00    -0.075 A 
ATOM      6  C7  UNL d   1      -2.192   3.613   1.234  0.00  0.00     0.076 C 
ATOM      7  C8  UNL d   1      -1.166   1.398   0.640  0.00  0.00     0.001 A 
ENDROOT
BRANCH   1   8
ATOM      8  C1  UNL d   1      -0.210  -0.886   0.141  0.00  0.00     0.053 C 
ATOM      9  C   UNL d   1       0.430  -1.637  -1.015  0.00  0.00     0.018 C 
ENDBRANCH   1   8
TORSDOF 1
ENDMDL
