MODEL 1
REMARK minimizedAffinity -3.24417686
REMARK minimizedRMSD -1
REMARK  1 active torsions:
REMARK  status: ('A' for Active; 'I' for Inactive)
REMARK    1  A    between atoms: C1_2  and  C2_3 
ROOT
ATOM      1  C2  UNL d   1       1.163  -4.801  -1.093  0.00  0.00    -0.073 A 
ATOM      2  C3  UNL d   1       0.127  -4.943  -2.024  0.00  0.00    -0.002 A 
ATOM      3  C4  UNL d   1      -0.360  -3.830  -2.712  0.00  0.00     0.004 A 
ATOM      4  C5  UNL d   1       0.187  -2.568  -2.482  0.00  0.00    -0.004 A 
ATOM      5  C6  UNL d   1       1.231  -2.408  -1.565  0.00  0.00    -0.075 A 
ATOM      6  C7  UNL d   1       1.829  -1.057  -1.305  0.00  0.00     0.076 C 
ATOM      7  C8  UNL d   1       1.712  -3.529  -0.876  0.00  0.00     0.001 A 
ENDROOT
BRANCH   1   8
ATOM      8  C1  UNL d   1       1.696  -6.000  -0.353  0.00  0.00     0.053 C 
ATOM      9  C   UNL d   1       2.978  -5.681   0.399  0.00  0.00     0.018 C 
ENDBRANCH   1   8
TORSDOF 1
ENDMDL
