MODEL 1
REMARK minimizedAffinity -2.78513074
REMARK minimizedRMSD -1
REMARK  0 active torsions:
REMARK  status: ('A' for Active; 'I' for Inactive)
ROOT
ATOM      1  C1  BNZ d   1       1.186  -0.592   0.769  0.00  0.00     0.000 A 
ATOM      2  C2  BNZ d   1      -0.003  -1.262   0.660  0.00  0.00     0.000 A 
ATOM      3  C3  BNZ d   1      -1.116  -0.639   0.169  0.00  0.00     0.000 A 
ATOM      4  C4  BNZ d   1      -1.049   0.664  -0.174  0.00  0.00     0.000 A 
ATOM      5  C5  BNZ d   1       0.140   1.356  -0.061  0.00  0.00     0.000 A 
ATOM      6  C6  BNZ d   1       1.268   0.715   0.397  0.00  0.00     0.000 A 
ENDROOT
TORSDOF 0
ENDMDL
