MODEL 1
REMARK minimizedAffinity 0.0270304177
REMARK minimizedRMSD -1
REMARK  0 active torsions:
REMARK  status: ('A' for Active; 'I' for Inactive)
ROOT
ATOM      1  C1  BNZ d   1       0.269   0.787   0.406  0.00  0.00     0.000 A 
ATOM      2  C2  BNZ d   1       1.402   0.745  -0.362  0.00  0.00     0.000 A 
ATOM      3  C3  BNZ d   1       2.028   1.897  -0.748  0.00  0.00     0.000 A 
ATOM      4  C4  BNZ d   1       1.499   3.088  -0.401  0.00  0.00     0.000 A 
ATOM      5  C5  BNZ d   1       0.352   3.147   0.366  0.00  0.00     0.000 A 
ATOM      6  C6  BNZ d   1      -0.254   1.985   0.786  0.00  0.00     0.000 A 
ENDROOT
TORSDOF 0
ENDMDL
