MODEL 1
REMARK minimizedAffinity -4.31925678
REMARK minimizedRMSD -1
REMARK  0 active torsions:
REMARK  status: ('A' for Active; 'I' for Inactive)
ROOT
ATOM      1  C1  BNZ d   1       0.477  -1.239   0.405  0.00  0.00     0.000 A 
ATOM      2  C2  BNZ d   1       1.579  -0.427   0.417  0.00  0.00     0.000 A 
ATOM      3  C3  BNZ d   1       1.453   0.927   0.274  0.00  0.00     0.000 A 
ATOM      4  C4  BNZ d   1       0.230   1.462   0.081  0.00  0.00     0.000 A 
ATOM      5  C5  BNZ d   1      -0.890   0.655   0.057  0.00  0.00     0.000 A 
ATOM      6  C6  BNZ d   1      -0.763  -0.703   0.240  0.00  0.00     0.000 A 
ENDROOT
TORSDOF 0
ENDMDL
