MODEL 1
REMARK minimizedAffinity -0.496091127
REMARK minimizedRMSD -1
REMARK  0 active torsions:
REMARK  status: ('A' for Active; 'I' for Inactive)
ROOT
ATOM      1  C1  BNZ d   1      -1.080  -0.523   0.666  0.00  0.00     0.000 A 
ATOM      2  C2  BNZ d   1       0.032   0.045   1.229  0.00  0.00     0.000 A 
ATOM      3  C3  BNZ d   1       0.868   0.831   0.487  0.00  0.00     0.000 A 
ATOM      4  C4  BNZ d   1       0.614   1.016  -0.825  0.00  0.00     0.000 A 
ATOM      5  C5  BNZ d   1      -0.498   0.442  -1.409  0.00  0.00     0.000 A 
ATOM      6  C6  BNZ d   1      -1.359  -0.316  -0.650  0.00  0.00     0.000 A 
ENDROOT
TORSDOF 0
ENDMDL
