MODEL 1
REMARK minimizedAffinity -4.24308538
REMARK minimizedRMSD -1
REMARK  0 active torsions:
REMARK  status: ('A' for Active; 'I' for Inactive)
ROOT
ATOM      1  C1  BNZ d   1       0.790  -0.745   0.363  0.00  0.00     0.000 A 
ATOM      2  C2  BNZ d   1       1.795   0.164   0.164  0.00  0.00     0.000 A 
ATOM      3  C3  BNZ d   1       2.950   0.101   0.892  0.00  0.00     0.000 A 
ATOM      4  C4  BNZ d   1       3.083  -0.845   1.844  0.00  0.00     0.000 A 
ATOM      5  C5  BNZ d   1       2.076  -1.763   2.063  0.00  0.00     0.000 A 
ATOM      6  C6  BNZ d   1       0.930  -1.720   1.301  0.00  0.00     0.000 A 
ENDROOT
TORSDOF 0
ENDMDL
