MODEL 1
REMARK minimizedAffinity -4.95234203
REMARK minimizedRMSD -1
REMARK  1 active torsions:
REMARK  status: ('A' for Active; 'I' for Inactive)
REMARK    1  A    between atoms: C1_2  and  C2_3 
ROOT
ATOM      1  C2  UNL d   1       0.112   0.355   2.626  0.00  0.00    -0.081 A 
ATOM      2  C3  UNL d   1      -0.915   1.305   2.698  0.00  0.00     0.006 A 
ATOM      3  C4  UNL d   1      -1.884   1.377   1.694  0.00  0.00     0.002 A 
ATOM      4  C5  UNL d   1      -1.848   0.497   0.607  0.00  0.00    -0.080 A 
ATOM      5  C6  UNL d   1      -2.899   0.544  -0.461  0.00  0.00     0.076 C 
ATOM      6  C7  UNL d   1      -0.812  -0.440   0.526  0.00  0.00     0.002 A 
ATOM      7  C8  UNL d   1       0.158  -0.512   1.529  0.00  0.00     0.006 A 
ENDROOT
BRANCH   1   8
ATOM      8  C1  UNL d   1       1.121   0.232   3.739  0.00  0.00     0.054 C 
ATOM      9  C   UNL d   1       2.250  -0.715   3.359  0.00  0.00     0.018 C 
ENDBRANCH   1   8
TORSDOF 1
ENDMDL
