MODEL 1
REMARK minimizedAffinity -4.81772709
REMARK minimizedRMSD -1
REMARK  1 active torsions:
REMARK  status: ('A' for Active; 'I' for Inactive)
REMARK    1  A    between atoms: C1_2  and  C2_3 
ROOT
ATOM      1  C2  UNL d   1       0.195  -0.420  -0.746  0.00  0.00    -0.081 A 
ATOM      2  C3  UNL d   1      -1.015   0.066  -0.235  0.00  0.00     0.006 A 
ATOM      3  C4  UNL d   1      -1.133   0.387   1.119  0.00  0.00     0.002 A 
ATOM      4  C5  UNL d   1      -0.043   0.235   1.983  0.00  0.00    -0.080 A 
ATOM      5  C6  UNL d   1      -0.149   0.604   3.432  0.00  0.00     0.076 C 
ATOM      6  C7  UNL d   1       1.160  -0.267   1.476  0.00  0.00     0.002 A 
ATOM      7  C8  UNL d   1       1.279  -0.588   0.122  0.00  0.00     0.006 A 
ENDROOT
BRANCH   1   8
ATOM      8  C1  UNL d   1       0.346  -0.705  -2.219  0.00  0.00     0.054 C 
ATOM      9  C   UNL d   1       0.985   0.468  -2.948  0.00  0.00     0.018 C 
ENDBRANCH   1   8
TORSDOF 1
ENDMDL
