MODEL 1
REMARK minimizedAffinity -5.54276514
REMARK minimizedRMSD -1
REMARK  1 active torsions:
REMARK  status: ('A' for Active; 'I' for Inactive)
REMARK    1  A    between atoms: C1_2  and  C2_3 
ROOT
ATOM      1  C2  UNL d   1       0.606  -0.211   0.224  0.00  0.00    -0.081 A 
ATOM      2  C3  UNL d   1       1.552  -0.376   1.243  0.00  0.00     0.006 A 
ATOM      3  C4  UNL d   1       1.341   0.189   2.503  0.00  0.00     0.002 A 
ATOM      4  C5  UNL d   1       0.178   0.920   2.767  0.00  0.00    -0.080 A 
ATOM      5  C6  UNL d   1      -0.075   1.506   4.125  0.00  0.00     0.076 C 
ATOM      6  C7  UNL d   1      -0.759   1.100   1.744  0.00  0.00     0.002 A 
ATOM      7  C8  UNL d   1      -0.549   0.536   0.484  0.00  0.00     0.006 A 
ENDROOT
BRANCH   1   8
ATOM      8  C1  UNL d   1       0.800  -0.874  -1.116  0.00  0.00     0.054 C 
ATOM      9  C   UNL d   1       0.866   0.154  -2.237  0.00  0.00     0.018 C 
ENDBRANCH   1   8
TORSDOF 1
ENDMDL
