MODEL 1
REMARK minimizedAffinity -4.92910385
REMARK minimizedRMSD -1
REMARK  1 active torsions:
REMARK  status: ('A' for Active; 'I' for Inactive)
REMARK    1  A    between atoms: C1_2  and  C2_3 
ROOT
ATOM      1  C2  UNL d   1      -0.007  -0.176  -0.450  0.00  0.00    -0.081 A 
ATOM      2  C3  UNL d   1      -1.221   0.221   0.123  0.00  0.00     0.006 A 
ATOM      3  C4  UNL d   1      -1.286   0.577   1.472  0.00  0.00     0.002 A 
ATOM      4  C5  UNL d   1      -0.136   0.550   2.268  0.00  0.00    -0.080 A 
ATOM      5  C6  UNL d   1      -0.185   0.959   3.711  0.00  0.00     0.076 C 
ATOM      6  C7  UNL d   1       1.074   0.137   1.701  0.00  0.00     0.002 A 
ATOM      7  C8  UNL d   1       1.139  -0.219   0.352  0.00  0.00     0.006 A 
ENDROOT
BRANCH   1   8
ATOM      8  C1  UNL d   1       0.079  -0.498  -1.920  0.00  0.00     0.054 C 
ATOM      9  C   UNL d   1       1.132   0.355  -2.613  0.00  0.00     0.018 C 
ENDBRANCH   1   8
TORSDOF 1
ENDMDL
