MODEL 1
REMARK minimizedAffinity -2.76269174
REMARK minimizedRMSD -1
REMARK  2 active torsions:
REMARK  status: ('A' for Active; 'I' for Inactive)
REMARK    1  A    between atoms: C1_2  and  C2_3 
REMARK    2  A    between atoms: C2_3  and  C3_4 
ROOT
ATOM      1  C3  UNL d   1      -0.140   0.413   0.116  0.00  0.00    -0.075 A 
ATOM      2  C4  UNL d   1      -1.464   0.876   0.127  0.00  0.00     0.002 A 
ATOM      3  C5  UNL d   1      -2.172   0.969   1.326  0.00  0.00     0.002 A 
ATOM      4  C6  UNL d   1      -1.570   0.591   2.524  0.00  0.00    -0.004 A 
ATOM      5  C7  UNL d   1      -0.261   0.115   2.523  0.00  0.00     0.002 A 
ATOM      6  C8  UNL d   1       0.451   0.025   1.326  0.00  0.00     0.002 A 
ENDROOT
BRANCH   1   7
ATOM      7  C2  UNL d   1       0.641   0.337  -1.174  0.00  0.00     0.056 C 
BRANCH   7   8
ATOM      8  C1  UNL d   1      -0.080  -0.416  -2.297  0.00  0.00     0.007 C 
ATOM      9  C   UNL d   1       0.413  -0.038  -3.687  0.00  0.00     0.009 C 
ENDBRANCH   7   8
ENDBRANCH   1   7
TORSDOF 2
ENDMDL
