MODEL 1
REMARK minimizedAffinity -3.77314115
REMARK minimizedRMSD -1
REMARK  2 active torsions:
REMARK  status: ('A' for Active; 'I' for Inactive)
REMARK    1  A    between atoms: C1_2  and  C2_3 
REMARK    2  A    between atoms: C2_3  and  C3_4 
ROOT
ATOM      1  C3  UNL d   1      -0.556   0.322  -0.007  0.00  0.00    -0.075 A 
ATOM      2  C4  UNL d   1      -1.643   0.695   0.796  0.00  0.00     0.002 A 
ATOM      3  C5  UNL d   1      -1.531   0.693   2.187  0.00  0.00     0.002 A 
ATOM      4  C6  UNL d   1      -0.336   0.310   2.791  0.00  0.00    -0.004 A 
ATOM      5  C7  UNL d   1       0.746  -0.079   2.004  0.00  0.00     0.002 A 
ATOM      6  C8  UNL d   1       0.638  -0.074   0.612  0.00  0.00     0.002 A 
ENDROOT
BRANCH   1   7
ATOM      7  C2  UNL d   1      -0.661   0.349  -1.513  0.00  0.00     0.056 C 
BRANCH   7   8
ATOM      8  C1  UNL d   1       0.470  -0.394  -2.232  0.00  0.00     0.007 C 
ATOM      9  C   UNL d   1       1.014   0.362  -3.436  0.00  0.00     0.009 C 
ENDBRANCH   7   8
ENDBRANCH   1   7
TORSDOF 2
ENDMDL
