MODEL 1
REMARK minimizedAffinity -3.18898702
REMARK minimizedRMSD -1
REMARK  2 active torsions:
REMARK  status: ('A' for Active; 'I' for Inactive)
REMARK    1  A    between atoms: C1_2  and  C2_3 
REMARK    2  A    between atoms: C2_3  and  C3_4 
ROOT
ATOM      1  C3  UNL d   1      -0.374   0.223  -0.337  0.00  0.00    -0.075 A 
ATOM      2  C4  UNL d   1      -1.544   0.987  -0.222  0.00  0.00     0.002 A 
ATOM      3  C5  UNL d   1      -2.101   1.246   1.030  0.00  0.00     0.002 A 
ATOM      4  C6  UNL d   1      -1.502   0.738   2.181  0.00  0.00    -0.004 A 
ATOM      5  C7  UNL d   1      -0.349  -0.036   2.078  0.00  0.00     0.002 A 
ATOM      6  C8  UNL d   1       0.213  -0.294   0.826  0.00  0.00     0.002 A 
ENDROOT
BRANCH   1   7
ATOM      7  C2  UNL d   1       0.251  -0.036  -1.687  0.00  0.00     0.056 C 
BRANCH   7   8
ATOM      8  C1  UNL d   1       0.426   1.221  -2.545  0.00  0.00     0.007 C 
ATOM      9  C   UNL d   1       1.133   0.952  -3.867  0.00  0.00     0.009 C 
ENDBRANCH   7   8
ENDBRANCH   1   7
TORSDOF 2
ENDMDL
