MODEL 1
REMARK minimizedAffinity -4.40337801
REMARK minimizedRMSD -1
REMARK  2 active torsions:
REMARK  status: ('A' for Active; 'I' for Inactive)
REMARK    1  A    between atoms: C1_2  and  C2_3 
REMARK    2  A    between atoms: C2_3  and  C3_4 
ROOT
ATOM      1  C3  UNL d   1      -0.052   0.222   0.164  0.00  0.00    -0.075 A 
ATOM      2  C4  UNL d   1      -1.152   0.978   0.594  0.00  0.00     0.002 A 
ATOM      3  C5  UNL d   1      -1.501   1.015   1.945  0.00  0.00     0.002 A 
ATOM      4  C6  UNL d   1      -0.762   0.292   2.878  0.00  0.00    -0.004 A 
ATOM      5  C7  UNL d   1       0.323  -0.475   2.460  0.00  0.00     0.002 A 
ATOM      6  C8  UNL d   1       0.677  -0.511   1.110  0.00  0.00     0.002 A 
ENDROOT
BRANCH   1   7
ATOM      7  C2  UNL d   1       0.348   0.201  -1.292  0.00  0.00     0.056 C 
BRANCH   7   8
ATOM      8  C1  UNL d   1       0.322  -1.194  -1.926  0.00  0.00     0.007 C 
ATOM      9  C   UNL d   1      -0.082  -1.180  -3.394  0.00  0.00     0.009 C 
ENDBRANCH   7   8
ENDBRANCH   1   7
TORSDOF 2
ENDMDL
