MODEL 1
REMARK minimizedAffinity -2.530128
REMARK minimizedRMSD -1
REMARK  2 active torsions:
REMARK  status: ('A' for Active; 'I' for Inactive)
REMARK    1  A    between atoms: C1_2  and  C2_3 
REMARK    2  A    between atoms: C2_3  and  C3_4 
ROOT
ATOM      1  C3  UNL d   1       0.356   0.044  -1.516  0.00  0.00    -0.075 A 
ATOM      2  C4  UNL d   1       1.157   1.125  -1.913  0.00  0.00     0.002 A 
ATOM      3  C5  UNL d   1       1.410   1.361  -3.265  0.00  0.00     0.002 A 
ATOM      4  C6  UNL d   1       0.875   0.515  -4.234  0.00  0.00    -0.004 A 
ATOM      5  C7  UNL d   1       0.092  -0.571  -3.851  0.00  0.00     0.002 A 
ATOM      6  C8  UNL d   1      -0.166  -0.807  -2.499  0.00  0.00     0.002 A 
ENDROOT
BRANCH   1   7
ATOM      7  C2  UNL d   1       0.055  -0.199  -0.057  0.00  0.00     0.056 C 
BRANCH   7   8
ATOM      8  C1  UNL d   1      -1.426  -0.053   0.307  0.00  0.00     0.007 C 
ATOM      9  C   UNL d   1      -1.653   0.295   1.772  0.00  0.00     0.009 C 
ENDBRANCH   7   8
ENDBRANCH   1   7
TORSDOF 2
ENDMDL
