MODEL 1
REMARK minimizedAffinity -0.861752331
REMARK minimizedRMSD -1
REMARK  2 active torsions:
REMARK  status: ('A' for Active; 'I' for Inactive)
REMARK    1  A    between atoms: C1_2  and  C2_3 
REMARK    2  A    between atoms: C2_3  and  C3_4 
ROOT
ATOM      1  C3  UNL d   1       0.096  -0.211   0.005  0.00  0.00    -0.075 A 
ATOM      2  C4  UNL d   1       0.742  -0.353   1.242  0.00  0.00     0.002 A 
ATOM      3  C5  UNL d   1       0.113   0.049   2.420  0.00  0.00     0.002 A 
ATOM      4  C6  UNL d   1      -1.164   0.606   2.377  0.00  0.00    -0.004 A 
ATOM      5  C7  UNL d   1      -1.808   0.767   1.152  0.00  0.00     0.002 A 
ATOM      6  C8  UNL d   1      -1.183   0.362  -0.028  0.00  0.00     0.002 A 
ENDROOT
BRANCH   1   7
ATOM      7  C2  UNL d   1       0.760  -0.671  -1.271  0.00  0.00     0.056 C 
BRANCH   7   8
ATOM      8  C1  UNL d   1       0.151  -0.071  -2.542  0.00  0.00     0.007 C 
ATOM      9  C   UNL d   1       1.169   0.659  -3.408  0.00  0.00     0.009 C 
ENDBRANCH   7   8
ENDBRANCH   1   7
TORSDOF 2
ENDMDL
