MODEL 1
REMARK minimizedAffinity -3.77122021
REMARK minimizedRMSD -1
REMARK  2 active torsions:
REMARK  status: ('A' for Active; 'I' for Inactive)
REMARK    1  A    between atoms: C1_2  and  C2_3 
REMARK    2  A    between atoms: C2_3  and  C3_4 
ROOT
ATOM      1  C3  UNL d   1       0.729  -0.185  -2.107  0.00  0.00    -0.075 A 
ATOM      2  C4  UNL d   1       2.009   0.303  -2.406  0.00  0.00     0.002 A 
ATOM      3  C5  UNL d   1       2.224   1.076  -3.547  0.00  0.00     0.002 A 
ATOM      4  C6  UNL d   1       1.166   1.361  -4.408  0.00  0.00    -0.004 A 
ATOM      5  C7  UNL d   1      -0.106   0.868  -4.130  0.00  0.00     0.002 A 
ATOM      6  C8  UNL d   1      -0.325   0.098  -2.987  0.00  0.00     0.002 A 
ENDROOT
BRANCH   1   7
ATOM      7  C2  UNL d   1       0.484  -0.998  -0.858  0.00  0.00     0.056 C 
BRANCH   7   8
ATOM      8  C1  UNL d   1       0.408  -0.162   0.424  0.00  0.00     0.007 C 
ATOM      9  C   UNL d   1      -1.013   0.239   0.796  0.00  0.00     0.009 C 
ENDBRANCH   7   8
ENDBRANCH   1   7
TORSDOF 2
ENDMDL
