MODEL 1
REMARK minimizedAffinity 3.31069112
REMARK minimizedRMSD -1
REMARK  2 active torsions:
REMARK  status: ('A' for Active; 'I' for Inactive)
REMARK    1  A    between atoms: C1_2  and  C2_3 
REMARK    2  A    between atoms: C2_3  and  C3_4 
ROOT
ATOM      1  C3  UNL d   1      -0.537   0.070  -0.028  0.00  0.00    -0.075 A 
ATOM      2  C4  UNL d   1      -0.966  -0.856  -0.990  0.00  0.00     0.002 A 
ATOM      3  C5  UNL d   1      -2.326  -1.079  -1.202  0.00  0.00     0.002 A 
ATOM      4  C6  UNL d   1      -3.274  -0.388  -0.449  0.00  0.00    -0.004 A 
ATOM      5  C7  UNL d   1      -2.859   0.522   0.521  0.00  0.00     0.002 A 
ATOM      6  C8  UNL d   1      -1.498   0.750   0.732  0.00  0.00     0.002 A 
ENDROOT
BRANCH   1   7
ATOM      7  C2  UNL d   1       0.934   0.337   0.185  0.00  0.00     0.056 C 
BRANCH   7   8
ATOM      8  C1  UNL d   1       1.719  -0.873   0.702  0.00  0.00     0.007 C 
ATOM      9  C   UNL d   1       2.925  -0.489   1.550  0.00  0.00     0.009 C 
ENDBRANCH   7   8
ENDBRANCH   1   7
TORSDOF 2
ENDMDL
