MODEL 1
REMARK minimizedAffinity -2.91978693
REMARK minimizedRMSD -1
REMARK  2 active torsions:
REMARK  status: ('A' for Active; 'I' for Inactive)
REMARK    1  A    between atoms: C1_2  and  C2_3 
REMARK    2  A    between atoms: C2_3  and  C3_4 
ROOT
ATOM      1  C3  UNL d   1       0.020  -1.110  -3.623  0.00  0.00    -0.075 A 
ATOM      2  C4  UNL d   1      -0.640  -2.338  -3.476  0.00  0.00     0.002 A 
ATOM      3  C5  UNL d   1      -1.199  -2.979  -4.582  0.00  0.00     0.002 A 
ATOM      4  C6  UNL d   1      -1.115  -2.396  -5.845  0.00  0.00    -0.004 A 
ATOM      5  C7  UNL d   1      -0.476  -1.168  -6.000  0.00  0.00     0.002 A 
ATOM      6  C8  UNL d   1       0.088  -0.527  -4.895  0.00  0.00     0.002 A 
ENDROOT
BRANCH   1   7
ATOM      7  C2  UNL d   1       0.653  -0.425  -2.435  0.00  0.00     0.056 C 
BRANCH   7   8
ATOM      8  C1  UNL d   1       0.431  -1.153  -1.105  0.00  0.00     0.007 C 
ATOM      9  C   UNL d   1       0.070  -0.215   0.040  0.00  0.00     0.009 C 
ENDBRANCH   7   8
ENDBRANCH   1   7
TORSDOF 2
ENDMDL
