MODEL 1
REMARK minimizedAffinity 3.12487864
REMARK minimizedRMSD -1
REMARK  2 active torsions:
REMARK  status: ('A' for Active; 'I' for Inactive)
REMARK    1  A    between atoms: C1_2  and  C2_3 
REMARK    2  A    between atoms: C2_3  and  C3_4 
ROOT
ATOM      1  C3  UNL d   1      -3.007   1.322   1.085  0.00  0.00    -0.075 A 
ATOM      2  C4  UNL d   1      -2.363   2.536   1.364  0.00  0.00     0.002 A 
ATOM      3  C5  UNL d   1      -1.200   2.560   2.135  0.00  0.00     0.002 A 
ATOM      4  C6  UNL d   1      -0.673   1.375   2.643  0.00  0.00    -0.004 A 
ATOM      5  C7  UNL d   1      -1.313   0.165   2.385  0.00  0.00     0.002 A 
ATOM      6  C8  UNL d   1      -2.474   0.137   1.611  0.00  0.00     0.002 A 
ENDROOT
BRANCH   1   7
ATOM      7  C2  UNL d   1      -4.249   1.285   0.227  0.00  0.00     0.056 C 
BRANCH   7   8
ATOM      8  C1  UNL d   1      -4.125   0.394  -1.013  0.00  0.00     0.007 C 
ATOM      9  C   UNL d   1      -5.385  -0.411  -1.303  0.00  0.00     0.009 C 
ENDBRANCH   7   8
ENDBRANCH   1   7
TORSDOF 2
ENDMDL
