MODEL 1
REMARK minimizedAffinity -2.42234755
REMARK minimizedRMSD -1
REMARK  1 active torsions:
REMARK  status: ('A' for Active; 'I' for Inactive)
REMARK    1  A    between atoms: C1_2  and  C2_3 
ROOT
ATOM      1  C2  UNL d   1      -0.083   0.407  -0.086  0.00  0.00    -0.076 A 
ATOM      2  C3  UNL d   1      -0.515   0.143   1.226  0.00  0.00     0.004 A 
ATOM      3  C4  UNL d   1      -0.955  -1.128   1.594  0.00  0.00    -0.003 A 
ATOM      4  C5  UNL d   1      -0.969  -2.155   0.656  0.00  0.00     0.000 A 
ATOM      5  C6  UNL d   1      -0.527  -1.915  -0.644  0.00  0.00     0.000 A 
ATOM      6  C7  UNL d   1      -0.065  -0.644  -1.027  0.00  0.00    -0.073 A 
ATOM      7  C8  UNL d   1       0.394  -0.439  -2.445  0.00  0.00     0.078 C 
ENDROOT
BRANCH   1   8
ATOM      8  C1  UNL d   1       0.357   1.811  -0.434  0.00  0.00     0.053 C 
ATOM      9  C   UNL d   1       1.552   2.268   0.388  0.00  0.00     0.018 C 
ENDBRANCH   1   8
TORSDOF 1
ENDMDL
