MODEL 1
REMARK minimizedAffinity -3.28371716
REMARK minimizedRMSD -1
REMARK  1 active torsions:
REMARK  status: ('A' for Active; 'I' for Inactive)
REMARK    1  A    between atoms: C1_2  and  C2_3 
ROOT
ATOM      1  C2  UNL d   1      -0.128  -1.441  -0.008  0.00  0.00    -0.076 A 
ATOM      2  C3  UNL d   1      -1.179  -2.331   0.273  0.00  0.00     0.004 A 
ATOM      3  C4  UNL d   1      -1.088  -3.679  -0.067  0.00  0.00    -0.003 A 
ATOM      4  C5  UNL d   1       0.057  -4.161  -0.692  0.00  0.00     0.000 A 
ATOM      5  C6  UNL d   1       1.117  -3.296  -0.962  0.00  0.00     0.000 A 
ATOM      6  C7  UNL d   1       1.048  -1.937  -0.612  0.00  0.00    -0.073 A 
ATOM      7  C8  UNL d   1       2.218  -1.048  -0.932  0.00  0.00     0.078 C 
ENDROOT
BRANCH   1   8
ATOM      8  C1  UNL d   1      -0.294   0.016   0.359  0.00  0.00     0.053 C 
ATOM      9  C   UNL d   1      -1.112   0.208   1.626  0.00  0.00     0.018 C 
ENDBRANCH   1   8
TORSDOF 1
ENDMDL
