MODEL 1
REMARK minimizedAffinity -5.05409622
REMARK minimizedRMSD -1
REMARK  1 active torsions:
REMARK  status: ('A' for Active; 'I' for Inactive)
REMARK    1  A    between atoms: C1_2  and  C2_3 
ROOT
ATOM      1  C2  UNL d   1      -0.223  -0.208   0.176  0.00  0.00    -0.076 A 
ATOM      2  C3  UNL d   1      -0.746  -0.445   1.459  0.00  0.00     0.004 A 
ATOM      3  C4  UNL d   1      -0.814  -1.737   1.978  0.00  0.00    -0.003 A 
ATOM      4  C5  UNL d   1      -0.359  -2.812   1.223  0.00  0.00     0.000 A 
ATOM      5  C6  UNL d   1       0.180  -2.593  -0.044  0.00  0.00     0.000 A 
ATOM      6  C7  UNL d   1       0.270  -1.296  -0.576  0.00  0.00    -0.073 A 
ATOM      7  C8  UNL d   1       0.854  -1.118  -1.951  0.00  0.00     0.078 C 
ENDROOT
BRANCH   1   8
ATOM      8  C1  UNL d   1      -0.200   1.211  -0.346  0.00  0.00     0.053 C 
ATOM      9  C   UNL d   1       0.920   2.039   0.266  0.00  0.00     0.018 C 
ENDBRANCH   1   8
TORSDOF 1
ENDMDL
