MODEL 1
REMARK minimizedAffinity -0.400718719
REMARK minimizedRMSD -1
REMARK  1 active torsions:
REMARK  status: ('A' for Active; 'I' for Inactive)
REMARK    1  A    between atoms: C1_2  and  C2_3 
ROOT
ATOM      1  C2  UNL d   1       0.387  -0.083  -0.498  0.00  0.00    -0.076 A 
ATOM      2  C3  UNL d   1       0.692  -1.020   0.504  0.00  0.00     0.004 A 
ATOM      3  C4  UNL d   1       1.070  -2.321   0.178  0.00  0.00    -0.003 A 
ATOM      4  C5  UNL d   1       1.150  -2.707  -1.155  0.00  0.00     0.000 A 
ATOM      5  C6  UNL d   1       0.868  -1.785  -2.163  0.00  0.00     0.000 A 
ATOM      6  C7  UNL d   1       0.501  -0.464  -1.852  0.00  0.00    -0.073 A 
ATOM      7  C8  UNL d   1       0.203   0.487  -2.979  0.00  0.00     0.078 C 
ENDROOT
BRANCH   1   8
ATOM      8  C1  UNL d   1      -0.043   1.306  -0.084  0.00  0.00     0.053 C 
ATOM      9  C   UNL d   1       1.116   2.147   0.428  0.00  0.00     0.018 C 
ENDBRANCH   1   8
TORSDOF 1
ENDMDL
