MODEL 1
REMARK minimizedAffinity -3.26300001
REMARK minimizedRMSD -1
REMARK  1 active torsions:
REMARK  status: ('A' for Active; 'I' for Inactive)
REMARK    1  A    between atoms: C1_2  and  C2_3 
ROOT
ATOM      1  C2  UNL d   1      -0.101  -1.192  -0.308  0.00  0.00    -0.076 A 
ATOM      2  C3  UNL d   1      -0.883  -0.027  -0.219  0.00  0.00     0.004 A 
ATOM      3  C4  UNL d   1      -1.756   0.171   0.849  0.00  0.00    -0.003 A 
ATOM      4  C5  UNL d   1      -1.863  -0.794   1.845  0.00  0.00     0.000 A 
ATOM      5  C6  UNL d   1      -1.082  -1.947   1.782  0.00  0.00     0.000 A 
ATOM      6  C7  UNL d   1      -0.184  -2.155   0.721  0.00  0.00    -0.073 A 
ATOM      7  C8  UNL d   1       0.629  -3.420   0.699  0.00  0.00     0.078 C 
ENDROOT
BRANCH   1   8
ATOM      8  C1  UNL d   1       0.809  -1.364  -1.503  0.00  0.00     0.053 C 
ATOM      9  C   UNL d   1       0.287  -0.650  -2.741  0.00  0.00     0.018 C 
ENDBRANCH   1   8
TORSDOF 1
ENDMDL
