MODEL 1
REMARK minimizedAffinity -2.26064181
REMARK minimizedRMSD -1
REMARK  1 active torsions:
REMARK  status: ('A' for Active; 'I' for Inactive)
REMARK    1  A    between atoms: C1_2  and  C2_3 
ROOT
ATOM      1  C2  UNL d   1       0.311  -0.081   0.041  0.00  0.00    -0.076 A 
ATOM      2  C3  UNL d   1      -0.204  -0.179   1.346  0.00  0.00     0.004 A 
ATOM      3  C4  UNL d   1      -0.554  -1.414   1.888  0.00  0.00    -0.003 A 
ATOM      4  C5  UNL d   1      -0.394  -2.572   1.134  0.00  0.00     0.000 A 
ATOM      5  C6  UNL d   1       0.131  -2.495  -0.155  0.00  0.00     0.000 A 
ATOM      6  C7  UNL d   1       0.504  -1.259  -0.710  0.00  0.00    -0.073 A 
ATOM      7  C8  UNL d   1       1.060  -1.234  -2.108  0.00  0.00     0.078 C 
ENDROOT
BRANCH   1   8
ATOM      8  C1  UNL d   1       0.647   1.289  -0.503  0.00  0.00     0.053 C 
ATOM      9  C   UNL d   1       0.809   2.329   0.595  0.00  0.00     0.018 C 
ENDBRANCH   1   8
TORSDOF 1
ENDMDL
