MODEL 1
REMARK minimizedAffinity -1.49251604
REMARK minimizedRMSD -1
REMARK  1 active torsions:
REMARK  status: ('A' for Active; 'I' for Inactive)
REMARK    1  A    between atoms: C1_2  and  C2_3 
ROOT
ATOM      1  C2  UNL d   1      -1.117  -1.752   0.770  0.00  0.00    -0.076 A 
ATOM      2  C3  UNL d   1      -1.156  -0.369   1.021  0.00  0.00     0.004 A 
ATOM      3  C4  UNL d   1      -0.055   0.441   0.749  0.00  0.00    -0.003 A 
ATOM      4  C5  UNL d   1       1.103  -0.119   0.221  0.00  0.00     0.000 A 
ATOM      5  C6  UNL d   1       1.154  -1.485  -0.051  0.00  0.00     0.000 A 
ATOM      6  C7  UNL d   1       0.047  -2.313   0.203  0.00  0.00    -0.073 A 
ATOM      7  C8  UNL d   1       0.158  -3.782  -0.104  0.00  0.00     0.078 C 
ENDROOT
BRANCH   1   8
ATOM      8  C1  UNL d   1      -2.332  -2.584   1.111  0.00  0.00     0.053 C 
ATOM      9  C   UNL d   1      -3.338  -2.641  -0.029  0.00  0.00     0.018 C 
ENDBRANCH   1   8
TORSDOF 1
ENDMDL
