MODEL 1
REMARK minimizedAffinity -3.21209955
REMARK minimizedRMSD -1
REMARK  1 active torsions:
REMARK  status: ('A' for Active; 'I' for Inactive)
REMARK    1  A    between atoms: C1_2  and  C2_3 
ROOT
ATOM      1  C2  UNL d   1       0.093  -0.955  -0.148  0.00  0.00    -0.076 A 
ATOM      2  C3  UNL d   1      -0.530   0.281   0.097  0.00  0.00     0.004 A 
ATOM      3  C4  UNL d   1      -1.372   0.455   1.194  0.00  0.00    -0.003 A 
ATOM      4  C5  UNL d   1      -1.603  -0.604   2.065  0.00  0.00     0.000 A 
ATOM      5  C6  UNL d   1      -0.979  -1.832   1.848  0.00  0.00     0.000 A 
ATOM      6  C7  UNL d   1      -0.115  -2.019   0.755  0.00  0.00    -0.073 A 
ATOM      7  C8  UNL d   1       0.527  -3.366   0.565  0.00  0.00     0.078 C 
ENDROOT
BRANCH   1   8
ATOM      8  C1  UNL d   1       0.974  -1.092  -1.369  0.00  0.00     0.053 C 
ATOM      9  C   UNL d   1       0.544  -0.175  -2.504  0.00  0.00     0.018 C 
ENDBRANCH   1   8
TORSDOF 1
ENDMDL
