MODEL 1
REMARK minimizedAffinity -3.62762523
REMARK minimizedRMSD -1
REMARK  1 active torsions:
REMARK  status: ('A' for Active; 'I' for Inactive)
REMARK    1  A    between atoms: C1_2  and  C2_3 
ROOT
ATOM      1  C2  UNL d   1      -0.176  -0.173   0.035  0.00  0.00    -0.076 A 
ATOM      2  C3  UNL d   1      -0.235  -0.813   1.285  0.00  0.00     0.004 A 
ATOM      3  C4  UNL d   1      -0.014  -2.184   1.401  0.00  0.00    -0.003 A 
ATOM      4  C5  UNL d   1       0.271  -2.938   0.267  0.00  0.00     0.000 A 
ATOM      5  C6  UNL d   1       0.351  -2.317  -0.979  0.00  0.00     0.000 A 
ATOM      6  C7  UNL d   1       0.146  -0.933  -1.110  0.00  0.00    -0.073 A 
ATOM      7  C8  UNL d   1       0.239  -0.316  -2.479  0.00  0.00     0.078 C 
ENDROOT
BRANCH   1   8
ATOM      8  C1  UNL d   1      -0.452   1.312  -0.032  0.00  0.00     0.053 C 
ATOM      9  C   UNL d   1       0.688   2.143   0.536  0.00  0.00     0.018 C 
ENDBRANCH   1   8
TORSDOF 1
ENDMDL
