MODEL 1
REMARK minimizedAffinity -2.94951582
REMARK minimizedRMSD -1
REMARK  1 active torsions:
REMARK  status: ('A' for Active; 'I' for Inactive)
REMARK    1  A    between atoms: C1_2  and  C2_3 
ROOT
ATOM      1  C2  UNL d   1       0.309  -1.756  -0.151  0.00  0.00    -0.076 A 
ATOM      2  C3  UNL d   1       0.845  -1.551  -1.434  0.00  0.00     0.004 A 
ATOM      3  C4  UNL d   1       0.593  -0.375  -2.138  0.00  0.00    -0.003 A 
ATOM      4  C5  UNL d   1      -0.200   0.616  -1.569  0.00  0.00     0.000 A 
ATOM      5  C6  UNL d   1      -0.725   0.437  -0.290  0.00  0.00     0.000 A 
ATOM      6  C7  UNL d   1      -0.467  -0.736   0.439  0.00  0.00    -0.073 A 
ATOM      7  C8  UNL d   1      -1.065  -0.879   1.812  0.00  0.00     0.078 C 
ENDROOT
BRANCH   1   8
ATOM      8  C1  UNL d   1       0.595  -3.064   0.553  0.00  0.00     0.053 C 
ATOM      9  C   UNL d   1       0.058  -4.265  -0.210  0.00  0.00     0.018 C 
ENDBRANCH   1   8
TORSDOF 1
ENDMDL
