MODEL 1
REMARK minimizedAffinity -1.09701478
REMARK minimizedRMSD -1
REMARK  1 active torsions:
REMARK  status: ('A' for Active; 'I' for Inactive)
REMARK    1  A    between atoms: C1_2  and  C2_3 
ROOT
ATOM      1  C2  UNL d   1       0.056  -1.505   0.051  0.00  0.00    -0.076 A 
ATOM      2  C3  UNL d   1      -0.433  -0.723   1.113  0.00  0.00     0.004 A 
ATOM      3  C4  UNL d   1      -0.550   0.661   0.990  0.00  0.00    -0.003 A 
ATOM      4  C5  UNL d   1      -0.181   1.285  -0.197  0.00  0.00     0.000 A 
ATOM      5  C6  UNL d   1       0.289   0.523  -1.266  0.00  0.00     0.000 A 
ATOM      6  C7  UNL d   1       0.398  -0.874  -1.164  0.00  0.00    -0.073 A 
ATOM      7  C8  UNL d   1       0.917  -1.646  -2.347  0.00  0.00     0.078 C 
ENDROOT
BRANCH   1   8
ATOM      8  C1  UNL d   1       0.187  -2.998   0.252  0.00  0.00     0.053 C 
ATOM      9  C   UNL d   1      -1.158  -3.677   0.459  0.00  0.00     0.018 C 
ENDBRANCH   1   8
TORSDOF 1
ENDMDL
