MODEL 1
REMARK minimizedAffinity -3.96766043
REMARK minimizedRMSD -1
REMARK  1 active torsions:
REMARK  status: ('A' for Active; 'I' for Inactive)
REMARK    1  A    between atoms: C1_2  and  C2_3 
ROOT
ATOM      1  C2  UNL d   1       0.140  -0.241   0.064  0.00  0.00    -0.076 A 
ATOM      2  C3  UNL d   1       1.051  -1.076  -0.606  0.00  0.00     0.004 A 
ATOM      3  C4  UNL d   1       1.038  -2.456  -0.409  0.00  0.00    -0.003 A 
ATOM      4  C5  UNL d   1       0.113  -3.023   0.460  0.00  0.00     0.000 A 
ATOM      5  C6  UNL d   1      -0.810  -2.212   1.120  0.00  0.00     0.000 A 
ATOM      6  C7  UNL d   1      -0.821  -0.821   0.921  0.00  0.00    -0.073 A 
ATOM      7  C8  UNL d   1      -1.834   0.007   1.663  0.00  0.00     0.078 C 
ENDROOT
BRANCH   1   8
ATOM      8  C1  UNL d   1       0.219   1.251  -0.167  0.00  0.00     0.053 C 
ATOM      9  C   UNL d   1       1.487   1.864   0.408  0.00  0.00     0.018 C 
ENDBRANCH   1   8
TORSDOF 1
ENDMDL
