MODEL 1
REMARK minimizedAffinity -3.85800743
REMARK minimizedRMSD -1
REMARK  1 active torsions:
REMARK  status: ('A' for Active; 'I' for Inactive)
REMARK    1  A    between atoms: C1_2  and  C2_3 
ROOT
ATOM      1  C2  UNL d   1      -0.942  -3.102  -1.743  0.00  0.00    -0.076 A 
ATOM      2  C3  UNL d   1      -2.050  -3.434  -2.541  0.00  0.00     0.004 A 
ATOM      3  C4  UNL d   1      -3.301  -3.666  -1.971  0.00  0.00    -0.003 A 
ATOM      4  C5  UNL d   1      -3.464  -3.569  -0.593  0.00  0.00     0.000 A 
ATOM      5  C6  UNL d   1      -2.379  -3.223   0.212  0.00  0.00     0.000 A 
ATOM      6  C7  UNL d   1      -1.115  -2.970  -0.348  0.00  0.00    -0.073 A 
ATOM      7  C8  UNL d   1       0.021  -2.607   0.568  0.00  0.00     0.078 C 
ENDROOT
BRANCH   1   8
ATOM      8  C1  UNL d   1       0.396  -2.889  -2.414  0.00  0.00     0.053 C 
ATOM      9  C   UNL d   1       0.628  -1.437  -2.802  0.00  0.00     0.018 C 
ENDBRANCH   1   8
TORSDOF 1
ENDMDL
