MODEL 1
REMARK minimizedAffinity -1.57972693
REMARK minimizedRMSD -1
REMARK  0 active torsions:
REMARK  status: ('A' for Active; 'I' for Inactive)
ROOT
ATOM      1  C   UNL d   1      -1.851   1.273   2.125  0.00  0.00    -0.002 A 
ATOM      2  C1  UNL d   1      -2.406   1.271   0.853  0.00  0.00     0.010 A 
ATOM      3  C2  UNL d   1      -1.762   0.621  -0.202  0.00  0.00     0.041 A 
ATOM      4  C3  UNL d   1      -0.540  -0.035   0.046  0.00  0.00    -0.075 A 
ATOM      5  S   UNL d   1       0.426  -0.897  -1.092  0.00  0.00     0.015 SA
ATOM      6  C4  UNL d   1       1.598  -1.284   0.083  0.00  0.00     0.022 A 
ATOM      7  C5  UNL d   1       1.276  -0.776   1.319  0.00  0.00     0.026 A 
ATOM      8  C6  UNL d   1       0.038  -0.048   1.318  0.00  0.00    -0.082 A 
ATOM      9  C7  UNL d   1      -0.639   0.621   2.367  0.00  0.00     0.045 A 
ENDROOT
TORSDOF 0
ENDMDL
