MODEL 1
REMARK minimizedAffinity -2.85560036
REMARK minimizedRMSD -1
REMARK  0 active torsions:
REMARK  status: ('A' for Active; 'I' for Inactive)
ROOT
ATOM      1  C   UNL d   1      -1.436   1.217   2.059  0.00  0.00    -0.002 A 
ATOM      2  C1  UNL d   1      -0.666   0.382   2.856  0.00  0.00     0.010 A 
ATOM      3  C2  UNL d   1       0.206  -0.544   2.279  0.00  0.00     0.041 A 
ATOM      4  C3  UNL d   1       0.293  -0.615   0.874  0.00  0.00    -0.075 A 
ATOM      5  S   UNL d   1       1.292  -1.670  -0.053  0.00  0.00     0.015 SA
ATOM      6  C4  UNL d   1       0.721  -1.036  -1.528  0.00  0.00     0.022 A 
ATOM      7  C5  UNL d   1      -0.211  -0.043  -1.336  0.00  0.00     0.026 A 
ATOM      8  C6  UNL d   1      -0.472   0.217   0.051  0.00  0.00    -0.082 A 
ATOM      9  C7  UNL d   1      -1.348   1.144   0.667  0.00  0.00     0.045 A 
ENDROOT
TORSDOF 0
ENDMDL
