MODEL 1
REMARK minimizedAffinity -2.18015337
REMARK minimizedRMSD -1
REMARK  0 active torsions:
REMARK  status: ('A' for Active; 'I' for Inactive)
ROOT
ATOM      1  C   UNL d   1      -1.170   0.522  -1.679  0.00  0.00    -0.002 A 
ATOM      2  C1  UNL d   1       0.076  -0.085  -1.727  0.00  0.00     0.010 A 
ATOM      3  C2  UNL d   1       0.781  -0.355  -0.552  0.00  0.00     0.041 A 
ATOM      4  C3  UNL d   1       0.205  -0.002   0.684  0.00  0.00    -0.075 A 
ATOM      5  S   UNL d   1       0.883  -0.237   2.252  0.00  0.00     0.015 SA
ATOM      6  C4  UNL d   1      -0.466   0.463   3.022  0.00  0.00     0.022 A 
ATOM      7  C5  UNL d   1      -1.420   0.871   2.121  0.00  0.00     0.026 A 
ATOM      8  C6  UNL d   1      -1.050   0.609   0.758  0.00  0.00    -0.082 A 
ATOM      9  C7  UNL d   1      -1.739   0.870  -0.450  0.00  0.00     0.045 A 
ENDROOT
TORSDOF 0
ENDMDL
