MODEL 1
REMARK minimizedAffinity 0.275388747
REMARK minimizedRMSD -1
REMARK  0 active torsions:
REMARK  status: ('A' for Active; 'I' for Inactive)
ROOT
ATOM      1  C   UNL d   1       0.359  -0.344  -4.431  0.00  0.00    -0.002 A 
ATOM      2  C1  UNL d   1       1.000   0.871  -4.234  0.00  0.00     0.010 A 
ATOM      3  C2  UNL d   1       1.186   1.374  -2.945  0.00  0.00     0.041 A 
ATOM      4  C3  UNL d   1       0.714   0.628  -1.847  0.00  0.00    -0.075 A 
ATOM      5  S   UNL d   1       0.831   1.047  -0.178  0.00  0.00     0.015 SA
ATOM      6  C4  UNL d   1       0.034  -0.377   0.312  0.00  0.00     0.022 A 
ATOM      7  C5  UNL d   1      -0.321  -1.164  -0.758  0.00  0.00     0.026 A 
ATOM      8  C6  UNL d   1       0.066  -0.598  -2.020  0.00  0.00    -0.082 A 
ATOM      9  C7  UNL d   1      -0.108  -1.081  -3.339  0.00  0.00     0.045 A 
ENDROOT
TORSDOF 0
ENDMDL
