MODEL 1
REMARK minimizedAffinity 2.63400483
REMARK minimizedRMSD -1
REMARK  0 active torsions:
REMARK  status: ('A' for Active; 'I' for Inactive)
ROOT
ATOM      1  C   UNL d   1      -1.567   0.836   2.339  0.00  0.00    -0.002 A 
ATOM      2  C1  UNL d   1      -0.451   0.242   2.910  0.00  0.00     0.010 A 
ATOM      3  C2  UNL d   1       0.520  -0.364   2.110  0.00  0.00     0.041 A 
ATOM      4  C3  UNL d   1       0.349  -0.361   0.711  0.00  0.00    -0.075 A 
ATOM      5  S   UNL d   1       1.408  -1.041  -0.467  0.00  0.00     0.015 SA
ATOM      6  C4  UNL d   1       0.404  -0.559  -1.757  0.00  0.00     0.022 A 
ATOM      7  C5  UNL d   1      -0.716   0.106  -1.317  0.00  0.00     0.026 A 
ATOM      8  C6  UNL d   1      -0.766   0.232   0.112  0.00  0.00    -0.082 A 
ATOM      9  C7  UNL d   1      -1.733   0.836   0.951  0.00  0.00     0.045 A 
ENDROOT
TORSDOF 0
ENDMDL
