MODEL 1
REMARK minimizedAffinity -0.622512341
REMARK minimizedRMSD -1
REMARK  0 active torsions:
REMARK  status: ('A' for Active; 'I' for Inactive)
ROOT
ATOM      1  C   UNL d   1      -0.890   0.505   3.379  0.00  0.00    -0.002 A 
ATOM      2  C1  UNL d   1       0.371  -0.031   3.596  0.00  0.00     0.010 A 
ATOM      3  C2  UNL d   1       1.141  -0.492   2.526  0.00  0.00     0.041 A 
ATOM      4  C3  UNL d   1       0.617  -0.402   1.221  0.00  0.00    -0.075 A 
ATOM      5  S   UNL d   1       1.380  -0.901  -0.242  0.00  0.00     0.015 SA
ATOM      6  C4  UNL d   1       0.049  -0.414  -1.189  0.00  0.00     0.022 A 
ATOM      7  C5  UNL d   1      -0.961   0.119  -0.424  0.00  0.00     0.026 A 
ATOM      8  C6  UNL d   1      -0.650   0.135   0.978  0.00  0.00    -0.082 A 
ATOM      9  C7  UNL d   1      -1.406   0.593   2.084  0.00  0.00     0.045 A 
ENDROOT
TORSDOF 0
ENDMDL
