MODEL 1
REMARK minimizedAffinity 0.161283806
REMARK minimizedRMSD -1
REMARK  0 active torsions:
REMARK  status: ('A' for Active; 'I' for Inactive)
ROOT
ATOM      1  C   UNL d   1       1.808   0.672  -4.127  0.00  0.00    -0.002 A 
ATOM      2  C1  UNL d   1       0.615   0.048  -4.462  0.00  0.00     0.010 A 
ATOM      3  C2  UNL d   1      -0.226  -0.458  -3.468  0.00  0.00     0.041 A 
ATOM      4  C3  UNL d   1       0.156  -0.324  -2.119  0.00  0.00    -0.075 A 
ATOM      5  S   UNL d   1      -0.714  -0.867  -0.733  0.00  0.00     0.015 SA
ATOM      6  C4  UNL d   1       0.477  -0.283   0.336  0.00  0.00     0.022 A 
ATOM      7  C5  UNL d   1       1.521   0.314  -0.330  0.00  0.00     0.026 A 
ATOM      8  C6  UNL d   1       1.353   0.301  -1.756  0.00  0.00    -0.082 A 
ATOM      9  C7  UNL d   1       2.184   0.803  -2.787  0.00  0.00     0.045 A 
ENDROOT
TORSDOF 0
ENDMDL
