MODEL 1
REMARK minimizedAffinity -1.37662768
REMARK minimizedRMSD -1
REMARK  0 active torsions:
REMARK  status: ('A' for Active; 'I' for Inactive)
ROOT
ATOM      1  C   UNL d   1       0.124   1.695   2.829  0.00  0.00    -0.002 A 
ATOM      2  C1  UNL d   1       1.254   1.036   2.367  0.00  0.00     0.010 A 
ATOM      3  C2  UNL d   1       1.180   0.190   1.258  0.00  0.00     0.041 A 
ATOM      4  C3  UNL d   1      -0.061   0.018   0.615  0.00  0.00    -0.075 A 
ATOM      5  S   UNL d   1      -0.390  -0.967  -0.762  0.00  0.00     0.015 SA
ATOM      6  C4  UNL d   1      -2.039  -0.535  -0.769  0.00  0.00     0.022 A 
ATOM      7  C5  UNL d   1      -2.348   0.338   0.247  0.00  0.00     0.026 A 
ATOM      8  C6  UNL d   1      -1.213   0.672   1.061  0.00  0.00    -0.082 A 
ATOM      9  C7  UNL d   1      -1.105   1.521   2.188  0.00  0.00     0.045 A 
ENDROOT
TORSDOF 0
ENDMDL
