MODEL 1
REMARK minimizedAffinity -4.44029522
REMARK minimizedRMSD -1
REMARK  0 active torsions:
REMARK  status: ('A' for Active; 'I' for Inactive)
ROOT
ATOM      1  C   UNL d   1      -1.337   1.711   1.750  0.00  0.00    -0.002 A 
ATOM      2  C1  UNL d   1      -0.753   0.760   2.573  0.00  0.00     0.010 A 
ATOM      3  C2  UNL d   1       0.019  -0.270   2.033  0.00  0.00     0.041 A 
ATOM      4  C3  UNL d   1       0.197  -0.327   0.636  0.00  0.00    -0.075 A 
ATOM      5  S   UNL d   1       1.102  -1.498  -0.249  0.00  0.00     0.015 SA
ATOM      6  C4  UNL d   1       0.735  -0.761  -1.742  0.00  0.00     0.022 A 
ATOM      7  C5  UNL d   1      -0.057   0.351  -1.587  0.00  0.00     0.026 A 
ATOM      8  C6  UNL d   1      -0.380   0.620  -0.214  0.00  0.00    -0.082 A 
ATOM      9  C7  UNL d   1      -1.158   1.652   0.365  0.00  0.00     0.045 A 
ENDROOT
TORSDOF 0
ENDMDL
