MODEL 1
REMARK minimizedAffinity 10.2801743
REMARK minimizedRMSD -1
REMARK  0 active torsions:
REMARK  status: ('A' for Active; 'I' for Inactive)
ROOT
ATOM      1  C2' OXE d   1      -0.000   2.738   0.305  0.00  0.00     0.078 C 
ATOM      2  C1' OXE d   1       1.844   4.853   0.222  0.00  0.00     0.078 C 
ATOM      3  C1  OXE d   1       0.673   4.903  -0.727  0.00  0.00    -0.078 A 
ATOM      4  C2  OXE d   1      -0.199   3.841  -0.712  0.00  0.00    -0.078 A 
ATOM      5  C3  OXE d   1      -1.326   3.862  -1.529  0.00  0.00     0.003 A 
ATOM      6  C4  OXE d   1      -1.497   4.881  -2.474  0.00  0.00    -0.002 A 
ATOM      7  C5  OXE d   1      -0.599   5.952  -2.534  0.00  0.00    -0.002 A 
ATOM      8  C6  OXE d   1       0.465   5.999  -1.640  0.00  0.00     0.003 A 
ENDROOT
TORSDOF 0
ENDMDL
