MODEL 1
REMARK minimizedAffinity 7.57924271
REMARK minimizedRMSD -1
REMARK  0 active torsions:
REMARK  status: ('A' for Active; 'I' for Inactive)
ROOT
ATOM      1  C2' OXE d   1       2.119   3.415   3.179  0.00  0.00     0.078 C 
ATOM      2  C1' OXE d   1      -0.131   1.738   3.258  0.00  0.00     0.078 C 
ATOM      3  C1  OXE d   1       0.166   2.456   1.966  0.00  0.00    -0.078 A 
ATOM      4  C2  OXE d   1       1.242   3.311   1.950  0.00  0.00    -0.078 A 
ATOM      5  C3  OXE d   1       1.592   3.957   0.768  0.00  0.00     0.003 A 
ATOM      6  C4  OXE d   1       0.770   3.863  -0.361  0.00  0.00    -0.002 A 
ATOM      7  C5  OXE d   1      -0.353   3.029  -0.355  0.00  0.00    -0.002 A 
ATOM      8  C6  OXE d   1      -0.644   2.287   0.785  0.00  0.00     0.003 A 
ENDROOT
TORSDOF 0
ENDMDL
