MODEL 1
REMARK minimizedAffinity 1.56143963
REMARK minimizedRMSD -1
REMARK  0 active torsions:
REMARK  status: ('A' for Active; 'I' for Inactive)
ROOT
ATOM      1  C2' OXE d   1       1.553   4.905  -0.031  0.00  0.00     0.078 C 
ATOM      2  C1' OXE d   1      -1.057   5.608   0.724  0.00  0.00     0.078 C 
ATOM      3  C1  OXE d   1      -0.500   4.307   1.246  0.00  0.00    -0.078 A 
ATOM      4  C2  OXE d   1       0.761   3.949   0.834  0.00  0.00    -0.078 A 
ATOM      5  C3  OXE d   1       1.344   2.786   1.329  0.00  0.00     0.003 A 
ATOM      6  C4  OXE d   1       0.601   1.902   2.120  0.00  0.00    -0.002 A 
ATOM      7  C5  OXE d   1      -0.700   2.228   2.520  0.00  0.00    -0.002 A 
ATOM      8  C6  OXE d   1      -1.248   3.445   2.127  0.00  0.00     0.003 A 
ENDROOT
TORSDOF 0
ENDMDL
