MODEL 1
REMARK minimizedAffinity 5.82503271
REMARK minimizedRMSD -1
REMARK  0 active torsions:
REMARK  status: ('A' for Active; 'I' for Inactive)
ROOT
ATOM      1  C2' OXE d   1       1.089   2.624   1.191  0.00  0.00     0.078 C 
ATOM      2  C1' OXE d   1       1.104   1.266  -1.266  0.00  0.00     0.078 C 
ATOM      3  C1  OXE d   1       0.182   2.451  -1.123  0.00  0.00    -0.078 A 
ATOM      4  C2  OXE d   1       0.147   3.081   0.098  0.00  0.00    -0.078 A 
ATOM      5  C3  OXE d   1      -0.645   4.212   0.267  0.00  0.00     0.003 A 
ATOM      6  C4  OXE d   1      -1.521   4.622  -0.746  0.00  0.00    -0.002 A 
ATOM      7  C5  OXE d   1      -1.530   3.970  -1.983  0.00  0.00    -0.002 A 
ATOM      8  C6  OXE d   1      -0.656   2.912  -2.202  0.00  0.00     0.003 A 
ENDROOT
TORSDOF 0
ENDMDL
