MODEL 1
REMARK minimizedAffinity 4.93352842
REMARK minimizedRMSD -1
REMARK  0 active torsions:
REMARK  status: ('A' for Active; 'I' for Inactive)
ROOT
ATOM      1  C2' OXE d   1      -3.096   3.768  -2.010  0.00  0.00     0.078 C 
ATOM      2  C1' OXE d   1      -0.925   2.969  -0.420  0.00  0.00     0.078 C 
ATOM      3  C1  OXE d   1      -0.684   4.044  -1.449  0.00  0.00    -0.078 A 
ATOM      4  C2  OXE d   1      -1.741   4.397  -2.255  0.00  0.00    -0.078 A 
ATOM      5  C3  OXE d   1      -1.588   5.422  -3.183  0.00  0.00     0.003 A 
ATOM      6  C4  OXE d   1      -0.328   5.991  -3.410  0.00  0.00    -0.002 A 
ATOM      7  C5  OXE d   1       0.770   5.618  -2.628  0.00  0.00    -0.002 A 
ATOM      8  C6  OXE d   1       0.600   4.679  -1.617  0.00  0.00     0.003 A 
ENDROOT
TORSDOF 0
ENDMDL
