MODEL 1
REMARK minimizedAffinity 1.29295373
REMARK minimizedRMSD -1
REMARK  0 active torsions:
REMARK  status: ('A' for Active; 'I' for Inactive)
ROOT
ATOM      1  C2' OXE d   1      -0.812   2.482  -0.515  0.00  0.00     0.078 C 
ATOM      2  C1' OXE d   1      -2.689   0.396  -0.449  0.00  0.00     0.078 C 
ATOM      3  C1  OXE d   1      -1.257   0.044  -0.768  0.00  0.00    -0.078 A 
ATOM      4  C2  OXE d   1      -0.354   1.077  -0.844  0.00  0.00    -0.078 A 
ATOM      5  C3  OXE d   1       0.990   0.802  -1.081  0.00  0.00     0.003 A 
ATOM      6  C4  OXE d   1       1.402  -0.498  -1.394  0.00  0.00    -0.002 A 
ATOM      7  C5  OXE d   1       0.492  -1.560  -1.361  0.00  0.00    -0.002 A 
ATOM      8  C6  OXE d   1      -0.831  -1.312  -1.009  0.00  0.00     0.003 A 
ENDROOT
TORSDOF 0
ENDMDL
