MODEL 1
REMARK minimizedAffinity 3.85307264
REMARK minimizedRMSD -1
REMARK  0 active torsions:
REMARK  status: ('A' for Active; 'I' for Inactive)
ROOT
ATOM      1  C2' OXE d   1       1.271   5.926  -1.341  0.00  0.00     0.078 C 
ATOM      2  C1' OXE d   1      -1.343   6.000  -2.363  0.00  0.00     0.078 C 
ATOM      3  C1  OXE d   1      -0.924   4.775  -1.589  0.00  0.00    -0.078 A 
ATOM      4  C2  OXE d   1       0.371   4.727  -1.133  0.00  0.00    -0.078 A 
ATOM      5  C3  OXE d   1       0.792   3.644  -0.366  0.00  0.00     0.003 A 
ATOM      6  C4  OXE d   1      -0.043   2.535  -0.187  0.00  0.00    -0.002 A 
ATOM      7  C5  OXE d   1      -1.353   2.546  -0.677  0.00  0.00    -0.002 A 
ATOM      8  C6  OXE d   1      -1.822   3.674  -1.342  0.00  0.00     0.003 A 
ENDROOT
TORSDOF 0
ENDMDL
