MODEL 1
REMARK minimizedAffinity 6.26020718
REMARK minimizedRMSD -1
REMARK  0 active torsions:
REMARK  status: ('A' for Active; 'I' for Inactive)
ROOT
ATOM      1  C2' OXE d   1      -5.977   4.468  -5.802  0.00  0.00     0.078 C 
ATOM      2  C1' OXE d   1      -3.454   5.455  -5.065  0.00  0.00     0.078 C 
ATOM      3  C1  OXE d   1      -4.113   4.454  -4.149  0.00  0.00    -0.078 A 
ATOM      4  C2  OXE d   1      -5.368   4.012  -4.493  0.00  0.00    -0.078 A 
ATOM      5  C3  OXE d   1      -5.997   3.047  -3.712  0.00  0.00     0.003 A 
ATOM      6  C4  OXE d   1      -5.431   2.638  -2.499  0.00  0.00    -0.002 A 
ATOM      7  C5  OXE d   1      -4.172   3.106  -2.109  0.00  0.00    -0.002 A 
ATOM      8  C6  OXE d   1      -3.482   3.980  -2.942  0.00  0.00     0.003 A 
ENDROOT
TORSDOF 0
ENDMDL
