MODEL 1
REMARK minimizedAffinity 5.33399248
REMARK minimizedRMSD -1
REMARK  0 active torsions:
REMARK  status: ('A' for Active; 'I' for Inactive)
ROOT
ATOM      1  C2' OXE d   1      -5.996   4.472  -1.418  0.00  0.00     0.078 C 
ATOM      2  C1' OXE d   1      -6.000   1.682  -1.733  0.00  0.00     0.078 C 
ATOM      3  C1  OXE d   1      -5.187   2.499  -2.706  0.00  0.00    -0.078 A 
ATOM      4  C2  OXE d   1      -5.228   3.866  -2.574  0.00  0.00    -0.078 A 
ATOM      5  C3  OXE d   1      -4.453   4.664  -3.411  0.00  0.00     0.003 A 
ATOM      6  C4  OXE d   1      -3.754   4.096  -4.483  0.00  0.00    -0.002 A 
ATOM      7  C5  OXE d   1      -3.731   2.709  -4.661  0.00  0.00    -0.002 A 
ATOM      8  C6  OXE d   1      -4.406   1.895  -3.758  0.00  0.00     0.003 A 
ENDROOT
TORSDOF 0
ENDMDL
