MODEL 1
REMARK minimizedAffinity 7.93159056
REMARK minimizedRMSD -1
REMARK  0 active torsions:
REMARK  status: ('A' for Active; 'I' for Inactive)
ROOT
ATOM      1  C2' OXE d   1       1.283   2.495   3.002  0.00  0.00     0.078 C 
ATOM      2  C1' OXE d   1      -1.492   2.901   2.896  0.00  0.00     0.078 C 
ATOM      3  C1  OXE d   1      -0.794   2.483   1.627  0.00  0.00    -0.078 A 
ATOM      4  C2  OXE d   1       0.571   2.331   1.677  0.00  0.00    -0.078 A 
ATOM      5  C3  OXE d   1       1.257   1.894   0.548  0.00  0.00     0.003 A 
ATOM      6  C4  OXE d   1       0.593   1.755  -0.677  0.00  0.00    -0.002 A 
ATOM      7  C5  OXE d   1      -0.791   1.943  -0.759  0.00  0.00    -0.002 A 
ATOM      8  C6  OXE d   1      -1.504   2.265   0.391  0.00  0.00     0.003 A 
ENDROOT
TORSDOF 0
ENDMDL
