MODEL 1
REMARK minimizedAffinity 6.85351276
REMARK minimizedRMSD -1
REMARK  0 active torsions:
REMARK  status: ('A' for Active; 'I' for Inactive)
ROOT
ATOM      1  C2' OXE d   1      -1.055   5.970   0.005  0.00  0.00     0.078 C 
ATOM      2  C1' OXE d   1       1.478   5.316  -1.014  0.00  0.00     0.078 C 
ATOM      3  C1  OXE d   1       0.835   4.348  -0.052  0.00  0.00    -0.078 A 
ATOM      4  C2  OXE d   1      -0.383   4.699   0.478  0.00  0.00    -0.078 A 
ATOM      5  C3  OXE d   1      -1.044   3.817   1.328  0.00  0.00     0.003 A 
ATOM      6  C4  OXE d   1      -0.412   2.648   1.769  0.00  0.00    -0.002 A 
ATOM      7  C5  OXE d   1       0.847   2.291   1.272  0.00  0.00    -0.002 A 
ATOM      8  C6  OXE d   1       1.464   3.108   0.331  0.00  0.00     0.003 A 
ENDROOT
TORSDOF 0
ENDMDL
