MODEL 1
REMARK minimizedAffinity 1.19827795
REMARK minimizedRMSD -1
REMARK  0 active torsions:
REMARK  status: ('A' for Active; 'I' for Inactive)
ROOT
ATOM      1  C2' OXE d   1       0.895   5.840  -2.569  0.00  0.00     0.078 C 
ATOM      2  C1' OXE d   1      -1.870   5.409  -2.338  0.00  0.00     0.078 C 
ATOM      3  C1  OXE d   1      -0.955   4.595  -1.457  0.00  0.00    -0.078 A 
ATOM      4  C2  OXE d   1       0.398   4.779  -1.610  0.00  0.00    -0.078 A 
ATOM      5  C3  OXE d   1       1.285   4.094  -0.785  0.00  0.00     0.003 A 
ATOM      6  C4  OXE d   1       0.818   3.107   0.093  0.00  0.00    -0.002 A 
ATOM      7  C5  OXE d   1      -0.555   2.876   0.235  0.00  0.00    -0.002 A 
ATOM      8  C6  OXE d   1      -1.454   3.640  -0.500  0.00  0.00     0.003 A 
ENDROOT
TORSDOF 0
ENDMDL
