MODEL 1
REMARK minimizedAffinity 2.93605518
REMARK minimizedRMSD -1
REMARK  0 active torsions:
REMARK  status: ('A' for Active; 'I' for Inactive)
ROOT
ATOM      1  C2' OXE d   1      -3.478   4.161  -5.898  0.00  0.00     0.078 C 
ATOM      2  C1' OXE d   1      -6.000   2.933  -6.000  0.00  0.00     0.078 C 
ATOM      3  C1  OXE d   1      -5.344   3.082  -4.650  0.00  0.00    -0.078 A 
ATOM      4  C2  OXE d   1      -4.089   3.642  -4.615  0.00  0.00    -0.078 A 
ATOM      5  C3  OXE d   1      -3.462   3.852  -3.390  0.00  0.00     0.003 A 
ATOM      6  C4  OXE d   1      -4.031   3.360  -2.209  0.00  0.00    -0.002 A 
ATOM      7  C5  OXE d   1      -5.290   2.752  -2.227  0.00  0.00    -0.002 A 
ATOM      8  C6  OXE d   1      -5.977   2.643  -3.431  0.00  0.00     0.003 A 
ENDROOT
TORSDOF 0
ENDMDL
