MODEL 1
REMARK minimizedAffinity -1.14170623
REMARK minimizedRMSD -1
REMARK  1 active torsions:
REMARK  status: ('A' for Active; 'I' for Inactive)
REMARK    1  A    between atoms: C3_4  and  O_7 
ROOT
ATOM      1  C   UNL d   1       5.667   5.229   0.490  0.00  0.00    -0.033 A 
ATOM      2  C1  UNL d   1       4.500   5.995   0.486  0.00  0.00     0.039 A 
ATOM      3  C2  UNL d   1       3.660   5.997   1.602  0.00  0.00    -0.080 A 
ATOM      4  C3  UNL d   1       4.000   5.231   2.714  0.00  0.00     0.150 A 
ATOM      5  C4  UNL d   1       5.163   4.468   2.725  0.00  0.00    -0.007 A 
ATOM      6  C5  UNL d   1       6.000   4.467   1.610  0.00  0.00     0.039 A 
ENDROOT
BRANCH   4   7
ATOM      7  O   UNL d   1       3.210   5.197   3.824  0.00  0.00    -0.526 OA
ATOM      8  H5  UNL d   1       2.427   5.749   3.661  0.00  0.00     0.418 HD
ENDBRANCH   4   7
TORSDOF 1
ENDMDL
