MODEL 1
REMARK minimizedAffinity -5.1109786
REMARK minimizedRMSD -1
REMARK  1 active torsions:
REMARK  status: ('A' for Active; 'I' for Inactive)
REMARK    1  A    between atoms: C3_4  and  O_7 
ROOT
ATOM      1  C   UNL d   1       0.740  -0.527   2.293  0.00  0.00    -0.033 A 
ATOM      2  C1  UNL d   1      -0.160  -0.276   1.255  0.00  0.00     0.039 A 
ATOM      3  C2  UNL d   1       0.121  -0.720  -0.038  0.00  0.00    -0.080 A 
ATOM      4  C3  UNL d   1       1.303  -1.414  -0.281  0.00  0.00     0.150 A 
ATOM      5  C4  UNL d   1       2.203  -1.671   0.749  0.00  0.00    -0.007 A 
ATOM      6  C5  UNL d   1       1.921  -1.226   2.040  0.00  0.00     0.039 A 
ENDROOT
BRANCH   4   7
ATOM      7  O   UNL d   1       1.623  -1.863  -1.527  0.00  0.00    -0.526 OA
ATOM      8  H5  UNL d   1       0.923  -1.588  -2.143  0.00  0.00     0.418 HD
ENDBRANCH   4   7
TORSDOF 1
ENDMDL
