MODEL 1
REMARK minimizedAffinity -2.2768662
REMARK minimizedRMSD -1
REMARK  1 active torsions:
REMARK  status: ('A' for Active; 'I' for Inactive)
REMARK    1  A    between atoms: C3_4  and  O_7 
ROOT
ATOM      1  C   UNL d   1      -1.335  -0.263  -1.041  0.00  0.00    -0.033 A 
ATOM      2  C1  UNL d   1      -0.013  -0.117  -0.618  0.00  0.00     0.039 A 
ATOM      3  C2  UNL d   1       0.712   1.024  -0.968  0.00  0.00    -0.080 A 
ATOM      4  C3  UNL d   1       0.103   2.010  -1.740  0.00  0.00     0.150 A 
ATOM      5  C4  UNL d   1      -1.216   1.872  -2.162  0.00  0.00    -0.007 A 
ATOM      6  C5  UNL d   1      -1.937   0.732  -1.811  0.00  0.00     0.039 A 
ENDROOT
BRANCH   4   7
ATOM      7  O   UNL d   1       0.771   3.138  -2.111  0.00  0.00    -0.526 OA
ATOM      8  H5  UNL d   1       1.681   3.083  -1.773  0.00  0.00     0.418 HD
ENDBRANCH   4   7
TORSDOF 1
ENDMDL
