MODEL 1
REMARK minimizedAffinity -4.81195211
REMARK minimizedRMSD -1
REMARK  1 active torsions:
REMARK  status: ('A' for Active; 'I' for Inactive)
REMARK    1  A    between atoms: C3_4  and  O_7 
ROOT
ATOM      1  C   UNL d   1       1.449  -1.354  -0.286  0.00  0.00    -0.033 A 
ATOM      2  C1  UNL d   1       0.509  -0.525   0.329  0.00  0.00     0.039 A 
ATOM      3  C2  UNL d   1       0.462  -0.433   1.722  0.00  0.00    -0.080 A 
ATOM      4  C3  UNL d   1       1.360  -1.173   2.486  0.00  0.00     0.150 A 
ATOM      5  C4  UNL d   1       2.301  -1.998   1.880  0.00  0.00    -0.007 A 
ATOM      6  C5  UNL d   1       2.346  -2.090   0.489  0.00  0.00     0.039 A 
ENDROOT
BRANCH   4   7
ATOM      7  O   UNL d   1       1.349  -1.119   3.848  0.00  0.00    -0.526 OA
ATOM      8  H5  UNL d   1       0.627  -0.531   4.127  0.00  0.00     0.418 HD
ENDBRANCH   4   7
TORSDOF 1
ENDMDL
