MODEL 1
REMARK minimizedAffinity -3.76124787
REMARK minimizedRMSD -1
REMARK  1 active torsions:
REMARK  status: ('A' for Active; 'I' for Inactive)
REMARK    1  A    between atoms: C3_4  and  O_7 
ROOT
ATOM      1  C   UNL d   1       0.636  -0.231  -0.612  0.00  0.00    -0.033 A 
ATOM      2  C1  UNL d   1      -0.615  -0.282   0.006  0.00  0.00     0.039 A 
ATOM      3  C2  UNL d   1      -0.769  -0.957   1.219  0.00  0.00    -0.080 A 
ATOM      4  C3  UNL d   1       0.334  -1.574   1.802  0.00  0.00     0.150 A 
ATOM      5  C4  UNL d   1       1.584  -1.524   1.193  0.00  0.00    -0.007 A 
ATOM      6  C5  UNL d   1       1.736  -0.850  -0.018  0.00  0.00     0.039 A 
ENDROOT
BRANCH   4   7
ATOM      7  O   UNL d   1       0.232  -2.249   2.982  0.00  0.00    -0.526 OA
ATOM      8  H5  UNL d   1      -0.695  -2.224   3.271  0.00  0.00     0.418 HD
ENDBRANCH   4   7
TORSDOF 1
ENDMDL
