MODEL 1
REMARK minimizedAffinity -5.26368237
REMARK minimizedRMSD -1
REMARK  1 active torsions:
REMARK  status: ('A' for Active; 'I' for Inactive)
REMARK    1  A    between atoms: C3_4  and  O_7 
ROOT
ATOM      1  C   UNL d   1       0.161  -0.718  -0.175  0.00  0.00    -0.033 A 
ATOM      2  C1  UNL d   1      -0.615  -0.970   0.958  0.00  0.00     0.039 A 
ATOM      3  C2  UNL d   1      -0.031  -0.943   2.226  0.00  0.00    -0.080 A 
ATOM      4  C3  UNL d   1       1.327  -0.661   2.348  0.00  0.00     0.150 A 
ATOM      5  C4  UNL d   1       2.105  -0.405   1.224  0.00  0.00    -0.007 A 
ATOM      6  C5  UNL d   1       1.521  -0.433  -0.042  0.00  0.00     0.039 A 
ENDROOT
BRANCH   4   7
ATOM      7  O   UNL d   1       1.941  -0.628   3.564  0.00  0.00    -0.526 OA
ATOM      8  H5  UNL d   1       1.286  -0.853   4.246  0.00  0.00     0.418 HD
ENDBRANCH   4   7
TORSDOF 1
ENDMDL
