MODEL 1
REMARK minimizedAffinity -2.2268033
REMARK minimizedRMSD -1
REMARK  0 active torsions:
REMARK  status: ('A' for Active; 'I' for Inactive)
ROOT
ATOM      1  C   UNL d   1       0.274  -0.940   2.599  0.00  0.00     0.023 A 
ATOM      2  C1  UNL d   1      -1.028  -0.713   2.154  0.00  0.00     0.003 A 
ATOM      3  C2  UNL d   1      -1.251   0.021   0.987  0.00  0.00     0.048 A 
ATOM      4  C3  UNL d   1      -0.166   0.524   0.270  0.00  0.00     0.023 A 
ATOM      5  C4  UNL d   1       1.139   0.298   0.711  0.00  0.00     0.048 A 
ATOM      6  C5  UNL d   1       1.356  -0.435   1.879  0.00  0.00     0.003 A 
ATOM      7  I   UNL d   1      -0.494   1.617  -1.467  0.00  0.00    -0.146 I 
ENDROOT
TORSDOF 0
ENDMDL
