MODEL 1
REMARK minimizedAffinity -1.4394778
REMARK minimizedRMSD -1
REMARK  0 active torsions:
REMARK  status: ('A' for Active; 'I' for Inactive)
ROOT
ATOM      1  C   UNL d   1       0.677  -1.087   2.692  0.00  0.00     0.023 A 
ATOM      2  C1  UNL d   1       1.685  -0.219   2.271  0.00  0.00     0.003 A 
ATOM      3  C2  UNL d   1       1.467   0.632   1.185  0.00  0.00     0.048 A 
ATOM      4  C3  UNL d   1       0.238   0.610   0.526  0.00  0.00     0.023 A 
ATOM      5  C4  UNL d   1      -0.773  -0.256   0.944  0.00  0.00     0.048 A 
ATOM      6  C5  UNL d   1      -0.550  -1.106   2.029  0.00  0.00     0.003 A 
ATOM      7  I   UNL d   1      -0.088   1.875  -1.091  0.00  0.00    -0.146 I 
ENDROOT
TORSDOF 0
ENDMDL
