MODEL 1
REMARK minimizedAffinity -1.91599798
REMARK minimizedRMSD -1
REMARK  0 active torsions:
REMARK  status: ('A' for Active; 'I' for Inactive)
ROOT
ATOM      1  C   UNL d   1       1.355  -0.437   1.805  0.00  0.00     0.023 A 
ATOM      2  C1  UNL d   1       2.224  -0.431   0.714  0.00  0.00     0.003 A 
ATOM      3  C2  UNL d   1       1.730  -0.210  -0.573  0.00  0.00     0.048 A 
ATOM      4  C3  UNL d   1       0.365   0.006  -0.763  0.00  0.00     0.023 A 
ATOM      5  C4  UNL d   1      -0.508   0.002   0.326  0.00  0.00     0.048 A 
ATOM      6  C5  UNL d   1      -0.010  -0.221   1.611  0.00  0.00     0.003 A 
ATOM      7  I   UNL d   1      -0.372   0.336  -2.677  0.00  0.00    -0.146 I 
ENDROOT
TORSDOF 0
ENDMDL
