MODEL 1
REMARK minimizedAffinity 0.783450305
REMARK minimizedRMSD -1
REMARK  0 active torsions:
REMARK  status: ('A' for Active; 'I' for Inactive)
ROOT
ATOM      1  C   UNL d   1       1.220   4.356  -4.323  0.00  0.00     0.023 A 
ATOM      2  C1  UNL d   1       1.282   5.154  -3.181  0.00  0.00     0.003 A 
ATOM      3  C2  UNL d   1       0.918   4.629  -1.940  0.00  0.00     0.048 A 
ATOM      4  C3  UNL d   1       0.494   3.304  -1.847  0.00  0.00     0.023 A 
ATOM      5  C4  UNL d   1       0.431   2.500  -2.987  0.00  0.00     0.048 A 
ATOM      6  C5  UNL d   1       0.795   3.031  -4.226  0.00  0.00     0.003 A 
ATOM      7  I   UNL d   1      -0.047   2.519  -0.000  0.00  0.00    -0.146 I 
ENDROOT
TORSDOF 0
ENDMDL
