MODEL 1
REMARK minimizedAffinity -3.25756812
REMARK minimizedRMSD -1
REMARK  0 active torsions:
REMARK  status: ('A' for Active; 'I' for Inactive)
ROOT
ATOM      1  C   UNL d   1       0.122  -0.746   1.630  0.00  0.00     0.023 A 
ATOM      2  C1  UNL d   1      -0.859   0.235   1.775  0.00  0.00     0.003 A 
ATOM      3  C2  UNL d   1      -1.144   1.101   0.717  0.00  0.00     0.048 A 
ATOM      4  C3  UNL d   1      -0.445   0.979  -0.484  0.00  0.00     0.023 A 
ATOM      5  C4  UNL d   1       0.536  -0.002  -0.634  0.00  0.00     0.048 A 
ATOM      6  C5  UNL d   1       0.819  -0.864   0.427  0.00  0.00     0.003 A 
ATOM      7  I   UNL d   1      -0.869   2.265  -2.060  0.00  0.00    -0.146 I 
ENDROOT
TORSDOF 0
ENDMDL
