MODEL 1
REMARK minimizedAffinity -2.09117746
REMARK minimizedRMSD -1
REMARK  0 active torsions:
REMARK  status: ('A' for Active; 'I' for Inactive)
ROOT
ATOM      1  C   UNL d   1      -0.990   1.205  -2.280  0.00  0.00     0.023 A 
ATOM      2  C1  UNL d   1      -0.079   1.691  -1.342  0.00  0.00     0.003 A 
ATOM      3  C2  UNL d   1       0.121   1.006  -0.142  0.00  0.00     0.048 A 
ATOM      4  C3  UNL d   1      -0.592  -0.165   0.113  0.00  0.00     0.023 A 
ATOM      5  C4  UNL d   1      -1.504  -0.655  -0.823  0.00  0.00     0.048 A 
ATOM      6  C5  UNL d   1      -1.701   0.033  -2.021  0.00  0.00     0.003 A 
ATOM      7  I   UNL d   1      -0.295  -1.187   1.899  0.00  0.00    -0.146 I 
ENDROOT
TORSDOF 0
ENDMDL
