MODEL 1
REMARK minimizedAffinity 0.0347294025
REMARK minimizedRMSD -1
REMARK  0 active torsions:
REMARK  status: ('A' for Active; 'I' for Inactive)
ROOT
ATOM      1  C   UNL d   1       0.563  -0.549   0.042  0.00  0.00     0.023 A 
ATOM      2  C1  UNL d   1       1.260   0.353  -0.763  0.00  0.00     0.003 A 
ATOM      3  C2  UNL d   1       0.568   1.333  -1.477  0.00  0.00     0.048 A 
ATOM      4  C3  UNL d   1      -0.821   1.407  -1.381  0.00  0.00     0.023 A 
ATOM      5  C4  UNL d   1      -1.523   0.508  -0.577  0.00  0.00     0.048 A 
ATOM      6  C5  UNL d   1      -0.827  -0.471   0.134  0.00  0.00     0.003 A 
ATOM      7  I   UNL d   1      -1.853   2.865  -2.443  0.00  0.00    -0.146 I 
ENDROOT
TORSDOF 0
ENDMDL
