MODEL 1
REMARK minimizedAffinity -0.818647504
REMARK minimizedRMSD -1
REMARK  0 active torsions:
REMARK  status: ('A' for Active; 'I' for Inactive)
ROOT
ATOM      1  C   UNL d   1       1.057  -0.905   0.389  0.00  0.00     0.023 A 
ATOM      2  C1  UNL d   1       0.588   0.291   0.932  0.00  0.00     0.003 A 
ATOM      3  C2  UNL d   1       0.065   1.280   0.097  0.00  0.00     0.048 A 
ATOM      4  C3  UNL d   1       0.011   1.067  -1.279  0.00  0.00     0.023 A 
ATOM      5  C4  UNL d   1       0.478  -0.129  -1.827  0.00  0.00     0.048 A 
ATOM      6  C5  UNL d   1       1.001  -1.115  -0.989  0.00  0.00     0.003 A 
ATOM      7  I   UNL d   1      -0.768   2.538  -2.524  0.00  0.00    -0.146 I 
ENDROOT
TORSDOF 0
ENDMDL
