MODEL 1
REMARK minimizedAffinity -1.79222548
REMARK minimizedRMSD -1
REMARK  0 active torsions:
REMARK  status: ('A' for Active; 'I' for Inactive)
ROOT
ATOM      1  C   UNL d   1      -2.455   3.000   2.795  0.00  0.00     0.023 A 
ATOM      2  C1  UNL d   1      -2.375   3.349   4.143  0.00  0.00     0.003 A 
ATOM      3  C2  UNL d   1      -3.273   2.801   5.062  0.00  0.00     0.048 A 
ATOM      4  C3  UNL d   1      -4.248   1.905   4.626  0.00  0.00     0.023 A 
ATOM      5  C4  UNL d   1      -4.331   1.552   3.278  0.00  0.00     0.048 A 
ATOM      6  C5  UNL d   1      -3.432   2.103   2.363  0.00  0.00     0.003 A 
ATOM      7  I   UNL d   1      -5.585   1.088   5.991  0.00  0.00    -0.146 I 
ENDROOT
TORSDOF 0
ENDMDL
