MODEL 1
REMARK minimizedAffinity -3.13102317
REMARK minimizedRMSD -1
REMARK  0 active torsions:
REMARK  status: ('A' for Active; 'I' for Inactive)
ROOT
ATOM      1  C   UNL d   1       0.492   1.200   1.799  0.00  0.00     0.023 A 
ATOM      2  C1  UNL d   1      -0.893   1.039   1.806  0.00  0.00     0.003 A 
ATOM      3  C2  UNL d   1      -1.506   0.203   0.870  0.00  0.00     0.048 A 
ATOM      4  C3  UNL d   1      -0.726  -0.469  -0.071  0.00  0.00     0.023 A 
ATOM      5  C4  UNL d   1       0.661  -0.312  -0.082  0.00  0.00     0.048 A 
ATOM      6  C5  UNL d   1       1.268   0.525   0.856  0.00  0.00     0.003 A 
ATOM      7  I   UNL d   1      -1.635  -1.713  -1.466  0.00  0.00    -0.146 I 
ENDROOT
TORSDOF 0
ENDMDL
