MODEL 1
REMARK minimizedAffinity -3.09285641
REMARK minimizedRMSD -1
REMARK  0 active torsions:
REMARK  status: ('A' for Active; 'I' for Inactive)
ROOT
ATOM      1  C   UNL d   1       2.097   2.017   2.156  0.00  0.00     0.023 A 
ATOM      2  C1  UNL d   1       0.762   1.780   2.482  0.00  0.00     0.003 A 
ATOM      3  C2  UNL d   1      -0.006   0.915   1.700  0.00  0.00     0.048 A 
ATOM      4  C3  UNL d   1       0.568   0.289   0.595  0.00  0.00     0.023 A 
ATOM      5  C4  UNL d   1       1.904   0.522   0.265  0.00  0.00     0.048 A 
ATOM      6  C5  UNL d   1       2.667   1.389   1.049  0.00  0.00     0.003 A 
ATOM      7  I   UNL d   1      -0.573  -1.000  -0.570  0.00  0.00    -0.146 I 
ENDROOT
TORSDOF 0
ENDMDL
