MODEL 1
REMARK minimizedAffinity -2.05107045
REMARK minimizedRMSD -1
REMARK  0 active torsions:
REMARK  status: ('A' for Active; 'I' for Inactive)
ROOT
ATOM      1  C   UNL d   1      -2.580  -1.649  -3.509  0.00  0.00     0.023 A 
ATOM      2  C1  UNL d   1      -1.290  -1.158  -3.711  0.00  0.00     0.003 A 
ATOM      3  C2  UNL d   1      -0.519  -0.746  -2.622  0.00  0.00     0.048 A 
ATOM      4  C3  UNL d   1      -1.045  -0.830  -1.333  0.00  0.00     0.023 A 
ATOM      5  C4  UNL d   1      -2.334  -1.321  -1.126  0.00  0.00     0.048 A 
ATOM      6  C5  UNL d   1      -3.101  -1.731  -2.218  0.00  0.00     0.003 A 
ATOM      7  I   UNL d   1       0.100  -0.218   0.291  0.00  0.00    -0.146 I 
ENDROOT
TORSDOF 0
ENDMDL
