MODEL 1
REMARK minimizedAffinity -3.65844703
REMARK minimizedRMSD -1
REMARK  0 active torsions:
REMARK  status: ('A' for Active; 'I' for Inactive)
ROOT
ATOM      1  C   UNL d   1       1.331   1.759   1.557  0.00  0.00     0.023 A 
ATOM      2  C1  UNL d   1       2.024   1.086   0.550  0.00  0.00     0.003 A 
ATOM      3  C2  UNL d   1       1.376   0.113  -0.215  0.00  0.00     0.048 A 
ATOM      4  C3  UNL d   1       0.036  -0.181   0.032  0.00  0.00     0.023 A 
ATOM      5  C4  UNL d   1      -0.662   0.490   1.038  0.00  0.00     0.048 A 
ATOM      6  C5  UNL d   1      -0.010   1.461   1.800  0.00  0.00     0.003 A 
ATOM      7  I   UNL d   1      -0.929  -1.629  -1.105  0.00  0.00    -0.146 I 
ENDROOT
TORSDOF 0
ENDMDL
