MODEL 1
REMARK minimizedAffinity -2.26556563
REMARK minimizedRMSD -1
REMARK  0 active torsions:
REMARK  status: ('A' for Active; 'I' for Inactive)
ROOT
ATOM      1  C   UNL d   1       2.150   1.723   1.591  0.00  0.00     0.023 A 
ATOM      2  C1  UNL d   1       0.773   1.748   1.811  0.00  0.00     0.003 A 
ATOM      3  C2  UNL d   1      -0.070   0.926   1.061  0.00  0.00     0.048 A 
ATOM      4  C3  UNL d   1       0.470   0.080   0.094  0.00  0.00     0.023 A 
ATOM      5  C4  UNL d   1       1.848   0.051  -0.130  0.00  0.00     0.048 A 
ATOM      6  C5  UNL d   1       2.687   0.875   0.622  0.00  0.00     0.003 A 
ATOM      7  I   UNL d   1      -0.783  -1.145  -1.024  0.00  0.00    -0.146 I 
ENDROOT
TORSDOF 0
ENDMDL
