MODEL 1
REMARK minimizedAffinity -3.32690287
REMARK minimizedRMSD -1
REMARK  0 active torsions:
REMARK  status: ('A' for Active; 'I' for Inactive)
ROOT
ATOM      1  C   UNL d   1      -2.804  -1.318  -3.328  0.00  0.00     0.023 A 
ATOM      2  C1  UNL d   1      -2.055  -0.146  -3.433  0.00  0.00     0.003 A 
ATOM      3  C2  UNL d   1      -1.107   0.168  -2.458  0.00  0.00     0.048 A 
ATOM      4  C3  UNL d   1      -0.911  -0.696  -1.381  0.00  0.00     0.023 A 
ATOM      5  C4  UNL d   1      -1.657  -1.871  -1.272  0.00  0.00     0.048 A 
ATOM      6  C5  UNL d   1      -2.605  -2.179  -2.249  0.00  0.00     0.003 A 
ATOM      7  I   UNL d   1       0.501  -0.231   0.072  0.00  0.00    -0.146 I 
ENDROOT
TORSDOF 0
ENDMDL
