MODEL 1
REMARK minimizedAffinity -2.86891532
REMARK minimizedRMSD -1
REMARK  0 active torsions:
REMARK  status: ('A' for Active; 'I' for Inactive)
ROOT
ATOM      1  C   UNL d   1       0.638   1.488   1.884  0.00  0.00     0.023 A 
ATOM      2  C1  UNL d   1      -0.752   1.371   1.894  0.00  0.00     0.003 A 
ATOM      3  C2  UNL d   1      -1.387   0.494   1.013  0.00  0.00     0.048 A 
ATOM      4  C3  UNL d   1      -0.626  -0.265   0.124  0.00  0.00     0.023 A 
ATOM      5  C4  UNL d   1       0.766  -0.153   0.111  0.00  0.00     0.048 A 
ATOM      6  C5  UNL d   1       1.396   0.727   0.993  0.00  0.00     0.003 A 
ATOM      7  I   UNL d   1      -1.569  -1.572  -1.188  0.00  0.00    -0.146 I 
ENDROOT
TORSDOF 0
ENDMDL
