MODEL 1
REMARK minimizedAffinity -1.47445965
REMARK minimizedRMSD -1
REMARK  0 active torsions:
REMARK  status: ('A' for Active; 'I' for Inactive)
ROOT
ATOM      1  C   UNL d   1      -2.931  -1.636  -3.271  0.00  0.00     0.023 A 
ATOM      2  C1  UNL d   1      -2.870  -1.857  -1.895  0.00  0.00     0.003 A 
ATOM      3  C2  UNL d   1      -1.721  -1.512  -1.182  0.00  0.00     0.048 A 
ATOM      4  C3  UNL d   1      -0.636  -0.945  -1.850  0.00  0.00     0.023 A 
ATOM      5  C4  UNL d   1      -0.693  -0.721  -3.226  0.00  0.00     0.048 A 
ATOM      6  C5  UNL d   1      -1.844  -1.069  -3.936  0.00  0.00     0.003 A 
ATOM      7  I   UNL d   1       1.075  -0.430  -0.789  0.00  0.00    -0.146 I 
ENDROOT
TORSDOF 0
ENDMDL
