MODEL 1
REMARK minimizedAffinity -1.18934309
REMARK minimizedRMSD -1
REMARK  0 active torsions:
REMARK  status: ('A' for Active; 'I' for Inactive)
ROOT
ATOM      1  C   UNL d   1      -0.108   1.111   1.462  0.00  0.00     0.023 A 
ATOM      2  C1  UNL d   1      -1.259   1.517   0.787  0.00  0.00     0.003 A 
ATOM      3  C2  UNL d   1      -1.787   0.724  -0.234  0.00  0.00     0.048 A 
ATOM      4  C3  UNL d   1      -1.160  -0.474  -0.573  0.00  0.00     0.023 A 
ATOM      5  C4  UNL d   1      -0.008  -0.885   0.101  0.00  0.00     0.048 A 
ATOM      6  C5  UNL d   1       0.516  -0.088   1.120  0.00  0.00     0.003 A 
ATOM      7  I   UNL d   1      -1.944  -1.657  -2.092  0.00  0.00    -0.146 I 
ENDROOT
TORSDOF 0
ENDMDL
