MODEL 1
REMARK minimizedAffinity -1.31167233
REMARK minimizedRMSD -1
REMARK  0 active torsions:
REMARK  status: ('A' for Active; 'I' for Inactive)
ROOT
ATOM      1  C   UNL d   1       1.075   1.544   1.867  0.00  0.00     0.023 A 
ATOM      2  C1  UNL d   1       1.820   0.621   1.133  0.00  0.00     0.003 A 
ATOM      3  C2  UNL d   1       1.178  -0.266   0.266  0.00  0.00     0.048 A 
ATOM      4  C3  UNL d   1      -0.210  -0.223   0.137  0.00  0.00     0.023 A 
ATOM      5  C4  UNL d   1      -0.960   0.700   0.868  0.00  0.00     0.048 A 
ATOM      6  C5  UNL d   1      -0.313   1.583   1.734  0.00  0.00     0.003 A 
ATOM      7  I   UNL d   1      -1.167  -1.541  -1.153  0.00  0.00    -0.146 I 
ENDROOT
TORSDOF 0
ENDMDL
