MODEL 1
REMARK minimizedAffinity -0.689477026
REMARK minimizedRMSD -1
REMARK  0 active torsions:
REMARK  status: ('A' for Active; 'I' for Inactive)
ROOT
ATOM      1  C   UNL d   1       0.739   2.033   1.769  0.00  0.00     0.023 A 
ATOM      2  C1  UNL d   1      -0.340   1.265   2.208  0.00  0.00     0.003 A 
ATOM      3  C2  UNL d   1      -0.787   0.185   1.444  0.00  0.00     0.048 A 
ATOM      4  C3  UNL d   1      -0.149  -0.123   0.242  0.00  0.00     0.023 A 
ATOM      5  C4  UNL d   1       0.932   0.642  -0.200  0.00  0.00     0.048 A 
ATOM      6  C5  UNL d   1       1.374   1.721   0.567  0.00  0.00     0.003 A 
ATOM      7  I   UNL d   1      -0.812  -1.730  -0.897  0.00  0.00    -0.146 I 
ENDROOT
TORSDOF 0
ENDMDL
