MODEL 1
REMARK minimizedAffinity -3.37363005
REMARK minimizedRMSD -1
REMARK  0 active torsions:
REMARK  status: ('A' for Active; 'I' for Inactive)
ROOT
ATOM      1  C   UNL d   1       2.494   1.293   1.574  0.00  0.00     0.023 A 
ATOM      2  C1  UNL d   1       1.153   1.507   1.890  0.00  0.00     0.003 A 
ATOM      3  C2  UNL d   1       0.151   0.864   1.161  0.00  0.00     0.048 A 
ATOM      4  C3  UNL d   1       0.497   0.006   0.118  0.00  0.00     0.023 A 
ATOM      5  C4  UNL d   1       1.838  -0.212  -0.202  0.00  0.00     0.048 A 
ATOM      6  C5  UNL d   1       2.837   0.435   0.529  0.00  0.00     0.003 A 
ATOM      7  I   UNL d   1      -0.992  -0.953  -0.969  0.00  0.00    -0.146 I 
ENDROOT
TORSDOF 0
ENDMDL
