MODEL 1
REMARK minimizedAffinity -2.7896564
REMARK minimizedRMSD -1
REMARK  0 active torsions:
REMARK  status: ('A' for Active; 'I' for Inactive)
ROOT
ATOM      1  C   UNL d   1       0.966   1.579   1.483  0.00  0.00     0.023 A 
ATOM      2  C1  UNL d   1       1.528   0.703   0.554  0.00  0.00     0.003 A 
ATOM      3  C2  UNL d   1       0.724  -0.233  -0.100  0.00  0.00     0.048 A 
ATOM      4  C3  UNL d   1      -0.641  -0.286   0.179  0.00  0.00     0.023 A 
ATOM      5  C4  UNL d   1      -1.208   0.589   1.106  0.00  0.00     0.048 A 
ATOM      6  C5  UNL d   1      -0.400   1.523   1.758  0.00  0.00     0.003 A 
ATOM      7  I   UNL d   1      -1.840  -1.678  -0.794  0.00  0.00    -0.146 I 
ENDROOT
TORSDOF 0
ENDMDL
