MODEL 1
REMARK minimizedAffinity -0.623377681
REMARK minimizedRMSD -1
REMARK  0 active torsions:
REMARK  status: ('A' for Active; 'I' for Inactive)
ROOT
ATOM      1  C   UNL d   1      -0.656  -0.884  -0.195  0.00  0.00     0.023 A 
ATOM      2  C1  UNL d   1      -0.656   0.342  -0.861  0.00  0.00     0.003 A 
ATOM      3  C2  UNL d   1       0.249   1.339  -0.491  0.00  0.00     0.048 A 
ATOM      4  C3  UNL d   1       1.153   1.103   0.544  0.00  0.00     0.023 A 
ATOM      5  C4  UNL d   1       1.157  -0.122   1.213  0.00  0.00     0.048 A 
ATOM      6  C5  UNL d   1       0.250  -1.115   0.840  0.00  0.00     0.003 A 
ATOM      7  I   UNL d   1       2.501   2.585   1.096  0.00  0.00    -0.146 I 
ENDROOT
TORSDOF 0
ENDMDL
