MODEL 1
REMARK minimizedAffinity 0.103822708
REMARK minimizedRMSD -1
REMARK  0 active torsions:
REMARK  status: ('A' for Active; 'I' for Inactive)
ROOT
ATOM      1  C   UNL d   1      -1.355  -2.223  -0.058  0.00  0.00     0.023 A 
ATOM      2  C1  UNL d   1      -1.256  -1.216  -1.019  0.00  0.00     0.003 A 
ATOM      3  C2  UNL d   1      -0.359  -0.162  -0.836  0.00  0.00     0.048 A 
ATOM      4  C3  UNL d   1       0.437  -0.121   0.308  0.00  0.00     0.023 A 
ATOM      5  C4  UNL d   1       0.341  -1.126   1.271  0.00  0.00     0.048 A 
ATOM      6  C5  UNL d   1      -0.558  -2.178   1.085  0.00  0.00     0.003 A 
ATOM      7  I   UNL d   1       1.773   1.448   0.582  0.00  0.00    -0.146 I 
ENDROOT
TORSDOF 0
ENDMDL
