MODEL 1
REMARK minimizedAffinity -0.336029321
REMARK minimizedRMSD -1
REMARK  0 active torsions:
REMARK  status: ('A' for Active; 'I' for Inactive)
ROOT
ATOM      1  C   UNL d   1       1.625  -0.128  -0.323  0.00  0.00     0.023 A 
ATOM      2  C1  UNL d   1       0.899   0.249  -1.453  0.00  0.00     0.003 A 
ATOM      3  C2  UNL d   1      -0.476   0.012  -1.512  0.00  0.00     0.048 A 
ATOM      4  C3  UNL d   1      -1.119  -0.600  -0.437  0.00  0.00     0.023 A 
ATOM      5  C4  UNL d   1      -0.397  -0.979   0.696  0.00  0.00     0.048 A 
ATOM      6  C5  UNL d   1       0.978  -0.741   0.750  0.00  0.00     0.003 A 
ATOM      7  I   UNL d   1      -3.166  -0.953  -0.522  0.00  0.00    -0.146 I 
ENDROOT
TORSDOF 0
ENDMDL
