MODEL 1
REMARK minimizedAffinity -3.57005858
REMARK minimizedRMSD -1
REMARK  0 active torsions:
REMARK  status: ('A' for Active; 'I' for Inactive)
ROOT
ATOM      1  C   UNL d   1       3.013   3.164   1.153  0.00  0.00     0.023 A 
ATOM      2  C1  UNL d   1       3.416   1.990   0.516  0.00  0.00     0.003 A 
ATOM      3  C2  UNL d   1       2.461   1.095   0.029  0.00  0.00     0.048 A 
ATOM      4  C3  UNL d   1       1.105   1.381   0.182  0.00  0.00     0.023 A 
ATOM      5  C4  UNL d   1       0.697   2.554   0.818  0.00  0.00     0.048 A 
ATOM      6  C5  UNL d   1       1.655   3.446   1.304  0.00  0.00     0.003 A 
ATOM      7  I   UNL d   1      -0.319   0.050  -0.542  0.00  0.00    -0.146 I 
ENDROOT
TORSDOF 0
ENDMDL
