MODEL 1
REMARK minimizedAffinity 0.0635135993
REMARK minimizedRMSD -1
REMARK  0 active torsions:
REMARK  status: ('A' for Active; 'I' for Inactive)
ROOT
ATOM      1  C   UNL d   1       1.098  -0.207   2.746  0.00  0.00     0.023 A 
ATOM      2  C1  UNL d   1       0.952   1.010   2.079  0.00  0.00     0.003 A 
ATOM      3  C2  UNL d   1       0.359   1.048   0.815  0.00  0.00     0.048 A 
ATOM      4  C3  UNL d   1      -0.085  -0.134   0.224  0.00  0.00     0.023 A 
ATOM      5  C4  UNL d   1       0.059  -1.353   0.887  0.00  0.00     0.048 A 
ATOM      6  C5  UNL d   1       0.653  -1.387   2.150  0.00  0.00     0.003 A 
ATOM      7  I   UNL d   1      -0.967  -0.079  -1.657  0.00  0.00    -0.146 I 
ENDROOT
TORSDOF 0
ENDMDL
