MODEL 1
REMARK minimizedAffinity -0.939670026
REMARK minimizedRMSD -1
REMARK  0 active torsions:
REMARK  status: ('A' for Active; 'I' for Inactive)
ROOT
ATOM      1  C   UNL d   1      -0.606   0.069  -2.385  0.00  0.00     0.023 A 
ATOM      2  C1  UNL d   1       0.621  -0.412  -1.928  0.00  0.00     0.003 A 
ATOM      3  C2  UNL d   1       1.032  -0.150  -0.619  0.00  0.00     0.048 A 
ATOM      4  C3  UNL d   1       0.210   0.594   0.227  0.00  0.00     0.023 A 
ATOM      5  C4  UNL d   1      -1.019   1.077  -0.225  0.00  0.00     0.048 A 
ATOM      6  C5  UNL d   1      -1.425   0.813  -1.535  0.00  0.00     0.003 A 
ATOM      7  I   UNL d   1       0.819   0.985   2.176  0.00  0.00    -0.146 I 
ENDROOT
TORSDOF 0
ENDMDL
