MODEL 1
REMARK minimizedAffinity 0.614052892
REMARK minimizedRMSD -1
REMARK  0 active torsions:
REMARK  status: ('A' for Active; 'I' for Inactive)
ROOT
ATOM      1  C   UNL d   1      -2.340   0.047  -1.557  0.00  0.00     0.023 A 
ATOM      2  C1  UNL d   1      -2.212   0.636  -0.299  0.00  0.00     0.003 A 
ATOM      3  C2  UNL d   1      -0.944   0.868   0.240  0.00  0.00     0.048 A 
ATOM      4  C3  UNL d   1       0.191   0.510  -0.486  0.00  0.00     0.023 A 
ATOM      5  C4  UNL d   1       0.068  -0.079  -1.746  0.00  0.00     0.048 A 
ATOM      6  C5  UNL d   1      -1.201  -0.310  -2.280  0.00  0.00     0.003 A 
ATOM      7  I   UNL d   1       2.079   0.854   0.312  0.00  0.00    -0.146 I 
ENDROOT
TORSDOF 0
ENDMDL
