MODEL 1
REMARK minimizedAffinity -1.75629663
REMARK minimizedRMSD -1
REMARK  0 active torsions:
REMARK  status: ('A' for Active; 'I' for Inactive)
ROOT
ATOM      1  C   UNL d   1       0.004  -0.320  -0.554  0.00  0.00     0.023 A 
ATOM      2  C1  UNL d   1       1.347  -0.449  -0.203  0.00  0.00     0.003 A 
ATOM      3  C2  UNL d   1       1.973   0.549   0.547  0.00  0.00     0.048 A 
ATOM      4  C3  UNL d   1       1.248   1.673   0.944  0.00  0.00     0.023 A 
ATOM      5  C4  UNL d   1      -0.097   1.805   0.595  0.00  0.00     0.048 A 
ATOM      6  C5  UNL d   1      -0.718   0.806  -0.156  0.00  0.00     0.003 A 
ATOM      7  I   UNL d   1       2.177   3.159   2.061  0.00  0.00    -0.146 I 
ENDROOT
TORSDOF 0
ENDMDL
