MODEL 1
REMARK minimizedAffinity -1.03902769
REMARK minimizedRMSD -1
REMARK  0 active torsions:
REMARK  status: ('A' for Active; 'I' for Inactive)
ROOT
ATOM      1  C   UNL d   1       2.939   3.658   1.380  0.00  0.00     0.023 A 
ATOM      2  C1  UNL d   1       3.095   3.061   0.129  0.00  0.00     0.003 A 
ATOM      3  C2  UNL d   1       2.499   1.827  -0.136  0.00  0.00     0.048 A 
ATOM      4  C3  UNL d   1       1.747   1.195   0.853  0.00  0.00     0.023 A 
ATOM      5  C4  UNL d   1       1.587   1.789   2.106  0.00  0.00     0.048 A 
ATOM      6  C5  UNL d   1       2.186   3.023   2.368  0.00  0.00     0.003 A 
ATOM      7  I   UNL d   1       0.858  -0.642   0.461  0.00  0.00    -0.146 I 
ENDROOT
TORSDOF 0
ENDMDL
