MODEL 1
REMARK minimizedAffinity 1.69487083
REMARK minimizedRMSD -1
REMARK  0 active torsions:
REMARK  status: ('A' for Active; 'I' for Inactive)
ROOT
ATOM      1  C   UNL d   1      -2.510  -1.679  -1.579  0.00  0.00     0.023 A 
ATOM      2  C1  UNL d   1      -1.467  -0.753  -1.561  0.00  0.00     0.003 A 
ATOM      3  C2  UNL d   1      -0.481  -0.828  -0.575  0.00  0.00     0.048 A 
ATOM      4  C3  UNL d   1      -0.544  -1.831   0.391  0.00  0.00     0.023 A 
ATOM      5  C4  UNL d   1      -1.585  -2.761   0.377  0.00  0.00     0.048 A 
ATOM      6  C5  UNL d   1      -2.569  -2.682  -0.611  0.00  0.00     0.003 A 
ATOM      7  I   UNL d   1       0.922  -1.945   1.860  0.00  0.00    -0.146 I 
ENDROOT
TORSDOF 0
ENDMDL
