MODEL 1
REMARK minimizedAffinity -1.06368899
REMARK minimizedRMSD -1
REMARK  0 active torsions:
REMARK  status: ('A' for Active; 'I' for Inactive)
ROOT
ATOM      1  C   UNL d   1      -1.086  -0.499  -0.984  0.00  0.00     0.023 A 
ATOM      2  C1  UNL d   1      -0.291  -0.903   0.089  0.00  0.00     0.003 A 
ATOM      3  C2  UNL d   1       0.753  -0.088   0.531  0.00  0.00     0.048 A 
ATOM      4  C3  UNL d   1       0.997   1.129  -0.104  0.00  0.00     0.023 A 
ATOM      5  C4  UNL d   1       0.204   1.538  -1.177  0.00  0.00     0.048 A 
ATOM      6  C5  UNL d   1      -0.839   0.719  -1.616  0.00  0.00     0.003 A 
ATOM      7  I   UNL d   1       2.550   2.344   0.553  0.00  0.00    -0.146 I 
ENDROOT
TORSDOF 0
ENDMDL
