MODEL 1
REMARK minimizedAffinity 3.22751188
REMARK minimizedRMSD -1
REMARK  0 active torsions:
REMARK  status: ('A' for Active; 'I' for Inactive)
ROOT
ATOM      1  C   UNL d   1      -1.542  -0.987  -0.629  0.00  0.00     0.023 A 
ATOM      2  C1  UNL d   1      -0.715  -1.186   0.476  0.00  0.00     0.003 A 
ATOM      3  C2  UNL d   1       0.444  -0.423   0.629  0.00  0.00     0.048 A 
ATOM      4  C3  UNL d   1       0.770   0.539  -0.327  0.00  0.00     0.023 A 
ATOM      5  C4  UNL d   1      -0.056   0.743  -1.434  0.00  0.00     0.048 A 
ATOM      6  C5  UNL d   1      -1.213  -0.023  -1.583  0.00  0.00     0.003 A 
ATOM      7  I   UNL d   1       2.494   1.677  -0.101  0.00  0.00    -0.146 I 
ENDROOT
TORSDOF 0
ENDMDL
