MODEL 1
REMARK minimizedAffinity -1.84396183
REMARK minimizedRMSD -1
REMARK  0 active torsions:
REMARK  status: ('A' for Active; 'I' for Inactive)
ROOT
ATOM      1  N1  IND d   1      -0.408  -0.120   2.021  0.00  0.00    -0.196 N 
ATOM      2  C2  IND d   1       0.367   0.471   2.979  0.00  0.00     0.054 A 
ATOM      3  C3  IND d   1      -0.386   1.274   3.764  0.00  0.00    -0.031 A 
ATOM      4  C4  IND d   1      -2.926   1.687   3.720  0.00  0.00     0.051 A 
ATOM      5  C5  IND d   1      -4.053   1.397   3.003  0.00  0.00    -0.031 A 
ATOM      6  C6  IND d   1      -4.022   0.568   1.900  0.00  0.00     0.015 A 
ATOM      7  C7  IND d   1      -2.860  -0.014   1.480  0.00  0.00    -0.016 A 
ATOM      8  C8  IND d   1      -1.713   0.283   2.202  0.00  0.00    -0.047 A 
ATOM      9  C9  IND d   1      -1.731   1.158   3.296  0.00  0.00    -0.096 A 
ATOM     10  HN1 IND d   1      -0.128  -0.655   1.408  0.00  0.00     0.298 HD
ENDROOT
TORSDOF 0
ENDMDL
