MODEL 1
REMARK minimizedAffinity -0.833944619
REMARK minimizedRMSD -1
REMARK  0 active torsions:
REMARK  status: ('A' for Active; 'I' for Inactive)
ROOT
ATOM      1  N1  IND d   1      -4.566   2.366   3.466  0.00  0.00    -0.196 N 
ATOM      2  C2  IND d   1      -3.474   2.762   4.187  0.00  0.00     0.054 A 
ATOM      3  C3  IND d   1      -2.375   2.087   3.783  0.00  0.00    -0.031 A 
ATOM      4  C4  IND d   1      -2.118   0.362   1.889  0.00  0.00     0.051 A 
ATOM      5  C5  IND d   1      -2.842  -0.348   0.973  0.00  0.00    -0.031 A 
ATOM      6  C6  IND d   1      -4.205  -0.184   0.837  0.00  0.00     0.015 A 
ATOM      7  C7  IND d   1      -4.896   0.708   1.607  0.00  0.00    -0.016 A 
ATOM      8  C8  IND d   1      -4.165   1.426   2.543  0.00  0.00    -0.047 A 
ATOM      9  C9  IND d   1      -2.788   1.233   2.715  0.00  0.00    -0.096 A 
ATOM     10  HN1 IND d   1      -5.369   2.656   3.572  0.00  0.00     0.298 HD
ENDROOT
TORSDOF 0
ENDMDL
