MODEL 1
REMARK minimizedAffinity -0.64782089
REMARK minimizedRMSD -1
REMARK  0 active torsions:
REMARK  status: ('A' for Active; 'I' for Inactive)
ROOT
ATOM      1  N1  IND d   1      -4.597   5.362  -5.921  0.00  0.00    -0.196 N 
ATOM      2  C2  IND d   1      -5.903   4.966  -6.000  0.00  0.00     0.054 A 
ATOM      3  C3  IND d   1      -6.000   3.628  -5.838  0.00  0.00    -0.031 A 
ATOM      4  C4  IND d   1      -4.156   1.904  -5.330  0.00  0.00     0.051 A 
ATOM      5  C5  IND d   1      -2.801   1.783  -5.202  0.00  0.00    -0.031 A 
ATOM      6  C6  IND d   1      -1.958   2.870  -5.307  0.00  0.00     0.015 A 
ATOM      7  C7  IND d   1      -2.443   4.128  -5.533  0.00  0.00    -0.016 A 
ATOM      8  C8  IND d   1      -3.818   4.254  -5.670  0.00  0.00    -0.047 A 
ATOM      9  C9  IND d   1      -4.674   3.147  -5.608  0.00  0.00    -0.096 A 
ATOM     10  HN1 IND d   1      -4.310   6.167  -6.012  0.00  0.00     0.298 HD
ENDROOT
TORSDOF 0
ENDMDL
