MODEL 1
REMARK minimizedAffinity 2.47473645
REMARK minimizedRMSD -1
REMARK  0 active torsions:
REMARK  status: ('A' for Active; 'I' for Inactive)
ROOT
ATOM      1  N1  IND d   1      -0.500   0.222   1.732  0.00  0.00    -0.196 N 
ATOM      2  C2  IND d   1      -0.010   1.480   1.521  0.00  0.00     0.054 A 
ATOM      3  C3  IND d   1       0.680   1.528   0.359  0.00  0.00    -0.031 A 
ATOM      4  C4  IND d   1       1.046  -0.314  -1.402  0.00  0.00     0.051 A 
ATOM      5  C5  IND d   1       0.820  -1.642  -1.635  0.00  0.00    -0.031 A 
ATOM      6  C6  IND d   1       0.127  -2.431  -0.740  0.00  0.00     0.015 A 
ATOM      7  C7  IND d   1      -0.379  -1.918   0.420  0.00  0.00    -0.016 A 
ATOM      8  C8  IND d   1      -0.146  -0.572   0.663  0.00  0.00    -0.047 A 
ATOM      9  C9  IND d   1       0.594   0.225  -0.220  0.00  0.00    -0.096 A 
ATOM     10  HN1 IND d   1      -0.953  -0.032   2.418  0.00  0.00     0.298 HD
ENDROOT
TORSDOF 0
ENDMDL
