MODEL 1
REMARK minimizedAffinity 0.585028529
REMARK minimizedRMSD -1
REMARK  0 active torsions:
REMARK  status: ('A' for Active; 'I' for Inactive)
ROOT
ATOM      1  N1  IND d   1       2.833   2.161   2.284  0.00  0.00    -0.196 N 
ATOM      2  C2  IND d   1       2.286   1.785   3.479  0.00  0.00     0.054 A 
ATOM      3  C3  IND d   1       1.128   1.118   3.277  0.00  0.00    -0.031 A 
ATOM      4  C4  IND d   1      -0.006   0.440   1.068  0.00  0.00     0.051 A 
ATOM      5  C5  IND d   1       0.099   0.590  -0.287  0.00  0.00    -0.031 A 
ATOM      6  C6  IND d   1       1.142   1.284  -0.865  0.00  0.00     0.015 A 
ATOM      7  C7  IND d   1       2.131   1.845  -0.108  0.00  0.00    -0.016 A 
ATOM      8  C8  IND d   1       2.024   1.701   1.268  0.00  0.00    -0.047 A 
ATOM      9  C9  IND d   1       0.945   1.035   1.863  0.00  0.00    -0.096 A 
ATOM     10  HN1 IND d   1       3.559   2.610   2.184  0.00  0.00     0.298 HD
ENDROOT
TORSDOF 0
ENDMDL
