MODEL 1
REMARK minimizedAffinity -3.05025506
REMARK minimizedRMSD -1
REMARK  0 active torsions:
REMARK  status: ('A' for Active; 'I' for Inactive)
ROOT
ATOM      1  N1  IND d   1      -0.298   0.830   3.001  0.00  0.00    -0.196 N 
ATOM      2  C2  IND d   1       0.152  -0.065   2.071  0.00  0.00     0.054 A 
ATOM      3  C3  IND d   1      -0.888  -0.606   1.398  0.00  0.00    -0.031 A 
ATOM      4  C4  IND d   1      -3.404  -0.094   1.588  0.00  0.00     0.051 A 
ATOM      5  C5  IND d   1      -4.305   0.625   2.323  0.00  0.00    -0.031 A 
ATOM      6  C6  IND d   1      -3.907   1.468   3.340  0.00  0.00     0.015 A 
ATOM      7  C7  IND d   1      -2.588   1.634   3.654  0.00  0.00    -0.016 A 
ATOM      8  C8  IND d   1      -1.671   0.899   2.915  0.00  0.00    -0.047 A 
ATOM      9  C9  IND d   1      -2.072   0.009   1.910  0.00  0.00    -0.096 A 
ATOM     10  HN1 IND d   1       0.194   1.275   3.548  0.00  0.00     0.298 HD
ENDROOT
TORSDOF 0
ENDMDL
