MODEL 1
REMARK minimizedAffinity -4.56937647
REMARK minimizedRMSD -1
REMARK  0 active torsions:
REMARK  status: ('A' for Active; 'I' for Inactive)
ROOT
ATOM      1  N1  IND d   1      -0.162   0.722   1.155  0.00  0.00    -0.196 N 
ATOM      2  C2  IND d   1      -1.127  -0.199   1.454  0.00  0.00     0.054 A 
ATOM      3  C3  IND d   1      -1.205  -1.132   0.479  0.00  0.00    -0.031 A 
ATOM      4  C4  IND d   1       0.223  -1.399  -1.647  0.00  0.00     0.051 A 
ATOM      5  C5  IND d   1       1.205  -0.781  -2.370  0.00  0.00    -0.031 A 
ATOM      6  C6  IND d   1       1.795   0.391  -1.945  0.00  0.00     0.015 A 
ATOM      7  C7  IND d   1       1.432   0.987  -0.770  0.00  0.00    -0.016 A 
ATOM      8  C8  IND d   1       0.430   0.366  -0.037  0.00  0.00    -0.047 A 
ATOM      9  C9  IND d   1      -0.202  -0.801  -0.484  0.00  0.00    -0.096 A 
ATOM     10  HN1 IND d   1       0.041   1.409   1.631  0.00  0.00     0.298 HD
ENDROOT
TORSDOF 0
ENDMDL
