MODEL 1
REMARK minimizedAffinity -4.05663872
REMARK minimizedRMSD -1
REMARK  0 active torsions:
REMARK  status: ('A' for Active; 'I' for Inactive)
ROOT
ATOM      1  N1  IND d   1       0.775  -2.094  -0.056  0.00  0.00    -0.196 N 
ATOM      2  C2  IND d   1      -0.120  -1.606   0.854  0.00  0.00     0.054 A 
ATOM      3  C3  IND d   1      -0.562  -0.386   0.473  0.00  0.00    -0.031 A 
ATOM      4  C4  IND d   1      -0.027   0.953  -1.660  0.00  0.00     0.051 A 
ATOM      5  C5  IND d   1       0.765   0.935  -2.773  0.00  0.00    -0.031 A 
ATOM      6  C6  IND d   1       1.616  -0.117  -3.045  0.00  0.00     0.015 A 
ATOM      7  C7  IND d   1       1.699  -1.199  -2.215  0.00  0.00    -0.016 A 
ATOM      8  C8  IND d   1       0.901  -1.180  -1.080  0.00  0.00    -0.047 A 
ATOM      9  C9  IND d   1       0.067  -0.097  -0.777  0.00  0.00    -0.096 A 
ATOM     10  HN1 IND d   1       1.190  -2.845   0.001  0.00  0.00     0.298 HD
ENDROOT
TORSDOF 0
ENDMDL
