MODEL 1
REMARK minimizedAffinity -0.950875103
REMARK minimizedRMSD -1
REMARK  0 active torsions:
REMARK  status: ('A' for Active; 'I' for Inactive)
ROOT
ATOM      1  N1  IND d   1       0.816   0.800   3.234  0.00  0.00    -0.196 N 
ATOM      2  C2  IND d   1       1.699   1.790   3.567  0.00  0.00     0.054 A 
ATOM      3  C3  IND d   1       2.230   2.340   2.452  0.00  0.00    -0.031 A 
ATOM      4  C4  IND d   1       1.718   1.843  -0.021  0.00  0.00     0.051 A 
ATOM      5  C5  IND d   1       1.008   0.996  -0.825  0.00  0.00    -0.031 A 
ATOM      6  C6  IND d   1       0.178   0.022  -0.306  0.00  0.00     0.015 A 
ATOM      7  C7  IND d   1       0.019  -0.133   1.042  0.00  0.00    -0.016 A 
ATOM      8  C8  IND d   1       0.744   0.720   1.861  0.00  0.00    -0.047 A 
ATOM      9  C9  IND d   1       1.620   1.682   1.341  0.00  0.00    -0.096 A 
ATOM     10  HN1 IND d   1       0.380   0.310   3.790  0.00  0.00     0.298 HD
ENDROOT
TORSDOF 0
ENDMDL
