MODEL 1
REMARK minimizedAffinity -4.40989923
REMARK minimizedRMSD -1
REMARK  0 active torsions:
REMARK  status: ('A' for Active; 'I' for Inactive)
ROOT
ATOM      1  N1  IND d   1       1.192   1.359  -1.084  0.00  0.00    -0.196 N 
ATOM      2  C2  IND d   1       1.836   1.015  -2.240  0.00  0.00     0.054 A 
ATOM      3  C3  IND d   1       1.789  -0.323  -2.425  0.00  0.00    -0.031 A 
ATOM      4  C4  IND d   1       0.621  -2.130  -1.011  0.00  0.00     0.051 A 
ATOM      5  C5  IND d   1      -0.065  -2.306   0.157  0.00  0.00    -0.031 A 
ATOM      6  C6  IND d   1      -0.376  -1.248   0.987  0.00  0.00     0.015 A 
ATOM      7  C7  IND d   1      -0.021   0.033   0.672  0.00  0.00    -0.016 A 
ATOM      8  C8  IND d   1       0.683   0.215  -0.510  0.00  0.00    -0.047 A 
ATOM      9  C9  IND d   1       1.038  -0.860  -1.335  0.00  0.00    -0.096 A 
ATOM     10  HN1 IND d   1       1.118   2.155  -0.769  0.00  0.00     0.298 HD
ENDROOT
TORSDOF 0
ENDMDL
