MODEL 1
REMARK minimizedAffinity -3.58114886
REMARK minimizedRMSD -1
REMARK  0 active torsions:
REMARK  status: ('A' for Active; 'I' for Inactive)
ROOT
ATOM      1  N1  IND d   1       0.933   1.501   0.610  0.00  0.00    -0.196 N 
ATOM      2  C2  IND d   1       0.048   0.886   1.451  0.00  0.00     0.054 A 
ATOM      3  C3  IND d   1      -0.473  -0.214   0.864  0.00  0.00    -0.031 A 
ATOM      4  C4  IND d   1       0.062  -1.251  -1.431  0.00  0.00     0.051 A 
ATOM      5  C5  IND d   1       0.779  -1.029  -2.573  0.00  0.00    -0.031 A 
ATOM      6  C6  IND d   1       1.604   0.069  -2.714  0.00  0.00     0.015 A 
ATOM      7  C7  IND d   1       1.750   0.983  -1.709  0.00  0.00    -0.016 A 
ATOM      8  C8  IND d   1       1.018   0.764  -0.551  0.00  0.00    -0.047 A 
ATOM      9  C9  IND d   1       0.147  -0.325  -0.419  0.00  0.00    -0.096 A 
ATOM     10  HN1 IND d   1       1.365   2.225   0.778  0.00  0.00     0.298 HD
ENDROOT
TORSDOF 0
ENDMDL
