MODEL 1
REMARK minimizedAffinity -4.8714242
REMARK minimizedRMSD -1
REMARK  0 active torsions:
REMARK  status: ('A' for Active; 'I' for Inactive)
ROOT
ATOM      1  N1  IND d   1      -0.916  -0.497   1.813  0.00  0.00    -0.196 N 
ATOM      2  C2  IND d   1       0.094  -0.108   2.649  0.00  0.00     0.054 A 
ATOM      3  C3  IND d   1      -0.296   0.948   3.397  0.00  0.00    -0.031 A 
ATOM      4  C4  IND d   1      -2.579   2.134   3.488  0.00  0.00     0.051 A 
ATOM      5  C5  IND d   1      -3.805   2.159   2.884  0.00  0.00    -0.031 A 
ATOM      6  C6  IND d   1      -4.138   1.281   1.873  0.00  0.00     0.015 A 
ATOM      7  C7  IND d   1      -3.257   0.332   1.435  0.00  0.00    -0.016 A 
ATOM      8  C8  IND d   1      -2.009   0.309   2.042  0.00  0.00    -0.047 A 
ATOM      9  C9  IND d   1      -1.651   1.225   3.038  0.00  0.00    -0.096 A 
ATOM     10  HN1 IND d   1      -0.874  -1.138   1.241  0.00  0.00     0.298 HD
ENDROOT
TORSDOF 0
ENDMDL
