MODEL 1
REMARK minimizedAffinity 0.673353195
REMARK minimizedRMSD -1
REMARK  0 active torsions:
REMARK  status: ('A' for Active; 'I' for Inactive)
ROOT
ATOM      1  N1  IND d   1      -3.999   5.990  -5.962  0.00  0.00    -0.196 N 
ATOM      2  C2  IND d   1      -5.219   5.375  -5.999  0.00  0.00     0.054 A 
ATOM      3  C3  IND d   1      -5.069   4.031  -5.999  0.00  0.00    -0.031 A 
ATOM      4  C4  IND d   1      -2.917   2.626  -5.841  0.00  0.00     0.051 A 
ATOM      5  C5  IND d   1      -1.556   2.740  -5.824  0.00  0.00    -0.031 A 
ATOM      6  C6  IND d   1      -0.926   3.967  -5.850  0.00  0.00     0.015 A 
ATOM      7  C7  IND d   1      -1.638   5.133  -5.882  0.00  0.00    -0.016 A 
ATOM      8  C8  IND d   1      -3.021   5.021  -5.907  0.00  0.00    -0.047 A 
ATOM      9  C9  IND d   1      -3.665   3.777  -5.924  0.00  0.00    -0.096 A 
ATOM     10  HN1 IND d   1      -3.865   6.839  -5.971  0.00  0.00     0.298 HD
ENDROOT
TORSDOF 0
ENDMDL
