MODEL 1
REMARK minimizedAffinity 1.82123888
REMARK minimizedRMSD -1
REMARK  0 active torsions:
REMARK  status: ('A' for Active; 'I' for Inactive)
ROOT
ATOM      1  N1  IND d   1      -5.073  -0.670   1.306  0.00  0.00    -0.196 N 
ATOM      2  C2  IND d   1      -4.327   0.076   2.176  0.00  0.00     0.054 A 
ATOM      3  C3  IND d   1      -3.011  -0.053   1.898  0.00  0.00    -0.031 A 
ATOM      4  C4  IND d   1      -1.861  -1.354  -0.003  0.00  0.00     0.051 A 
ATOM      5  C5  IND d   1      -2.122  -2.218  -1.029  0.00  0.00    -0.031 A 
ATOM      6  C6  IND d   1      -3.407  -2.617  -1.337  0.00  0.00     0.015 A 
ATOM      7  C7  IND d   1      -4.484  -2.154  -0.634  0.00  0.00    -0.016 A 
ATOM      8  C8  IND d   1      -4.221  -1.282   0.413  0.00  0.00    -0.047 A 
ATOM      9  C9  IND d   1      -2.916  -0.908   0.757  0.00  0.00    -0.096 A 
ATOM     10  HN1 IND d   1      -5.929  -0.745   1.316  0.00  0.00     0.298 HD
ENDROOT
TORSDOF 0
ENDMDL
