MODEL 1
REMARK minimizedAffinity 0.118485913
REMARK minimizedRMSD -1
REMARK  0 active torsions:
REMARK  status: ('A' for Active; 'I' for Inactive)
ROOT
ATOM      1  N1  IND d   1      -3.074   2.699   2.382  0.00  0.00    -0.196 N 
ATOM      2  C2  IND d   1      -3.691   2.652   3.601  0.00  0.00     0.054 A 
ATOM      3  C3  IND d   1      -3.028   1.817   4.432  0.00  0.00    -0.031 A 
ATOM      4  C4  IND d   1      -0.852   0.502   4.034  0.00  0.00     0.051 A 
ATOM      5  C5  IND d   1       0.061   0.197   3.063  0.00  0.00    -0.031 A 
ATOM      6  C6  IND d   1      -0.025   0.724   1.791  0.00  0.00     0.015 A 
ATOM      7  C7  IND d   1      -1.025   1.587   1.443  0.00  0.00    -0.016 A 
ATOM      8  C8  IND d   1      -1.958   1.893   2.424  0.00  0.00    -0.047 A 
ATOM      9  C9  IND d   1      -1.900   1.328   3.705  0.00  0.00    -0.096 A 
ATOM     10  HN1 IND d   1      -3.339   3.154   1.702  0.00  0.00     0.298 HD
ENDROOT
TORSDOF 0
ENDMDL
