MODEL 1
REMARK minimizedAffinity 5.50157738
REMARK minimizedRMSD -1
REMARK  0 active torsions:
REMARK  status: ('A' for Active; 'I' for Inactive)
ROOT
ATOM      1  N1  IND d   1      -2.211   3.547  -5.127  0.00  0.00    -0.196 N 
ATOM      2  C2  IND d   1      -2.428   2.216  -4.903  0.00  0.00     0.054 A 
ATOM      3  C3  IND d   1      -3.740   1.923  -5.039  0.00  0.00    -0.031 A 
ATOM      4  C4  IND d   1      -5.694   3.452  -5.727  0.00  0.00     0.051 A 
ATOM      5  C5  IND d   1      -5.997   4.756  -6.000  0.00  0.00    -0.031 A 
ATOM      6  C6  IND d   1      -5.033   5.744  -5.999  0.00  0.00     0.015 A 
ATOM      7  C7  IND d   1      -3.723   5.460  -5.734  0.00  0.00    -0.016 A 
ATOM      8  C8  IND d   1      -3.413   4.138  -5.450  0.00  0.00    -0.047 A 
ATOM      9  C9  IND d   1      -4.394   3.139  -5.407  0.00  0.00    -0.096 A 
ATOM     10  HN1 IND d   1      -1.452   3.947  -5.076  0.00  0.00     0.298 HD
ENDROOT
TORSDOF 0
ENDMDL
