MODEL 1
REMARK minimizedAffinity -4.69752598
REMARK minimizedRMSD -1
REMARK  1 active torsions:
REMARK  status: ('A' for Active; 'I' for Inactive)
REMARK    1  A    between atoms: C1_2  and  C2_3 
ROOT
ATOM      1  C2  UNL d   1      -0.204  -0.024   0.355  0.00  0.00    -0.076 A 
ATOM      2  C3  UNL d   1       0.640  -1.018  -0.172  0.00  0.00     0.004 A 
ATOM      3  C4  UNL d   1       0.568  -2.334   0.282  0.00  0.00    -0.003 A 
ATOM      4  C5  UNL d   1      -0.348  -2.678   1.269  0.00  0.00     0.000 A 
ATOM      5  C6  UNL d   1      -1.205  -1.709   1.791  0.00  0.00     0.000 A 
ATOM      6  C7  UNL d   1      -1.157  -0.381   1.333  0.00  0.00    -0.073 A 
ATOM      7  C8  UNL d   1      -2.100   0.625   1.935  0.00  0.00     0.078 C 
ENDROOT
BRANCH   1   8
ATOM      8  C1  UNL d   1      -0.062   1.392  -0.156  0.00  0.00     0.053 C 
ATOM      9  C   UNL d   1       1.358   1.920  -0.023  0.00  0.00     0.018 C 
ENDBRANCH   1   8
TORSDOF 1
ENDMDL
