MODEL 1
REMARK minimizedAffinity -3.16568065
REMARK minimizedRMSD -1
REMARK  1 active torsions:
REMARK  status: ('A' for Active; 'I' for Inactive)
REMARK    1  A    between atoms: C1_2  and  C2_3 
ROOT
ATOM      1  C2  UNL d   1      -0.114  -1.006   0.132  0.00  0.00    -0.076 A 
ATOM      2  C3  UNL d   1      -1.432  -1.477   0.264  0.00  0.00     0.004 A 
ATOM      3  C4  UNL d   1      -1.704  -2.843   0.315  0.00  0.00    -0.003 A 
ATOM      4  C5  UNL d   1      -0.663  -3.761   0.236  0.00  0.00     0.000 A 
ATOM      5  C6  UNL d   1       0.652  -3.311   0.123  0.00  0.00     0.000 A 
ATOM      6  C7  UNL d   1       0.946  -1.937   0.086  0.00  0.00    -0.073 A 
ATOM      7  C8  UNL d   1       2.382  -1.509  -0.043  0.00  0.00     0.078 C 
ENDROOT
BRANCH   1   8
ATOM      8  C1  UNL d   1       0.118   0.486   0.054  0.00  0.00     0.053 C 
ATOM      9  C   UNL d   1      -0.040   1.027  -1.359  0.00  0.00     0.018 C 
ENDBRANCH   1   8
TORSDOF 1
ENDMDL
