MODEL 1
REMARK minimizedAffinity -4.99600124
REMARK minimizedRMSD -1
REMARK  1 active torsions:
REMARK  status: ('A' for Active; 'I' for Inactive)
REMARK    1  A    between atoms: C1_2  and  C2_3 
ROOT
ATOM      1  C2  UNL d   1      -0.007  -0.617   0.473  0.00  0.00    -0.076 A 
ATOM      2  C3  UNL d   1       0.829  -1.298  -0.429  0.00  0.00     0.004 A 
ATOM      3  C4  UNL d   1       0.769  -2.684  -0.556  0.00  0.00    -0.003 A 
ATOM      4  C5  UNL d   1      -0.129  -3.413   0.216  0.00  0.00     0.000 A 
ATOM      5  C6  UNL d   1      -0.978  -2.752   1.103  0.00  0.00     0.000 A 
ATOM      6  C7  UNL d   1      -0.942  -1.353   1.232  0.00  0.00    -0.073 A 
ATOM      7  C8  UNL d   1      -1.876  -0.694   2.209  0.00  0.00     0.078 C 
ENDROOT
BRANCH   1   8
ATOM      8  C1  UNL d   1       0.122   0.885   0.588  0.00  0.00     0.053 C 
ATOM      9  C   UNL d   1       0.054   1.581  -0.763  0.00  0.00     0.018 C 
ENDBRANCH   1   8
TORSDOF 1
ENDMDL
