MODEL 1
REMARK minimizedAffinity 0.0751011521
REMARK minimizedRMSD -1
REMARK  1 active torsions:
REMARK  status: ('A' for Active; 'I' for Inactive)
REMARK    1  A    between atoms: C1_2  and  C2_3 
ROOT
ATOM      1  C2  UNL d   1      -0.410  -0.668  -0.348  0.00  0.00    -0.076 A 
ATOM      2  C3  UNL d   1      -0.868  -0.655   0.981  0.00  0.00     0.004 A 
ATOM      3  C4  UNL d   1      -1.488  -1.773   1.536  0.00  0.00    -0.003 A 
ATOM      4  C5  UNL d   1      -1.660  -2.922   0.772  0.00  0.00     0.000 A 
ATOM      5  C6  UNL d   1      -1.196  -2.958  -0.543  0.00  0.00     0.000 A 
ATOM      6  C7  UNL d   1      -0.554  -1.845  -1.113  0.00  0.00    -0.073 A 
ATOM      7  C8  UNL d   1      -0.079  -1.937  -2.537  0.00  0.00     0.078 C 
ENDROOT
BRANCH   1   8
ATOM      8  C1  UNL d   1       0.230   0.584  -0.905  0.00  0.00     0.053 C 
ATOM      9  C   UNL d   1       0.366   1.683   0.137  0.00  0.00     0.018 C 
ENDBRANCH   1   8
TORSDOF 1
ENDMDL
