MODEL 1
REMARK minimizedAffinity -3.43385792
REMARK minimizedRMSD -1
REMARK  1 active torsions:
REMARK  status: ('A' for Active; 'I' for Inactive)
REMARK    1  A    between atoms: C1_2  and  C2_3 
ROOT
ATOM      1  C2  UNL d   1       0.999   1.327  -1.123  0.00  0.00    -0.076 A 
ATOM      2  C3  UNL d   1       2.337   1.758  -1.093  0.00  0.00     0.004 A 
ATOM      3  C4  UNL d   1       2.737   2.795  -0.252  0.00  0.00    -0.003 A 
ATOM      4  C5  UNL d   1       1.806   3.417   0.573  0.00  0.00     0.000 A 
ATOM      5  C6  UNL d   1       0.479   2.990   0.569  0.00  0.00     0.000 A 
ATOM      6  C7  UNL d   1       0.062   1.935  -0.261  0.00  0.00    -0.073 A 
ATOM      7  C8  UNL d   1      -1.383   1.520  -0.230  0.00  0.00     0.078 C 
ENDROOT
BRANCH   1   8
ATOM      8  C1  UNL d   1       0.618   0.216  -2.076  0.00  0.00     0.053 C 
ATOM      9  C   UNL d   1       1.300  -1.101  -1.738  0.00  0.00     0.018 C 
ENDBRANCH   1   8
TORSDOF 1
ENDMDL
