MODEL 1
REMARK minimizedAffinity 0.624668479
REMARK minimizedRMSD -1
REMARK  1 active torsions:
REMARK  status: ('A' for Active; 'I' for Inactive)
REMARK    1  A    between atoms: C1_2  and  C2_3 
ROOT
ATOM      1  C2  UNL d   1      -0.089  -0.921  -0.386  0.00  0.00    -0.076 A 
ATOM      2  C3  UNL d   1      -0.562  -2.196  -0.029  0.00  0.00     0.004 A 
ATOM      3  C4  UNL d   1      -1.541  -2.350   0.951  0.00  0.00    -0.003 A 
ATOM      4  C5  UNL d   1      -2.064  -1.231   1.590  0.00  0.00     0.000 A 
ATOM      5  C6  UNL d   1      -1.620   0.042   1.236  0.00  0.00     0.000 A 
ATOM      6  C7  UNL d   1      -0.645   0.216   0.239  0.00  0.00    -0.073 A 
ATOM      7  C8  UNL d   1      -0.198   1.612  -0.099  0.00  0.00     0.078 C 
ENDROOT
BRANCH   1   8
ATOM      8  C1  UNL d   1       0.993  -0.818  -1.437  0.00  0.00     0.053 C 
ATOM      9  C   UNL d   1       0.754  -1.752  -2.613  0.00  0.00     0.018 C 
ENDBRANCH   1   8
TORSDOF 1
ENDMDL
