MODEL 1
REMARK minimizedAffinity -5.38086271
REMARK minimizedRMSD -1
REMARK  1 active torsions:
REMARK  status: ('A' for Active; 'I' for Inactive)
REMARK    1  A    between atoms: C1_2  and  C2_3 
ROOT
ATOM      1  C2  UNL d   1      -0.203  -0.330   0.299  0.00  0.00    -0.076 A 
ATOM      2  C3  UNL d   1       0.670  -1.162  -0.423  0.00  0.00     0.004 A 
ATOM      3  C4  UNL d   1       0.694  -2.539  -0.203  0.00  0.00    -0.003 A 
ATOM      4  C5  UNL d   1      -0.155  -3.104   0.742  0.00  0.00     0.000 A 
ATOM      5  C6  UNL d   1      -1.039  -2.295   1.455  0.00  0.00     0.000 A 
ATOM      6  C7  UNL d   1      -1.088  -0.908   1.233  0.00  0.00    -0.073 A 
ATOM      7  C8  UNL d   1      -2.057  -0.083   2.035  0.00  0.00     0.078 C 
ENDROOT
BRANCH   1   8
ATOM      8  C1  UNL d   1      -0.166   1.159   0.036  0.00  0.00     0.053 C 
ATOM      9  C   UNL d   1       1.155   1.791   0.450  0.00  0.00     0.018 C 
ENDBRANCH   1   8
TORSDOF 1
ENDMDL
