MODEL 1
REMARK minimizedAffinity -4.10662317
REMARK minimizedRMSD -1
REMARK  1 active torsions:
REMARK  status: ('A' for Active; 'I' for Inactive)
REMARK    1  A    between atoms: C1_2  and  C2_3 
ROOT
ATOM      1  C2  UNL d   1      -0.274  -0.167   0.244  0.00  0.00    -0.076 A 
ATOM      2  C3  UNL d   1      -0.378   0.994  -0.542  0.00  0.00     0.004 A 
ATOM      3  C4  UNL d   1       0.031   0.997  -1.875  0.00  0.00    -0.003 A 
ATOM      4  C5  UNL d   1       0.549  -0.161  -2.443  0.00  0.00     0.000 A 
ATOM      5  C6  UNL d   1       0.644  -1.326  -1.683  0.00  0.00     0.000 A 
ATOM      6  C7  UNL d   1       0.221  -1.351  -0.343  0.00  0.00    -0.073 A 
ATOM      7  C8  UNL d   1       0.352  -2.634   0.431  0.00  0.00     0.078 C 
ENDROOT
BRANCH   1   8
ATOM      8  C1  UNL d   1      -0.707  -0.103   1.691  0.00  0.00     0.053 C 
ATOM      9  C   UNL d   1      -2.217  -0.194   1.852  0.00  0.00     0.018 C 
ENDBRANCH   1   8
TORSDOF 1
ENDMDL
