MODEL 1
REMARK minimizedAffinity -4.60242939
REMARK minimizedRMSD -1
REMARK  1 active torsions:
REMARK  status: ('A' for Active; 'I' for Inactive)
REMARK    1  A    between atoms: C1_2  and  C2_3 
ROOT
ATOM      1  C2  UNL d   1       0.050  -0.870  -0.423  0.00  0.00    -0.076 A 
ATOM      2  C3  UNL d   1       0.428  -1.057  -1.764  0.00  0.00     0.004 A 
ATOM      3  C4  UNL d   1       0.525  -2.335  -2.310  0.00  0.00    -0.003 A 
ATOM      4  C5  UNL d   1       0.244  -3.448  -1.525  0.00  0.00     0.000 A 
ATOM      5  C6  UNL d   1      -0.150  -3.280  -0.198  0.00  0.00     0.000 A 
ATOM      6  C7  UNL d   1      -0.268  -1.997   0.364  0.00  0.00    -0.073 A 
ATOM      7  C8  UNL d   1      -0.691  -1.875   1.802  0.00  0.00     0.078 C 
ENDROOT
BRANCH   1   8
ATOM      8  C1  UNL d   1      -0.012   0.539   0.122  0.00  0.00     0.053 C 
ATOM      9  C   UNL d   1      -0.034   1.589  -0.978  0.00  0.00     0.018 C 
ENDBRANCH   1   8
TORSDOF 1
ENDMDL
