MODEL 1
REMARK minimizedAffinity -5.57064438
REMARK minimizedRMSD -1
REMARK  1 active torsions:
REMARK  status: ('A' for Active; 'I' for Inactive)
REMARK    1  A    between atoms: C1_2  and  C2_3 
ROOT
ATOM      1  C2  UNL d   1      -0.156  -0.712  -0.551  0.00  0.00    -0.076 A 
ATOM      2  C3  UNL d   1      -0.694  -0.828   0.742  0.00  0.00     0.004 A 
ATOM      3  C4  UNL d   1      -0.929  -2.078   1.312  0.00  0.00    -0.003 A 
ATOM      4  C5  UNL d   1      -0.628  -3.233   0.598  0.00  0.00     0.000 A 
ATOM      5  C6  UNL d   1      -0.077  -3.137  -0.679  0.00  0.00     0.000 A 
ATOM      6  C7  UNL d   1       0.180  -1.884  -1.262  0.00  0.00    -0.073 A 
ATOM      7  C8  UNL d   1       0.770  -1.839  -2.645  0.00  0.00     0.078 C 
ENDROOT
BRANCH   1   8
ATOM      8  C1  UNL d   1       0.051   0.670  -1.128  0.00  0.00     0.053 C 
ATOM      9  C   UNL d   1       0.455   1.687  -0.073  0.00  0.00     0.018 C 
ENDBRANCH   1   8
TORSDOF 1
ENDMDL
