MODEL 1
REMARK minimizedAffinity -3.57203126
REMARK minimizedRMSD -1
REMARK  1 active torsions:
REMARK  status: ('A' for Active; 'I' for Inactive)
REMARK    1  A    between atoms: C1_2  and  C2_3 
ROOT
ATOM      1  C2  UNL d   1      -0.122  -0.072  -0.011  0.00  0.00    -0.076 A 
ATOM      2  C3  UNL d   1      -0.688  -0.080   1.276  0.00  0.00     0.004 A 
ATOM      3  C4  UNL d   1      -1.106  -1.271   1.868  0.00  0.00    -0.003 A 
ATOM      4  C5  UNL d   1      -0.964  -2.473   1.183  0.00  0.00     0.000 A 
ATOM      5  C6  UNL d   1      -0.389  -2.485  -0.087  0.00  0.00     0.000 A 
ATOM      6  C7  UNL d   1       0.053  -1.296  -0.692  0.00  0.00    -0.073 A 
ATOM      7  C8  UNL d   1       0.660  -1.367  -2.066  0.00  0.00     0.078 C 
ENDROOT
BRANCH   1   8
ATOM      8  C1  UNL d   1       0.288   1.253  -0.614  0.00  0.00     0.053 C 
ATOM      9  C   UNL d   1       0.590   2.305   0.443  0.00  0.00     0.018 C 
ENDBRANCH   1   8
TORSDOF 1
ENDMDL
