MODEL 1
REMARK minimizedAffinity -2.16906834
REMARK minimizedRMSD -1
REMARK  1 active torsions:
REMARK  status: ('A' for Active; 'I' for Inactive)
REMARK    1  A    between atoms: C1_2  and  C2_3 
ROOT
ATOM      1  C2  UNL d   1       0.133   1.149   0.028  0.00  0.00    -0.076 A 
ATOM      2  C3  UNL d   1       0.354   1.730   1.289  0.00  0.00     0.004 A 
ATOM      3  C4  UNL d   1       1.053   2.930   1.414  0.00  0.00    -0.003 A 
ATOM      4  C5  UNL d   1       1.541   3.568   0.279  0.00  0.00     0.000 A 
ATOM      5  C6  UNL d   1       1.316   3.015  -0.981  0.00  0.00     0.000 A 
ATOM      6  C7  UNL d   1       0.600   1.815  -1.125  0.00  0.00    -0.073 A 
ATOM      7  C8  UNL d   1       0.392   1.260  -2.508  0.00  0.00     0.078 C 
ENDROOT
BRANCH   1   8
ATOM      8  C1  UNL d   1      -0.607  -0.167  -0.043  0.00  0.00     0.053 C 
ATOM      9  C   UNL d   1      -1.632  -0.320   1.071  0.00  0.00     0.018 C 
ENDBRANCH   1   8
TORSDOF 1
ENDMDL
