MODEL 1
REMARK minimizedAffinity -2.06602955
REMARK minimizedRMSD -1
REMARK  1 active torsions:
REMARK  status: ('A' for Active; 'I' for Inactive)
REMARK    1  A    between atoms: C1_2  and  C2_3 
ROOT
ATOM      1  C2  UNL d   1      -0.335  -1.195  -0.540  0.00  0.00    -0.076 A 
ATOM      2  C3  UNL d   1      -0.922  -2.391  -0.089  0.00  0.00     0.004 A 
ATOM      3  C4  UNL d   1      -1.204  -2.586   1.262  0.00  0.00    -0.003 A 
ATOM      4  C5  UNL d   1      -0.905  -1.589   2.184  0.00  0.00     0.000 A 
ATOM      5  C6  UNL d   1      -0.340  -0.390   1.752  0.00  0.00     0.000 A 
ATOM      6  C7  UNL d   1      -0.063  -0.170   0.392  0.00  0.00    -0.073 A 
ATOM      7  C8  UNL d   1       0.553   1.139  -0.017  0.00  0.00     0.078 C 
ENDROOT
BRANCH   1   8
ATOM      8  C1  UNL d   1      -0.027  -1.050  -2.013  0.00  0.00     0.053 C 
ATOM      9  C   UNL d   1      -0.383  -2.297  -2.808  0.00  0.00     0.018 C 
ENDBRANCH   1   8
TORSDOF 1
ENDMDL
