MODEL 1
REMARK minimizedAffinity -3.58857155
REMARK minimizedRMSD -1
REMARK  0 active torsions:
REMARK  status: ('A' for Active; 'I' for Inactive)
ROOT
ATOM      1  C1  BNZ d   1      -0.406  -0.870  -5.465  0.00  0.00     0.000 A 
ATOM      2  C2  BNZ d   1       0.363  -1.453  -4.493  0.00  0.00     0.000 A 
ATOM      3  C3  BNZ d   1       1.175  -0.697  -3.695  0.00  0.00     0.000 A 
ATOM      4  C4  BNZ d   1       1.248   0.635  -3.896  0.00  0.00     0.000 A 
ATOM      5  C5  BNZ d   1       0.487   1.236  -4.878  0.00  0.00     0.000 A 
ATOM      6  C6  BNZ d   1      -0.359   0.477  -5.653  0.00  0.00     0.000 A 
ENDROOT
TORSDOF 0
ENDMDL
