MODEL 1
REMARK minimizedAffinity -4.24828196
REMARK minimizedRMSD -1
REMARK  0 active torsions:
REMARK  status: ('A' for Active; 'I' for Inactive)
ROOT
ATOM      1  C1  BNZ d   1       0.034  -0.024  -5.921  0.00  0.00     0.000 A 
ATOM      2  C2  BNZ d   1       1.236   0.345  -5.379  0.00  0.00     0.000 A 
ATOM      3  C3  BNZ d   1       1.577  -0.032  -4.110  0.00  0.00     0.000 A 
ATOM      4  C4  BNZ d   1       0.700  -0.743  -3.371  0.00  0.00     0.000 A 
ATOM      5  C5  BNZ d   1      -0.520  -1.115  -3.901  0.00  0.00     0.000 A 
ATOM      6  C6  BNZ d   1      -0.843  -0.767  -5.192  0.00  0.00     0.000 A 
ENDROOT
TORSDOF 0
ENDMDL
