MODEL 1
REMARK minimizedAffinity -2.35730648
REMARK minimizedRMSD -1
REMARK  0 active torsions:
REMARK  status: ('A' for Active; 'I' for Inactive)
ROOT
ATOM      1  C1  BNZ d   1       1.824  -1.343   0.304  0.00  0.00     0.000 A 
ATOM      2  C2  BNZ d   1       1.079  -1.314  -0.845  0.00  0.00     0.000 A 
ATOM      3  C3  BNZ d   1      -0.106  -0.635  -0.893  0.00  0.00     0.000 A 
ATOM      4  C4  BNZ d   1      -0.565  -0.022   0.217  0.00  0.00     0.000 A 
ATOM      5  C5  BNZ d   1       0.169  -0.050   1.385  0.00  0.00     0.000 A 
ATOM      6  C6  BNZ d   1       1.381  -0.701   1.420  0.00  0.00     0.000 A 
ENDROOT
TORSDOF 0
ENDMDL
