MODEL 1
REMARK minimizedAffinity -4.7215929
REMARK minimizedRMSD -1
REMARK  0 active torsions:
REMARK  status: ('A' for Active; 'I' for Inactive)
ROOT
ATOM      1  C1  BNZ d   1       0.337  -0.189   0.395  0.00  0.00     0.000 A 
ATOM      2  C2  BNZ d   1       0.354   0.295   1.676  0.00  0.00     0.000 A 
ATOM      3  C3  BNZ d   1      -0.799   0.709   2.282  0.00  0.00     0.000 A 
ATOM      4  C4  BNZ d   1      -1.959   0.677   1.594  0.00  0.00     0.000 A 
ATOM      5  C5  BNZ d   1      -1.990   0.200   0.299  0.00  0.00     0.000 A 
ATOM      6  C6  BNZ d   1      -0.834  -0.253  -0.295  0.00  0.00     0.000 A 
ENDROOT
TORSDOF 0
ENDMDL
