MODEL 1
REMARK minimizedAffinity -4.2608366
REMARK minimizedRMSD -1
REMARK  0 active torsions:
REMARK  status: ('A' for Active; 'I' for Inactive)
ROOT
ATOM      1  C1  BNZ d   1      -0.812  -0.537  -0.525  0.00  0.00     0.000 A 
ATOM      2  C2  BNZ d   1      -1.844  -0.028   0.217  0.00  0.00     0.000 A 
ATOM      3  C3  BNZ d   1      -1.643   0.385   1.505  0.00  0.00     0.000 A 
ATOM      4  C4  BNZ d   1      -0.422   0.252   2.061  0.00  0.00     0.000 A 
ATOM      5  C5  BNZ d   1       0.627  -0.268   1.328  0.00  0.00     0.000 A 
ATOM      6  C6  BNZ d   1       0.430  -0.646   0.020  0.00  0.00     0.000 A 
ENDROOT
TORSDOF 0
ENDMDL
