MODEL 1
REMARK minimizedAffinity -1.16792023
REMARK minimizedRMSD -1
REMARK  0 active torsions:
REMARK  status: ('A' for Active; 'I' for Inactive)
ROOT
ATOM      1  C1  BNZ d   1       0.824   0.057   1.102  0.00  0.00     0.000 A 
ATOM      2  C2  BNZ d   1       1.846  -0.322   1.931  0.00  0.00     0.000 A 
ATOM      3  C3  BNZ d   1       1.660  -0.392   3.284  0.00  0.00     0.000 A 
ATOM      4  C4  BNZ d   1       0.467  -0.043   3.808  0.00  0.00     0.000 A 
ATOM      5  C5  BNZ d   1      -0.569   0.351   2.986  0.00  0.00     0.000 A 
ATOM      6  C6  BNZ d   1      -0.391   0.382   1.622  0.00  0.00     0.000 A 
ENDROOT
TORSDOF 0
ENDMDL
