MODEL 1
REMARK minimizedAffinity 2.69331789
REMARK minimizedRMSD -1
REMARK  0 active torsions:
REMARK  status: ('A' for Active; 'I' for Inactive)
ROOT
ATOM      1  C   UNL d   1      -3.793   2.999  -2.573  0.00  0.00     0.078 C 
ATOM      2  C1  UNL d   1      -2.541   3.110  -3.391  0.00  0.00    -0.077 A 
ATOM      3  C2  UNL d   1      -2.305   4.228  -4.201  0.00  0.00    -0.001 A 
ATOM      4  C3  UNL d   1      -1.140   4.313  -4.965  0.00  0.00     0.003 A 
ATOM      5  C4  UNL d   1      -0.202   3.284  -4.928  0.00  0.00    -0.005 A 
ATOM      6  C5  UNL d   1      -0.429   2.166  -4.127  0.00  0.00     0.003 A 
ATOM      7  C6  UNL d   1      -1.594   2.079  -3.362  0.00  0.00    -0.001 A 
ENDROOT
TORSDOF 0
ENDMDL
