MODEL 1
REMARK minimizedAffinity 5.83404827
REMARK minimizedRMSD -1
REMARK  0 active torsions:
REMARK  status: ('A' for Active; 'I' for Inactive)
ROOT
ATOM      1  C   UNL d   1      -1.320   3.556  -4.292  0.00  0.00     0.078 C 
ATOM      2  C1  UNL d   1      -2.207   3.135  -3.158  0.00  0.00    -0.077 A 
ATOM      3  C2  UNL d   1      -3.386   2.417  -3.393  0.00  0.00    -0.001 A 
ATOM      4  C3  UNL d   1      -4.207   2.040  -2.329  0.00  0.00     0.003 A 
ATOM      5  C4  UNL d   1      -3.858   2.377  -1.023  0.00  0.00    -0.005 A 
ATOM      6  C5  UNL d   1      -2.687   3.092  -0.779  0.00  0.00     0.003 A 
ATOM      7  C6  UNL d   1      -1.865   3.470  -1.842  0.00  0.00    -0.001 A 
ENDROOT
TORSDOF 0
ENDMDL
