MODEL 1
REMARK minimizedAffinity 2.75822949
REMARK minimizedRMSD -1
REMARK  0 active torsions:
REMARK  status: ('A' for Active; 'I' for Inactive)
ROOT
ATOM      1  C   UNL d   1      -3.777   2.499  -3.033  0.00  0.00     0.078 C 
ATOM      2  C1  UNL d   1      -2.600   2.896  -3.874  0.00  0.00    -0.077 A 
ATOM      3  C2  UNL d   1      -2.641   4.044  -4.675  0.00  0.00    -0.001 A 
ATOM      4  C3  UNL d   1      -1.542   4.397  -5.460  0.00  0.00     0.003 A 
ATOM      5  C4  UNL d   1      -0.395   3.606  -5.453  0.00  0.00    -0.005 A 
ATOM      6  C5  UNL d   1      -0.346   2.461  -4.661  0.00  0.00     0.003 A 
ATOM      7  C6  UNL d   1      -1.444   2.107  -3.875  0.00  0.00    -0.001 A 
ENDROOT
TORSDOF 0
ENDMDL
