MODEL 1
REMARK minimizedAffinity 9.03642273
REMARK minimizedRMSD -1
REMARK  0 active torsions:
REMARK  status: ('A' for Active; 'I' for Inactive)
ROOT
ATOM      1  C   UNL d   1       4.563  -4.532   3.046  0.00  0.00     0.078 C 
ATOM      2  C1  UNL d   1       3.721  -3.894   1.982  0.00  0.00    -0.077 A 
ATOM      3  C2  UNL d   1       4.110  -3.929   0.637  0.00  0.00    -0.001 A 
ATOM      4  C3  UNL d   1       3.321  -3.323  -0.342  0.00  0.00     0.003 A 
ATOM      5  C4  UNL d   1       2.139  -2.676   0.014  0.00  0.00    -0.005 A 
ATOM      6  C5  UNL d   1       1.745  -2.633   1.350  0.00  0.00     0.003 A 
ATOM      7  C6  UNL d   1       2.533  -3.239   2.330  0.00  0.00    -0.001 A 
ENDROOT
TORSDOF 0
ENDMDL
