MODEL 1
REMARK minimizedAffinity 0.388576418
REMARK minimizedRMSD -1
REMARK  0 active torsions:
REMARK  status: ('A' for Active; 'I' for Inactive)
ROOT
ATOM      1  C   UNL d   1      -0.407   2.998  -5.110  0.00  0.00     0.078 C 
ATOM      2  C1  UNL d   1      -1.655   2.687  -4.339  0.00  0.00    -0.077 A 
ATOM      3  C2  UNL d   1      -1.898   1.396  -3.852  0.00  0.00    -0.001 A 
ATOM      4  C3  UNL d   1      -3.069   1.118  -3.144  0.00  0.00     0.003 A 
ATOM      5  C4  UNL d   1      -4.005   2.125  -2.917  0.00  0.00    -0.005 A 
ATOM      6  C5  UNL d   1      -3.772   3.411  -3.398  0.00  0.00     0.003 A 
ATOM      7  C6  UNL d   1      -2.602   3.691  -4.107  0.00  0.00    -0.001 A 
ENDROOT
TORSDOF 0
ENDMDL
