MODEL 1
REMARK minimizedAffinity -3.15315723
REMARK minimizedRMSD -1
REMARK  0 active torsions:
REMARK  status: ('A' for Active; 'I' for Inactive)
ROOT
ATOM      1  C   UNL d   1      -3.906   2.765  -2.523  0.00  0.00     0.078 C 
ATOM      2  C1  UNL d   1      -2.871   3.071  -3.564  0.00  0.00    -0.077 A 
ATOM      3  C2  UNL d   1      -1.638   2.407  -3.573  0.00  0.00    -0.001 A 
ATOM      4  C3  UNL d   1      -0.681   2.709  -4.543  0.00  0.00     0.003 A 
ATOM      5  C4  UNL d   1      -0.945   3.677  -5.510  0.00  0.00    -0.005 A 
ATOM      6  C5  UNL d   1      -2.168   4.345  -5.507  0.00  0.00     0.003 A 
ATOM      7  C6  UNL d   1      -3.127   4.044  -4.539  0.00  0.00    -0.001 A 
ENDROOT
TORSDOF 0
ENDMDL
