MODEL 1
REMARK minimizedAffinity 5.26106548
REMARK minimizedRMSD -1
REMARK  0 active torsions:
REMARK  status: ('A' for Active; 'I' for Inactive)
ROOT
ATOM      1  C   UNL d   1      -2.243   3.380  -3.692  0.00  0.00     0.078 C 
ATOM      2  C1  UNL d   1      -0.978   3.376  -4.498  0.00  0.00    -0.077 A 
ATOM      3  C2  UNL d   1      -0.128   2.263  -4.500  0.00  0.00    -0.001 A 
ATOM      4  C3  UNL d   1       1.050   2.277  -5.247  0.00  0.00     0.003 A 
ATOM      5  C4  UNL d   1       1.391   3.401  -5.997  0.00  0.00    -0.005 A 
ATOM      6  C5  UNL d   1       0.552   4.513  -5.999  0.00  0.00     0.003 A 
ATOM      7  C6  UNL d   1      -0.627   4.502  -5.253  0.00  0.00    -0.001 A 
ENDROOT
TORSDOF 0
ENDMDL
