MODEL 1
REMARK minimizedAffinity 2.1483376
REMARK minimizedRMSD -1
REMARK  1 active torsions:
REMARK  status: ('A' for Active; 'I' for Inactive)
REMARK    1  A    between atoms: C1_2  and  C2_3 
ROOT
ATOM      1  C2  UNL d   1       3.288   5.575   4.914  0.00  0.00    -0.073 A 
ATOM      2  C3  UNL d   1       4.236   5.683   5.938  0.00  0.00    -0.002 A 
ATOM      3  C4  UNL d   1       5.585   5.872   5.633  0.00  0.00     0.004 A 
ATOM      4  C5  UNL d   1       5.998   5.962   4.304  0.00  0.00    -0.004 A 
ATOM      5  C6  UNL d   1       5.064   5.869   3.267  0.00  0.00    -0.075 A 
ATOM      6  C7  UNL d   1       5.493   5.961   1.832  0.00  0.00     0.076 C 
ATOM      7  C8  UNL d   1       3.712   5.676   3.582  0.00  0.00     0.001 A 
ENDROOT
BRANCH   1   8
ATOM      8  C1  UNL d   1       1.830   5.378   5.239  0.00  0.00     0.053 C 
ATOM      9  C   UNL d   1       0.930   5.761   4.075  0.00  0.00     0.018 C 
ENDBRANCH   1   8
TORSDOF 1
ENDMDL
