MODEL 1
REMARK minimizedAffinity 9.26116467
REMARK minimizedRMSD -1
REMARK  1 active torsions:
REMARK  status: ('A' for Active; 'I' for Inactive)
REMARK    1  A    between atoms: C1_2  and  C2_3 
ROOT
ATOM      1  C2  UNL d   1       2.550   5.105   4.512  0.00  0.00    -0.073 A 
ATOM      2  C3  UNL d   1       2.907   5.812   5.666  0.00  0.00    -0.002 A 
ATOM      3  C4  UNL d   1       4.252   5.985   5.999  0.00  0.00     0.004 A 
ATOM      4  C5  UNL d   1       5.251   5.460   5.180  0.00  0.00    -0.004 A 
ATOM      5  C6  UNL d   1       4.914   4.761   4.016  0.00  0.00    -0.075 A 
ATOM      6  C7  UNL d   1       5.977   4.188   3.125  0.00  0.00     0.076 C 
ATOM      7  C8  UNL d   1       3.562   4.589   3.690  0.00  0.00     0.001 A 
ENDROOT
BRANCH   1   8
ATOM      8  C1  UNL d   1       1.100   4.922   4.145  0.00  0.00     0.053 C 
ATOM      9  C   UNL d   1       0.745   3.458   3.939  0.00  0.00     0.018 C 
ENDBRANCH   1   8
TORSDOF 1
ENDMDL
