MODEL 1
REMARK minimizedAffinity 3.84648395
REMARK minimizedRMSD -1
REMARK  1 active torsions:
REMARK  status: ('A' for Active; 'I' for Inactive)
REMARK    1  A    between atoms: C1_2  and  C2_3 
ROOT
ATOM      1  C2  UNL d   1       2.497   4.509   3.895  0.00  0.00    -0.073 A 
ATOM      2  C3  UNL d   1       2.119   4.881   5.190  0.00  0.00    -0.002 A 
ATOM      3  C4  UNL d   1       2.996   5.604   6.000  0.00  0.00     0.004 A 
ATOM      4  C5  UNL d   1       4.255   5.969   5.521  0.00  0.00    -0.004 A 
ATOM      5  C6  UNL d   1       4.646   5.617   4.226  0.00  0.00    -0.075 A 
ATOM      6  C7  UNL d   1       5.997   5.999   3.697  0.00  0.00     0.076 C 
ATOM      7  C8  UNL d   1       3.761   4.888   3.420  0.00  0.00     0.001 A 
ENDROOT
BRANCH   1   8
ATOM      8  C1  UNL d   1       1.551   3.734   3.015  0.00  0.00     0.053 C 
ATOM      9  C   UNL d   1       0.131   3.743   3.557  0.00  0.00     0.018 C 
ENDBRANCH   1   8
TORSDOF 1
ENDMDL
