MODEL 1
REMARK minimizedAffinity 11.7327833
REMARK minimizedRMSD -1
REMARK  1 active torsions:
REMARK  status: ('A' for Active; 'I' for Inactive)
REMARK    1  A    between atoms: C1_2  and  C2_3 
ROOT
ATOM      1  C2  UNL d   1       2.770   4.333   4.543  0.00  0.00    -0.073 A 
ATOM      2  C3  UNL d   1       2.790   4.891   3.260  0.00  0.00    -0.002 A 
ATOM      3  C4  UNL d   1       3.840   5.723   2.869  0.00  0.00     0.004 A 
ATOM      4  C5  UNL d   1       4.883   6.000   3.753  0.00  0.00    -0.004 A 
ATOM      5  C6  UNL d   1       4.887   5.442   5.036  0.00  0.00    -0.075 A 
ATOM      6  C7  UNL d   1       6.000   5.732   6.000  0.00  0.00     0.076 C 
ATOM      7  C8  UNL d   1       3.827   4.610   5.422  0.00  0.00     0.001 A 
ENDROOT
BRANCH   1   8
ATOM      8  C1  UNL d   1       1.642   3.429   4.968  0.00  0.00     0.053 C 
ATOM      9  C   UNL d   1       0.382   3.667   4.150  0.00  0.00     0.018 C 
ENDBRANCH   1   8
TORSDOF 1
ENDMDL
