MODEL 1
REMARK minimizedAffinity 13.3773155
REMARK minimizedRMSD -1
REMARK  1 active torsions:
REMARK  status: ('A' for Active; 'I' for Inactive)
REMARK    1  A    between atoms: C1_2  and  C2_3 
ROOT
ATOM      1  C2  UNL d   1       1.254  -1.411   3.268  0.00  0.00    -0.073 A 
ATOM      2  C3  UNL d   1      -0.097  -1.618   3.568  0.00  0.00    -0.002 A 
ATOM      3  C4  UNL d   1      -0.922  -2.297   2.671  0.00  0.00     0.004 A 
ATOM      4  C5  UNL d   1      -0.404  -2.783   1.471  0.00  0.00    -0.004 A 
ATOM      5  C6  UNL d   1       0.946  -2.597   1.158  0.00  0.00    -0.075 A 
ATOM      6  C7  UNL d   1       1.518  -3.111  -0.130  0.00  0.00     0.076 C 
ATOM      7  C8  UNL d   1       1.768  -1.911   2.063  0.00  0.00     0.001 A 
ENDROOT
BRANCH   1   8
ATOM      8  C1  UNL d   1       2.151  -0.683   4.236  0.00  0.00     0.053 C 
ATOM      9  C   UNL d   1       3.165  -1.613   4.884  0.00  0.00     0.018 C 
ENDBRANCH   1   8
TORSDOF 1
ENDMDL
