MODEL 1
REMARK minimizedAffinity 11.2205963
REMARK minimizedRMSD -1
REMARK  1 active torsions:
REMARK  status: ('A' for Active; 'I' for Inactive)
REMARK    1  A    between atoms: C1_2  and  C2_3 
ROOT
ATOM      1  C2  UNL d   1      -5.101   2.310  -5.286  0.00  0.00    -0.073 A 
ATOM      2  C3  UNL d   1      -5.978   3.385  -5.475  0.00  0.00    -0.002 A 
ATOM      3  C4  UNL d   1      -5.485   4.643  -5.824  0.00  0.00     0.004 A 
ATOM      4  C5  UNL d   1      -4.115   4.838  -5.994  0.00  0.00    -0.004 A 
ATOM      5  C6  UNL d   1      -3.224   3.773  -5.821  0.00  0.00    -0.075 A 
ATOM      6  C7  UNL d   1      -1.747   3.967  -5.999  0.00  0.00     0.076 C 
ATOM      7  C8  UNL d   1      -3.726   2.514  -5.468  0.00  0.00     0.001 A 
ENDROOT
BRANCH   1   8
ATOM      8  C1  UNL d   1      -5.629   0.948  -4.915  0.00  0.00     0.053 C 
ATOM      9  C   UNL d   1      -4.864   0.338  -3.751  0.00  0.00     0.018 C 
ENDBRANCH   1   8
TORSDOF 1
ENDMDL
