MODEL 1
REMARK minimizedAffinity 6.75006914
REMARK minimizedRMSD -1
REMARK  1 active torsions:
REMARK  status: ('A' for Active; 'I' for Inactive)
REMARK    1  A    between atoms: C1_2  and  C2_3 
ROOT
ATOM      1  C2  UNL d   1      -5.291  -4.774  -3.830  0.00  0.00    -0.076 A 
ATOM      2  C3  UNL d   1      -4.888  -3.594  -3.180  0.00  0.00     0.004 A 
ATOM      3  C4  UNL d   1      -4.585  -2.443  -3.906  0.00  0.00    -0.003 A 
ATOM      4  C5  UNL d   1      -4.680  -2.453  -5.293  0.00  0.00     0.000 A 
ATOM      5  C6  UNL d   1      -5.095  -3.610  -5.953  0.00  0.00     0.000 A 
ATOM      6  C7  UNL d   1      -5.420  -4.774  -5.235  0.00  0.00    -0.073 A 
ATOM      7  C8  UNL d   1      -5.856  -5.994  -5.998  0.00  0.00     0.078 C 
ENDROOT
BRANCH   1   8
ATOM      8  C1  UNL d   1      -5.580  -5.999  -2.992  0.00  0.00     0.053 C 
ATOM      9  C   UNL d   1      -5.248  -5.792  -1.523  0.00  0.00     0.018 C 
ENDBRANCH   1   8
TORSDOF 1
ENDMDL
