MODEL 1
REMARK minimizedAffinity 0.330511004
REMARK minimizedRMSD -1
REMARK  1 active torsions:
REMARK  status: ('A' for Active; 'I' for Inactive)
REMARK    1  A    between atoms: C1_2  and  C2_3 
ROOT
ATOM      1  C2  UNL d   1      -5.528  -3.852  -3.680  0.00  0.00    -0.076 A 
ATOM      2  C3  UNL d   1      -5.110  -3.227  -4.867  0.00  0.00     0.004 A 
ATOM      3  C4  UNL d   1      -4.643  -3.976  -5.946  0.00  0.00    -0.003 A 
ATOM      4  C5  UNL d   1      -4.588  -5.362  -5.855  0.00  0.00     0.000 A 
ATOM      5  C6  UNL d   1      -5.016  -6.000  -4.691  0.00  0.00     0.000 A 
ATOM      6  C7  UNL d   1      -5.505  -5.261  -3.600  0.00  0.00    -0.073 A 
ATOM      7  C8  UNL d   1      -5.947  -6.000  -2.368  0.00  0.00     0.078 C 
ENDROOT
BRANCH   1   8
ATOM      8  C1  UNL d   1      -5.999  -2.986  -2.533  0.00  0.00     0.053 C 
ATOM      9  C   UNL d   1      -5.578  -3.534  -1.178  0.00  0.00     0.018 C 
ENDBRANCH   1   8
TORSDOF 1
ENDMDL
