MODEL 1
REMARK minimizedAffinity -0.494498163
REMARK minimizedRMSD -1
REMARK  1 active torsions:
REMARK  status: ('A' for Active; 'I' for Inactive)
REMARK    1  A    between atoms: C1_2  and  C2_3 
ROOT
ATOM      1  C2  UNL d   1      -5.294  -3.705  -3.993  0.00  0.00    -0.076 A 
ATOM      2  C3  UNL d   1      -5.998  -4.867  -3.631  0.00  0.00     0.004 A 
ATOM      3  C4  UNL d   1      -5.979  -6.000  -4.443  0.00  0.00    -0.003 A 
ATOM      4  C5  UNL d   1      -5.255  -5.990  -5.630  0.00  0.00     0.000 A 
ATOM      5  C6  UNL d   1      -4.537  -4.852  -5.996  0.00  0.00     0.000 A 
ATOM      6  C7  UNL d   1      -4.532  -3.707  -5.181  0.00  0.00    -0.073 A 
ATOM      7  C8  UNL d   1      -3.744  -2.506  -5.628  0.00  0.00     0.078 C 
ENDROOT
BRANCH   1   8
ATOM      8  C1  UNL d   1      -5.373  -2.498  -3.086  0.00  0.00     0.053 C 
ATOM      9  C   UNL d   1      -5.992  -2.824  -1.736  0.00  0.00     0.018 C 
ENDBRANCH   1   8
TORSDOF 1
ENDMDL
