MODEL 1
REMARK minimizedAffinity -0.679067731
REMARK minimizedRMSD -1
REMARK  1 active torsions:
REMARK  status: ('A' for Active; 'I' for Inactive)
REMARK    1  A    between atoms: C1_2  and  C2_3 
ROOT
ATOM      1  C2  UNL d   1      -5.340  -4.727  -3.578  0.00  0.00    -0.076 A 
ATOM      2  C3  UNL d   1      -6.000  -4.499  -4.799  0.00  0.00     0.004 A 
ATOM      3  C4  UNL d   1      -5.471  -4.971  -5.999  0.00  0.00    -0.003 A 
ATOM      4  C5  UNL d   1      -4.274  -5.678  -5.998  0.00  0.00     0.000 A 
ATOM      5  C6  UNL d   1      -3.615  -5.928  -4.795  0.00  0.00     0.000 A 
ATOM      6  C7  UNL d   1      -4.143  -5.474  -3.574  0.00  0.00    -0.073 A 
ATOM      7  C8  UNL d   1      -3.387  -5.767  -2.307  0.00  0.00     0.078 C 
ENDROOT
BRANCH   1   8
ATOM      8  C1  UNL d   1      -5.947  -4.167  -2.312  0.00  0.00     0.053 C 
ATOM      9  C   UNL d   1      -5.768  -2.662  -2.195  0.00  0.00     0.018 C 
ENDBRANCH   1   8
TORSDOF 1
ENDMDL
