MODEL 1
REMARK minimizedAffinity 2.71610236
REMARK minimizedRMSD -1
REMARK  1 active torsions:
REMARK  status: ('A' for Active; 'I' for Inactive)
REMARK    1  A    between atoms: C1_2  and  C2_3 
ROOT
ATOM      1  C2  UNL d   1       1.799  -3.598   2.742  0.00  0.00    -0.076 A 
ATOM      2  C3  UNL d   1       1.843  -3.066   1.442  0.00  0.00     0.004 A 
ATOM      3  C4  UNL d   1       1.597  -1.713   1.212  0.00  0.00    -0.003 A 
ATOM      4  C5  UNL d   1       1.305  -0.871   2.278  0.00  0.00     0.000 A 
ATOM      5  C6  UNL d   1       1.275  -1.378   3.577  0.00  0.00     0.000 A 
ATOM      6  C7  UNL d   1       1.536  -2.736   3.828  0.00  0.00    -0.073 A 
ATOM      7  C8  UNL d   1       1.484  -3.231   5.248  0.00  0.00     0.078 C 
ENDROOT
BRANCH   1   8
ATOM      8  C1  UNL d   1       2.047  -5.078   2.927  0.00  0.00     0.053 C 
ATOM      9  C   UNL d   1       3.006  -5.643   1.891  0.00  0.00     0.018 C 
ENDBRANCH   1   8
TORSDOF 1
ENDMDL
