MODEL 1
REMARK minimizedAffinity 2.52778482
REMARK minimizedRMSD -1
REMARK  1 active torsions:
REMARK  status: ('A' for Active; 'I' for Inactive)
REMARK    1  A    between atoms: C1_2  and  C2_3 
ROOT
ATOM      1  C2  UNL d   1      -4.897  -4.563  -3.211  0.00  0.00    -0.076 A 
ATOM      2  C3  UNL d   1      -4.906  -5.842  -3.795  0.00  0.00     0.004 A 
ATOM      3  C4  UNL d   1      -4.980  -5.999  -5.178  0.00  0.00    -0.003 A 
ATOM      4  C5  UNL d   1      -5.046  -4.880  -6.000  0.00  0.00     0.000 A 
ATOM      5  C6  UNL d   1      -5.021  -3.603  -5.439  0.00  0.00     0.000 A 
ATOM      6  C7  UNL d   1      -4.930  -3.427  -4.048  0.00  0.00    -0.073 A 
ATOM      7  C8  UNL d   1      -4.913  -2.028  -3.497  0.00  0.00     0.078 C 
ENDROOT
BRANCH   1   8
ATOM      8  C1  UNL d   1      -4.843  -4.455  -1.704  0.00  0.00     0.053 C 
ATOM      9  C   UNL d   1      -4.111  -5.624  -1.062  0.00  0.00     0.018 C 
ENDBRANCH   1   8
TORSDOF 1
ENDMDL
