MODEL 1
REMARK minimizedAffinity 13.0681105
REMARK minimizedRMSD -1
REMARK  2 active torsions:
REMARK  status: ('A' for Active; 'I' for Inactive)
REMARK    1  A    between atoms: C2'_3  and  C1'_4 
REMARK    2  A    between atoms: C1'_4  and  C1_5 
ROOT
ATOM      1  C1  I4B d   1       2.442  -1.893   3.676  0.00  0.00    -0.075 A 
ATOM      2  C2  I4B d   1       2.950  -2.779   2.758  0.00  0.00     0.003 A 
ATOM      3  C3  I4B d   1       2.252  -3.035   1.553  0.00  0.00     0.002 A 
ATOM      4  C4  I4B d   1       1.034  -2.427   1.331  0.00  0.00    -0.004 A 
ATOM      5  C5  I4B d   1       0.531  -1.512   2.251  0.00  0.00     0.002 A 
ATOM      6  C6  I4B d   1       1.245  -1.234   3.426  0.00  0.00     0.003 A 
ENDROOT
BRANCH   1   7
ATOM      7  C1' I4B d   1       3.188  -1.671   4.953  0.00  0.00     0.060 C 
BRANCH   7   8
ATOM      8  C2' I4B d   1       4.380  -2.607   4.966  0.00  0.00    -0.013 C 
ATOM      9  C4' I4B d   1       5.656  -1.860   5.252  0.00  0.00     0.013 C 
ATOM     10  C3' I4B d   1       4.127  -3.663   6.000  0.00  0.00     0.013 C 
ENDBRANCH   7   8
ENDBRANCH   1   7
TORSDOF 2
ENDMDL
