MODEL 1
REMARK minimizedAffinity 15.8214798
REMARK minimizedRMSD -1
REMARK  2 active torsions:
REMARK  status: ('A' for Active; 'I' for Inactive)
REMARK    1  A    between atoms: C2'_3  and  C1'_4 
REMARK    2  A    between atoms: C1'_4  and  C1_5 
ROOT
ATOM      1  C1  I4B d   1       4.083  -3.387   3.510  0.00  0.00    -0.075 A 
ATOM      2  C2  I4B d   1       3.848  -4.734   3.627  0.00  0.00     0.003 A 
ATOM      3  C3  I4B d   1       3.927  -5.364   4.893  0.00  0.00     0.002 A 
ATOM      4  C4  I4B d   1       4.291  -4.624   5.999  0.00  0.00    -0.004 A 
ATOM      5  C5  I4B d   1       4.506  -3.254   5.882  0.00  0.00     0.002 A 
ATOM      6  C6  I4B d   1       4.389  -2.629   4.632  0.00  0.00     0.003 A 
ENDROOT
BRANCH   1   7
ATOM      7  C1' I4B d   1       4.023  -2.761   2.153  0.00  0.00     0.060 C 
BRANCH   7   8
ATOM      8  C2' I4B d   1       2.764  -3.250   1.468  0.00  0.00    -0.013 C 
ATOM      9  C4' I4B d   1       1.904  -2.097   1.019  0.00  0.00     0.013 C 
ATOM     10  C3' I4B d   1       3.171  -4.106   0.306  0.00  0.00     0.013 C 
ENDBRANCH   7   8
ENDBRANCH   1   7
TORSDOF 2
ENDMDL
