MODEL 1
REMARK minimizedAffinity 13.9306831
REMARK minimizedRMSD -1
REMARK  2 active torsions:
REMARK  status: ('A' for Active; 'I' for Inactive)
REMARK    1  A    between atoms: C2'_3  and  C1'_4 
REMARK    2  A    between atoms: C1'_4  and  C1_5 
ROOT
ATOM      1  C1  I4B d   1       1.655  -2.745   0.598  0.00  0.00    -0.075 A 
ATOM      2  C2  I4B d   1       0.361  -2.295   0.683  0.00  0.00     0.003 A 
ATOM      3  C3  I4B d   1       0.008  -1.318   1.645  0.00  0.00     0.002 A 
ATOM      4  C4  I4B d   1       0.962  -0.860   2.531  0.00  0.00    -0.004 A 
ATOM      5  C5  I4B d   1       2.279  -1.301   2.429  0.00  0.00     0.002 A 
ATOM      6  C6  I4B d   1       2.630  -2.241   1.449  0.00  0.00     0.003 A 
ENDROOT
BRANCH   1   7
ATOM      7  C1' I4B d   1       1.987  -3.801  -0.408  0.00  0.00     0.060 C 
BRANCH   7   8
ATOM      8  C2' I4B d   1       2.457  -5.031   0.342  0.00  0.00    -0.013 C 
ATOM      9  C4' I4B d   1       1.325  -5.999   0.565  0.00  0.00     0.013 C 
ATOM     10  C3' I4B d   1       3.562  -5.662  -0.450  0.00  0.00     0.013 C 
ENDBRANCH   7   8
ENDBRANCH   1   7
TORSDOF 2
ENDMDL
