MODEL 1
REMARK minimizedAffinity 10.7275753
REMARK minimizedRMSD -1
REMARK  2 active torsions:
REMARK  status: ('A' for Active; 'I' for Inactive)
REMARK    1  A    between atoms: C2'_3  and  C1'_4 
REMARK    2  A    between atoms: C1'_4  and  C1_5 
ROOT
ATOM      1  C1  I4B d   1      -2.648   3.431   4.966  0.00  0.00    -0.075 A 
ATOM      2  C2  I4B d   1      -3.430   4.280   5.709  0.00  0.00     0.003 A 
ATOM      3  C3  I4B d   1      -2.986   5.595   5.991  0.00  0.00     0.002 A 
ATOM      4  C4  I4B d   1      -1.741   6.000   5.555  0.00  0.00    -0.004 A 
ATOM      5  C5  I4B d   1      -0.959   5.145   4.783  0.00  0.00     0.002 A 
ATOM      6  C6  I4B d   1      -1.421   3.857   4.475  0.00  0.00     0.003 A 
ENDROOT
BRANCH   1   7
ATOM      7  C1' I4B d   1      -3.133   2.039   4.715  0.00  0.00     0.060 C 
BRANCH   7   8
ATOM      8  C2' I4B d   1      -4.613   1.994   5.039  0.00  0.00    -0.013 C 
ATOM      9  C4' I4B d   1      -5.439   1.823   3.792  0.00  0.00     0.013 C 
ATOM     10  C3' I4B d   1      -4.843   0.866   6.000  0.00  0.00     0.013 C 
ENDBRANCH   7   8
ENDBRANCH   1   7
TORSDOF 2
ENDMDL
