MODEL 1
REMARK minimizedAffinity 15.5888844
REMARK minimizedRMSD -1
REMARK  2 active torsions:
REMARK  status: ('A' for Active; 'I' for Inactive)
REMARK    1  A    between atoms: C2'_3  and  C1'_4 
REMARK    2  A    between atoms: C1'_4  and  C1_5 
ROOT
ATOM      1  C1  I4B d   1       2.706  -2.106   3.123  0.00  0.00    -0.075 A 
ATOM      2  C2  I4B d   1       3.454  -2.795   2.201  0.00  0.00     0.003 A 
ATOM      3  C3  I4B d   1       2.989  -2.941   0.872  0.00  0.00     0.002 A 
ATOM      4  C4  I4B d   1       1.756  -2.429   0.523  0.00  0.00    -0.004 A 
ATOM      5  C5  I4B d   1       1.010  -1.711   1.453  0.00  0.00     0.002 A 
ATOM      6  C6  I4B d   1       1.493  -1.538   2.758  0.00  0.00     0.003 A 
ENDROOT
BRANCH   1   7
ATOM      7  C1' I4B d   1       3.212  -1.999   4.527  0.00  0.00     0.060 C 
BRANCH   7   8
ATOM      8  C2' I4B d   1       4.453  -2.861   4.643  0.00  0.00    -0.013 C 
ATOM      9  C4' I4B d   1       5.655  -2.038   5.025  0.00  0.00     0.013 C 
ATOM     10  C3' I4B d   1       4.182  -3.928   5.660  0.00  0.00     0.013 C 
ENDBRANCH   7   8
ENDBRANCH   1   7
TORSDOF 2
ENDMDL
