MODEL 1
REMARK minimizedAffinity 15.5203209
REMARK minimizedRMSD -1
REMARK  2 active torsions:
REMARK  status: ('A' for Active; 'I' for Inactive)
REMARK    1  A    between atoms: C2'_3  and  C1'_4 
REMARK    2  A    between atoms: C1'_4  and  C1_5 
ROOT
ATOM      1  C1  I4B d   1      -2.772   2.960  -3.440  0.00  0.00    -0.075 A 
ATOM      2  C2  I4B d   1      -1.598   3.354  -4.031  0.00  0.00     0.003 A 
ATOM      3  C3  I4B d   1      -0.367   2.787  -3.619  0.00  0.00     0.002 A 
ATOM      4  C4  I4B d   1      -0.352   1.873  -2.586  0.00  0.00    -0.004 A 
ATOM      5  C5  I4B d   1      -1.546   1.457  -2.004  0.00  0.00     0.002 A 
ATOM      6  C6  I4B d   1      -2.766   1.995  -2.442  0.00  0.00     0.003 A 
ENDROOT
BRANCH   1   7
ATOM      7  C1' I4B d   1      -4.050   3.603  -3.877  0.00  0.00     0.060 C 
BRANCH   7   8
ATOM      8  C2' I4B d   1      -4.044   5.036  -3.385  0.00  0.00    -0.013 C 
ATOM      9  C4' I4B d   1      -3.790   5.999  -4.514  0.00  0.00     0.013 C 
ATOM     10  C3' I4B d   1      -5.365   5.306  -2.729  0.00  0.00     0.013 C 
ENDBRANCH   7   8
ENDBRANCH   1   7
TORSDOF 2
ENDMDL
