MODEL 1
REMARK minimizedAffinity 13.7853594
REMARK minimizedRMSD -1
REMARK  2 active torsions:
REMARK  status: ('A' for Active; 'I' for Inactive)
REMARK    1  A    between atoms: C2'_3  and  C1'_4 
REMARK    2  A    between atoms: C1'_4  and  C1_5 
ROOT
ATOM      1  C1  I4B d   1       4.996  -3.593   5.722  0.00  0.00    -0.075 A 
ATOM      2  C2  I4B d   1       3.626  -3.524   5.776  0.00  0.00     0.003 A 
ATOM      3  C3  I4B d   1       2.860  -4.703   5.941  0.00  0.00     0.002 A 
ATOM      4  C4  I4B d   1       3.497  -5.926   5.996  0.00  0.00    -0.004 A 
ATOM      5  C5  I4B d   1       4.887  -5.991   5.965  0.00  0.00     0.002 A 
ATOM      6  C6  I4B d   1       5.642  -4.816   5.839  0.00  0.00     0.003 A 
ENDROOT
BRANCH   1   7
ATOM      7  C1' I4B d   1       5.773  -2.331   5.513  0.00  0.00     0.060 C 
BRANCH   7   8
ATOM      8  C2' I4B d   1       5.208  -1.631   4.294  0.00  0.00    -0.013 C 
ATOM      9  C4' I4B d   1       5.991  -1.977   3.055  0.00  0.00     0.013 C 
ATOM     10  C3' I4B d   1       3.770  -2.031   4.155  0.00  0.00     0.013 C 
ENDBRANCH   7   8
ENDBRANCH   1   7
TORSDOF 2
ENDMDL
