MODEL 1
REMARK minimizedAffinity -5.46578026
REMARK minimizedRMSD -1
REMARK  1 active torsions:
REMARK  status: ('A' for Active; 'I' for Inactive)
REMARK    1  A    between atoms: N_2  and  C1_3 
ROOT
ATOM      1  C1  UNL d   1      -0.196   0.931   0.209  0.00  0.00     0.143 A 
ATOM      2  C2  UNL d   1      -1.021   0.523   1.262  0.00  0.00    -0.057 A 
ATOM      3  C3  UNL d   1      -1.925   1.409   1.862  0.00  0.00     0.033 A 
ATOM      4  C4  UNL d   1      -1.998   2.731   1.435  0.00  0.00    -0.042 A 
ATOM      5  C5  UNL d   1      -1.170   3.165   0.406  0.00  0.00     0.033 A 
ATOM      6  C6  UNL d   1      -0.275   2.273  -0.193  0.00  0.00    -0.057 A 
ENDROOT
BRANCH   1   7
ATOM      7  N   UNL d   1       0.791   0.124  -0.362  0.00  0.00    -0.732 N 
ATOM      8  C   UNL d   1       0.432  -1.026  -1.163  0.00  0.00     0.284 C 
ATOM      9  H3  UNL d   1       1.566   0.667  -0.738  0.00  0.00     0.395 HD
ENDBRANCH   1   7
TORSDOF 1
ENDMDL
