MODEL 1
REMARK minimizedAffinity -5.28193569
REMARK minimizedRMSD -1
REMARK  1 active torsions:
REMARK  status: ('A' for Active; 'I' for Inactive)
REMARK    1  A    between atoms: N_2  and  C1_3 
ROOT
ATOM      1  C1  UNL d   1       0.223   2.300  -0.214  0.00  0.00     0.143 A 
ATOM      2  C2  UNL d   1      -0.544   3.338   0.326  0.00  0.00    -0.057 A 
ATOM      3  C3  UNL d   1      -1.750   3.080   0.989  0.00  0.00     0.033 A 
ATOM      4  C4  UNL d   1      -2.226   1.778   1.097  0.00  0.00    -0.042 A 
ATOM      5  C5  UNL d   1      -1.493   0.733   0.546  0.00  0.00     0.033 A 
ATOM      6  C6  UNL d   1      -0.286   0.996  -0.109  0.00  0.00    -0.057 A 
ENDROOT
BRANCH   1   7
ATOM      7  N   UNL d   1       1.381   2.501  -0.970  0.00  0.00    -0.732 N 
ATOM      8  C   UNL d   1       1.516   1.908  -2.284  0.00  0.00     0.284 C 
ATOM      9  H3  UNL d   1       1.725   3.456  -0.908  0.00  0.00     0.395 HD
ENDBRANCH   1   7
TORSDOF 1
ENDMDL
