MODEL 1
REMARK minimizedAffinity -2.86985397
REMARK minimizedRMSD -1
REMARK  1 active torsions:
REMARK  status: ('A' for Active; 'I' for Inactive)
REMARK    1  A    between atoms: N_2  and  C1_3 
ROOT
ATOM      1  C1  UNL d   1      -0.488   0.925   1.417  0.00  0.00     0.143 A 
ATOM      2  C2  UNL d   1      -0.370  -0.469   1.432  0.00  0.00    -0.057 A 
ATOM      3  C3  UNL d   1       0.312  -1.151   0.418  0.00  0.00     0.033 A 
ATOM      4  C4  UNL d   1       0.866  -0.451  -0.649  0.00  0.00    -0.042 A 
ATOM      5  C5  UNL d   1       0.739   0.933  -0.698  0.00  0.00     0.033 A 
ATOM      6  C6  UNL d   1       0.062   1.609   0.322  0.00  0.00    -0.057 A 
ENDROOT
BRANCH   1   7
ATOM      7  N   UNL d   1      -1.238   1.652   2.344  0.00  0.00    -0.732 N 
ATOM      8  C   UNL d   1      -1.789   2.944   1.995  0.00  0.00     0.284 C 
ATOM      9  H3  UNL d   1      -1.869   1.062   2.881  0.00  0.00     0.395 HD
ENDBRANCH   1   7
TORSDOF 1
ENDMDL
