MODEL 1
REMARK minimizedAffinity -3.71199584
REMARK minimizedRMSD -1
REMARK  1 active torsions:
REMARK  status: ('A' for Active; 'I' for Inactive)
REMARK    1  A    between atoms: N_2  and  C1_3 
ROOT
ATOM      1  C1  UNL d   1      -0.136   0.186   0.289  0.00  0.00     0.143 A 
ATOM      2  C2  UNL d   1      -0.647  -0.458   1.422  0.00  0.00    -0.057 A 
ATOM      3  C3  UNL d   1      -1.614   0.153   2.229  0.00  0.00     0.033 A 
ATOM      4  C4  UNL d   1      -2.068   1.434   1.933  0.00  0.00    -0.042 A 
ATOM      5  C5  UNL d   1      -1.555   2.103   0.827  0.00  0.00     0.033 A 
ATOM      6  C6  UNL d   1      -0.594   1.485   0.021  0.00  0.00    -0.057 A 
ENDROOT
BRANCH   1   7
ATOM      7  N   UNL d   1       0.899  -0.328  -0.497  0.00  0.00    -0.732 N 
ATOM      8  C   UNL d   1       0.710  -1.542  -1.262  0.00  0.00     0.284 C 
ATOM      9  H3  UNL d   1       1.409   0.400  -0.991  0.00  0.00     0.395 HD
ENDBRANCH   1   7
TORSDOF 1
ENDMDL
