MODEL 1
REMARK minimizedAffinity -5.19949579
REMARK minimizedRMSD -1
REMARK  1 active torsions:
REMARK  status: ('A' for Active; 'I' for Inactive)
REMARK    1  A    between atoms: N_2  and  C1_3 
ROOT
ATOM      1  C1  UNL d   1      -0.622   0.468   0.374  0.00  0.00     0.143 A 
ATOM      2  C2  UNL d   1      -1.468   0.913   1.396  0.00  0.00    -0.057 A 
ATOM      3  C3  UNL d   1      -1.860   2.255   1.481  0.00  0.00     0.033 A 
ATOM      4  C4  UNL d   1      -1.388   3.183   0.559  0.00  0.00    -0.042 A 
ATOM      5  C5  UNL d   1      -0.526   2.768  -0.450  0.00  0.00     0.033 A 
ATOM      6  C6  UNL d   1      -0.144   1.426  -0.534  0.00  0.00    -0.057 A 
ENDROOT
BRANCH   1   7
ATOM      7  N   UNL d   1      -0.117  -0.832   0.293  0.00  0.00    -0.732 N 
ATOM      8  C   UNL d   1       0.599  -1.273  -0.885  0.00  0.00     0.284 C 
ATOM      9  H3  UNL d   1       0.293  -1.145   1.170  0.00  0.00     0.395 HD
ENDBRANCH   1   7
TORSDOF 1
ENDMDL
