MODEL 1
REMARK minimizedAffinity -2.46118402
REMARK minimizedRMSD -1
REMARK  1 active torsions:
REMARK  status: ('A' for Active; 'I' for Inactive)
REMARK    1  A    between atoms: N_2  and  C1_3 
ROOT
ATOM      1  C1  UNL d   1       0.655  -0.317   0.017  0.00  0.00     0.143 A 
ATOM      2  C2  UNL d   1      -0.632   0.232  -0.023  0.00  0.00    -0.057 A 
ATOM      3  C3  UNL d   1      -1.238   0.747   1.129  0.00  0.00     0.033 A 
ATOM      4  C4  UNL d   1      -0.577   0.696   2.352  0.00  0.00    -0.042 A 
ATOM      5  C5  UNL d   1       0.693   0.132   2.420  0.00  0.00     0.033 A 
ATOM      6  C6  UNL d   1       1.295  -0.374   1.264  0.00  0.00    -0.057 A 
ENDROOT
BRANCH   1   7
ATOM      7  N   UNL d   1       1.271  -0.934  -1.075  0.00  0.00    -0.732 N 
ATOM      8  C   UNL d   1       1.221  -2.371  -1.234  0.00  0.00     0.284 C 
ATOM      9  H3  UNL d   1       1.140  -0.415  -1.940  0.00  0.00     0.395 HD
ENDBRANCH   1   7
TORSDOF 1
ENDMDL
