MODEL 1
REMARK minimizedAffinity -3.61749649
REMARK minimizedRMSD -1
REMARK  0 active torsions:
REMARK  status: ('A' for Active; 'I' for Inactive)
ROOT
ATOM      1  C   UNL d   1      -0.572  -2.807   0.421  0.00  0.00     0.172 C 
ATOM      2  N   UNL d   1      -0.413  -1.431   0.013  0.00  0.00    -0.070 N 
ATOM      3  C1  UNL d   1       0.100  -1.007  -1.183  0.00  0.00    -0.004 A 
ATOM      4  C2  UNL d   1       0.082   0.371  -1.186  0.00  0.00    -0.047 A 
ATOM      5  C3  UNL d   1      -0.460   0.790   0.052  0.00  0.00    -0.047 A 
ATOM      6  C4  UNL d   1      -0.758  -0.346   0.775  0.00  0.00    -0.004 A 
ENDROOT
TORSDOF 0
ENDMDL
