MODEL 1
REMARK minimizedAffinity -3.41978908
REMARK minimizedRMSD -1
REMARK  0 active torsions:
REMARK  status: ('A' for Active; 'I' for Inactive)
ROOT
ATOM      1  C   UNL d   1       0.400  -2.579   0.829  0.00  0.00     0.172 C 
ATOM      2  N   UNL d   1       0.108  -1.215   0.456  0.00  0.00    -0.070 N 
ATOM      3  C1  UNL d   1      -0.732  -0.366   1.126  0.00  0.00    -0.004 A 
ATOM      4  C2  UNL d   1      -0.739   0.838   0.455  0.00  0.00    -0.047 A 
ATOM      5  C3  UNL d   1       0.126   0.708  -0.656  0.00  0.00    -0.047 A 
ATOM      6  C4  UNL d   1       0.638  -0.572  -0.632  0.00  0.00    -0.004 A 
ENDROOT
TORSDOF 0
ENDMDL
