MODEL 1
REMARK minimizedAffinity -1.89088941
REMARK minimizedRMSD -1
REMARK  0 active torsions:
REMARK  status: ('A' for Active; 'I' for Inactive)
ROOT
ATOM      1  C   UNL d   1       6.000  -5.850   5.987  0.00  0.00     0.172 C 
ATOM      2  N   UNL d   1       5.367  -4.567   5.792  0.00  0.00    -0.070 N 
ATOM      3  C1  UNL d   1       5.998  -3.352   5.826  0.00  0.00    -0.004 A 
ATOM      4  C2  UNL d   1       5.051  -2.378   5.595  0.00  0.00    -0.047 A 
ATOM      5  C3  UNL d   1       3.808  -3.029   5.418  0.00  0.00    -0.047 A 
ATOM      6  C4  UNL d   1       4.032  -4.384   5.545  0.00  0.00    -0.004 A 
ENDROOT
TORSDOF 0
ENDMDL
