MODEL 1
REMARK minimizedAffinity -3.13522315
REMARK minimizedRMSD -1
REMARK  0 active torsions:
REMARK  status: ('A' for Active; 'I' for Inactive)
ROOT
ATOM      1  C   UNL d   1       0.170   0.814  -0.408  0.00  0.00     0.172 C 
ATOM      2  N   UNL d   1       0.019  -0.601  -0.161  0.00  0.00    -0.070 N 
ATOM      3  C1  UNL d   1       0.389  -1.604  -1.016  0.00  0.00    -0.004 A 
ATOM      4  C2  UNL d   1       0.080  -2.806  -0.416  0.00  0.00    -0.047 A 
ATOM      5  C3  UNL d   1      -0.497  -2.514   0.842  0.00  0.00    -0.047 A 
ATOM      6  C4  UNL d   1      -0.523  -1.142   0.974  0.00  0.00    -0.004 A 
ENDROOT
TORSDOF 0
ENDMDL
