MODEL 1
REMARK minimizedAffinity -3.74423122
REMARK minimizedRMSD -1
REMARK  0 active torsions:
REMARK  status: ('A' for Active; 'I' for Inactive)
ROOT
ATOM      1  C   UNL d   1      -0.013   1.018  -0.128  0.00  0.00     0.172 C 
ATOM      2  N   UNL d   1      -0.339  -0.346   0.215  0.00  0.00    -0.070 N 
ATOM      3  C1  UNL d   1       0.375  -1.455  -0.153  0.00  0.00    -0.004 A 
ATOM      4  C2  UNL d   1      -0.260  -2.560   0.371  0.00  0.00    -0.047 A 
ATOM      5  C3  UNL d   1      -1.396  -2.099   1.078  0.00  0.00    -0.047 A 
ATOM      6  C4  UNL d   1      -1.421  -0.725   0.966  0.00  0.00    -0.004 A 
ENDROOT
TORSDOF 0
ENDMDL
