MODEL 1
REMARK minimizedAffinity -4.02805567
REMARK minimizedRMSD -1
REMARK  0 active torsions:
REMARK  status: ('A' for Active; 'I' for Inactive)
ROOT
ATOM      1  C   UNL d   1       0.130   0.481  -0.922  0.00  0.00     0.172 C 
ATOM      2  N   UNL d   1      -0.001  -0.745  -0.169  0.00  0.00    -0.070 N 
ATOM      3  C1  UNL d   1      -0.885  -0.963   0.854  0.00  0.00    -0.004 A 
ATOM      4  C2  UNL d   1      -0.696  -2.251   1.307  0.00  0.00    -0.047 A 
ATOM      5  C3  UNL d   1       0.338  -2.826   0.531  0.00  0.00    -0.047 A 
ATOM      6  C4  UNL d   1       0.750  -1.872  -0.375  0.00  0.00    -0.004 A 
ENDROOT
TORSDOF 0
ENDMDL
