MODEL 1
REMARK minimizedAffinity -2.92927384
REMARK minimizedRMSD -1
REMARK  0 active torsions:
REMARK  status: ('A' for Active; 'I' for Inactive)
ROOT
ATOM      1  C   UNL d   1       0.378   0.706  -0.247  0.00  0.00     0.172 C 
ATOM      2  N   UNL d   1       0.262  -0.702   0.054  0.00  0.00    -0.070 N 
ATOM      3  C1  UNL d   1       0.936  -1.711  -0.580  0.00  0.00    -0.004 A 
ATOM      4  C2  UNL d   1       0.552  -2.902  -0.003  0.00  0.00    -0.047 A 
ATOM      5  C3  UNL d   1      -0.386  -2.598   1.012  0.00  0.00    -0.047 A 
ATOM      6  C4  UNL d   1      -0.546  -1.229   1.026  0.00  0.00    -0.004 A 
ENDROOT
TORSDOF 0
ENDMDL
