MODEL 1
REMARK minimizedAffinity -2.03194904
REMARK minimizedRMSD -1
REMARK  0 active torsions:
REMARK  status: ('A' for Active; 'I' for Inactive)
ROOT
ATOM      1  C   UNL d   1       0.594   2.796   0.066  0.00  0.00     0.172 C 
ATOM      2  N   UNL d   1       0.373   1.387  -0.159  0.00  0.00    -0.070 N 
ATOM      3  C1  UNL d   1      -0.094   0.827  -1.318  0.00  0.00    -0.004 A 
ATOM      4  C2  UNL d   1      -0.163  -0.537  -1.131  0.00  0.00    -0.047 A 
ATOM      5  C3  UNL d   1       0.277  -0.806   0.187  0.00  0.00    -0.047 A 
ATOM      6  C4  UNL d   1       0.602   0.403   0.766  0.00  0.00    -0.004 A 
ENDROOT
TORSDOF 0
ENDMDL
