MODEL 1
REMARK minimizedAffinity -3.38555694
REMARK minimizedRMSD -1
REMARK  0 active torsions:
REMARK  status: ('A' for Active; 'I' for Inactive)
ROOT
ATOM      1  C   UNL d   1       0.562   1.179   0.382  0.00  0.00     0.172 C 
ATOM      2  N   UNL d   1       0.071  -0.155   0.636  0.00  0.00    -0.070 N 
ATOM      3  C1  UNL d   1      -0.302  -0.650   1.857  0.00  0.00    -0.004 A 
ATOM      4  C2  UNL d   1      -0.709  -1.954   1.677  0.00  0.00    -0.047 A 
ATOM      5  C3  UNL d   1      -0.575  -2.254   0.301  0.00  0.00    -0.047 A 
ATOM      6  C4  UNL d   1      -0.089  -1.123  -0.320  0.00  0.00    -0.004 A 
ENDROOT
TORSDOF 0
ENDMDL
