MODEL 1
REMARK minimizedAffinity -2.6368587
REMARK minimizedRMSD -1
REMARK  0 active torsions:
REMARK  status: ('A' for Active; 'I' for Inactive)
ROOT
ATOM      1  C   UNL d   1      -0.197  -2.962   0.217  0.00  0.00     0.172 C 
ATOM      2  N   UNL d   1      -0.149  -1.520   0.271  0.00  0.00    -0.070 N 
ATOM      3  C1  UNL d   1      -0.795  -0.733   1.187  0.00  0.00    -0.004 A 
ATOM      4  C2  UNL d   1      -0.496   0.581   0.901  0.00  0.00    -0.047 A 
ATOM      5  C3  UNL d   1       0.359   0.584  -0.227  0.00  0.00    -0.047 A 
ATOM      6  C4  UNL d   1       0.557  -0.729  -0.596  0.00  0.00    -0.004 A 
ENDROOT
TORSDOF 0
ENDMDL
