MODEL 1
REMARK minimizedAffinity -2.30771494
REMARK minimizedRMSD -1
REMARK  0 active torsions:
REMARK  status: ('A' for Active; 'I' for Inactive)
ROOT
ATOM      1  C   UNL d   1       0.289   1.413  -0.742  0.00  0.00     0.172 C 
ATOM      2  N   UNL d   1       0.864   2.389   0.153  0.00  0.00    -0.070 N 
ATOM      3  C1  UNL d   1       0.190   3.421   0.749  0.00  0.00    -0.004 A 
ATOM      4  C2  UNL d   1       1.088   4.121   1.524  0.00  0.00    -0.047 A 
ATOM      5  C3  UNL d   1       2.347   3.489   1.389  0.00  0.00    -0.047 A 
ATOM      6  C4  UNL d   1       2.180   2.420   0.534  0.00  0.00    -0.004 A 
ENDROOT
TORSDOF 0
ENDMDL
