MODEL 1
REMARK minimizedAffinity -1.99167693
REMARK minimizedRMSD -1
REMARK  0 active torsions:
REMARK  status: ('A' for Active; 'I' for Inactive)
ROOT
ATOM      1  C   UNL d   1       0.449   0.904   0.350  0.00  0.00     0.172 C 
ATOM      2  N   UNL d   1       0.040  -0.472   0.502  0.00  0.00    -0.070 N 
ATOM      3  C1  UNL d   1       0.708  -1.563   0.014  0.00  0.00    -0.004 A 
ATOM      4  C2  UNL d   1      -0.003  -2.688   0.370  0.00  0.00    -0.047 A 
ATOM      5  C3  UNL d   1      -1.140  -2.259   1.095  0.00  0.00    -0.047 A 
ATOM      6  C4  UNL d   1      -1.088  -0.883   1.162  0.00  0.00    -0.004 A 
ENDROOT
TORSDOF 0
ENDMDL
