MODEL 1
REMARK minimizedAffinity -3.39235044
REMARK minimizedRMSD -1
REMARK  0 active torsions:
REMARK  status: ('A' for Active; 'I' for Inactive)
ROOT
ATOM      1  C   UNL d   1      -0.019   1.136  -0.513  0.00  0.00     0.172 C 
ATOM      2  N   UNL d   1      -0.224  -0.152   0.107  0.00  0.00    -0.070 N 
ATOM      3  C1  UNL d   1       0.438  -1.307  -0.215  0.00  0.00    -0.004 A 
ATOM      4  C2  UNL d   1      -0.042  -2.310   0.601  0.00  0.00    -0.047 A 
ATOM      5  C3  UNL d   1      -1.026  -1.737   1.441  0.00  0.00    -0.047 A 
ATOM      6  C4  UNL d   1      -1.119  -0.401   1.114  0.00  0.00    -0.004 A 
ENDROOT
TORSDOF 0
ENDMDL
