MODEL 1
REMARK minimizedAffinity -2.64873791
REMARK minimizedRMSD -1
REMARK  0 active torsions:
REMARK  status: ('A' for Active; 'I' for Inactive)
ROOT
ATOM      1  O1  BZF d   1       0.425  -2.049   1.781  0.00  0.00    -0.204 OA
ATOM      2  C2  BZF d   1       1.489  -2.296   2.627  0.00  0.00     0.174 A 
ATOM      3  C3  BZF d   1       2.373  -1.278   2.593  0.00  0.00    -0.012 A 
ATOM      4  C3A BZF d   1       1.781  -0.294   1.739  0.00  0.00    -0.107 A 
ATOM      5  C4  BZF d   1       2.172   0.948   1.326  0.00  0.00     0.055 A 
ATOM      6  C5  BZF d   1       1.400   1.620   0.432  0.00  0.00    -0.016 A 
ATOM      7  C6  BZF d   1       0.236   1.079  -0.073  0.00  0.00     0.022 A 
ATOM      8  C7  BZF d   1      -0.195  -0.147   0.311  0.00  0.00     0.029 A 
ATOM      9  C7A BZF d   1       0.566  -0.815   1.239  0.00  0.00     0.058 A 
ENDROOT
TORSDOF 0
ENDMDL
