MODEL 1
REMARK minimizedAffinity -3.16410041
REMARK minimizedRMSD -1
REMARK  0 active torsions:
REMARK  status: ('A' for Active; 'I' for Inactive)
ROOT
ATOM      1  O1  BZF d   1      -1.083   0.607  -0.499  0.00  0.00    -0.204 OA
ATOM      2  C2  BZF d   1      -1.765  -0.488  -0.003  0.00  0.00     0.174 A 
ATOM      3  C3  BZF d   1      -1.034  -1.122   0.936  0.00  0.00    -0.012 A 
ATOM      4  C3A BZF d   1       0.142  -0.323   1.100  0.00  0.00    -0.107 A 
ATOM      5  C4  BZF d   1       1.242  -0.426   1.903  0.00  0.00     0.055 A 
ATOM      6  C5  BZF d   1       2.246   0.479   1.766  0.00  0.00    -0.016 A 
ATOM      7  C6  BZF d   1       2.187   1.495   0.834  0.00  0.00     0.022 A 
ATOM      8  C7  BZF d   1       1.114   1.640   0.019  0.00  0.00     0.029 A 
ATOM      9  C7A BZF d   1       0.083   0.747   0.177  0.00  0.00     0.058 A 
ENDROOT
TORSDOF 0
ENDMDL
