MODEL 1
REMARK minimizedAffinity -1.09150207
REMARK minimizedRMSD -1
REMARK  0 active torsions:
REMARK  status: ('A' for Active; 'I' for Inactive)
ROOT
ATOM      1  O1  BZF d   1      -0.345  -0.487  -0.032  0.00  0.00    -0.204 OA
ATOM      2  C2  BZF d   1      -0.484   0.654  -0.798  0.00  0.00     0.174 A 
ATOM      3  C3  BZF d   1       0.352   1.622  -0.370  0.00  0.00    -0.012 A 
ATOM      4  C3A BZF d   1       1.123   1.020   0.674  0.00  0.00    -0.107 A 
ATOM      5  C4  BZF d   1       2.130   1.472   1.478  0.00  0.00     0.055 A 
ATOM      6  C5  BZF d   1       2.619   0.654   2.447  0.00  0.00    -0.016 A 
ATOM      7  C6  BZF d   1       2.121  -0.617   2.644  0.00  0.00     0.022 A 
ATOM      8  C7  BZF d   1       1.126  -1.112   1.868  0.00  0.00     0.029 A 
ATOM      9  C7A BZF d   1       0.652  -0.300   0.866  0.00  0.00     0.058 A 
ENDROOT
TORSDOF 0
ENDMDL
