MODEL 1
REMARK minimizedAffinity -3.47332668
REMARK minimizedRMSD -1
REMARK  0 active torsions:
REMARK  status: ('A' for Active; 'I' for Inactive)
ROOT
ATOM      1  O1  BZF d   1      -0.197  -0.874   0.294  0.00  0.00    -0.204 OA
ATOM      2  C2  BZF d   1      -1.297  -0.157  -0.135  0.00  0.00     0.174 A 
ATOM      3  C3  BZF d   1      -0.990   1.148  -0.283  0.00  0.00    -0.012 A 
ATOM      4  C3A BZF d   1       0.412   1.237  -0.012  0.00  0.00    -0.107 A 
ATOM      5  C4  BZF d   1       1.304   2.272  -0.012  0.00  0.00     0.055 A 
ATOM      6  C5  BZF d   1       2.587   2.037   0.369  0.00  0.00    -0.016 A 
ATOM      7  C6  BZF d   1       3.010   0.784   0.761  0.00  0.00     0.022 A 
ATOM      8  C7  BZF d   1       2.163  -0.274   0.772  0.00  0.00     0.029 A 
ATOM      9  C7A BZF d   1       0.874  -0.047   0.356  0.00  0.00     0.058 A 
ENDROOT
TORSDOF 0
ENDMDL
