MODEL 1
REMARK minimizedAffinity -3.77483082
REMARK minimizedRMSD -1
REMARK  0 active torsions:
REMARK  status: ('A' for Active; 'I' for Inactive)
ROOT
ATOM      1  O1  BZF d   1       2.450   1.864   1.427  0.00  0.00    -0.204 OA
ATOM      2  C2  BZF d   1       2.545   1.092   0.285  0.00  0.00     0.174 A 
ATOM      3  C3  BZF d   1       2.574  -0.220   0.596  0.00  0.00    -0.012 A 
ATOM      4  C3A BZF d   1       2.400  -0.275   2.015  0.00  0.00    -0.107 A 
ATOM      5  C4  BZF d   1       2.327  -1.301   2.914  0.00  0.00     0.055 A 
ATOM      6  C5  BZF d   1       2.227  -1.013   4.238  0.00  0.00    -0.016 A 
ATOM      7  C6  BZF d   1       2.203   0.287   4.699  0.00  0.00     0.022 A 
ATOM      8  C7  BZF d   1       2.268   1.338   3.846  0.00  0.00     0.029 A 
ATOM      9  C7A BZF d   1       2.336   1.051   2.504  0.00  0.00     0.058 A 
ENDROOT
TORSDOF 0
ENDMDL
