MODEL 1
REMARK minimizedAffinity -4.89410782
REMARK minimizedRMSD -1
REMARK  0 active torsions:
REMARK  status: ('A' for Active; 'I' for Inactive)
ROOT
ATOM      1  O1  BZF d   1      -0.084  -0.543   0.252  0.00  0.00    -0.204 OA
ATOM      2  C2  BZF d   1      -0.303   0.773  -0.106  0.00  0.00     0.174 A 
ATOM      3  C3  BZF d   1       0.707   1.559   0.318  0.00  0.00    -0.012 A 
ATOM      4  C3A BZF d   1       1.660   0.665   0.902  0.00  0.00    -0.107 A 
ATOM      5  C4  BZF d   1       2.881   0.846   1.485  0.00  0.00     0.055 A 
ATOM      6  C5  BZF d   1       3.522  -0.226   2.021  0.00  0.00    -0.016 A 
ATOM      7  C6  BZF d   1       2.969  -1.490   1.996  0.00  0.00     0.022 A 
ATOM      8  C7  BZF d   1       1.762  -1.719   1.424  0.00  0.00     0.029 A 
ATOM      9  C7A BZF d   1       1.127  -0.643   0.853  0.00  0.00     0.058 A 
ENDROOT
TORSDOF 0
ENDMDL
