MODEL 1
REMARK minimizedAffinity 2.1157465
REMARK minimizedRMSD -1
REMARK  0 active torsions:
REMARK  status: ('A' for Active; 'I' for Inactive)
ROOT
ATOM      1  O1  BZF d   1       2.103   1.403   1.108  0.00  0.00    -0.204 OA
ATOM      2  C2  BZF d   1       2.855   0.330   1.546  0.00  0.00     0.174 A 
ATOM      3  C3  BZF d   1       2.172  -0.823   1.401  0.00  0.00    -0.012 A 
ATOM      4  C3A BZF d   1       0.950  -0.458   0.753  0.00  0.00    -0.107 A 
ATOM      5  C4  BZF d   1      -0.136  -1.169   0.327  0.00  0.00     0.055 A 
ATOM      6  C5  BZF d   1      -1.195  -0.503  -0.202  0.00  0.00    -0.016 A 
ATOM      7  C6  BZF d   1      -1.205   0.872  -0.315  0.00  0.00     0.022 A 
ATOM      8  C7  BZF d   1      -0.150   1.620   0.089  0.00  0.00     0.029 A 
ATOM      9  C7A BZF d   1       0.936   0.947   0.594  0.00  0.00     0.058 A 
ENDROOT
TORSDOF 0
ENDMDL
