MODEL 1
REMARK minimizedAffinity -1.93535829
REMARK minimizedRMSD -1
REMARK  0 active torsions:
REMARK  status: ('A' for Active; 'I' for Inactive)
ROOT
ATOM      1  O1  BZF d   1      -2.292  -1.148   0.451  0.00  0.00    -0.204 OA
ATOM      2  C2  BZF d   1      -2.696  -0.005  -0.212  0.00  0.00     0.174 A 
ATOM      3  C3  BZF d   1      -1.641   0.793  -0.474  0.00  0.00    -0.012 A 
ATOM      4  C3A BZF d   1      -0.495   0.063  -0.024  0.00  0.00    -0.107 A 
ATOM      5  C4  BZF d   1       0.845   0.325  -0.027  0.00  0.00     0.055 A 
ATOM      6  C5  BZF d   1       1.693  -0.565   0.554  0.00  0.00    -0.016 A 
ATOM      7  C6  BZF d   1       1.235  -1.721   1.151  0.00  0.00     0.022 A 
ATOM      8  C7  BZF d   1      -0.086  -2.026   1.174  0.00  0.00     0.029 A 
ATOM      9  C7A BZF d   1      -0.942  -1.145   0.559  0.00  0.00     0.058 A 
ENDROOT
TORSDOF 0
ENDMDL
