MODEL 1
REMARK minimizedAffinity -0.210216179
REMARK minimizedRMSD -1
REMARK  0 active torsions:
REMARK  status: ('A' for Active; 'I' for Inactive)
ROOT
ATOM      1  O1  BZF d   1       0.153  -0.112  -0.251  0.00  0.00    -0.204 OA
ATOM      2  C2  BZF d   1      -1.075   0.490  -0.445  0.00  0.00     0.174 A 
ATOM      3  C3  BZF d   1      -1.187   1.603   0.309  0.00  0.00    -0.012 A 
ATOM      4  C3A BZF d   1       0.083   1.753   0.949  0.00  0.00    -0.107 A 
ATOM      5  C4  BZF d   1       0.597   2.680   1.811  0.00  0.00     0.055 A 
ATOM      6  C5  BZF d   1       1.848   2.498   2.307  0.00  0.00    -0.016 A 
ATOM      7  C6  BZF d   1       2.612   1.400   1.967  0.00  0.00     0.022 A 
ATOM      8  C7  BZF d   1       2.148   0.457   1.112  0.00  0.00     0.029 A 
ATOM      9  C7A BZF d   1       0.896   0.655   0.583  0.00  0.00     0.058 A 
ENDROOT
TORSDOF 0
ENDMDL
