MODEL 1
REMARK minimizedAffinity 3.442379
REMARK minimizedRMSD -1
REMARK  3 active torsions:
REMARK  status: ('A' for Active; 'I' for Inactive)
REMARK    1  A    between atoms: C3'_2  and  C2'_3 
REMARK    2  A    between atoms: C2'_3  and  C1'_4 
REMARK    3  A    between atoms: C1'_4  and  C1_5 
ROOT
ATOM      1  C1  N4B d   1      -5.821  -5.270  -3.596  0.00  0.00    -0.075 A 
ATOM      2  C2  N4B d   1      -5.867  -3.861  -3.672  0.00  0.00     0.002 A 
ATOM      3  C3  N4B d   1      -5.633  -3.230  -4.870  0.00  0.00     0.002 A 
ATOM      4  C4  N4B d   1      -5.334  -3.984  -5.995  0.00  0.00    -0.004 A 
ATOM      5  C5  N4B d   1      -5.316  -5.346  -5.918  0.00  0.00     0.002 A 
ATOM      6  C6  N4B d   1      -5.553  -5.993  -4.722  0.00  0.00     0.002 A 
ENDROOT
BRANCH   1   7
ATOM      7  C1' N4B d   1      -5.985  -6.000  -2.290  0.00  0.00     0.057 C 
BRANCH   7   8
ATOM      8  C2' N4B d   1      -4.808  -5.667  -1.379  0.00  0.00     0.009 C 
BRANCH   8   9
ATOM      9  C3' N4B d   1      -3.475  -6.000  -2.027  0.00  0.00     0.004 C 
ATOM     10  C4' N4B d   1      -2.310  -5.765  -1.112  0.00  0.00     0.003 C 
ENDBRANCH   8   9
ENDBRANCH   7   8
ENDBRANCH   1   7
TORSDOF 3
ENDMDL
