MODEL 1
REMARK minimizedAffinity 3.30129099
REMARK minimizedRMSD -1
REMARK  3 active torsions:
REMARK  status: ('A' for Active; 'I' for Inactive)
REMARK    1  A    between atoms: C3'_2  and  C2'_3 
REMARK    2  A    between atoms: C2'_3  and  C1'_4 
REMARK    3  A    between atoms: C1'_4  and  C1_5 
ROOT
ATOM      1  C1  N4B d   1       2.418  -3.095   3.330  0.00  0.00    -0.075 A 
ATOM      2  C2  N4B d   1       2.582  -1.830   2.724  0.00  0.00     0.002 A 
ATOM      3  C3  N4B d   1       1.502  -1.190   2.167  0.00  0.00     0.002 A 
ATOM      4  C4  N4B d   1       0.257  -1.801   2.187  0.00  0.00    -0.004 A 
ATOM      5  C5  N4B d   1       0.102  -3.012   2.797  0.00  0.00     0.002 A 
ATOM      6  C6  N4B d   1       1.178  -3.665   3.365  0.00  0.00     0.002 A 
ENDROOT
BRANCH   1   7
ATOM      7  C1' N4B d   1       3.584  -3.872   3.876  0.00  0.00     0.057 C 
BRANCH   7   8
ATOM      8  C2' N4B d   1       4.534  -2.914   4.590  0.00  0.00     0.009 C 
BRANCH   8   9
ATOM      9  C3' N4B d   1       5.951  -3.014   4.053  0.00  0.00     0.004 C 
ATOM     10  C4' N4B d   1       6.000  -3.134   2.559  0.00  0.00     0.003 C 
ENDBRANCH   8   9
ENDBRANCH   7   8
ENDBRANCH   1   7
TORSDOF 3
ENDMDL
