MODEL 1
REMARK minimizedAffinity -1.30718994
REMARK minimizedRMSD -1
REMARK  0 active torsions:
REMARK  status: ('A' for Active; 'I' for Inactive)
ROOT
ATOM      1  C   UNL d   1      -0.441   0.020  -1.740  0.00  0.00     0.023 A 
ATOM      2  C1  UNL d   1      -1.470   0.069  -0.800  0.00  0.00     0.003 A 
ATOM      3  C2  UNL d   1      -1.210  -0.234   0.538  0.00  0.00     0.048 A 
ATOM      4  C3  UNL d   1       0.082  -0.584   0.929  0.00  0.00     0.023 A 
ATOM      5  C4  UNL d   1       1.115  -0.634  -0.008  0.00  0.00     0.048 A 
ATOM      6  C5  UNL d   1       0.850  -0.331  -1.345  0.00  0.00     0.003 A 
ATOM      7  I   UNL d   1       0.472  -1.036   2.920  0.00  0.00    -0.146 I 
ENDROOT
TORSDOF 0
ENDMDL
