MODEL 1
REMARK minimizedAffinity -1.96852338
REMARK minimizedRMSD -1
REMARK  0 active torsions:
REMARK  status: ('A' for Active; 'I' for Inactive)
ROOT
ATOM      1  C   UNL d   1       0.754  -0.889   3.152  0.00  0.00     0.023 A 
ATOM      2  C1  UNL d   1       1.760  -0.832   2.188  0.00  0.00     0.003 A 
ATOM      3  C2  UNL d   1       1.462  -0.418   0.888  0.00  0.00     0.048 A 
ATOM      4  C3  UNL d   1       0.155  -0.061   0.560  0.00  0.00     0.023 A 
ATOM      5  C4  UNL d   1      -0.856  -0.115   1.521  0.00  0.00     0.048 A 
ATOM      6  C5  UNL d   1      -0.553  -0.530   2.819  0.00  0.00     0.003 A 
ATOM      7  I   UNL d   1      -0.292   0.556  -1.374  0.00  0.00    -0.146 I 
ENDROOT
TORSDOF 0
ENDMDL
