MODEL 1
REMARK minimizedAffinity -4.10884333
REMARK minimizedRMSD -1
REMARK  0 active torsions:
REMARK  status: ('A' for Active; 'I' for Inactive)
ROOT
ATOM      1  C   UNL d   1       1.249  -1.266   2.890  0.00  0.00     0.023 A 
ATOM      2  C1  UNL d   1      -0.135  -1.222   2.723  0.00  0.00     0.003 A 
ATOM      3  C2  UNL d   1      -0.686  -0.560   1.624  0.00  0.00     0.048 A 
ATOM      4  C3  UNL d   1       0.153   0.055   0.695  0.00  0.00     0.023 A 
ATOM      5  C4  UNL d   1       1.539   0.012   0.858  0.00  0.00     0.048 A 
ATOM      6  C5  UNL d   1       2.085  -0.650   1.959  0.00  0.00     0.003 A 
ATOM      7  I   UNL d   1      -0.664   1.041  -0.942  0.00  0.00    -0.146 I 
ENDROOT
TORSDOF 0
ENDMDL
