MODEL 1
REMARK minimizedAffinity -4.19013977
REMARK minimizedRMSD -1
REMARK  0 active torsions:
REMARK  status: ('A' for Active; 'I' for Inactive)
ROOT
ATOM      1  C   UNL d   1       0.908  -0.884   3.042  0.00  0.00     0.023 A 
ATOM      2  C1  UNL d   1      -0.405  -0.863   2.573  0.00  0.00     0.003 A 
ATOM      3  C2  UNL d   1      -0.699  -0.270   1.343  0.00  0.00     0.048 A 
ATOM      4  C3  UNL d   1       0.325   0.299   0.588  0.00  0.00     0.023 A 
ATOM      5  C4  UNL d   1       1.641   0.280   1.053  0.00  0.00     0.048 A 
ATOM      6  C5  UNL d   1       1.930  -0.313   2.283  0.00  0.00     0.003 A 
ATOM      7  I   UNL d   1      -0.110   1.182  -1.243  0.00  0.00    -0.146 I 
ENDROOT
TORSDOF 0
ENDMDL
