MODEL 1
REMARK minimizedAffinity -3.67740226
REMARK minimizedRMSD -1
REMARK  0 active torsions:
REMARK  status: ('A' for Active; 'I' for Inactive)
ROOT
ATOM      1  C   UNL d   1       0.897  -0.889   2.842  0.00  0.00     0.023 A 
ATOM      2  C1  UNL d   1       1.818  -0.831   1.795  0.00  0.00     0.003 A 
ATOM      3  C2  UNL d   1       1.423  -0.356   0.542  0.00  0.00     0.048 A 
ATOM      4  C3  UNL d   1       0.108   0.061   0.344  0.00  0.00     0.023 A 
ATOM      5  C4  UNL d   1      -0.816   0.006   1.388  0.00  0.00     0.048 A 
ATOM      6  C5  UNL d   1      -0.418  -0.471   2.639  0.00  0.00     0.003 A 
ATOM      7  I   UNL d   1      -0.481   0.768  -1.520  0.00  0.00    -0.146 I 
ENDROOT
TORSDOF 0
ENDMDL
