MODEL 1
REMARK minimizedAffinity -4.22934389
REMARK minimizedRMSD -1
REMARK  0 active torsions:
REMARK  status: ('A' for Active; 'I' for Inactive)
ROOT
ATOM      1  C   UNL d   1       0.361  -0.427   2.946  0.00  0.00     0.023 A 
ATOM      2  C1  UNL d   1      -0.876  -0.277   2.318  0.00  0.00     0.003 A 
ATOM      3  C2  UNL d   1      -0.941  -0.094   0.935  0.00  0.00     0.048 A 
ATOM      4  C3  UNL d   1       0.234  -0.064   0.186  0.00  0.00     0.023 A 
ATOM      5  C4  UNL d   1       1.474  -0.214   0.809  0.00  0.00     0.048 A 
ATOM      6  C5  UNL d   1       1.534  -0.395   2.192  0.00  0.00     0.003 A 
ATOM      7  I   UNL d   1       0.140   0.207  -1.873  0.00  0.00    -0.146 I 
ENDROOT
TORSDOF 0
ENDMDL
