MODEL 1
REMARK minimizedAffinity -1.65606856
REMARK minimizedRMSD -1
REMARK  0 active torsions:
REMARK  status: ('A' for Active; 'I' for Inactive)
ROOT
ATOM      1  C   UNL d   1       0.983  -0.622   2.998  0.00  0.00     0.023 A 
ATOM      2  C1  UNL d   1       1.952  -0.644   1.994  0.00  0.00     0.003 A 
ATOM      3  C2  UNL d   1       1.595  -0.370   0.672  0.00  0.00     0.048 A 
ATOM      4  C3  UNL d   1       0.268  -0.074   0.361  0.00  0.00     0.023 A 
ATOM      5  C4  UNL d   1      -0.704  -0.050   1.363  0.00  0.00     0.048 A 
ATOM      6  C5  UNL d   1      -0.343  -0.326   2.683  0.00  0.00     0.003 A 
ATOM      7  I   UNL d   1      -0.265   0.335  -1.605  0.00  0.00    -0.146 I 
ENDROOT
TORSDOF 0
ENDMDL
