MODEL 1
REMARK minimizedAffinity -4.21419525
REMARK minimizedRMSD -1
REMARK  0 active torsions:
REMARK  status: ('A' for Active; 'I' for Inactive)
ROOT
ATOM      1  C   UNL d   1       0.570  -0.742   3.234  0.00  0.00     0.023 A 
ATOM      2  C1  UNL d   1      -0.737  -0.497   2.815  0.00  0.00     0.003 A 
ATOM      3  C2  UNL d   1      -0.978   0.023   1.541  0.00  0.00     0.048 A 
ATOM      4  C3  UNL d   1       0.094   0.295   0.692  0.00  0.00     0.023 A 
ATOM      5  C4  UNL d   1       1.404   0.051   1.107  0.00  0.00     0.048 A 
ATOM      6  C5  UNL d   1       1.640  -0.468   2.382  0.00  0.00     0.003 A 
ATOM      7  I   UNL d   1      -0.261   1.069  -1.204  0.00  0.00    -0.146 I 
ENDROOT
TORSDOF 0
ENDMDL
