MODEL 1
REMARK minimizedAffinity -3.4136579
REMARK minimizedRMSD -1
REMARK  0 active torsions:
REMARK  status: ('A' for Active; 'I' for Inactive)
ROOT
ATOM      1  C   UNL d   1      -0.021   0.171  -1.092  0.00  0.00     0.023 A 
ATOM      2  C1  UNL d   1       1.048  -0.703  -0.889  0.00  0.00     0.003 A 
ATOM      3  C2  UNL d   1       1.347  -1.155   0.398  0.00  0.00     0.048 A 
ATOM      4  C3  UNL d   1       0.572  -0.730   1.477  0.00  0.00     0.023 A 
ATOM      5  C4  UNL d   1      -0.498   0.143   1.279  0.00  0.00     0.048 A 
ATOM      6  C5  UNL d   1      -0.793   0.593  -0.010  0.00  0.00     0.003 A 
ATOM      7  I   UNL d   1       1.015  -1.402   3.394  0.00  0.00    -0.146 I 
ENDROOT
TORSDOF 0
ENDMDL
