MODEL 1
REMARK minimizedAffinity 19.659214
REMARK minimizedRMSD -1
REMARK  0 active torsions:
REMARK  status: ('A' for Active; 'I' for Inactive)
ROOT
ATOM      1  N1  IND d   1       1.875  -1.797   3.268  0.00  0.00    -0.196 N 
ATOM      2  C2  IND d   1       1.375  -2.915   3.874  0.00  0.00     0.054 A 
ATOM      3  C3  IND d   1       0.137  -3.191   3.404  0.00  0.00    -0.031 A 
ATOM      4  C4  IND d   1      -1.217  -2.000   1.567  0.00  0.00     0.051 A 
ATOM      5  C5  IND d   1      -1.191  -0.907   0.747  0.00  0.00    -0.031 A 
ATOM      6  C6  IND d   1      -0.119  -0.038   0.724  0.00  0.00     0.015 A 
ATOM      7  C7  IND d   1       0.977  -0.238   1.514  0.00  0.00    -0.016 A 
ATOM      8  C8  IND d   1       0.951  -1.343   2.353  0.00  0.00    -0.047 A 
ATOM      9  C9  IND d   1      -0.152  -2.204   2.412  0.00  0.00    -0.096 A 
ATOM     10  HN1 IND d   1       2.639  -1.437   3.432  0.00  0.00     0.298 HD
ENDROOT
TORSDOF 0
ENDMDL
