MODEL 1
REMARK minimizedAffinity 8.37490749
REMARK minimizedRMSD -1
REMARK  0 active torsions:
REMARK  status: ('A' for Active; 'I' for Inactive)
ROOT
ATOM      1  N1  IND d   1      -3.240   0.411  -0.588  0.00  0.00    -0.196 N 
ATOM      2  C2  IND d   1      -4.390   1.037  -0.193  0.00  0.00     0.054 A 
ATOM      3  C3  IND d   1      -4.497   1.018   1.154  0.00  0.00    -0.031 A 
ATOM      4  C4  IND d   1      -2.854   0.104   2.913  0.00  0.00     0.051 A 
ATOM      5  C5  IND d   1      -1.683  -0.590   3.035  0.00  0.00    -0.031 A 
ATOM      6  C6  IND d   1      -0.955  -0.992   1.934  0.00  0.00     0.015 A 
ATOM      7  C7  IND d   1      -1.367  -0.703   0.664  0.00  0.00    -0.016 A 
ATOM      8  C8  IND d   1      -2.560  -0.005   0.535  0.00  0.00    -0.047 A 
ATOM      9  C9  IND d   1      -3.324   0.369   1.648  0.00  0.00    -0.096 A 
ATOM     10  HN1 IND d   1      -2.985   0.296  -1.401  0.00  0.00     0.298 HD
ENDROOT
TORSDOF 0
ENDMDL
