MODEL 1
REMARK minimizedAffinity 15.5567884
REMARK minimizedRMSD -1
REMARK  0 active torsions:
REMARK  status: ('A' for Active; 'I' for Inactive)
ROOT
ATOM      1  N1  IND d   1      -0.881  -0.335   5.227  0.00  0.00    -0.196 N 
ATOM      2  C2  IND d   1      -1.883   0.433   4.705  0.00  0.00     0.054 A 
ATOM      3  C3  IND d   1      -2.022   0.190   3.382  0.00  0.00    -0.031 A 
ATOM      4  C4  IND d   1      -0.779  -1.503   1.892  0.00  0.00     0.051 A 
ATOM      5  C5  IND d   1       0.248  -2.404   1.911  0.00  0.00    -0.031 A 
ATOM      6  C6  IND d   1       0.964  -2.669   3.060  0.00  0.00     0.015 A 
ATOM      7  C7  IND d   1       0.671  -2.048   4.241  0.00  0.00    -0.016 A 
ATOM      8  C8  IND d   1      -0.367  -1.127   4.224  0.00  0.00    -0.047 A 
ATOM      9  C9  IND d   1      -1.070  -0.823   3.051  0.00  0.00    -0.096 A 
ATOM     10  HN1 IND d   1      -0.616  -0.325   6.045  0.00  0.00     0.298 HD
ENDROOT
TORSDOF 0
ENDMDL
