MODEL 1
REMARK minimizedAffinity 4.18665266
REMARK minimizedRMSD -1
REMARK  0 active torsions:
REMARK  status: ('A' for Active; 'I' for Inactive)
ROOT
ATOM      1  N1  IND d   1       1.592   3.937  -3.838  0.00  0.00    -0.196 N 
ATOM      2  C2  IND d   1       0.798   5.044  -3.724  0.00  0.00     0.054 A 
ATOM      3  C3  IND d   1       1.424   6.000  -3.001  0.00  0.00    -0.031 A 
ATOM      4  C4  IND d   1       3.793   5.999  -1.994  0.00  0.00     0.051 A 
ATOM      5  C5  IND d   1       4.883   5.197  -1.805  0.00  0.00    -0.031 A 
ATOM      6  C6  IND d   1       4.934   3.908  -2.296  0.00  0.00     0.015 A 
ATOM      7  C7  IND d   1       3.896   3.376  -3.007  0.00  0.00    -0.016 A 
ATOM      8  C8  IND d   1       2.785   4.185  -3.195  0.00  0.00    -0.047 A 
ATOM      9  C9  IND d   1       2.711   5.479  -2.663  0.00  0.00    -0.096 A 
ATOM     10  HN1 IND d   1       1.381   3.208  -4.242  0.00  0.00     0.298 HD
ENDROOT
TORSDOF 0
ENDMDL
