MODEL 1
REMARK minimizedAffinity 5.87131834
REMARK minimizedRMSD -1
REMARK  0 active torsions:
REMARK  status: ('A' for Active; 'I' for Inactive)
ROOT
ATOM      1  N1  IND d   1       0.877  -1.549   4.074  0.00  0.00    -0.196 N 
ATOM      2  C2  IND d   1       1.475  -2.534   3.339  0.00  0.00     0.054 A 
ATOM      3  C3  IND d   1       0.777  -2.764   2.204  0.00  0.00    -0.031 A 
ATOM      4  C4  IND d   1      -1.319  -1.571   1.303  0.00  0.00     0.051 A 
ATOM      5  C5  IND d   1      -2.251  -0.629   1.640  0.00  0.00    -0.031 A 
ATOM      6  C6  IND d   1      -2.184   0.070   2.827  0.00  0.00     0.015 A 
ATOM      7  C7  IND d   1      -1.173  -0.139   3.722  0.00  0.00    -0.016 A 
ATOM      8  C8  IND d   1      -0.229  -1.100   3.387  0.00  0.00    -0.047 A 
ATOM      9  C9  IND d   1      -0.315  -1.843   2.202  0.00  0.00    -0.096 A 
ATOM     10  HN1 IND d   1       1.147  -1.259   4.837  0.00  0.00     0.298 HD
ENDROOT
TORSDOF 0
ENDMDL
