MODEL 1
REMARK minimizedAffinity 9.90143013
REMARK minimizedRMSD -1
REMARK  0 active torsions:
REMARK  status: ('A' for Active; 'I' for Inactive)
ROOT
ATOM      1  N1  IND d   1       0.389  -1.445   3.907  0.00  0.00    -0.196 N 
ATOM      2  C2  IND d   1       1.039  -2.333   3.096  0.00  0.00     0.054 A 
ATOM      3  C3  IND d   1       0.440  -2.390   1.885  0.00  0.00    -0.031 A 
ATOM      4  C4  IND d   1      -1.557  -1.039   0.984  0.00  0.00     0.051 A 
ATOM      5  C5  IND d   1      -2.505  -0.131   1.367  0.00  0.00    -0.031 A 
ATOM      6  C6  IND d   1      -2.535   0.397   2.641  0.00  0.00     0.015 A 
ATOM      7  C7  IND d   1      -1.608   0.045   3.581  0.00  0.00    -0.016 A 
ATOM      8  C8  IND d   1      -0.648  -0.882   3.197  0.00  0.00    -0.047 A 
ATOM      9  C9  IND d   1      -0.638  -1.453   1.919  0.00  0.00    -0.096 A 
ATOM     10  HN1 IND d   1       0.594  -1.269   4.723  0.00  0.00     0.298 HD
ENDROOT
TORSDOF 0
ENDMDL
