MODEL 1
REMARK minimizedAffinity 11.356142
REMARK minimizedRMSD -1
REMARK  0 active torsions:
REMARK  status: ('A' for Active; 'I' for Inactive)
ROOT
ATOM      1  N1  IND d   1      -0.688  -1.056   3.046  0.00  0.00    -0.196 N 
ATOM      2  C2  IND d   1       0.488  -0.914   3.729  0.00  0.00     0.054 A 
ATOM      3  C3  IND d   1       1.447  -1.692   3.179  0.00  0.00    -0.031 A 
ATOM      4  C4  IND d   1       1.336  -3.200   1.096  0.00  0.00     0.051 A 
ATOM      5  C5  IND d   1       0.464  -3.681   0.160  0.00  0.00    -0.031 A 
ATOM      6  C6  IND d   1      -0.862  -3.303   0.136  0.00  0.00     0.015 A 
ATOM      7  C7  IND d   1      -1.366  -2.415   1.045  0.00  0.00    -0.016 A 
ATOM      8  C8  IND d   1      -0.486  -1.930   2.001  0.00  0.00    -0.047 A 
ATOM      9  C9  IND d   1       0.852  -2.343   2.056  0.00  0.00    -0.096 A 
ATOM     10  HN1 IND d   1      -1.430  -0.665   3.238  0.00  0.00     0.298 HD
ENDROOT
TORSDOF 0
ENDMDL
