MODEL 1
REMARK minimizedAffinity 14.0107546
REMARK minimizedRMSD -1
REMARK  0 active torsions:
REMARK  status: ('A' for Active; 'I' for Inactive)
ROOT
ATOM      1  N1  IND d   1       0.537  -1.223   4.032  0.00  0.00    -0.196 N 
ATOM      2  C2  IND d   1       1.045  -2.492   4.046  0.00  0.00     0.054 A 
ATOM      3  C3  IND d   1       0.531  -3.217   3.027  0.00  0.00    -0.031 A 
ATOM      4  C4  IND d   1      -1.082  -2.492   1.156  0.00  0.00     0.051 A 
ATOM      5  C5  IND d   1      -1.848  -1.438   0.743  0.00  0.00    -0.031 A 
ATOM      6  C6  IND d   1      -1.856  -0.234   1.416  0.00  0.00     0.015 A 
ATOM      7  C7  IND d   1      -1.087  -0.034   2.527  0.00  0.00    -0.016 A 
ATOM      8  C8  IND d   1      -0.313  -1.104   2.954  0.00  0.00    -0.047 A 
ATOM      9  C9  IND d   1      -0.333  -2.342   2.299  0.00  0.00    -0.096 A 
ATOM     10  HN1 IND d   1       0.717  -0.604   4.600  0.00  0.00     0.298 HD
ENDROOT
TORSDOF 0
ENDMDL
