MODEL 1
REMARK minimizedAffinity 11.339674
REMARK minimizedRMSD -1
REMARK  0 active torsions:
REMARK  status: ('A' for Active; 'I' for Inactive)
ROOT
ATOM      1  N1  IND d   1       0.782  -3.335   2.968  0.00  0.00    -0.196 N 
ATOM      2  C2  IND d   1       1.585  -2.462   3.648  0.00  0.00     0.054 A 
ATOM      3  C3  IND d   1       1.292  -1.188   3.304  0.00  0.00    -0.031 A 
ATOM      4  C4  IND d   1      -0.535  -0.299   1.724  0.00  0.00     0.051 A 
ATOM      5  C5  IND d   1      -1.495  -0.716   0.844  0.00  0.00    -0.031 A 
ATOM      6  C6  IND d   1      -1.751  -2.054   0.625  0.00  0.00     0.015 A 
ATOM      7  C7  IND d   1      -1.063  -3.030   1.289  0.00  0.00    -0.016 A 
ATOM      8  C8  IND d   1      -0.083  -2.610   2.178  0.00  0.00    -0.047 A 
ATOM      9  C9  IND d   1       0.211  -1.254   2.373  0.00  0.00    -0.096 A 
ATOM     10  HN1 IND d   1       0.812  -4.192   3.025  0.00  0.00     0.298 HD
ENDROOT
TORSDOF 0
ENDMDL
