MODEL 1
REMARK minimizedAffinity 18.5226479
REMARK minimizedRMSD -1
REMARK  0 active torsions:
REMARK  status: ('A' for Active; 'I' for Inactive)
ROOT
ATOM      1  N1  IND d   1       0.850  -1.125   3.862  0.00  0.00    -0.196 N 
ATOM      2  C2  IND d   1       1.538  -2.152   3.278  0.00  0.00     0.054 A 
ATOM      3  C3  IND d   1       0.896  -2.576   2.167  0.00  0.00    -0.031 A 
ATOM      4  C4  IND d   1      -1.244  -1.662   1.065  0.00  0.00     0.051 A 
ATOM      5  C5  IND d   1      -2.248  -0.754   1.251  0.00  0.00    -0.031 A 
ATOM      6  C6  IND d   1      -2.270   0.097   2.338  0.00  0.00     0.015 A 
ATOM      7  C7  IND d   1      -1.277   0.078   3.277  0.00  0.00    -0.016 A 
ATOM      8  C8  IND d   1      -0.260  -0.848   3.095  0.00  0.00    -0.047 A 
ATOM      9  C9  IND d   1      -0.255  -1.743   2.017  0.00  0.00    -0.096 A 
ATOM     10  HN1 IND d   1       1.073  -0.720   4.587  0.00  0.00     0.298 HD
ENDROOT
TORSDOF 0
ENDMDL
