MODEL 1
REMARK minimizedAffinity 17.9273911
REMARK minimizedRMSD -1
REMARK  0 active torsions:
REMARK  status: ('A' for Active; 'I' for Inactive)
ROOT
ATOM      1  N1  IND d   1       0.064  -2.811   1.279  0.00  0.00    -0.196 N 
ATOM      2  C2  IND d   1       1.036  -2.140   1.967  0.00  0.00     0.054 A 
ATOM      3  C3  IND d   1       0.637  -0.875   2.230  0.00  0.00    -0.031 A 
ATOM      4  C4  IND d   1      -1.609   0.273   1.713  0.00  0.00     0.051 A 
ATOM      5  C5  IND d   1      -2.796   0.074   1.067  0.00  0.00    -0.031 A 
ATOM      6  C6  IND d   1      -3.099  -1.122   0.449  0.00  0.00     0.015 A 
ATOM      7  C7  IND d   1      -2.225  -2.172   0.463  0.00  0.00    -0.016 A 
ATOM      8  C8  IND d   1      -1.015  -1.971   1.112  0.00  0.00    -0.047 A 
ATOM      9  C9  IND d   1      -0.685  -0.746   1.705  0.00  0.00    -0.096 A 
ATOM     10  HN1 IND d   1       0.117  -3.622   0.998  0.00  0.00     0.298 HD
ENDROOT
TORSDOF 0
ENDMDL
