MODEL 1
REMARK minimizedAffinity 9.35506535
REMARK minimizedRMSD -1
REMARK  0 active torsions:
REMARK  status: ('A' for Active; 'I' for Inactive)
ROOT
ATOM      1  N1  IND d   1      -0.856   4.023  -5.977  0.00  0.00    -0.196 N 
ATOM      2  C2  IND d   1      -1.390   5.282  -5.996  0.00  0.00     0.054 A 
ATOM      3  C3  IND d   1      -0.937   6.000  -4.943  0.00  0.00    -0.031 A 
ATOM      4  C4  IND d   1       0.763   5.343  -3.125  0.00  0.00     0.051 A 
ATOM      5  C5  IND d   1       1.497   4.284  -2.669  0.00  0.00    -0.031 A 
ATOM      6  C6  IND d   1       1.486   3.060  -3.306  0.00  0.00     0.015 A 
ATOM      7  C7  IND d   1       0.746   2.852  -4.436  0.00  0.00    -0.016 A 
ATOM      8  C8  IND d   1      -0.006   3.923  -4.898  0.00  0.00    -0.047 A 
ATOM      9  C9  IND d   1      -0.032   5.154  -4.231  0.00  0.00    -0.096 A 
ATOM     10  HN1 IND d   1      -1.024   3.399  -6.544  0.00  0.00     0.298 HD
ENDROOT
TORSDOF 0
ENDMDL
