MODEL 1
REMARK minimizedAffinity 20.1611023
REMARK minimizedRMSD -1
REMARK  0 active torsions:
REMARK  status: ('A' for Active; 'I' for Inactive)
ROOT
ATOM      1  N1  IND d   1       0.166  -0.642   4.907  0.00  0.00    -0.196 N 
ATOM      2  C2  IND d   1      -0.833   0.087   5.491  0.00  0.00     0.054 A 
ATOM      3  C3  IND d   1      -1.766   0.427   4.573  0.00  0.00    -0.031 A 
ATOM      4  C4  IND d   1      -1.906  -0.191   2.077  0.00  0.00     0.051 A 
ATOM      5  C5  IND d   1      -1.206  -0.811   1.080  0.00  0.00    -0.031 A 
ATOM      6  C6  IND d   1       0.009  -1.421   1.313  0.00  0.00     0.015 A 
ATOM      7  C7  IND d   1       0.568  -1.444   2.559  0.00  0.00    -0.016 A 
ATOM      8  C8  IND d   1      -0.136  -0.809   3.573  0.00  0.00    -0.047 A 
ATOM      9  C9  IND d   1      -1.350  -0.151   3.334  0.00  0.00    -0.096 A 
ATOM     10  HN1 IND d   1       0.865  -0.944   5.305  0.00  0.00     0.298 HD
ENDROOT
TORSDOF 0
ENDMDL
