MODEL 1
REMARK minimizedAffinity 10.2868881
REMARK minimizedRMSD -1
REMARK  0 active torsions:
REMARK  status: ('A' for Active; 'I' for Inactive)
ROOT
ATOM      1  N1  IND d   1      -5.048  -2.730   5.583  0.00  0.00    -0.196 N 
ATOM      2  C2  IND d   1      -4.612  -1.701   4.796  0.00  0.00     0.054 A 
ATOM      3  C3  IND d   1      -4.595  -2.076   3.497  0.00  0.00    -0.031 A 
ATOM      4  C4  IND d   1      -5.338  -4.295   2.426  0.00  0.00     0.051 A 
ATOM      5  C5  IND d   1      -5.775  -5.551   2.743  0.00  0.00    -0.031 A 
ATOM      6  C6  IND d   1      -6.000  -5.937   4.048  0.00  0.00     0.015 A 
ATOM      7  C7  IND d   1      -5.805  -5.075   5.090  0.00  0.00    -0.016 A 
ATOM      8  C8  IND d   1      -5.354  -3.801   4.773  0.00  0.00    -0.047 A 
ATOM      9  C9  IND d   1      -5.084  -3.417   3.453  0.00  0.00    -0.096 A 
ATOM     10  HN1 IND d   1      -5.119  -2.712   6.439  0.00  0.00     0.298 HD
ENDROOT
TORSDOF 0
ENDMDL
