MODEL 1
REMARK minimizedAffinity 16.4054604
REMARK minimizedRMSD -1
REMARK  0 active torsions:
REMARK  status: ('A' for Active; 'I' for Inactive)
ROOT
ATOM      1  N1  IND d   1       3.056  -1.104   2.445  0.00  0.00    -0.196 N 
ATOM      2  C2  IND d   1       2.429   0.068   2.127  0.00  0.00     0.054 A 
ATOM      3  C3  IND d   1       3.055   0.671   1.092  0.00  0.00    -0.031 A 
ATOM      4  C4  IND d   1       5.066  -0.137  -0.298  0.00  0.00     0.051 A 
ATOM      5  C5  IND d   1       6.000  -1.133  -0.363  0.00  0.00    -0.031 A 
ATOM      6  C6  IND d   1       5.999  -2.192   0.521  0.00  0.00     0.015 A 
ATOM      7  C7  IND d   1       5.053  -2.302   1.500  0.00  0.00    -0.016 A 
ATOM      8  C8  IND d   1       4.107  -1.289   1.573  0.00  0.00    -0.047 A 
ATOM      9  C9  IND d   1       4.128  -0.190   0.706  0.00  0.00    -0.096 A 
ATOM     10  HN1 IND d   1       2.833  -1.636   3.083  0.00  0.00     0.298 HD
ENDROOT
TORSDOF 0
ENDMDL
