MODEL 1
REMARK minimizedAffinity 20.5442772
REMARK minimizedRMSD -1
REMARK  0 active torsions:
REMARK  status: ('A' for Active; 'I' for Inactive)
ROOT
ATOM      1  N1  IND d   1      -0.390  -0.663   4.498  0.00  0.00    -0.196 N 
ATOM      2  C2  IND d   1      -0.349  -1.725   5.358  0.00  0.00     0.054 A 
ATOM      3  C3  IND d   1      -0.473  -2.886   4.677  0.00  0.00    -0.031 A 
ATOM      4  C4  IND d   1      -0.651  -3.283   2.139  0.00  0.00     0.051 A 
ATOM      5  C5  IND d   1      -0.766  -2.618   0.951  0.00  0.00    -0.031 A 
ATOM      6  C6  IND d   1      -0.759  -1.240   0.882  0.00  0.00     0.015 A 
ATOM      7  C7  IND d   1      -0.624  -0.472   2.004  0.00  0.00    -0.016 A 
ATOM      8  C8  IND d   1      -0.514  -1.143   3.213  0.00  0.00    -0.047 A 
ATOM      9  C9  IND d   1      -0.563  -2.541   3.293  0.00  0.00    -0.096 A 
ATOM     10  HN1 IND d   1      -0.345   0.166   4.723  0.00  0.00     0.298 HD
ENDROOT
TORSDOF 0
ENDMDL
