MODEL 1
REMARK minimizedAffinity -4.80401134
REMARK minimizedRMSD -1
REMARK  0 active torsions:
REMARK  status: ('A' for Active; 'I' for Inactive)
ROOT
ATOM      1  N1  IND d   1       0.600  -0.292   1.455  0.00  0.00    -0.196 N 
ATOM      2  C2  IND d   1       0.301  -0.860   0.248  0.00  0.00     0.054 A 
ATOM      3  C3  IND d   1      -1.019  -0.736  -0.016  0.00  0.00    -0.031 A 
ATOM      4  C4  IND d   1      -2.855   0.449   1.344  0.00  0.00     0.051 A 
ATOM      5  C5  IND d   1      -3.074   1.085   2.534  0.00  0.00    -0.031 A 
ATOM      6  C6  IND d   1      -2.057   1.301   3.442  0.00  0.00     0.015 A 
ATOM      7  C7  IND d   1      -0.777   0.897   3.188  0.00  0.00    -0.016 A 
ATOM      8  C8  IND d   1      -0.553   0.245   1.984  0.00  0.00    -0.047 A 
ATOM      9  C9  IND d   1      -1.589  -0.015   1.077  0.00  0.00    -0.096 A 
ATOM     10  HN1 IND d   1       1.377  -0.273   1.822  0.00  0.00     0.298 HD
ENDROOT
TORSDOF 0
ENDMDL
