MODEL 1
REMARK minimizedAffinity -4.98918819
REMARK minimizedRMSD -1
REMARK  0 active torsions:
REMARK  status: ('A' for Active; 'I' for Inactive)
ROOT
ATOM      1  N1  IND d   1       0.201   1.397   0.639  0.00  0.00    -0.196 N 
ATOM      2  C2  IND d   1       0.146   0.442  -0.337  0.00  0.00     0.054 A 
ATOM      3  C3  IND d   1      -0.797  -0.481  -0.041  0.00  0.00    -0.031 A 
ATOM      4  C4  IND d   1      -2.436  -0.565   1.943  0.00  0.00     0.051 A 
ATOM      5  C5  IND d   1      -2.743   0.069   3.114  0.00  0.00    -0.031 A 
ATOM      6  C6  IND d   1      -2.072   1.202   3.528  0.00  0.00     0.015 A 
ATOM      7  C7  IND d   1      -1.073   1.752   2.776  0.00  0.00    -0.016 A 
ATOM      8  C8  IND d   1      -0.754   1.108   1.589  0.00  0.00    -0.047 A 
ATOM      9  C9  IND d   1      -1.403  -0.067   1.185  0.00  0.00    -0.096 A 
ATOM     10  HN1 IND d   1       0.741   2.065   0.658  0.00  0.00     0.298 HD
ENDROOT
TORSDOF 0
ENDMDL
