MODEL 1
REMARK minimizedAffinity -3.38461661
REMARK minimizedRMSD -1
REMARK  0 active torsions:
REMARK  status: ('A' for Active; 'I' for Inactive)
ROOT
ATOM      1  N1  IND d   1       0.503   1.692  -2.297  0.00  0.00    -0.196 N 
ATOM      2  C2  IND d   1       1.513   1.405  -3.171  0.00  0.00     0.054 A 
ATOM      3  C3  IND d   1       2.078   0.216  -2.864  0.00  0.00    -0.031 A 
ATOM      4  C4  IND d   1       1.438  -1.474  -1.031  0.00  0.00     0.051 A 
ATOM      5  C5  IND d   1       0.603  -1.638   0.039  0.00  0.00    -0.031 A 
ATOM      6  C6  IND d   1      -0.328  -0.683   0.390  0.00  0.00     0.015 A 
ATOM      7  C7  IND d   1      -0.468   0.473  -0.325  0.00  0.00    -0.016 A 
ATOM      8  C8  IND d   1       0.383   0.646  -1.408  0.00  0.00    -0.047 A 
ATOM      9  C9  IND d   1       1.358  -0.301  -1.744  0.00  0.00    -0.096 A 
ATOM     10  HN1 IND d   1       0.023   2.405  -2.301  0.00  0.00     0.298 HD
ENDROOT
TORSDOF 0
ENDMDL
