MODEL 1
REMARK minimizedAffinity -1.59376872
REMARK minimizedRMSD -1
REMARK  0 active torsions:
REMARK  status: ('A' for Active; 'I' for Inactive)
ROOT
ATOM      1  N1  IND d   1      -0.863   0.974   0.276  0.00  0.00    -0.196 N 
ATOM      2  C2  IND d   1      -1.315   0.297   1.373  0.00  0.00     0.054 A 
ATOM      3  C3  IND d   1      -0.715  -0.912   1.460  0.00  0.00    -0.031 A 
ATOM      4  C4  IND d   1       1.114  -1.940  -0.031  0.00  0.00     0.051 A 
ATOM      5  C5  IND d   1       1.822  -1.715  -1.177  0.00  0.00    -0.031 A 
ATOM      6  C6  IND d   1       1.671  -0.556  -1.912  0.00  0.00     0.015 A 
ATOM      7  C7  IND d   1       0.809   0.429  -1.519  0.00  0.00    -0.016 A 
ATOM      8  C8  IND d   1       0.083   0.200  -0.359  0.00  0.00    -0.047 A 
ATOM      9  C9  IND d   1       0.202  -0.992   0.368  0.00  0.00    -0.096 A 
ATOM     10  HN1 IND d   1      -1.125   1.754   0.024  0.00  0.00     0.298 HD
ENDROOT
TORSDOF 0
ENDMDL
