MODEL 1
REMARK minimizedAffinity -3.77166891
REMARK minimizedRMSD -1
REMARK  0 active torsions:
REMARK  status: ('A' for Active; 'I' for Inactive)
ROOT
ATOM      1  N1  IND d   1      -1.035   1.146  -0.318  0.00  0.00    -0.196 N 
ATOM      2  C2  IND d   1      -1.678   0.363   0.600  0.00  0.00     0.054 A 
ATOM      3  C3  IND d   1      -0.997  -0.790   0.794  0.00  0.00    -0.031 A 
ATOM      4  C4  IND d   1       1.246  -1.554  -0.212  0.00  0.00     0.051 A 
ATOM      5  C5  IND d   1       2.194  -1.194  -1.128  0.00  0.00    -0.031 A 
ATOM      6  C6  IND d   1       2.114  -0.010  -1.833  0.00  0.00     0.015 A 
ATOM      7  C7  IND d   1       1.085   0.867  -1.639  0.00  0.00    -0.016 A 
ATOM      8  C8  IND d   1       0.116   0.501  -0.715  0.00  0.00    -0.047 A 
ATOM      9  C9  IND d   1       0.169  -0.718  -0.027  0.00  0.00    -0.096 A 
ATOM     10  HN1 IND d   1      -1.304   1.912  -0.600  0.00  0.00     0.298 HD
ENDROOT
TORSDOF 0
ENDMDL
