MODEL 1
REMARK minimizedAffinity -2.00861597
REMARK minimizedRMSD -1
REMARK  0 active torsions:
REMARK  status: ('A' for Active; 'I' for Inactive)
ROOT
ATOM      1  N1  IND d   1      -1.753   1.094   4.063  0.00  0.00    -0.196 N 
ATOM      2  C2  IND d   1      -2.607   0.050   3.839  0.00  0.00     0.054 A 
ATOM      3  C3  IND d   1      -2.577  -0.311   2.537  0.00  0.00    -0.031 A 
ATOM      4  C4  IND d   1      -1.126   0.606   0.618  0.00  0.00     0.051 A 
ATOM      5  C5  IND d   1      -0.220   1.587   0.327  0.00  0.00    -0.031 A 
ATOM      6  C6  IND d   1       0.232   2.470   1.286  0.00  0.00     0.015 A 
ATOM      7  C7  IND d   1      -0.198   2.397   2.581  0.00  0.00    -0.016 A 
ATOM      8  C8  IND d   1      -1.123   1.407   2.879  0.00  0.00    -0.047 A 
ATOM      9  C9  IND d   1      -1.618   0.535   1.900  0.00  0.00    -0.096 A 
ATOM     10  HN1 IND d   1      -1.631   1.489   4.817  0.00  0.00     0.298 HD
ENDROOT
TORSDOF 0
ENDMDL
