MODEL 1
REMARK minimizedAffinity -0.244621634
REMARK minimizedRMSD -1
REMARK  0 active torsions:
REMARK  status: ('A' for Active; 'I' for Inactive)
ROOT
ATOM      1  N1  IND d   1      -0.835   0.946   0.005  0.00  0.00    -0.196 N 
ATOM      2  C2  IND d   1      -1.114   1.001   1.342  0.00  0.00     0.054 A 
ATOM      3  C3  IND d   1      -0.503  -0.014   1.993  0.00  0.00    -0.031 A 
ATOM      4  C4  IND d   1       1.086  -1.822   1.079  0.00  0.00     0.051 A 
ATOM      5  C5  IND d   1       1.613  -2.303  -0.086  0.00  0.00    -0.031 A 
ATOM      6  C6  IND d   1       1.348  -1.713  -1.305  0.00  0.00     0.015 A 
ATOM      7  C7  IND d   1       0.552  -0.607  -1.403  0.00  0.00    -0.016 A 
ATOM      8  C8  IND d   1       0.009  -0.120  -0.222  0.00  0.00    -0.047 A 
ATOM      9  C9  IND d   1       0.240  -0.740   1.012  0.00  0.00    -0.096 A 
ATOM     10  HN1 IND d   1      -1.135   1.485  -0.593  0.00  0.00     0.298 HD
ENDROOT
TORSDOF 0
ENDMDL
