MODEL 1
REMARK minimizedAffinity -2.25690627
REMARK minimizedRMSD -1
REMARK  0 active torsions:
REMARK  status: ('A' for Active; 'I' for Inactive)
ROOT
ATOM      1  N1  IND d   1       1.954   0.093  -1.601  0.00  0.00    -0.196 N 
ATOM      2  C2  IND d   1       2.574  -1.097  -1.339  0.00  0.00     0.054 A 
ATOM      3  C3  IND d   1       1.876  -1.799  -0.419  0.00  0.00    -0.031 A 
ATOM      4  C4  IND d   1      -0.364  -1.232   0.717  0.00  0.00     0.051 A 
ATOM      5  C5  IND d   1      -1.295  -0.237   0.825  0.00  0.00    -0.031 A 
ATOM      6  C6  IND d   1      -1.190   0.941   0.114  0.00  0.00     0.015 A 
ATOM      7  C7  IND d   1      -0.151   1.164  -0.744  0.00  0.00    -0.016 A 
ATOM      8  C8  IND d   1       0.800   0.160  -0.852  0.00  0.00    -0.047 A 
ATOM      9  C9  IND d   1       0.721  -1.020  -0.101  0.00  0.00    -0.096 A 
ATOM     10  HN1 IND d   1       2.237   0.698  -2.142  0.00  0.00     0.298 HD
ENDROOT
TORSDOF 0
ENDMDL
