MODEL 1
REMARK minimizedAffinity -5.50745106
REMARK minimizedRMSD -1
REMARK  0 active torsions:
REMARK  status: ('A' for Active; 'I' for Inactive)
ROOT
ATOM      1  N1  IND d   1      -0.450   0.413  -0.371  0.00  0.00    -0.196 N 
ATOM      2  C2  IND d   1      -0.615  -0.566   0.568  0.00  0.00     0.054 A 
ATOM      3  C3  IND d   1       0.318  -1.532   0.410  0.00  0.00    -0.031 A 
ATOM      4  C4  IND d   1       2.274  -1.659  -1.260  0.00  0.00     0.051 A 
ATOM      5  C5  IND d   1       2.813  -1.016  -2.338  0.00  0.00    -0.031 A 
ATOM      6  C6  IND d   1       2.283   0.162  -2.824  0.00  0.00     0.015 A 
ATOM      7  C7  IND d   1       1.196   0.749  -2.240  0.00  0.00    -0.016 A 
ATOM      8  C8  IND d   1       0.642   0.095  -1.149  0.00  0.00    -0.047 A 
ATOM      9  C9  IND d   1       1.149  -1.123  -0.678  0.00  0.00    -0.096 A 
ATOM     10  HN1 IND d   1      -0.944   1.111  -0.461  0.00  0.00     0.298 HD
ENDROOT
TORSDOF 0
ENDMDL
