MODEL 1
REMARK minimizedAffinity -0.444869071
REMARK minimizedRMSD -1
REMARK  0 active torsions:
REMARK  status: ('A' for Active; 'I' for Inactive)
ROOT
ATOM      1  N1  IND d   1       0.540   1.540  -2.169  0.00  0.00    -0.196 N 
ATOM      2  C2  IND d   1       1.255   1.221  -3.289  0.00  0.00     0.054 A 
ATOM      3  C3  IND d   1       1.801  -0.009  -3.164  0.00  0.00    -0.031 A 
ATOM      4  C4  IND d   1       1.568  -1.716  -1.251  0.00  0.00     0.051 A 
ATOM      5  C5  IND d   1       1.045  -1.864   0.003  0.00  0.00    -0.031 A 
ATOM      6  C6  IND d   1       0.309  -0.865   0.608  0.00  0.00     0.015 A 
ATOM      7  C7  IND d   1       0.059   0.319  -0.026  0.00  0.00    -0.016 A 
ATOM      8  C8  IND d   1       0.595   0.475  -1.296  0.00  0.00    -0.047 A 
ATOM      9  C9  IND d   1       1.378  -0.518  -1.898  0.00  0.00    -0.096 A 
ATOM     10  HN1 IND d   1       0.126   2.281  -2.032  0.00  0.00     0.298 HD
ENDROOT
TORSDOF 0
ENDMDL
