MODEL 1
REMARK minimizedAffinity 0.803263366
REMARK minimizedRMSD -1
REMARK  0 active torsions:
REMARK  status: ('A' for Active; 'I' for Inactive)
ROOT
ATOM      1  N1  IND d   1      -2.127   1.591   1.898  0.00  0.00    -0.196 N 
ATOM      2  C2  IND d   1      -1.606   1.616   3.161  0.00  0.00     0.054 A 
ATOM      3  C3  IND d   1      -0.583   0.738   3.265  0.00  0.00    -0.031 A 
ATOM      4  C4  IND d   1       0.469  -0.768   1.461  0.00  0.00     0.051 A 
ATOM      5  C5  IND d   1       0.312  -1.164   0.163  0.00  0.00    -0.031 A 
ATOM      6  C6  IND d   1      -0.685  -0.650  -0.641  0.00  0.00     0.015 A 
ATOM      7  C7  IND d   1      -1.559   0.293  -0.177  0.00  0.00    -0.016 A 
ATOM      8  C8  IND d   1      -1.406   0.692   1.143  0.00  0.00    -0.047 A 
ATOM      9  C9  IND d   1      -0.423   0.143   1.976  0.00  0.00    -0.096 A 
ATOM     10  HN1 IND d   1      -2.794   2.059   1.621  0.00  0.00     0.298 HD
ENDROOT
TORSDOF 0
ENDMDL
