MODEL 1
REMARK minimizedAffinity -4.0387888
REMARK minimizedRMSD -1
REMARK  0 active torsions:
REMARK  status: ('A' for Active; 'I' for Inactive)
ROOT
ATOM      1  N1  IND d   1      -1.291   0.391  -0.383  0.00  0.00    -0.196 N 
ATOM      2  C2  IND d   1      -0.221  -0.458  -0.428  0.00  0.00     0.054 A 
ATOM      3  C3  IND d   1       0.260  -0.674   0.817  0.00  0.00    -0.031 A 
ATOM      4  C4  IND d   1      -0.618   0.182   3.081  0.00  0.00     0.051 A 
ATOM      5  C5  IND d   1      -1.551   1.017   3.628  0.00  0.00    -0.031 A 
ATOM      6  C6  IND d   1      -2.465   1.698   2.851  0.00  0.00     0.015 A 
ATOM      7  C7  IND d   1      -2.488   1.560   1.492  0.00  0.00    -0.016 A 
ATOM      8  C8  IND d   1      -1.538   0.718   0.932  0.00  0.00    -0.047 A 
ATOM      9  C9  IND d   1      -0.580   0.057   1.712  0.00  0.00    -0.096 A 
ATOM     10  HN1 IND d   1      -1.736   0.674  -1.063  0.00  0.00     0.298 HD
ENDROOT
TORSDOF 0
ENDMDL
