MODEL 1
REMARK minimizedAffinity 0.247679085
REMARK minimizedRMSD -1
REMARK  0 active torsions:
REMARK  status: ('A' for Active; 'I' for Inactive)
ROOT
ATOM      1  N1  IND d   1       0.778   1.325  -2.871  0.00  0.00    -0.196 N 
ATOM      2  C2  IND d   1       1.596   1.091  -3.941  0.00  0.00     0.054 A 
ATOM      3  C3  IND d   1       2.311  -0.040  -3.748  0.00  0.00    -0.031 A 
ATOM      4  C4  IND d   1       2.225  -1.717  -1.796  0.00  0.00     0.051 A 
ATOM      5  C5  IND d   1       1.658  -1.912  -0.568  0.00  0.00    -0.031 A 
ATOM      6  C6  IND d   1       0.748  -1.022  -0.035  0.00  0.00     0.015 A 
ATOM      7  C7  IND d   1       0.361   0.096  -0.719  0.00  0.00    -0.016 A 
ATOM      8  C8  IND d   1       0.940   0.301  -1.963  0.00  0.00    -0.047 A 
ATOM      9  C9  IND d   1       1.896  -0.576  -2.491  0.00  0.00    -0.096 A 
ATOM     10  HN1 IND d   1       0.251   1.998  -2.780  0.00  0.00     0.298 HD
ENDROOT
TORSDOF 0
ENDMDL
