MODEL 1
REMARK minimizedAffinity -0.852862775
REMARK minimizedRMSD -1
REMARK  0 active torsions:
REMARK  status: ('A' for Active; 'I' for Inactive)
ROOT
ATOM      1  N1  IND d   1       0.055   1.170   0.483  0.00  0.00    -0.196 N 
ATOM      2  C2  IND d   1      -0.580   0.608  -0.589  0.00  0.00     0.054 A 
ATOM      3  C3  IND d   1      -1.735   0.023  -0.197  0.00  0.00    -0.031 A 
ATOM      4  C4  IND d   1      -2.826  -0.044   2.133  0.00  0.00     0.051 A 
ATOM      5  C5  IND d   1      -2.604   0.299   3.437  0.00  0.00    -0.031 A 
ATOM      6  C6  IND d   1      -1.462   0.967   3.831  0.00  0.00     0.015 A 
ATOM      7  C7  IND d   1      -0.501   1.327   2.929  0.00  0.00    -0.016 A 
ATOM      8  C8  IND d   1      -0.720   0.973   1.605  0.00  0.00    -0.047 A 
ATOM      9  C9  IND d   1      -1.857   0.258   1.206  0.00  0.00    -0.096 A 
ATOM     10  HN1 IND d   1       0.812   1.577   0.461  0.00  0.00     0.298 HD
ENDROOT
TORSDOF 0
ENDMDL
