MODEL 1
REMARK minimizedAffinity -5.103477
REMARK minimizedRMSD -1
REMARK  0 active torsions:
REMARK  status: ('A' for Active; 'I' for Inactive)
ROOT
ATOM      1  N1  IND d   1       0.208   1.731  -1.945  0.00  0.00    -0.196 N 
ATOM      2  C2  IND d   1       1.254   1.674  -2.822  0.00  0.00     0.054 A 
ATOM      3  C3  IND d   1       1.981   0.552  -2.616  0.00  0.00    -0.031 A 
ATOM      4  C4  IND d   1       1.575  -1.378  -0.961  0.00  0.00     0.051 A 
ATOM      5  C5  IND d   1       0.765  -1.759   0.072  0.00  0.00    -0.031 A 
ATOM      6  C6  IND d   1      -0.295  -0.982   0.492  0.00  0.00     0.015 A 
ATOM      7  C7  IND d   1      -0.593   0.205  -0.115  0.00  0.00    -0.016 A 
ATOM      8  C8  IND d   1       0.231   0.599  -1.160  0.00  0.00    -0.047 A 
ATOM      9  C9  IND d   1       1.334  -0.165  -1.563  0.00  0.00    -0.096 A 
ATOM     10  HN1 IND d   1      -0.369   2.367  -1.892  0.00  0.00     0.298 HD
ENDROOT
TORSDOF 0
ENDMDL
