MODEL 1
REMARK minimizedAffinity 1.72284698
REMARK minimizedRMSD -1
REMARK  0 active torsions:
REMARK  status: ('A' for Active; 'I' for Inactive)
ROOT
ATOM      1  N1  IND d   1      -1.432   1.045   0.131  0.00  0.00    -0.196 N 
ATOM      2  C2  IND d   1      -0.615   0.000  -0.201  0.00  0.00     0.054 A 
ATOM      3  C3  IND d   1      -0.265  -0.692   0.907  0.00  0.00    -0.031 A 
ATOM      4  C4  IND d   1      -0.999  -0.349   3.350  0.00  0.00     0.051 A 
ATOM      5  C5  IND d   1      -1.710   0.498   4.152  0.00  0.00    -0.031 A 
ATOM      6  C6  IND d   1      -2.381   1.592   3.644  0.00  0.00     0.015 A 
ATOM      7  C7  IND d   1      -2.375   1.874   2.308  0.00  0.00    -0.016 A 
ATOM      8  C8  IND d   1      -1.648   1.019   1.491  0.00  0.00    -0.047 A 
ATOM      9  C9  IND d   1      -0.930  -0.067   2.006  0.00  0.00    -0.096 A 
ATOM     10  HN1 IND d   1      -1.757   1.622  -0.419  0.00  0.00     0.298 HD
ENDROOT
TORSDOF 0
ENDMDL
