MODEL 1
REMARK minimizedAffinity -1.47832096
REMARK minimizedRMSD -1
REMARK  0 active torsions:
REMARK  status: ('A' for Active; 'I' for Inactive)
ROOT
ATOM      1  N1  IND d   1       0.265   1.888  -1.961  0.00  0.00    -0.196 N 
ATOM      2  C2  IND d   1       1.147   1.775  -2.999  0.00  0.00     0.054 A 
ATOM      3  C3  IND d   1       1.779   0.582  -2.952  0.00  0.00    -0.031 A 
ATOM      4  C4  IND d   1       1.450  -1.380  -1.317  0.00  0.00     0.051 A 
ATOM      5  C5  IND d   1       0.782  -1.732  -0.178  0.00  0.00    -0.031 A 
ATOM      6  C6  IND d   1      -0.113  -0.880   0.436  0.00  0.00     0.015 A 
ATOM      7  C7  IND d   1      -0.382   0.358  -0.075  0.00  0.00    -0.016 A 
ATOM      8  C8  IND d   1       0.300   0.722  -1.228  0.00  0.00    -0.047 A 
ATOM      9  C9  IND d   1       1.241  -0.122  -1.831  0.00  0.00    -0.096 A 
ATOM     10  HN1 IND d   1      -0.227   2.573  -1.793  0.00  0.00     0.298 HD
ENDROOT
TORSDOF 0
ENDMDL
