MODEL 1
REMARK minimizedAffinity -3.19328594
REMARK minimizedRMSD -1
REMARK  0 active torsions:
REMARK  status: ('A' for Active; 'I' for Inactive)
ROOT
ATOM      1  N1  IND d   1      -0.756   2.163   1.888  0.00  0.00    -0.196 N 
ATOM      2  C2  IND d   1      -1.850   1.507   2.378  0.00  0.00     0.054 A 
ATOM      3  C3  IND d   1      -1.984   0.302   1.779  0.00  0.00    -0.031 A 
ATOM      4  C4  IND d   1      -0.465  -0.837   0.040  0.00  0.00     0.051 A 
ATOM      5  C5  IND d   1       0.635  -0.614  -0.740  0.00  0.00    -0.031 A 
ATOM      6  C6  IND d   1       1.344   0.568  -0.680  0.00  0.00     0.015 A 
ATOM      7  C7  IND d   1       0.984   1.572   0.173  0.00  0.00    -0.016 A 
ATOM      8  C8  IND d   1      -0.137   1.352   0.962  0.00  0.00    -0.047 A 
ATOM      9  C9  IND d   1      -0.885   0.171   0.875  0.00  0.00    -0.096 A 
ATOM     10  HN1 IND d   1      -0.497   2.950   2.120  0.00  0.00     0.298 HD
ENDROOT
TORSDOF 0
ENDMDL
