MODEL 1
REMARK minimizedAffinity 6.86531925
REMARK minimizedRMSD -1
REMARK  0 active torsions:
REMARK  status: ('A' for Active; 'I' for Inactive)
ROOT
ATOM      1  C   UNL d   1      -3.674   2.844   5.999  0.00  0.00     0.077 C 
ATOM      2  C1  UNL d   1      -3.763   1.473   5.397  0.00  0.00    -0.074 A 
ATOM      3  C2  UNL d   1      -4.532   0.472   6.000  0.00  0.00    -0.005 A 
ATOM      4  C3  UNL d   1      -4.612  -0.796   5.423  0.00  0.00     0.006 A 
ATOM      5  C4  UNL d   1      -3.926  -1.075   4.241  0.00  0.00    -0.005 A 
ATOM      6  C5  UNL d   1      -3.153  -0.086   3.624  0.00  0.00    -0.074 A 
ATOM      7  C6  UNL d   1      -2.417  -0.366   2.347  0.00  0.00     0.077 C 
ATOM      8  C7  UNL d   1      -3.082   1.187   4.205  0.00  0.00    -0.001 A 
ENDROOT
TORSDOF 0
ENDMDL
