MODEL 1
REMARK minimizedAffinity -0.0283813123
REMARK minimizedRMSD -1
REMARK  0 active torsions:
REMARK  status: ('A' for Active; 'I' for Inactive)
ROOT
ATOM      1  C   UNL d   1      -2.602  -2.626   1.249  0.00  0.00     0.077 C 
ATOM      2  C1  UNL d   1      -3.287  -1.667   2.176  0.00  0.00    -0.074 A 
ATOM      3  C2  UNL d   1      -4.664  -1.748   2.407  0.00  0.00    -0.005 A 
ATOM      4  C3  UNL d   1      -5.285  -0.855   3.280  0.00  0.00     0.006 A 
ATOM      5  C4  UNL d   1      -4.537   0.127   3.930  0.00  0.00    -0.005 A 
ATOM      6  C5  UNL d   1      -3.159   0.224   3.713  0.00  0.00    -0.074 A 
ATOM      7  C6  UNL d   1      -2.338   1.267   4.411  0.00  0.00     0.077 C 
ATOM      8  C7  UNL d   1      -2.541  -0.682   2.840  0.00  0.00    -0.001 A 
ENDROOT
TORSDOF 0
ENDMDL
