MODEL 1
REMARK minimizedAffinity 8.07163811
REMARK minimizedRMSD -1
REMARK  0 active torsions:
REMARK  status: ('A' for Active; 'I' for Inactive)
ROOT
ATOM      1  C   UNL d   1       0.992   0.033   1.497  0.00  0.00     0.077 C 
ATOM      2  C1  UNL d   1      -0.389  -0.293   1.983  0.00  0.00    -0.074 A 
ATOM      3  C2  UNL d   1      -1.199  -1.201   1.293  0.00  0.00    -0.005 A 
ATOM      4  C3  UNL d   1      -2.478  -1.501   1.762  0.00  0.00     0.006 A 
ATOM      5  C4  UNL d   1      -2.959  -0.897   2.925  0.00  0.00    -0.005 A 
ATOM      6  C5  UNL d   1      -2.164   0.013   3.628  0.00  0.00    -0.074 A 
ATOM      7  C6  UNL d   1      -2.662   0.664   4.884  0.00  0.00     0.077 C 
ATOM      8  C7  UNL d   1      -0.877   0.304   3.154  0.00  0.00    -0.001 A 
ENDROOT
TORSDOF 0
ENDMDL
