MODEL 1
REMARK minimizedAffinity 0.977909207
REMARK minimizedRMSD -1
REMARK  0 active torsions:
REMARK  status: ('A' for Active; 'I' for Inactive)
ROOT
ATOM      1  C   UNL d   1      -0.332   4.492  -3.740  0.00  0.00     0.077 C 
ATOM      2  C1  UNL d   1      -1.651   4.984  -4.257  0.00  0.00    -0.074 A 
ATOM      3  C2  UNL d   1      -1.756   5.555  -5.529  0.00  0.00    -0.005 A 
ATOM      4  C3  UNL d   1      -2.992   6.000  -6.000  0.00  0.00     0.006 A 
ATOM      5  C4  UNL d   1      -4.132   5.879  -5.204  0.00  0.00    -0.005 A 
ATOM      6  C5  UNL d   1      -4.046   5.310  -3.930  0.00  0.00    -0.074 A 
ATOM      7  C6  UNL d   1      -5.263   5.163  -3.066  0.00  0.00     0.077 C 
ATOM      8  C7  UNL d   1      -2.802   4.859  -3.467  0.00  0.00    -0.001 A 
ENDROOT
TORSDOF 0
ENDMDL
