MODEL 1
REMARK minimizedAffinity 6.78655291
REMARK minimizedRMSD -1
REMARK  0 active torsions:
REMARK  status: ('A' for Active; 'I' for Inactive)
ROOT
ATOM      1  C   UNL d   1       2.122   1.135   0.884  0.00  0.00     0.077 C 
ATOM      2  C1  UNL d   1       3.372   1.946   0.713  0.00  0.00    -0.074 A 
ATOM      3  C2  UNL d   1       4.349   1.573  -0.215  0.00  0.00    -0.005 A 
ATOM      4  C3  UNL d   1       5.502   2.342  -0.370  0.00  0.00     0.006 A 
ATOM      5  C4  UNL d   1       5.690   3.490   0.401  0.00  0.00    -0.005 A 
ATOM      6  C5  UNL d   1       4.723   3.880   1.334  0.00  0.00    -0.074 A 
ATOM      7  C6  UNL d   1       4.904   5.116   2.163  0.00  0.00     0.077 C 
ATOM      8  C7  UNL d   1       3.564   3.105   1.478  0.00  0.00    -0.001 A 
ENDROOT
TORSDOF 0
ENDMDL
