MODEL 1
REMARK minimizedAffinity 8.89259338
REMARK minimizedRMSD -1
REMARK  0 active torsions:
REMARK  status: ('A' for Active; 'I' for Inactive)
ROOT
ATOM      1  C   UNL d   1       0.006  -3.304   2.229  0.00  0.00     0.077 C 
ATOM      2  C1  UNL d   1      -0.414  -2.202   3.155  0.00  0.00    -0.074 A 
ATOM      3  C2  UNL d   1      -0.193  -2.298   4.533  0.00  0.00    -0.005 A 
ATOM      4  C3  UNL d   1      -0.580  -1.260   5.381  0.00  0.00     0.006 A 
ATOM      5  C4  UNL d   1      -1.190  -0.118   4.861  0.00  0.00    -0.005 A 
ATOM      6  C5  UNL d   1      -1.418  -0.004   3.486  0.00  0.00    -0.074 A 
ATOM      7  C6  UNL d   1      -2.063   1.221   2.910  0.00  0.00     0.077 C 
ATOM      8  C7  UNL d   1      -1.020  -1.047   2.640  0.00  0.00    -0.001 A 
ENDROOT
TORSDOF 0
ENDMDL
