MODEL 1
REMARK minimizedAffinity 5.17201328
REMARK minimizedRMSD -1
REMARK  0 active torsions:
REMARK  status: ('A' for Active; 'I' for Inactive)
ROOT
ATOM      1  C   UNL d   1      -0.788   5.997  -0.650  0.00  0.00     0.077 C 
ATOM      2  C1  UNL d   1      -1.125   4.675  -0.027  0.00  0.00    -0.074 A 
ATOM      3  C2  UNL d   1      -0.286   4.098   0.932  0.00  0.00    -0.005 A 
ATOM      4  C3  UNL d   1      -0.618   2.873   1.510  0.00  0.00     0.006 A 
ATOM      5  C4  UNL d   1      -1.789   2.213   1.136  0.00  0.00    -0.005 A 
ATOM      6  C5  UNL d   1      -2.641   2.775   0.179  0.00  0.00    -0.074 A 
ATOM      7  C6  UNL d   1      -3.908   2.085  -0.227  0.00  0.00     0.077 C 
ATOM      8  C7  UNL d   1      -2.304   4.010  -0.392  0.00  0.00    -0.001 A 
ENDROOT
TORSDOF 0
ENDMDL
