MODEL 1
REMARK minimizedAffinity 13.2612886
REMARK minimizedRMSD -1
REMARK  0 active torsions:
REMARK  status: ('A' for Active; 'I' for Inactive)
ROOT
ATOM      1  C   UNL d   1       3.106   3.861  -1.158  0.00  0.00     0.077 C 
ATOM      2  C1  UNL d   1       3.242   2.545  -1.864  0.00  0.00    -0.074 A 
ATOM      3  C2  UNL d   1       2.303   2.142  -2.820  0.00  0.00    -0.005 A 
ATOM      4  C3  UNL d   1       2.448   0.919  -3.475  0.00  0.00     0.006 A 
ATOM      5  C4  UNL d   1       3.531   0.089  -3.183  0.00  0.00    -0.005 A 
ATOM      6  C5  UNL d   1       4.480   0.476  -2.231  0.00  0.00    -0.074 A 
ATOM      7  C6  UNL d   1       5.654  -0.400  -1.912  0.00  0.00     0.077 C 
ATOM      8  C7  UNL d   1       4.331   1.709  -1.582  0.00  0.00    -0.001 A 
ENDROOT
TORSDOF 0
ENDMDL
