MODEL 1
REMARK minimizedAffinity 3.98788023
REMARK minimizedRMSD -1
REMARK  0 active torsions:
REMARK  status: ('A' for Active; 'I' for Inactive)
ROOT
ATOM      1  C   UNL d   1       1.123  -2.759   0.971  0.00  0.00     0.077 C 
ATOM      2  C1  UNL d   1       2.538  -3.011   0.541  0.00  0.00    -0.074 A 
ATOM      3  C2  UNL d   1       3.448  -1.958   0.409  0.00  0.00    -0.005 A 
ATOM      4  C3  UNL d   1       4.763  -2.209   0.018  0.00  0.00     0.006 A 
ATOM      5  C4  UNL d   1       5.180  -3.514  -0.247  0.00  0.00    -0.005 A 
ATOM      6  C5  UNL d   1       4.284  -4.580  -0.120  0.00  0.00    -0.074 A 
ATOM      7  C6  UNL d   1       4.719  -5.990  -0.390  0.00  0.00     0.077 C 
ATOM      8  C7  UNL d   1       2.967  -4.321   0.281  0.00  0.00    -0.001 A 
ENDROOT
TORSDOF 0
ENDMDL
