MODEL 1
REMARK minimizedAffinity 4.55517244
REMARK minimizedRMSD -1
REMARK  0 active torsions:
REMARK  status: ('A' for Active; 'I' for Inactive)
ROOT
ATOM      1  C   UNL d   1       0.833  -3.374  -0.003  0.00  0.00     0.077 C 
ATOM      2  C1  UNL d   1       2.332  -3.398   0.028  0.00  0.00    -0.074 A 
ATOM      3  C2  UNL d   1       3.069  -2.211   0.086  0.00  0.00    -0.005 A 
ATOM      4  C3  UNL d   1       4.463  -2.249   0.124  0.00  0.00     0.006 A 
ATOM      5  C4  UNL d   1       5.133  -3.473   0.104  0.00  0.00    -0.005 A 
ATOM      6  C5  UNL d   1       4.412  -4.671   0.046  0.00  0.00    -0.074 A 
ATOM      7  C6  UNL d   1       5.116  -5.995   0.034  0.00  0.00     0.077 C 
ATOM      8  C7  UNL d   1       3.012  -4.624   0.016  0.00  0.00    -0.001 A 
ENDROOT
TORSDOF 0
ENDMDL
