MODEL 1
REMARK minimizedAffinity 4.2834425
REMARK minimizedRMSD -1
REMARK  0 active torsions:
REMARK  status: ('A' for Active; 'I' for Inactive)
ROOT
ATOM      1  C   UNL d   1      -1.807   0.441   3.098  0.00  0.00     0.077 C 
ATOM      2  C1  UNL d   1      -2.589   1.143   2.028  0.00  0.00    -0.074 A 
ATOM      3  C2  UNL d   1      -2.552   2.536   1.908  0.00  0.00    -0.005 A 
ATOM      4  C3  UNL d   1      -3.277   3.174   0.901  0.00  0.00     0.006 A 
ATOM      5  C4  UNL d   1      -4.044   2.428   0.006  0.00  0.00    -0.005 A 
ATOM      6  C5  UNL d   1      -4.092   1.034   0.111  0.00  0.00    -0.074 A 
ATOM      7  C6  UNL d   1      -4.904   0.216  -0.849  0.00  0.00     0.077 C 
ATOM      8  C7  UNL d   1      -3.356   0.399   1.120  0.00  0.00    -0.001 A 
ENDROOT
TORSDOF 0
ENDMDL
