MODEL 1
REMARK minimizedAffinity 8.0747261
REMARK minimizedRMSD -1
REMARK  0 active torsions:
REMARK  status: ('A' for Active; 'I' for Inactive)
ROOT
ATOM      1  C   UNL d   1       3.786  -1.976   0.131  0.00  0.00     0.077 C 
ATOM      2  C1  UNL d   1       2.495  -2.619  -0.278  0.00  0.00    -0.074 A 
ATOM      3  C2  UNL d   1       1.747  -3.373   0.632  0.00  0.00    -0.005 A 
ATOM      4  C3  UNL d   1       0.543  -3.957   0.240  0.00  0.00     0.006 A 
ATOM      5  C4  UNL d   1       0.075  -3.794  -1.064  0.00  0.00    -0.005 A 
ATOM      6  C5  UNL d   1       0.809  -3.043  -1.988  0.00  0.00    -0.074 A 
ATOM      7  C6  UNL d   1       0.315  -2.849  -3.391  0.00  0.00     0.077 C 
ATOM      8  C7  UNL d   1       2.014  -2.453  -1.584  0.00  0.00    -0.001 A 
ENDROOT
TORSDOF 0
ENDMDL
