MODEL 1
REMARK minimizedAffinity 3.64318752
REMARK minimizedRMSD -1
REMARK  0 active torsions:
REMARK  status: ('A' for Active; 'I' for Inactive)
ROOT
ATOM      1  C   UNL d   1      -0.032  -3.426   1.033  0.00  0.00     0.077 C 
ATOM      2  C1  UNL d   1       1.423  -3.402   0.670  0.00  0.00    -0.074 A 
ATOM      3  C2  UNL d   1       2.091  -2.192   0.455  0.00  0.00    -0.005 A 
ATOM      4  C3  UNL d   1       3.447  -2.186   0.127  0.00  0.00     0.006 A 
ATOM      5  C4  UNL d   1       4.147  -3.387   0.011  0.00  0.00    -0.005 A 
ATOM      6  C5  UNL d   1       3.497  -4.606   0.223  0.00  0.00    -0.074 A 
ATOM      7  C6  UNL d   1       4.237  -5.906   0.112  0.00  0.00     0.077 C 
ATOM      8  C7  UNL d   1       2.136  -4.604   0.559  0.00  0.00    -0.001 A 
ENDROOT
TORSDOF 0
ENDMDL
