MODEL 1
REMARK minimizedAffinity 4.71885633
REMARK minimizedRMSD -1
REMARK  0 active torsions:
REMARK  status: ('A' for Active; 'I' for Inactive)
ROOT
ATOM      1  C   UNL d   1       5.473  -5.999   0.402  0.00  0.00     0.077 C 
ATOM      2  C1  UNL d   1       4.677  -4.733   0.285  0.00  0.00    -0.074 A 
ATOM      3  C2  UNL d   1       5.311  -3.488   0.216  0.00  0.00    -0.005 A 
ATOM      4  C3  UNL d   1       4.558  -2.321   0.098  0.00  0.00     0.006 A 
ATOM      5  C4  UNL d   1       3.165  -2.385   0.047  0.00  0.00    -0.005 A 
ATOM      6  C5  UNL d   1       2.513  -3.621   0.114  0.00  0.00    -0.074 A 
ATOM      7  C6  UNL d   1       1.017  -3.708   0.051  0.00  0.00     0.077 C 
ATOM      8  C7  UNL d   1       3.277  -4.790   0.226  0.00  0.00    -0.001 A 
ENDROOT
TORSDOF 0
ENDMDL
