MODEL 1
REMARK minimizedAffinity -1.06214488
REMARK minimizedRMSD -1
REMARK  0 active torsions:
REMARK  status: ('A' for Active; 'I' for Inactive)
ROOT
ATOM      1  C   UNL d   1      -0.913  -1.084   2.438  0.00  0.00     0.077 C 
ATOM      2  C1  UNL d   1      -0.670  -2.189   1.453  0.00  0.00    -0.074 A 
ATOM      3  C2  UNL d   1      -1.735  -2.807   0.789  0.00  0.00    -0.005 A 
ATOM      4  C3  UNL d   1      -1.493  -3.826  -0.132  0.00  0.00     0.006 A 
ATOM      5  C4  UNL d   1      -0.186  -4.237  -0.398  0.00  0.00    -0.005 A 
ATOM      6  C5  UNL d   1       0.891  -3.630   0.255  0.00  0.00    -0.074 A 
ATOM      7  C6  UNL d   1       2.302  -4.052  -0.027  0.00  0.00     0.077 C 
ATOM      8  C7  UNL d   1       0.640  -2.601   1.174  0.00  0.00    -0.001 A 
ENDROOT
TORSDOF 0
ENDMDL
