MODEL 1
REMARK minimizedAffinity 14.1541433
REMARK minimizedRMSD -1
REMARK  0 active torsions:
REMARK  status: ('A' for Active; 'I' for Inactive)
ROOT
ATOM      1  C   UNL d   1      -5.996   3.002   1.493  0.00  0.00     0.077 C 
ATOM      2  C1  UNL d   1      -5.446   2.278   0.301  0.00  0.00    -0.074 A 
ATOM      3  C2  UNL d   1      -4.423   2.837  -0.471  0.00  0.00    -0.005 A 
ATOM      4  C3  UNL d   1      -3.915   2.147  -1.572  0.00  0.00     0.006 A 
ATOM      5  C4  UNL d   1      -4.424   0.893  -1.911  0.00  0.00    -0.005 A 
ATOM      6  C5  UNL d   1      -5.447   0.318  -1.151  0.00  0.00    -0.074 A 
ATOM      7  C6  UNL d   1      -5.999  -1.034  -1.496  0.00  0.00     0.077 C 
ATOM      8  C7  UNL d   1      -5.947   1.014  -0.042  0.00  0.00    -0.001 A 
ENDROOT
TORSDOF 0
ENDMDL
