MODEL 1
REMARK minimizedAffinity -2.57521582
REMARK minimizedRMSD -1
REMARK  0 active torsions:
REMARK  status: ('A' for Active; 'I' for Inactive)
ROOT
ATOM      1  C   UNL d   1      -5.273  -4.870   1.697  0.00  0.00     0.077 C 
ATOM      2  C1  UNL d   1      -5.274  -4.856   3.197  0.00  0.00    -0.074 A 
ATOM      3  C2  UNL d   1      -4.916  -5.995   3.926  0.00  0.00    -0.005 A 
ATOM      4  C3  UNL d   1      -4.913  -5.964   5.321  0.00  0.00     0.006 A 
ATOM      5  C4  UNL d   1      -5.267  -4.797   5.999  0.00  0.00    -0.005 A 
ATOM      6  C5  UNL d   1      -5.626  -3.648   5.286  0.00  0.00    -0.074 A 
ATOM      7  C6  UNL d   1      -6.000  -2.383   5.999  0.00  0.00     0.077 C 
ATOM      8  C7  UNL d   1      -5.621  -3.685   3.885  0.00  0.00    -0.001 A 
ENDROOT
TORSDOF 0
ENDMDL
