MODEL 1
REMARK minimizedAffinity 3.46597719
REMARK minimizedRMSD -1
REMARK  0 active torsions:
REMARK  status: ('A' for Active; 'I' for Inactive)
ROOT
ATOM      1  C   UNL d   1       4.739   5.192  -0.304  0.00  0.00     0.077 C 
ATOM      2  C1  UNL d   1       3.859   3.978  -0.281  0.00  0.00    -0.074 A 
ATOM      3  C2  UNL d   1       2.980   3.747   0.782  0.00  0.00    -0.005 A 
ATOM      4  C3  UNL d   1       2.161   2.618   0.785  0.00  0.00     0.006 A 
ATOM      5  C4  UNL d   1       2.213   1.710  -0.274  0.00  0.00    -0.005 A 
ATOM      6  C5  UNL d   1       3.085   1.925  -1.345  0.00  0.00    -0.074 A 
ATOM      7  C6  UNL d   1       3.146   0.964  -2.495  0.00  0.00     0.077 C 
ATOM      8  C7  UNL d   1       3.899   3.065  -1.344  0.00  0.00    -0.001 A 
ENDROOT
TORSDOF 0
ENDMDL
