MODEL 1
REMARK minimizedAffinity -4.42367506
REMARK minimizedRMSD -1
REMARK  0 active torsions:
REMARK  status: ('A' for Active; 'I' for Inactive)
ROOT
ATOM      1  C   UNL d   1       2.033  -1.380  -3.364  0.00  0.00     0.078 C 
ATOM      2  C1  UNL d   1       0.791  -0.961  -2.636  0.00  0.00    -0.077 A 
ATOM      3  C2  UNL d   1       0.803   0.132  -1.760  0.00  0.00    -0.001 A 
ATOM      4  C3  UNL d   1      -0.358   0.505  -1.081  0.00  0.00     0.003 A 
ATOM      5  C4  UNL d   1      -1.539  -0.210  -1.269  0.00  0.00    -0.005 A 
ATOM      6  C5  UNL d   1      -1.560  -1.301  -2.136  0.00  0.00     0.003 A 
ATOM      7  C6  UNL d   1      -0.400  -1.675  -2.816  0.00  0.00    -0.001 A 
ENDROOT
TORSDOF 0
ENDMDL
