MODEL 1
REMARK minimizedAffinity -3.15346527
REMARK minimizedRMSD -1
REMARK  0 active torsions:
REMARK  status: ('A' for Active; 'I' for Inactive)
ROOT
ATOM      1  C   UNL d   1       0.766  -1.471  -2.990  0.00  0.00     0.078 C 
ATOM      2  C1  UNL d   1       0.196  -0.747  -1.807  0.00  0.00    -0.077 A 
ATOM      3  C2  UNL d   1      -1.179  -0.503  -1.704  0.00  0.00    -0.001 A 
ATOM      4  C3  UNL d   1      -1.695   0.181  -0.602  0.00  0.00     0.003 A 
ATOM      5  C4  UNL d   1      -0.842   0.628   0.405  0.00  0.00    -0.005 A 
ATOM      6  C5  UNL d   1       0.528   0.392   0.311  0.00  0.00     0.003 A 
ATOM      7  C6  UNL d   1       1.045  -0.292  -0.791  0.00  0.00    -0.001 A 
ENDROOT
TORSDOF 0
ENDMDL
