MODEL 1
REMARK minimizedAffinity 0.215926751
REMARK minimizedRMSD -1
REMARK  0 active torsions:
REMARK  status: ('A' for Active; 'I' for Inactive)
ROOT
ATOM      1  C   UNL d   1       1.083   0.679   0.167  0.00  0.00     0.078 C 
ATOM      2  C1  UNL d   1      -0.234   0.269  -0.422  0.00  0.00    -0.077 A 
ATOM      3  C2  UNL d   1      -1.430   0.859   0.005  0.00  0.00    -0.001 A 
ATOM      4  C3  UNL d   1      -2.649   0.460  -0.545  0.00  0.00     0.003 A 
ATOM      5  C4  UNL d   1      -2.685  -0.532  -1.523  0.00  0.00    -0.005 A 
ATOM      6  C5  UNL d   1      -1.500  -1.127  -1.952  0.00  0.00     0.003 A 
ATOM      7  C6  UNL d   1      -0.279  -0.729  -1.403  0.00  0.00    -0.001 A 
ENDROOT
TORSDOF 0
ENDMDL
