MODEL 1
REMARK minimizedAffinity -4.97879887
REMARK minimizedRMSD -1
REMARK  0 active torsions:
REMARK  status: ('A' for Active; 'I' for Inactive)
ROOT
ATOM      1  C   UNL d   1      -2.178  -0.684  -0.269  0.00  0.00     0.078 C 
ATOM      2  C1  UNL d   1      -1.083  -0.456   0.730  0.00  0.00    -0.077 A 
ATOM      3  C2  UNL d   1      -1.230  -0.851   2.065  0.00  0.00    -0.001 A 
ATOM      4  C3  UNL d   1      -0.207  -0.623   2.986  0.00  0.00     0.003 A 
ATOM      5  C4  UNL d   1       0.971   0.002   2.582  0.00  0.00    -0.005 A 
ATOM      6  C5  UNL d   1       1.126   0.401   1.256  0.00  0.00     0.003 A 
ATOM      7  C6  UNL d   1       0.104   0.174   0.334  0.00  0.00    -0.001 A 
ENDROOT
TORSDOF 0
ENDMDL
