MODEL 1
REMARK minimizedAffinity -5.36964417
REMARK minimizedRMSD -1
REMARK  0 active torsions:
REMARK  status: ('A' for Active; 'I' for Inactive)
ROOT
ATOM      1  C   UNL d   1      -1.173  -1.009   2.117  0.00  0.00     0.078 C 
ATOM      2  C1  UNL d   1      -1.201  -0.429   0.734  0.00  0.00    -0.077 A 
ATOM      3  C2  UNL d   1      -0.023  -0.007   0.105  0.00  0.00    -0.001 A 
ATOM      4  C3  UNL d   1      -0.066   0.540  -1.179  0.00  0.00     0.003 A 
ATOM      5  C4  UNL d   1      -1.284   0.671  -1.844  0.00  0.00    -0.005 A 
ATOM      6  C5  UNL d   1      -2.461   0.256  -1.225  0.00  0.00     0.003 A 
ATOM      7  C6  UNL d   1      -2.420  -0.291   0.059  0.00  0.00    -0.001 A 
ENDROOT
TORSDOF 0
ENDMDL
