MODEL 1
REMARK minimizedAffinity -5.26119757
REMARK minimizedRMSD -1
REMARK  0 active torsions:
REMARK  status: ('A' for Active; 'I' for Inactive)
ROOT
ATOM      1  C   UNL d   1       0.262   0.746  -0.651  0.00  0.00     0.078 C 
ATOM      2  C1  UNL d   1      -0.482   0.336   0.585  0.00  0.00    -0.077 A 
ATOM      3  C2  UNL d   1      -1.879   0.254   0.592  0.00  0.00    -0.001 A 
ATOM      4  C3  UNL d   1      -2.559  -0.120   1.753  0.00  0.00     0.003 A 
ATOM      5  C4  UNL d   1      -1.849  -0.412   2.916  0.00  0.00    -0.005 A 
ATOM      6  C5  UNL d   1      -0.458  -0.331   2.919  0.00  0.00     0.003 A 
ATOM      7  C6  UNL d   1       0.223   0.043   1.759  0.00  0.00    -0.001 A 
ENDROOT
TORSDOF 0
ENDMDL
