MODEL 1
REMARK minimizedAffinity -6.12225294
REMARK minimizedRMSD -1
REMARK  0 active torsions:
REMARK  status: ('A' for Active; 'I' for Inactive)
ROOT
ATOM      1  C   UNL d   1      -0.316  -0.611   3.360  0.00  0.00     0.078 C 
ATOM      2  C1  UNL d   1      -1.115  -0.328   2.123  0.00  0.00    -0.077 A 
ATOM      3  C2  UNL d   1      -0.498  -0.245   0.869  0.00  0.00    -0.001 A 
ATOM      4  C3  UNL d   1      -1.253   0.029  -0.273  0.00  0.00     0.003 A 
ATOM      5  C4  UNL d   1      -2.629   0.223  -0.171  0.00  0.00    -0.005 A 
ATOM      6  C5  UNL d   1      -3.252   0.144   1.073  0.00  0.00     0.003 A 
ATOM      7  C6  UNL d   1      -2.498  -0.129   2.215  0.00  0.00    -0.001 A 
ENDROOT
TORSDOF 0
ENDMDL
