MODEL 1
REMARK minimizedAffinity -5.98820114
REMARK minimizedRMSD -1
REMARK  0 active torsions:
REMARK  status: ('A' for Active; 'I' for Inactive)
ROOT
ATOM      1  C   UNL d   1      -0.614  -0.268  -1.182  0.00  0.00     0.078 C 
ATOM      2  C1  UNL d   1      -1.118  -0.129   0.223  0.00  0.00    -0.077 A 
ATOM      3  C2  UNL d   1      -0.253  -0.260   1.316  0.00  0.00    -0.001 A 
ATOM      4  C3  UNL d   1      -0.738  -0.137   2.619  0.00  0.00     0.003 A 
ATOM      5  C4  UNL d   1      -2.090   0.116   2.842  0.00  0.00    -0.005 A 
ATOM      6  C5  UNL d   1      -2.959   0.246   1.761  0.00  0.00     0.003 A 
ATOM      7  C6  UNL d   1      -2.476   0.124   0.457  0.00  0.00    -0.001 A 
ENDROOT
TORSDOF 0
ENDMDL
