MODEL 1
REMARK minimizedAffinity -5.99400043
REMARK minimizedRMSD -1
REMARK  0 active torsions:
REMARK  status: ('A' for Active; 'I' for Inactive)
ROOT
ATOM      1  C   UNL d   1      -0.869  -0.751   3.359  0.00  0.00     0.078 C 
ATOM      2  C1  UNL d   1      -1.329  -0.350   1.989  0.00  0.00    -0.077 A 
ATOM      3  C2  UNL d   1      -0.427  -0.271   0.921  0.00  0.00    -0.001 A 
ATOM      4  C3  UNL d   1      -0.867   0.113  -0.347  0.00  0.00     0.003 A 
ATOM      5  C4  UNL d   1      -2.209   0.422  -0.558  0.00  0.00    -0.005 A 
ATOM      6  C5  UNL d   1      -3.113   0.349   0.500  0.00  0.00     0.003 A 
ATOM      7  C6  UNL d   1      -2.675  -0.035   1.768  0.00  0.00    -0.001 A 
ENDROOT
TORSDOF 0
ENDMDL
