MODEL 1
REMARK minimizedAffinity -3.91553736
REMARK minimizedRMSD -1
REMARK  0 active torsions:
REMARK  status: ('A' for Active; 'I' for Inactive)
ROOT
ATOM      1  C   UNL d   1      -2.263   0.358  -0.565  0.00  0.00     0.078 C 
ATOM      2  C1  UNL d   1      -1.216  -0.184  -1.493  0.00  0.00    -0.077 A 
ATOM      3  C2  UNL d   1       0.082   0.340  -1.500  0.00  0.00    -0.001 A 
ATOM      4  C3  UNL d   1       1.043  -0.167  -2.376  0.00  0.00     0.003 A 
ATOM      5  C4  UNL d   1       0.716  -1.200  -3.251  0.00  0.00    -0.005 A 
ATOM      6  C5  UNL d   1      -0.574  -1.727  -3.253  0.00  0.00     0.003 A 
ATOM      7  C6  UNL d   1      -1.537  -1.221  -2.378  0.00  0.00    -0.001 A 
ENDROOT
TORSDOF 0
ENDMDL
