MODEL 1
REMARK minimizedAffinity -5.8182478
REMARK minimizedRMSD -1
REMARK  0 active torsions:
REMARK  status: ('A' for Active; 'I' for Inactive)
ROOT
ATOM      1  C   UNL d   1      -3.045  -0.175   1.995  0.00  0.00     0.078 C 
ATOM      2  C1  UNL d   1      -1.588  -0.224   1.647  0.00  0.00    -0.077 A 
ATOM      3  C2  UNL d   1      -0.608  -0.247   2.647  0.00  0.00    -0.001 A 
ATOM      4  C3  UNL d   1       0.746  -0.283   2.309  0.00  0.00     0.003 A 
ATOM      5  C4  UNL d   1       1.132  -0.296   0.970  0.00  0.00    -0.005 A 
ATOM      6  C5  UNL d   1       0.165  -0.271  -0.032  0.00  0.00     0.003 A 
ATOM      7  C6  UNL d   1      -1.190  -0.235   0.304  0.00  0.00    -0.001 A 
ENDROOT
TORSDOF 0
ENDMDL
