MODEL 1
REMARK minimizedAffinity -3.0002327
REMARK minimizedRMSD -1
REMARK  0 active torsions:
REMARK  status: ('A' for Active; 'I' for Inactive)
ROOT
ATOM      1  C   UNL d   1       2.091  -0.095  -3.290  0.00  0.00     0.078 C 
ATOM      2  C1  UNL d   1       0.737  -0.452  -2.754  0.00  0.00    -0.077 A 
ATOM      3  C2  UNL d   1      -0.011  -1.493  -3.318  0.00  0.00    -0.001 A 
ATOM      4  C3  UNL d   1      -1.274  -1.808  -2.815  0.00  0.00     0.003 A 
ATOM      5  C4  UNL d   1      -1.802  -1.085  -1.747  0.00  0.00    -0.005 A 
ATOM      6  C5  UNL d   1      -1.067  -0.046  -1.181  0.00  0.00     0.003 A 
ATOM      7  C6  UNL d   1       0.197   0.271  -1.683  0.00  0.00    -0.001 A 
ENDROOT
TORSDOF 0
ENDMDL
