MODEL 1
REMARK minimizedAffinity -2.83696413
REMARK minimizedRMSD -1
REMARK  0 active torsions:
REMARK  status: ('A' for Active; 'I' for Inactive)
ROOT
ATOM      1  C   UNL d   1      -0.062   0.397   2.922  0.00  0.00     0.078 C 
ATOM      2  C1  UNL d   1       0.048   0.314   1.428  0.00  0.00    -0.077 A 
ATOM      3  C2  UNL d   1      -1.093   0.179   0.628  0.00  0.00    -0.001 A 
ATOM      4  C3  UNL d   1      -0.975   0.093  -0.760  0.00  0.00     0.003 A 
ATOM      5  C4  UNL d   1       0.282   0.141  -1.360  0.00  0.00    -0.005 A 
ATOM      6  C5  UNL d   1       1.423   0.273  -0.571  0.00  0.00     0.003 A 
ATOM      7  C6  UNL d   1       1.307   0.359   0.817  0.00  0.00    -0.001 A 
ENDROOT
TORSDOF 0
ENDMDL
