MODEL 1
REMARK minimizedAffinity -4.53899765
REMARK minimizedRMSD -1
REMARK  0 active torsions:
REMARK  status: ('A' for Active; 'I' for Inactive)
ROOT
ATOM      1  C   UNL d   1      -1.281  -0.021  -0.685  0.00  0.00     0.078 C 
ATOM      2  C1  UNL d   1      -0.518   0.012   0.606  0.00  0.00    -0.077 A 
ATOM      3  C2  UNL d   1       0.878  -0.091   0.621  0.00  0.00    -0.001 A 
ATOM      4  C3  UNL d   1       1.574  -0.069   1.831  0.00  0.00     0.003 A 
ATOM      5  C4  UNL d   1       0.882   0.054   3.034  0.00  0.00    -0.005 A 
ATOM      6  C5  UNL d   1      -0.507   0.155   3.029  0.00  0.00     0.003 A 
ATOM      7  C6  UNL d   1      -1.205   0.133   1.820  0.00  0.00    -0.001 A 
ENDROOT
TORSDOF 0
ENDMDL
