MODEL 1
REMARK minimizedAffinity -4.577281
REMARK minimizedRMSD -1
REMARK  2 active torsions:
REMARK  status: ('A' for Active; 'I' for Inactive)
REMARK    1  A    between atoms: C2'_3  and  C1'_4 
REMARK    2  A    between atoms: C1'_4  and  C1_5 
ROOT
ATOM      1  C1  I4B d   1       0.351   0.258  -0.297  0.00  0.00    -0.075 A 
ATOM      2  C2  I4B d   1      -0.247  -0.280   0.815  0.00  0.00     0.003 A 
ATOM      3  C3  I4B d   1      -1.108   0.510   1.615  0.00  0.00     0.002 A 
ATOM      4  C4  I4B d   1      -1.302   1.838   1.297  0.00  0.00    -0.004 A 
ATOM      5  C5  I4B d   1      -0.714   2.376   0.156  0.00  0.00     0.002 A 
ATOM      6  C6  I4B d   1       0.108   1.578  -0.653  0.00  0.00     0.003 A 
ENDROOT
BRANCH   1   7
ATOM      7  C1' I4B d   1       1.280  -0.595  -1.100  0.00  0.00     0.060 C 
BRANCH   7   8
ATOM      8  C2' I4B d   1       0.548  -1.872  -1.460  0.00  0.00    -0.013 C 
ATOM      9  C4' I4B d   1       0.227  -1.921  -2.930  0.00  0.00     0.013 C 
ATOM     10  C3' I4B d   1       1.411  -3.030  -1.056  0.00  0.00     0.013 C 
ENDBRANCH   7   8
ENDBRANCH   1   7
TORSDOF 2
ENDMDL
