MODEL 1
REMARK minimizedAffinity -3.25657701
REMARK minimizedRMSD -1
REMARK  2 active torsions:
REMARK  status: ('A' for Active; 'I' for Inactive)
REMARK    1  A    between atoms: C2'_3  and  C1'_4 
REMARK    2  A    between atoms: C1'_4  and  C1_5 
ROOT
ATOM      1  C1  I4B d   1      -0.782   1.496  -0.223  0.00  0.00    -0.075 A 
ATOM      2  C2  I4B d   1      -0.056   2.443  -0.902  0.00  0.00     0.003 A 
ATOM      3  C3  I4B d   1      -0.216   3.817  -0.600  0.00  0.00     0.002 A 
ATOM      4  C4  I4B d   1      -1.145   4.201   0.346  0.00  0.00    -0.004 A 
ATOM      5  C5  I4B d   1      -1.863   3.239   1.050  0.00  0.00     0.002 A 
ATOM      6  C6  I4B d   1      -1.673   1.877   0.773  0.00  0.00     0.003 A 
ENDROOT
BRANCH   1   7
ATOM      7  C1' I4B d   1      -0.612   0.056  -0.590  0.00  0.00     0.060 C 
BRANCH   7   8
ATOM      8  C2' I4B d   1       0.741  -0.398  -0.081  0.00  0.00    -0.013 C 
ATOM      9  C4' I4B d   1       0.691  -0.715   1.391  0.00  0.00     0.013 C 
ATOM     10  C3' I4B d   1       1.156  -1.598  -0.879  0.00  0.00     0.013 C 
ENDBRANCH   7   8
ENDBRANCH   1   7
TORSDOF 2
ENDMDL
