MODEL 1
REMARK minimizedAffinity -5.0357337
REMARK minimizedRMSD -1
REMARK  2 active torsions:
REMARK  status: ('A' for Active; 'I' for Inactive)
REMARK    1  A    between atoms: C2'_3  and  C1'_4 
REMARK    2  A    between atoms: C1'_4  and  C1_5 
ROOT
ATOM      1  C1  I4B d   1       0.205  -0.069  -0.241  0.00  0.00    -0.075 A 
ATOM      2  C2  I4B d   1      -0.070  -0.455   1.047  0.00  0.00     0.003 A 
ATOM      3  C3  I4B d   1      -1.015   0.262   1.820  0.00  0.00     0.002 A 
ATOM      4  C4  I4B d   1      -1.620   1.382   1.286  0.00  0.00    -0.004 A 
ATOM      5  C5  I4B d   1      -1.357   1.758  -0.028  0.00  0.00     0.002 A 
ATOM      6  C6  I4B d   1      -0.448   1.021  -0.801  0.00  0.00     0.003 A 
ENDROOT
BRANCH   1   7
ATOM      7  C1' I4B d   1       1.233  -0.830  -1.017  0.00  0.00     0.060 C 
BRANCH   7   8
ATOM      8  C2' I4B d   1       0.703  -2.230  -1.248  0.00  0.00    -0.013 C 
ATOM      9  C4' I4B d   1       0.251  -2.414  -2.672  0.00  0.00     0.013 C 
ATOM     10  C3' I4B d   1       1.790  -3.201  -0.894  0.00  0.00     0.013 C 
ENDBRANCH   7   8
ENDBRANCH   1   7
TORSDOF 2
ENDMDL
