MODEL 1
REMARK minimizedAffinity -4.63505459
REMARK minimizedRMSD -1
REMARK  2 active torsions:
REMARK  status: ('A' for Active; 'I' for Inactive)
REMARK    1  A    between atoms: C2'_3  and  C1'_4 
REMARK    2  A    between atoms: C1'_4  and  C1_5 
ROOT
ATOM      1  C1  I4B d   1       0.294   0.060  -0.643  0.00  0.00    -0.075 A 
ATOM      2  C2  I4B d   1      -0.141  -0.533   0.516  0.00  0.00     0.003 A 
ATOM      3  C3  I4B d   1      -1.044   0.146   1.369  0.00  0.00     0.002 A 
ATOM      4  C4  I4B d   1      -1.445   1.428   1.052  0.00  0.00    -0.004 A 
ATOM      5  C5  I4B d   1      -1.021   2.019  -0.135  0.00  0.00     0.002 A 
ATOM      6  C6  I4B d   1      -0.156   1.326  -0.994  0.00  0.00     0.003 A 
ENDROOT
BRANCH   1   7
ATOM      7  C1' I4B d   1       1.273  -0.673  -1.504  0.00  0.00     0.060 C 
BRANCH   7   8
ATOM      8  C2' I4B d   1       0.734  -2.069  -1.741  0.00  0.00    -0.013 C 
ATOM      9  C4' I4B d   1       0.226  -2.225  -3.150  0.00  0.00     0.013 C 
ATOM     10  C3' I4B d   1       1.833  -3.046  -1.450  0.00  0.00     0.013 C 
ENDBRANCH   7   8
ENDBRANCH   1   7
TORSDOF 2
ENDMDL
