MODEL 1
REMARK minimizedAffinity -1.81605244
REMARK minimizedRMSD -1
REMARK  2 active torsions:
REMARK  status: ('A' for Active; 'I' for Inactive)
REMARK    1  A    between atoms: C2'_3  and  C1'_4 
REMARK    2  A    between atoms: C1'_4  and  C1_5 
ROOT
ATOM      1  C1  I4B d   1      -0.272  -0.302   0.319  0.00  0.00    -0.075 A 
ATOM      2  C2  I4B d   1       0.535  -0.947  -0.585  0.00  0.00     0.003 A 
ATOM      3  C3  I4B d   1       1.505  -1.877  -0.138  0.00  0.00     0.002 A 
ATOM      4  C4  I4B d   1       1.667  -2.092   1.215  0.00  0.00    -0.004 A 
ATOM      5  C5  I4B d   1       0.833  -1.455   2.129  0.00  0.00     0.002 A 
ATOM      6  C6  I4B d   1      -0.151  -0.563   1.678  0.00  0.00     0.003 A 
ENDROOT
BRANCH   1   7
ATOM      7  C1' I4B d   1      -1.264   0.698  -0.185  0.00  0.00     0.060 C 
BRANCH   7   8
ATOM      8  C2' I4B d   1      -0.873   2.057   0.359  0.00  0.00    -0.013 C 
ATOM      9  C4' I4B d   1      -0.374   2.961  -0.738  0.00  0.00     0.013 C 
ATOM     10  C3' I4B d   1      -2.073   2.645   1.041  0.00  0.00     0.013 C 
ENDBRANCH   7   8
ENDBRANCH   1   7
TORSDOF 2
ENDMDL
