MODEL 1
REMARK minimizedAffinity -3.14215517
REMARK minimizedRMSD -1
REMARK  2 active torsions:
REMARK  status: ('A' for Active; 'I' for Inactive)
REMARK    1  A    between atoms: C2'_3  and  C1'_4 
REMARK    2  A    between atoms: C1'_4  and  C1_5 
ROOT
ATOM      1  C1  I4B d   1       0.518  -0.750  -0.325  0.00  0.00    -0.075 A 
ATOM      2  C2  I4B d   1      -0.015  -0.810   0.938  0.00  0.00     0.003 A 
ATOM      3  C3  I4B d   1      -0.623   0.334   1.511  0.00  0.00     0.002 A 
ATOM      4  C4  I4B d   1      -0.630   1.522   0.809  0.00  0.00    -0.004 A 
ATOM      5  C5  I4B d   1      -0.109   1.575  -0.480  0.00  0.00     0.002 A 
ATOM      6  C6  I4B d   1       0.457   0.429  -1.056  0.00  0.00     0.003 A 
ENDROOT
BRANCH   1   7
ATOM      7  C1' I4B d   1       1.182  -1.968  -0.886  0.00  0.00     0.060 C 
BRANCH   7   8
ATOM      8  C2' I4B d   1       0.201  -2.644  -1.822  0.00  0.00    -0.013 C 
ATOM      9  C4' I4B d   1       0.692  -2.607  -3.245  0.00  0.00     0.013 C 
ATOM     10  C3' I4B d   1       0.010  -4.055  -1.351  0.00  0.00     0.013 C 
ENDBRANCH   7   8
ENDBRANCH   1   7
TORSDOF 2
ENDMDL
