MODEL 1
REMARK minimizedAffinity -2.58843231
REMARK minimizedRMSD -1
REMARK  2 active torsions:
REMARK  status: ('A' for Active; 'I' for Inactive)
REMARK    1  A    between atoms: C2'_3  and  C1'_4 
REMARK    2  A    between atoms: C1'_4  and  C1_5 
ROOT
ATOM      1  C1  I4B d   1       0.645  -1.205  -1.655  0.00  0.00    -0.075 A 
ATOM      2  C2  I4B d   1       1.451  -1.997  -0.876  0.00  0.00     0.003 A 
ATOM      3  C3  I4B d   1       1.493  -3.396  -1.085  0.00  0.00     0.002 A 
ATOM      4  C4  I4B d   1       0.680  -3.965  -2.044  0.00  0.00    -0.004 A 
ATOM      5  C5  I4B d   1      -0.120  -3.159  -2.849  0.00  0.00     0.002 A 
ATOM      6  C6  I4B d   1      -0.129  -1.769  -2.661  0.00  0.00     0.003 A 
ENDROOT
BRANCH   1   7
ATOM      7  C1' I4B d   1       0.600   0.265  -1.385  0.00  0.00     0.060 C 
BRANCH   7   8
ATOM      8  C2' I4B d   1      -0.734   0.581  -0.739  0.00  0.00    -0.013 C 
ATOM      9  C4' I4B d   1      -0.842  -0.050   0.624  0.00  0.00     0.013 C 
ATOM     10  C3' I4B d   1      -0.867   2.072  -0.658  0.00  0.00     0.013 C 
ENDBRANCH   7   8
ENDBRANCH   1   7
TORSDOF 2
ENDMDL
