MODEL 1
REMARK minimizedAffinity -4.54875898
REMARK minimizedRMSD -1
REMARK  2 active torsions:
REMARK  status: ('A' for Active; 'I' for Inactive)
REMARK    1  A    between atoms: C2'_3  and  C1'_4 
REMARK    2  A    between atoms: C1'_4  and  C1_5 
ROOT
ATOM      1  C1  I4B d   1      -0.154   0.559  -0.295  0.00  0.00    -0.075 A 
ATOM      2  C2  I4B d   1      -0.193   0.128   1.008  0.00  0.00     0.003 A 
ATOM      3  C3  I4B d   1      -1.012   0.792   1.954  0.00  0.00     0.002 A 
ATOM      4  C4  I4B d   1      -1.730   1.905   1.569  0.00  0.00    -0.004 A 
ATOM      5  C5  I4B d   1      -1.707   2.327   0.242  0.00  0.00     0.002 A 
ATOM      6  C6  I4B d   1      -0.924   1.643  -0.699  0.00  0.00     0.003 A 
ENDROOT
BRANCH   1   7
ATOM      7  C1' I4B d   1       0.746  -0.144  -1.260  0.00  0.00     0.060 C 
BRANCH   7   8
ATOM      8  C2' I4B d   1       0.402  -1.620  -1.228  0.00  0.00    -0.013 C 
ATOM      9  C4' I4B d   1      -0.110  -2.089  -2.564  0.00  0.00     0.013 C 
ATOM     10  C3' I4B d   1       1.635  -2.373  -0.826  0.00  0.00     0.013 C 
ENDBRANCH   7   8
ENDBRANCH   1   7
TORSDOF 2
ENDMDL
