MODEL 1
REMARK minimizedAffinity 1.06198633
REMARK minimizedRMSD -1
REMARK  2 active torsions:
REMARK  status: ('A' for Active; 'I' for Inactive)
REMARK    1  A    between atoms: C2'_3  and  C1'_4 
REMARK    2  A    between atoms: C1'_4  and  C1_5 
ROOT
ATOM      1  C1  I4B d   1       0.242  -1.688  -1.079  0.00  0.00    -0.075 A 
ATOM      2  C2  I4B d   1       1.021  -2.783  -0.799  0.00  0.00     0.003 A 
ATOM      3  C3  I4B d   1       1.044  -3.886  -1.687  0.00  0.00     0.002 A 
ATOM      4  C4  I4B d   1       0.240  -3.873  -2.808  0.00  0.00    -0.004 A 
ATOM      5  C5  I4B d   1      -0.531  -2.753  -3.102  0.00  0.00     0.002 A 
ATOM      6  C6  I4B d   1      -0.521  -1.648  -2.238  0.00  0.00     0.003 A 
ENDROOT
BRANCH   1   7
ATOM      7  C1' I4B d   1       0.216  -0.554  -0.103  0.00  0.00     0.060 C 
BRANCH   7   8
ATOM      8  C2' I4B d   1      -0.104   0.713  -0.869  0.00  0.00    -0.013 C 
ATOM      9  C4' I4B d   1      -0.883   1.682  -0.019  0.00  0.00     0.013 C 
ATOM     10  C3' I4B d   1       1.190   1.316  -1.328  0.00  0.00     0.013 C 
ENDBRANCH   7   8
ENDBRANCH   1   7
TORSDOF 2
ENDMDL
