MODEL 1
REMARK minimizedAffinity 0.190398023
REMARK minimizedRMSD -1
REMARK  2 active torsions:
REMARK  status: ('A' for Active; 'I' for Inactive)
REMARK    1  A    between atoms: C2'_3  and  C1'_4 
REMARK    2  A    between atoms: C1'_4  and  C1_5 
ROOT
ATOM      1  C1  I4B d   1      -0.066   1.190  -0.818  0.00  0.00    -0.075 A 
ATOM      2  C2  I4B d   1      -1.417   1.012  -0.654  0.00  0.00     0.003 A 
ATOM      3  C3  I4B d   1      -2.301   2.113  -0.764  0.00  0.00     0.002 A 
ATOM      4  C4  I4B d   1      -1.789   3.375  -0.987  0.00  0.00    -0.004 A 
ATOM      5  C5  I4B d   1      -0.421   3.551  -1.175  0.00  0.00     0.002 A 
ATOM      6  C6  I4B d   1       0.445   2.450  -1.103  0.00  0.00     0.003 A 
ENDROOT
BRANCH   1   7
ATOM      7  C1' I4B d   1       0.841   0.011  -0.663  0.00  0.00     0.060 C 
BRANCH   7   8
ATOM      8  C2' I4B d   1       0.044  -1.110  -0.026  0.00  0.00    -0.013 C 
ATOM      9  C4' I4B d   1       0.151  -2.379  -0.828  0.00  0.00     0.013 C 
ATOM     10  C3' I4B d   1       0.557  -1.306   1.370  0.00  0.00     0.013 C 
ENDBRANCH   7   8
ENDBRANCH   1   7
TORSDOF 2
ENDMDL
