MODEL 1
REMARK minimizedAffinity -1.42685902
REMARK minimizedRMSD -1
REMARK  2 active torsions:
REMARK  status: ('A' for Active; 'I' for Inactive)
REMARK    1  A    between atoms: C2'_3  and  C1'_4 
REMARK    2  A    between atoms: C1'_4  and  C1_5 
ROOT
ATOM      1  C1  I4B d   1       0.059   0.068  -0.270  0.00  0.00    -0.075 A 
ATOM      2  C2  I4B d   1       0.921   0.913  -0.925  0.00  0.00     0.003 A 
ATOM      3  C3  I4B d   1       0.480   2.188  -1.355  0.00  0.00     0.002 A 
ATOM      4  C4  I4B d   1      -0.835   2.555  -1.157  0.00  0.00    -0.004 A 
ATOM      5  C5  I4B d   1      -1.701   1.707  -0.473  0.00  0.00     0.002 A 
ATOM      6  C6  I4B d   1      -1.248   0.461  -0.015  0.00  0.00     0.003 A 
ENDROOT
BRANCH   1   7
ATOM      7  C1' I4B d   1       0.549  -1.284   0.141  0.00  0.00     0.060 C 
BRANCH   7   8
ATOM      8  C2' I4B d   1      -0.231  -2.321  -0.642  0.00  0.00    -0.013 C 
ATOM      9  C4' I4B d   1       0.693  -3.275  -1.353  0.00  0.00     0.013 C 
ATOM     10  C3' I4B d   1      -1.127  -3.047   0.316  0.00  0.00     0.013 C 
ENDBRANCH   7   8
ENDBRANCH   1   7
TORSDOF 2
ENDMDL
