MODEL 1
REMARK minimizedAffinity -2.20266628
REMARK minimizedRMSD -1
REMARK  0 active torsions:
REMARK  status: ('A' for Active; 'I' for Inactive)
ROOT
ATOM      1  C   UNL d   1       0.082   0.027   1.154  0.00  0.00     0.023 A 
ATOM      2  C1  UNL d   1       1.028  -0.770   0.510  0.00  0.00     0.003 A 
ATOM      3  C2  UNL d   1       1.288  -0.585  -0.850  0.00  0.00     0.048 A 
ATOM      4  C3  UNL d   1       0.600   0.399  -1.558  0.00  0.00     0.023 A 
ATOM      5  C4  UNL d   1      -0.347   1.199  -0.917  0.00  0.00     0.048 A 
ATOM      6  C5  UNL d   1      -0.605   1.010   0.442  0.00  0.00     0.003 A 
ATOM      7  I   UNL d   1       0.986   0.676  -3.581  0.00  0.00    -0.146 I 
ENDROOT
TORSDOF 0
ENDMDL
