MODEL 1
REMARK minimizedAffinity -1.8450675
REMARK minimizedRMSD -1
REMARK  0 active torsions:
REMARK  status: ('A' for Active; 'I' for Inactive)
ROOT
ATOM      1  C   UNL d   1      -1.524   0.426   2.233  0.00  0.00     0.023 A 
ATOM      2  C1  UNL d   1      -0.301  -0.199   1.988  0.00  0.00     0.003 A 
ATOM      3  C2  UNL d   1       0.230  -0.217   0.696  0.00  0.00     0.048 A 
ATOM      4  C3  UNL d   1      -0.468   0.394  -0.346  0.00  0.00     0.023 A 
ATOM      5  C4  UNL d   1      -1.692   1.021  -0.105  0.00  0.00     0.048 A 
ATOM      6  C5  UNL d   1      -2.218   1.035   1.188  0.00  0.00     0.003 A 
ATOM      7  I   UNL d   1       0.319   0.369  -2.269  0.00  0.00    -0.146 I 
ENDROOT
TORSDOF 0
ENDMDL
