MODEL 1
REMARK minimizedAffinity -1.79357588
REMARK minimizedRMSD -1
REMARK  0 active torsions:
REMARK  status: ('A' for Active; 'I' for Inactive)
ROOT
ATOM      1  C   UNL d   1       1.178   1.276  -4.495  0.00  0.00     0.023 A 
ATOM      2  C1  UNL d   1      -0.108   0.905  -4.102  0.00  0.00     0.003 A 
ATOM      3  C2  UNL d   1      -0.313   0.298  -2.861  0.00  0.00     0.048 A 
ATOM      4  C3  UNL d   1       0.772   0.068  -2.017  0.00  0.00     0.023 A 
ATOM      5  C4  UNL d   1       2.061   0.439  -2.405  0.00  0.00     0.048 A 
ATOM      6  C5  UNL d   1       2.261   1.044  -3.647  0.00  0.00     0.003 A 
ATOM      7  I   UNL d   1       0.470  -0.834  -0.169  0.00  0.00    -0.146 I 
ENDROOT
TORSDOF 0
ENDMDL
