MODEL 1
REMARK minimizedAffinity 5.46143341
REMARK minimizedRMSD -1
REMARK  0 active torsions:
REMARK  status: ('A' for Active; 'I' for Inactive)
ROOT
ATOM      1  C   UNL d   1      -0.878   1.494   2.686  0.00  0.00     0.023 A 
ATOM      2  C1  UNL d   1      -1.281   0.184   2.427  0.00  0.00     0.003 A 
ATOM      3  C2  UNL d   1      -2.319  -0.064   1.527  0.00  0.00     0.048 A 
ATOM      4  C3  UNL d   1      -2.949   1.003   0.888  0.00  0.00     0.023 A 
ATOM      5  C4  UNL d   1      -2.549   2.316   1.143  0.00  0.00     0.048 A 
ATOM      6  C5  UNL d   1      -1.511   2.559   2.045  0.00  0.00     0.003 A 
ATOM      7  I   UNL d   1      -4.494   0.637  -0.453  0.00  0.00    -0.146 I 
ENDROOT
TORSDOF 0
ENDMDL
