MODEL 1
REMARK minimizedAffinity -5.78046179
REMARK minimizedRMSD -1
REMARK  0 active torsions:
REMARK  status: ('A' for Active; 'I' for Inactive)
ROOT
ATOM      1  N1  IND d   1       0.423  -0.134  -0.744  0.00  0.00    -0.196 N 
ATOM      2  C2  IND d   1      -0.878   0.236  -0.545  0.00  0.00     0.054 A 
ATOM      3  C3  IND d   1      -1.222   0.070   0.752  0.00  0.00    -0.031 A 
ATOM      4  C4  IND d   1       0.221  -0.698   2.741  0.00  0.00     0.051 A 
ATOM      5  C5  IND d   1       1.463  -1.180   3.048  0.00  0.00    -0.031 A 
ATOM      6  C6  IND d   1       2.442  -1.338   2.088  0.00  0.00     0.015 A 
ATOM      7  C7  IND d   1       2.218  -1.008   0.782  0.00  0.00    -0.016 A 
ATOM      8  C8  IND d   1       0.956  -0.526   0.465  0.00  0.00    -0.047 A 
ATOM      9  C9  IND d   1      -0.055  -0.403   1.426  0.00  0.00    -0.096 A 
ATOM     10  HN1 IND d   1       0.838  -0.123  -1.496  0.00  0.00     0.298 HD
ENDROOT
TORSDOF 0
ENDMDL
