MODEL 1
REMARK minimizedAffinity -6.26728106
REMARK minimizedRMSD -1
REMARK  0 active torsions:
REMARK  status: ('A' for Active; 'I' for Inactive)
ROOT
ATOM      1  N1  IND d   1      -0.567  -0.001   0.140  0.00  0.00    -0.196 N 
ATOM      2  C2  IND d   1      -0.124   0.031  -1.153  0.00  0.00     0.054 A 
ATOM      3  C3  IND d   1       1.162  -0.380  -1.220  0.00  0.00    -0.031 A 
ATOM      4  C4  IND d   1       2.702  -1.247   0.652  0.00  0.00     0.051 A 
ATOM      5  C5  IND d   1       2.756  -1.426   2.006  0.00  0.00    -0.031 A 
ATOM      6  C6  IND d   1       1.682  -1.135   2.823  0.00  0.00     0.015 A 
ATOM      7  C7  IND d   1       0.506  -0.664   2.313  0.00  0.00    -0.016 A 
ATOM      8  C8  IND d   1       0.450  -0.474   0.940  0.00  0.00    -0.047 A 
ATOM      9  C9  IND d   1       1.550  -0.727   0.110  0.00  0.00    -0.096 A 
ATOM     10  HN1 IND d   1      -1.349   0.236   0.408  0.00  0.00     0.298 HD
ENDROOT
TORSDOF 0
ENDMDL
