MODEL 1
REMARK minimizedAffinity -5.59401655
REMARK minimizedRMSD -1
REMARK  0 active torsions:
REMARK  status: ('A' for Active; 'I' for Inactive)
ROOT
ATOM      1  N1  IND d   1       0.168  -0.131  -0.769  0.00  0.00    -0.196 N 
ATOM      2  C2  IND d   1      -1.028   0.373  -0.338  0.00  0.00     0.054 A 
ATOM      3  C3  IND d   1      -1.190   0.134   0.983  0.00  0.00    -0.031 A 
ATOM      4  C4  IND d   1       0.423  -0.975   2.654  0.00  0.00     0.051 A 
ATOM      5  C5  IND d   1       1.622  -1.628   2.724  0.00  0.00    -0.031 A 
ATOM      6  C6  IND d   1       2.414  -1.816   1.610  0.00  0.00     0.015 A 
ATOM      7  C7  IND d   1       2.041  -1.347   0.382  0.00  0.00    -0.016 A 
ATOM      8  C8  IND d   1       0.821  -0.690   0.307  0.00  0.00    -0.047 A 
ATOM      9  C9  IND d   1      -0.007  -0.533   1.426  0.00  0.00    -0.096 A 
ATOM     10  HN1 IND d   1       0.462  -0.104  -1.577  0.00  0.00     0.298 HD
ENDROOT
TORSDOF 0
ENDMDL
