MODEL 1
REMARK minimizedAffinity -5.0960741
REMARK minimizedRMSD -1
REMARK  0 active torsions:
REMARK  status: ('A' for Active; 'I' for Inactive)
ROOT
ATOM      1  N1  IND d   1       0.648  -0.588  -0.965  0.00  0.00    -0.196 N 
ATOM      2  C2  IND d   1      -0.365   0.272  -0.646  0.00  0.00     0.054 A 
ATOM      3  C3  IND d   1      -0.444   0.428   0.695  0.00  0.00    -0.031 A 
ATOM      4  C4  IND d   1       1.051  -0.552   2.547  0.00  0.00     0.051 A 
ATOM      5  C5  IND d   1       2.085  -1.423   2.748  0.00  0.00    -0.031 A 
ATOM      6  C6  IND d   1       2.707  -2.071   1.701  0.00  0.00     0.015 A 
ATOM      7  C7  IND d   1       2.324  -1.863   0.406  0.00  0.00    -0.016 A 
ATOM      8  C8  IND d   1       1.270  -0.984   0.198  0.00  0.00    -0.047 A 
ATOM      9  C9  IND d   1       0.607  -0.356   1.260  0.00  0.00    -0.096 A 
ATOM     10  HN1 IND d   1       0.861  -0.840  -1.760  0.00  0.00     0.298 HD
ENDROOT
TORSDOF 0
ENDMDL
