MODEL 1
REMARK minimizedAffinity -4.41540909
REMARK minimizedRMSD -1
REMARK  0 active torsions:
REMARK  status: ('A' for Active; 'I' for Inactive)
ROOT
ATOM      1  N1  IND d   1       1.887  -1.120   1.935  0.00  0.00    -0.196 N 
ATOM      2  C2  IND d   1       1.131  -1.291   3.062  0.00  0.00     0.054 A 
ATOM      3  C3  IND d   1      -0.170  -1.036   2.798  0.00  0.00    -0.031 A 
ATOM      4  C4  IND d   1      -1.298  -0.424   0.566  0.00  0.00     0.051 A 
ATOM      5  C5  IND d   1      -1.015  -0.118  -0.735  0.00  0.00    -0.031 A 
ATOM      6  C6  IND d   1       0.276  -0.134  -1.224  0.00  0.00     0.015 A 
ATOM      7  C7  IND d   1       1.335  -0.469  -0.428  0.00  0.00    -0.016 A 
ATOM      8  C8  IND d   1       1.052  -0.773   0.896  0.00  0.00    -0.047 A 
ATOM      9  C9  IND d   1      -0.251  -0.717   1.408  0.00  0.00    -0.096 A 
ATOM     10  HN1 IND d   1       2.740  -1.215   1.884  0.00  0.00     0.298 HD
ENDROOT
TORSDOF 0
ENDMDL
