MODEL 1
REMARK minimizedAffinity -5.30302858
REMARK minimizedRMSD -1
REMARK  0 active torsions:
REMARK  status: ('A' for Active; 'I' for Inactive)
ROOT
ATOM      1  N1  IND d   1       1.937  -1.627  -0.231  0.00  0.00    -0.196 N 
ATOM      2  C2  IND d   1       2.720  -2.140   0.765  0.00  0.00     0.054 A 
ATOM      3  C3  IND d   1       2.205  -1.830   1.976  0.00  0.00    -0.031 A 
ATOM      4  C4  IND d   1       0.031  -0.578   2.557  0.00  0.00     0.051 A 
ATOM      5  C5  IND d   1      -1.000   0.112   1.984  0.00  0.00    -0.031 A 
ATOM      6  C6  IND d   1      -1.108   0.259   0.616  0.00  0.00     0.015 A 
ATOM      7  C7  IND d   1      -0.192  -0.291  -0.234  0.00  0.00    -0.016 A 
ATOM      8  C8  IND d   1       0.860  -0.987   0.344  0.00  0.00    -0.047 A 
ATOM      9  C9  IND d   1       0.999  -1.103   1.733  0.00  0.00    -0.096 A 
ATOM     10  HN1 IND d   1       2.091  -1.692  -1.074  0.00  0.00     0.298 HD
ENDROOT
TORSDOF 0
ENDMDL
