MODEL 1
REMARK minimizedAffinity -4.89078331
REMARK minimizedRMSD -1
REMARK  0 active torsions:
REMARK  status: ('A' for Active; 'I' for Inactive)
ROOT
ATOM      1  N1  IND d   1       2.065  -1.580  -0.038  0.00  0.00    -0.196 N 
ATOM      2  C2  IND d   1       2.778  -2.322   0.862  0.00  0.00     0.054 A 
ATOM      3  C3  IND d   1       2.254  -2.189   2.101  0.00  0.00    -0.031 A 
ATOM      4  C4  IND d   1       0.169  -0.884   2.864  0.00  0.00     0.051 A 
ATOM      5  C5  IND d   1      -0.788  -0.022   2.408  0.00  0.00    -0.031 A 
ATOM      6  C6  IND d   1      -0.846   0.370   1.086  0.00  0.00     0.015 A 
ATOM      7  C7  IND d   1       0.048  -0.096   0.165  0.00  0.00    -0.016 A 
ATOM      8  C8  IND d   1       1.026  -0.966   0.625  0.00  0.00    -0.047 A 
ATOM      9  C9  IND d   1       1.116  -1.334   1.974  0.00  0.00    -0.096 A 
ATOM     10  HN1 IND d   1       2.238  -1.509  -0.877  0.00  0.00     0.298 HD
ENDROOT
TORSDOF 0
ENDMDL
