MODEL 1
REMARK minimizedAffinity -1.04702079
REMARK minimizedRMSD -1
REMARK  0 active torsions:
REMARK  status: ('A' for Active; 'I' for Inactive)
ROOT
ATOM      1  O1  BZF d   1      -2.245   3.988  -3.991  0.00  0.00    -0.204 OA
ATOM      2  C2  BZF d   1      -1.681   4.885  -4.877  0.00  0.00     0.174 A 
ATOM      3  C3  BZF d   1      -2.570   5.246  -5.825  0.00  0.00    -0.012 A 
ATOM      4  C3A BZF d   1      -3.793   4.600  -5.458  0.00  0.00    -0.107 A 
ATOM      5  C4  BZF d   1      -5.046   4.585  -6.000  0.00  0.00     0.055 A 
ATOM      6  C5  BZF d   1      -5.999   3.794  -5.440  0.00  0.00    -0.016 A 
ATOM      7  C6  BZF d   1      -5.732   3.003  -4.341  0.00  0.00     0.022 A 
ATOM      8  C7  BZF d   1      -4.506   2.989  -3.765  0.00  0.00     0.029 A 
ATOM      9  C7A BZF d   1      -3.550   3.811  -4.309  0.00  0.00     0.058 A 
ENDROOT
TORSDOF 0
ENDMDL
