MODEL 1
REMARK minimizedAffinity 3.95330667
REMARK minimizedRMSD -1
REMARK  0 active torsions:
REMARK  status: ('A' for Active; 'I' for Inactive)
ROOT
ATOM      1  O1  BZF d   1       1.033   2.331   3.876  0.00  0.00    -0.204 OA
ATOM      2  C2  BZF d   1       1.178   3.702   3.802  0.00  0.00     0.174 A 
ATOM      3  C3  BZF d   1       0.955   4.140   2.545  0.00  0.00    -0.012 A 
ATOM      4  C3A BZF d   1       0.562   2.979   1.807  0.00  0.00    -0.107 A 
ATOM      5  C4  BZF d   1       0.195   2.773   0.508  0.00  0.00     0.055 A 
ATOM      6  C5  BZF d   1      -0.058   1.506   0.086  0.00  0.00    -0.016 A 
ATOM      7  C6  BZF d   1       0.051   0.423   0.934  0.00  0.00     0.022 A 
ATOM      8  C7  BZF d   1       0.407   0.579   2.233  0.00  0.00     0.029 A 
ATOM      9  C7A BZF d   1       0.631   1.861   2.670  0.00  0.00     0.058 A 
ENDROOT
TORSDOF 0
ENDMDL
