MODEL 1
REMARK minimizedAffinity -0.707356632
REMARK minimizedRMSD -1
REMARK  0 active torsions:
REMARK  status: ('A' for Active; 'I' for Inactive)
ROOT
ATOM      1  O1  BZF d   1      -2.691   5.126  -5.994  0.00  0.00    -0.204 OA
ATOM      2  C2  BZF d   1      -1.602   4.667  -5.279  0.00  0.00     0.174 A 
ATOM      3  C3  BZF d   1      -1.977   3.733  -4.381  0.00  0.00    -0.012 A 
ATOM      4  C3A BZF d   1      -3.375   3.533  -4.609  0.00  0.00    -0.107 A 
ATOM      5  C4  BZF d   1      -4.312   2.717  -4.041  0.00  0.00     0.055 A 
ATOM      6  C5  BZF d   1      -5.606   2.817  -4.442  0.00  0.00    -0.016 A 
ATOM      7  C6  BZF d   1      -6.000   3.725  -5.404  0.00  0.00     0.022 A 
ATOM      8  C7  BZF d   1      -5.106   4.551  -6.000  0.00  0.00     0.029 A 
ATOM      9  C7A BZF d   1      -3.792   4.430  -5.620  0.00  0.00     0.058 A 
ENDROOT
TORSDOF 0
ENDMDL
