MODEL 1
REMARK minimizedAffinity 1.24294817
REMARK minimizedRMSD -1
REMARK  0 active torsions:
REMARK  status: ('A' for Active; 'I' for Inactive)
ROOT
ATOM      1  O1  BZF d   1      -2.093   3.553  -4.519  0.00  0.00    -0.204 OA
ATOM      2  C2  BZF d   1      -1.661   4.633  -5.264  0.00  0.00     0.174 A 
ATOM      3  C3  BZF d   1      -2.671   5.141  -6.000  0.00  0.00    -0.012 A 
ATOM      4  C3A BZF d   1      -3.827   4.385  -5.625  0.00  0.00    -0.107 A 
ATOM      5  C4  BZF d   1      -5.139   4.428  -6.000  0.00  0.00     0.055 A 
ATOM      6  C5  BZF d   1      -6.000   3.502  -5.501  0.00  0.00    -0.016 A 
ATOM      7  C6  BZF d   1      -5.581   2.517  -4.631  0.00  0.00     0.022 A 
ATOM      8  C7  BZF d   1      -4.290   2.436  -4.226  0.00  0.00     0.029 A 
ATOM      9  C7A BZF d   1      -3.425   3.391  -4.703  0.00  0.00     0.058 A 
ENDROOT
TORSDOF 0
ENDMDL
