MODEL 1
REMARK minimizedAffinity 4.84927559
REMARK minimizedRMSD -1
REMARK  0 active torsions:
REMARK  status: ('A' for Active; 'I' for Inactive)
ROOT
ATOM      1  O1  BZF d   1      -4.718   1.750  -1.022  0.00  0.00    -0.204 OA
ATOM      2  C2  BZF d   1      -5.343   0.537  -0.806  0.00  0.00     0.174 A 
ATOM      3  C3  BZF d   1      -5.985   0.125  -1.919  0.00  0.00    -0.012 A 
ATOM      4  C3A BZF d   1      -5.670   1.100  -2.918  0.00  0.00    -0.107 A 
ATOM      5  C4  BZF d   1      -6.000   1.233  -4.236  0.00  0.00     0.055 A 
ATOM      6  C5  BZF d   1      -5.589   2.339  -4.911  0.00  0.00    -0.016 A 
ATOM      7  C6  BZF d   1      -4.853   3.332  -4.299  0.00  0.00     0.022 A 
ATOM      8  C7  BZF d   1      -4.497   3.241  -2.994  0.00  0.00     0.029 A 
ATOM      9  C7A BZF d   1      -4.882   2.109  -2.318  0.00  0.00     0.058 A 
ENDROOT
TORSDOF 0
ENDMDL
