MODEL 1
REMARK minimizedAffinity 3.34619784
REMARK minimizedRMSD -1
REMARK  0 active torsions:
REMARK  status: ('A' for Active; 'I' for Inactive)
ROOT
ATOM      1  O1  BZF d   1       0.059   2.166   2.645  0.00  0.00    -0.204 OA
ATOM      2  C2  BZF d   1       0.182   3.246   1.792  0.00  0.00     0.174 A 
ATOM      3  C3  BZF d   1       0.617   2.851   0.579  0.00  0.00    -0.012 A 
ATOM      4  C3A BZF d   1       0.688   1.423   0.651  0.00  0.00    -0.107 A 
ATOM      5  C4  BZF d   1       1.039   0.454  -0.244  0.00  0.00     0.055 A 
ATOM      6  C5  BZF d   1       1.072  -0.842   0.164  0.00  0.00    -0.016 A 
ATOM      7  C6  BZF d   1       0.766  -1.203   1.460  0.00  0.00     0.022 A 
ATOM      8  C7  BZF d   1       0.407  -0.277   2.383  0.00  0.00     0.029 A 
ATOM      9  C7A BZF d   1       0.341   1.029   1.964  0.00  0.00     0.058 A 
ENDROOT
TORSDOF 0
ENDMDL
