MODEL 1
REMARK minimizedAffinity 4.46570206
REMARK minimizedRMSD -1
REMARK  0 active torsions:
REMARK  status: ('A' for Active; 'I' for Inactive)
ROOT
ATOM      1  O1  BZF d   1      -3.421   5.208  -4.860  0.00  0.00    -0.204 OA
ATOM      2  C2  BZF d   1      -2.525   4.939  -3.844  0.00  0.00     0.174 A 
ATOM      3  C3  BZF d   1      -2.694   3.686  -3.375  0.00  0.00    -0.012 A 
ATOM      4  C3A BZF d   1      -3.701   3.105  -4.209  0.00  0.00    -0.107 A 
ATOM      5  C4  BZF d   1      -4.290   1.874  -4.251  0.00  0.00     0.055 A 
ATOM      6  C5  BZF d   1      -5.293   1.651  -5.141  0.00  0.00    -0.016 A 
ATOM      7  C6  BZF d   1      -5.734   2.637  -6.000  0.00  0.00     0.022 A 
ATOM      8  C7  BZF d   1      -5.177   3.873  -5.999  0.00  0.00     0.029 A 
ATOM      9  C7A BZF d   1      -4.141   4.091  -5.123  0.00  0.00     0.058 A 
ENDROOT
TORSDOF 0
ENDMDL
