MODEL 1
REMARK minimizedAffinity 5.10814333
REMARK minimizedRMSD -1
REMARK  0 active torsions:
REMARK  status: ('A' for Active; 'I' for Inactive)
ROOT
ATOM      1  O1  BZF d   1      -4.805   4.768  -5.999  0.00  0.00    -0.204 OA
ATOM      2  C2  BZF d   1      -6.000   4.129  -5.727  0.00  0.00     0.174 A 
ATOM      3  C3  BZF d   1      -5.895   3.371  -4.617  0.00  0.00    -0.012 A 
ATOM      4  C3A BZF d   1      -4.579   3.618  -4.115  0.00  0.00    -0.107 A 
ATOM      5  C4  BZF d   1      -3.889   3.167  -3.026  0.00  0.00     0.055 A 
ATOM      6  C5  BZF d   1      -2.594   3.545  -2.861  0.00  0.00    -0.016 A 
ATOM      7  C6  BZF d   1      -1.957   4.368  -3.767  0.00  0.00     0.022 A 
ATOM      8  C7  BZF d   1      -2.602   4.845  -4.860  0.00  0.00     0.029 A 
ATOM      9  C7A BZF d   1      -3.920   4.491  -5.012  0.00  0.00     0.058 A 
ENDROOT
TORSDOF 0
ENDMDL
