MODEL 1
REMARK minimizedAffinity 7.82699251
REMARK minimizedRMSD -1
REMARK  0 active torsions:
REMARK  status: ('A' for Active; 'I' for Inactive)
ROOT
ATOM      1  O1  BZF d   1      -2.420   4.829  -4.385  0.00  0.00    -0.204 OA
ATOM      2  C2  BZF d   1      -2.377   5.941  -5.204  0.00  0.00     0.174 A 
ATOM      3  C3  BZF d   1      -3.464   5.992  -6.000  0.00  0.00    -0.012 A 
ATOM      4  C3A BZF d   1      -4.280   4.890  -5.593  0.00  0.00    -0.107 A 
ATOM      5  C4  BZF d   1      -5.497   4.422  -6.000  0.00  0.00     0.055 A 
ATOM      6  C5  BZF d   1      -5.983   3.279  -5.449  0.00  0.00    -0.016 A 
ATOM      7  C6  BZF d   1      -5.278   2.576  -4.494  0.00  0.00     0.022 A 
ATOM      8  C7  BZF d   1      -4.069   3.003  -4.055  0.00  0.00     0.029 A 
ATOM      9  C7A BZF d   1      -3.590   4.176  -4.586  0.00  0.00     0.058 A 
ENDROOT
TORSDOF 0
ENDMDL
