MODEL 1
REMARK minimizedAffinity 9.85639191
REMARK minimizedRMSD -1
REMARK  0 active torsions:
REMARK  status: ('A' for Active; 'I' for Inactive)
ROOT
ATOM      1  O1  BZF d   1       0.585   1.860   2.219  0.00  0.00    -0.204 OA
ATOM      2  C2  BZF d   1       0.347   1.279   0.988  0.00  0.00     0.174 A 
ATOM      3  C3  BZF d   1       0.417   2.199   0.004  0.00  0.00    -0.012 A 
ATOM      4  C3A BZF d   1       0.809   3.413   0.652  0.00  0.00    -0.107 A 
ATOM      5  C4  BZF d   1       1.060   4.678   0.202  0.00  0.00     0.055 A 
ATOM      6  C5  BZF d   1       1.350   5.654   1.102  0.00  0.00    -0.016 A 
ATOM      7  C6  BZF d   1       1.393   5.401   2.458  0.00  0.00     0.022 A 
ATOM      8  C7  BZF d   1       1.156   4.161   2.951  0.00  0.00     0.029 A 
ATOM      9  C7A BZF d   1       0.895   3.166   2.041  0.00  0.00     0.058 A 
ENDROOT
TORSDOF 0
ENDMDL
