MODEL 1
REMARK minimizedAffinity -0.847751677
REMARK minimizedRMSD -1
REMARK  0 active torsions:
REMARK  status: ('A' for Active; 'I' for Inactive)
ROOT
ATOM      1  O1  BZF d   1      -2.998   5.169  -5.988  0.00  0.00    -0.204 OA
ATOM      2  C2  BZF d   1      -1.808   4.868  -5.355  0.00  0.00     0.174 A 
ATOM      3  C3  BZF d   1      -1.950   3.790  -4.556  0.00  0.00    -0.012 A 
ATOM      4  C3A BZF d   1      -3.290   3.337  -4.770  0.00  0.00    -0.107 A 
ATOM      5  C4  BZF d   1      -4.020   2.296  -4.273  0.00  0.00     0.055 A 
ATOM      6  C5  BZF d   1      -5.326   2.175  -4.629  0.00  0.00    -0.016 A 
ATOM      7  C6  BZF d   1      -5.934   3.078  -5.475  0.00  0.00     0.022 A 
ATOM      8  C7  BZF d   1      -5.250   4.125  -5.998  0.00  0.00     0.029 A 
ATOM      9  C7A BZF d   1      -3.921   4.231  -5.666  0.00  0.00     0.058 A 
ENDROOT
TORSDOF 0
ENDMDL
