MODEL 1
REMARK minimizedAffinity 0.845159948
REMARK minimizedRMSD -1
REMARK  0 active torsions:
REMARK  status: ('A' for Active; 'I' for Inactive)
ROOT
ATOM      1  O1  BZF d   1      -5.448   4.136  -6.000  0.00  0.00    -0.204 OA
ATOM      2  C2  BZF d   1      -6.000   3.045  -5.358  0.00  0.00     0.174 A 
ATOM      3  C3  BZF d   1      -5.075   2.413  -4.607  0.00  0.00    -0.012 A 
ATOM      4  C3A BZF d   1      -3.892   3.210  -4.718  0.00  0.00    -0.107 A 
ATOM      5  C4  BZF d   1      -2.638   3.109  -4.186  0.00  0.00     0.055 A 
ATOM      6  C5  BZF d   1      -1.691   4.012  -4.552  0.00  0.00    -0.016 A 
ATOM      7  C6  BZF d   1      -1.960   5.024  -5.450  0.00  0.00     0.022 A 
ATOM      8  C7  BZF d   1      -3.190   5.168  -6.000  0.00  0.00     0.029 A 
ATOM      9  C7A BZF d   1      -4.159   4.277  -5.607  0.00  0.00     0.058 A 
ENDROOT
TORSDOF 0
ENDMDL
