MODEL 1
REMARK minimizedAffinity -2.74790597
REMARK minimizedRMSD -1
REMARK  0 active torsions:
REMARK  status: ('A' for Active; 'I' for Inactive)
ROOT
ATOM      1  O1  BZF d   1      -4.792   3.143  -5.985  0.00  0.00    -0.204 OA
ATOM      2  C2  BZF d   1      -5.275   2.249  -5.049  0.00  0.00     0.174 A 
ATOM      3  C3  BZF d   1      -4.520   2.273  -3.931  0.00  0.00    -0.012 A 
ATOM      4  C3A BZF d   1      -3.557   3.308  -4.149  0.00  0.00    -0.107 A 
ATOM      5  C4  BZF d   1      -2.541   3.820  -3.394  0.00  0.00     0.055 A 
ATOM      6  C5  BZF d   1      -1.738   4.778  -3.928  0.00  0.00    -0.016 A 
ATOM      7  C6  BZF d   1      -1.920   5.243  -5.213  0.00  0.00     0.022 A 
ATOM      8  C7  BZF d   1      -2.917   4.770  -6.000  0.00  0.00     0.029 A 
ATOM      9  C7A BZF d   1      -3.750   3.825  -5.451  0.00  0.00     0.058 A 
ENDROOT
TORSDOF 0
ENDMDL
