MODEL 1
REMARK minimizedAffinity 2.03411818
REMARK minimizedRMSD -1
REMARK  0 active torsions:
REMARK  status: ('A' for Active; 'I' for Inactive)
ROOT
ATOM      1  O1  BZF d   1      -2.683   4.468  -5.019  0.00  0.00    -0.204 OA
ATOM      2  C2  BZF d   1      -1.920   3.722  -4.141  0.00  0.00     0.174 A 
ATOM      3  C3  BZF d   1      -2.597   2.632  -3.726  0.00  0.00    -0.012 A 
ATOM      4  C3A BZF d   1      -3.827   2.652  -4.457  0.00  0.00    -0.107 A 
ATOM      5  C4  BZF d   1      -4.911   1.822  -4.494  0.00  0.00     0.055 A 
ATOM      6  C5  BZF d   1      -5.979   2.165  -5.260  0.00  0.00    -0.016 A 
ATOM      7  C6  BZF d   1      -6.000   3.330  -5.999  0.00  0.00     0.022 A 
ATOM      8  C7  BZF d   1      -4.946   4.182  -5.998  0.00  0.00     0.029 A 
ATOM      9  C7A BZF d   1      -3.851   3.822  -5.250  0.00  0.00     0.058 A 
ENDROOT
TORSDOF 0
ENDMDL
