MODEL 1
REMARK minimizedAffinity -0.841319084
REMARK minimizedRMSD -1
REMARK  0 active torsions:
REMARK  status: ('A' for Active; 'I' for Inactive)
ROOT
ATOM      1  O1  BZF d   1      -2.481   4.648  -5.430  0.00  0.00    -0.204 OA
ATOM      2  C2  BZF d   1      -1.669   4.127  -4.441  0.00  0.00     0.174 A 
ATOM      3  C3  BZF d   1      -2.376   3.335  -3.609  0.00  0.00    -0.012 A 
ATOM      4  C3A BZF d   1      -3.694   3.289  -4.164  0.00  0.00    -0.107 A 
ATOM      5  C4  BZF d   1      -4.845   2.653  -3.797  0.00  0.00     0.055 A 
ATOM      6  C5  BZF d   1      -5.979   2.875  -4.512  0.00  0.00    -0.016 A 
ATOM      7  C6  BZF d   1      -5.999   3.729  -5.595  0.00  0.00     0.022 A 
ATOM      8  C7  BZF d   1      -4.881   4.379  -6.000  0.00  0.00     0.029 A 
ATOM      9  C7A BZF d   1      -3.726   4.132  -5.299  0.00  0.00     0.058 A 
ENDROOT
TORSDOF 0
ENDMDL
