MODEL 1
REMARK minimizedAffinity 0.313372552
REMARK minimizedRMSD -1
REMARK  0 active torsions:
REMARK  status: ('A' for Active; 'I' for Inactive)
ROOT
ATOM      1  O1  BZF d   1       1.899  -0.252   1.330  0.00  0.00    -0.204 OA
ATOM      2  C2  BZF d   1       0.763   0.405   0.899  0.00  0.00     0.174 A 
ATOM      3  C3  BZF d   1      -0.282   0.132   1.707  0.00  0.00    -0.012 A 
ATOM      4  C3A BZF d   1       0.255  -0.677   2.757  0.00  0.00    -0.107 A 
ATOM      5  C4  BZF d   1      -0.287  -1.251   3.871  0.00  0.00     0.055 A 
ATOM      6  C5  BZF d   1       0.494  -2.042   4.654  0.00  0.00    -0.016 A 
ATOM      7  C6  BZF d   1       1.817  -2.284   4.349  0.00  0.00     0.022 A 
ATOM      8  C7  BZF d   1       2.401  -1.732   3.258  0.00  0.00     0.029 A 
ATOM      9  C7A BZF d   1       1.623  -0.906   2.483  0.00  0.00     0.058 A 
ENDROOT
TORSDOF 0
ENDMDL
