MODEL 1
REMARK minimizedAffinity 2.40331197
REMARK minimizedRMSD -1
REMARK  0 active torsions:
REMARK  status: ('A' for Active; 'I' for Inactive)
ROOT
ATOM      1  O1  BZF d   1      -2.247   3.667  -3.815  0.00  0.00    -0.204 OA
ATOM      2  C2  BZF d   1      -1.603   4.143  -4.940  0.00  0.00     0.174 A 
ATOM      3  C3  BZF d   1      -2.454   4.219  -5.984  0.00  0.00    -0.012 A 
ATOM      4  C3A BZF d   1      -3.731   3.848  -5.455  0.00  0.00    -0.107 A 
ATOM      5  C4  BZF d   1      -4.979   3.746  -6.000  0.00  0.00     0.055 A 
ATOM      6  C5  BZF d   1      -6.000   3.287  -5.230  0.00  0.00    -0.016 A 
ATOM      7  C6  BZF d   1      -5.808   2.915  -3.916  0.00  0.00     0.022 A 
ATOM      8  C7  BZF d   1      -4.589   3.003  -3.330  0.00  0.00     0.029 A 
ATOM      9  C7A BZF d   1      -3.562   3.499  -4.095  0.00  0.00     0.058 A 
ENDROOT
TORSDOF 0
ENDMDL
