MODEL 1
REMARK minimizedAffinity 1.42621946
REMARK minimizedRMSD -1
REMARK  0 active torsions:
REMARK  status: ('A' for Active; 'I' for Inactive)
ROOT
ATOM      1  O1  BZF d   1      -4.975   1.170  -4.290  0.00  0.00    -0.204 OA
ATOM      2  C2  BZF d   1      -5.999   1.154  -5.218  0.00  0.00     0.174 A 
ATOM      3  C3  BZF d   1      -5.956   2.255  -5.997  0.00  0.00    -0.012 A 
ATOM      4  C3A BZF d   1      -4.780   2.960  -5.587  0.00  0.00    -0.107 A 
ATOM      5  C4  BZF d   1      -4.190   4.121  -5.999  0.00  0.00     0.055 A 
ATOM      6  C5  BZF d   1      -3.089   4.571  -5.343  0.00  0.00    -0.016 A 
ATOM      7  C6  BZF d   1      -2.555   3.890  -4.269  0.00  0.00     0.022 A 
ATOM      8  C7  BZF d   1      -3.102   2.732  -3.827  0.00  0.00     0.029 A 
ATOM      9  C7A BZF d   1      -4.196   2.257  -4.509  0.00  0.00     0.058 A 
ENDROOT
TORSDOF 0
ENDMDL
