MODEL 1
REMARK minimizedAffinity 16.5721779
REMARK minimizedRMSD -1
REMARK  0 active torsions:
REMARK  status: ('A' for Active; 'I' for Inactive)
ROOT
ATOM      1  C4' PXY d   1       0.880  -3.398   5.004  0.00  0.00     0.077 C 
ATOM      2  C1' PXY d   1       1.900   0.209   0.603  0.00  0.00     0.077 C 
ATOM      3  C1  PXY d   1       1.626  -0.728   1.763  0.00  0.00    -0.082 A 
ATOM      4  C2  PXY d   1       2.411  -1.774   1.959  0.00  0.00     0.003 A 
ATOM      5  C3  PXY d   1       2.159  -2.649   2.984  0.00  0.00     0.003 A 
ATOM      6  C4  PXY d   1       1.124  -2.420   3.851  0.00  0.00    -0.082 A 
ATOM      7  C5  PXY d   1       0.325  -1.349   3.664  0.00  0.00     0.003 A 
ATOM      8  C6  PXY d   1       0.573  -0.496   2.593  0.00  0.00     0.003 A 
ENDROOT
TORSDOF 0
ENDMDL
