MODEL 1
REMARK minimizedAffinity 11.8608952
REMARK minimizedRMSD -1
REMARK  0 active torsions:
REMARK  status: ('A' for Active; 'I' for Inactive)
ROOT
ATOM      1  C4' PXY d   1      -6.000   5.967   5.999  0.00  0.00     0.077 C 
ATOM      2  C1' PXY d   1      -4.935   3.280   0.993  0.00  0.00     0.077 C 
ATOM      3  C1  PXY d   1      -5.210   3.996   2.300  0.00  0.00    -0.082 A 
ATOM      4  C2  PXY d   1      -5.245   3.306   3.429  0.00  0.00     0.003 A 
ATOM      5  C3  PXY d   1      -5.524   3.932   4.616  0.00  0.00     0.003 A 
ATOM      6  C4  PXY d   1      -5.716   5.287   4.657  0.00  0.00    -0.082 A 
ATOM      7  C5  PXY d   1      -5.672   6.000   3.511  0.00  0.00     0.003 A 
ATOM      8  C6  PXY d   1      -5.428   5.339   2.310  0.00  0.00     0.003 A 
ENDROOT
TORSDOF 0
ENDMDL
