MODEL 1
REMARK minimizedAffinity 11.9753065
REMARK minimizedRMSD -1
REMARK  0 active torsions:
REMARK  status: ('A' for Active; 'I' for Inactive)
ROOT
ATOM      1  C4' PXY d   1       3.951   2.416   1.861  0.00  0.00     0.077 C 
ATOM      2  C1' PXY d   1       1.600  -1.668  -1.486  0.00  0.00     0.077 C 
ATOM      3  C1  PXY d   1       2.212  -0.603  -0.598  0.00  0.00    -0.082 A 
ATOM      4  C2  PXY d   1       2.463   0.598  -1.094  0.00  0.00     0.003 A 
ATOM      5  C3  PXY d   1       3.045   1.563  -0.314  0.00  0.00     0.003 A 
ATOM      6  C4  PXY d   1       3.325   1.313   1.003  0.00  0.00    -0.082 A 
ATOM      7  C5  PXY d   1       3.062   0.094   1.520  0.00  0.00     0.003 A 
ATOM      8  C6  PXY d   1       2.509  -0.885   0.700  0.00  0.00     0.003 A 
ENDROOT
TORSDOF 0
ENDMDL
