MODEL 1
REMARK minimizedAffinity 8.58667374
REMARK minimizedRMSD -1
REMARK  0 active torsions:
REMARK  status: ('A' for Active; 'I' for Inactive)
ROOT
ATOM      1  C4' PXY d   1      -0.056   1.136  -1.569  0.00  0.00     0.077 C 
ATOM      2  C1' PXY d   1       4.618  -0.723   1.278  0.00  0.00     0.077 C 
ATOM      3  C1  PXY d   1       3.400  -0.231   0.522  0.00  0.00    -0.082 A 
ATOM      4  C2  PXY d   1       2.273  -0.002   1.176  0.00  0.00     0.003 A 
ATOM      5  C3  PXY d   1       1.152   0.413   0.503  0.00  0.00     0.003 A 
ATOM      6  C4  PXY d   1       1.201   0.647  -0.845  0.00  0.00    -0.082 A 
ATOM      7  C5  PXY d   1       2.351   0.426  -1.518  0.00  0.00     0.003 A 
ATOM      8  C6  PXY d   1       3.465  -0.034  -0.822  0.00  0.00     0.003 A 
ENDROOT
TORSDOF 0
ENDMDL
