MODEL 1
REMARK minimizedAffinity 5.32141781
REMARK minimizedRMSD -1
REMARK  0 active torsions:
REMARK  status: ('A' for Active; 'I' for Inactive)
ROOT
ATOM      1  C4' PXY d   1      -0.491   0.294  -1.476  0.00  0.00     0.077 C 
ATOM      2  C1' PXY d   1       4.636   0.266   1.192  0.00  0.00     0.077 C 
ATOM      3  C1  PXY d   1       3.294   0.285   0.488  0.00  0.00    -0.082 A 
ATOM      4  C2  PXY d   1       2.316  -0.492   0.924  0.00  0.00     0.003 A 
ATOM      5  C3  PXY d   1       1.106  -0.510   0.279  0.00  0.00     0.003 A 
ATOM      6  C4  PXY d   1       0.877   0.314  -0.790  0.00  0.00    -0.082 A 
ATOM      7  C5  PXY d   1       1.867   1.117  -1.234  0.00  0.00     0.003 A 
ATOM      8  C6  PXY d   1       3.102   1.091  -0.591  0.00  0.00     0.003 A 
ENDROOT
TORSDOF 0
ENDMDL
