MODEL 1
REMARK minimizedAffinity 8.59446812
REMARK minimizedRMSD -1
REMARK  0 active torsions:
REMARK  status: ('A' for Active; 'I' for Inactive)
ROOT
ATOM      1  C4' PXY d   1       1.049   0.148   1.587  0.00  0.00     0.077 C 
ATOM      2  C1' PXY d   1       4.920   1.553  -2.470  0.00  0.00     0.077 C 
ATOM      3  C1  PXY d   1       3.914   1.178  -1.400  0.00  0.00    -0.082 A 
ATOM      4  C2  PXY d   1       2.622   1.186  -1.685  0.00  0.00     0.003 A 
ATOM      5  C3  PXY d   1       1.697   0.880  -0.720  0.00  0.00     0.003 A 
ATOM      6  C4  PXY d   1       2.101   0.511   0.535  0.00  0.00    -0.082 A 
ATOM      7  C5  PXY d   1       3.417   0.490   0.831  0.00  0.00     0.003 A 
ATOM      8  C6  PXY d   1       4.339   0.844  -0.151  0.00  0.00     0.003 A 
ENDROOT
TORSDOF 0
ENDMDL
