MODEL 1
REMARK minimizedAffinity 8.4034729
REMARK minimizedRMSD -1
REMARK  0 active torsions:
REMARK  status: ('A' for Active; 'I' for Inactive)
ROOT
ATOM      1  C4' PXY d   1      -5.999   0.862  -4.868  0.00  0.00     0.077 C 
ATOM      2  C1' PXY d   1      -3.777   0.728   0.466  0.00  0.00     0.077 C 
ATOM      3  C1  PXY d   1      -4.354   0.752  -0.935  0.00  0.00    -0.082 A 
ATOM      4  C2  PXY d   1      -4.704   1.906  -1.479  0.00  0.00     0.003 A 
ATOM      5  C3  PXY d   1      -5.257   1.943  -2.733  0.00  0.00     0.003 A 
ATOM      6  C4  PXY d   1      -5.404   0.791  -3.459  0.00  0.00    -0.082 A 
ATOM      7  C5  PXY d   1      -5.039  -0.389  -2.916  0.00  0.00     0.003 A 
ATOM      8  C6  PXY d   1      -4.518  -0.410  -1.626  0.00  0.00     0.003 A 
ENDROOT
TORSDOF 0
ENDMDL
