MODEL 1
REMARK minimizedAffinity 5.6532712
REMARK minimizedRMSD -1
REMARK  0 active torsions:
REMARK  status: ('A' for Active; 'I' for Inactive)
ROOT
ATOM      1  C4' PXY d   1      -5.923   5.994   5.998  0.00  0.00     0.077 C 
ATOM      2  C1' PXY d   1      -3.851   3.061   1.469  0.00  0.00     0.077 C 
ATOM      3  C1  PXY d   1      -4.383   3.835   2.659  0.00  0.00    -0.082 A 
ATOM      4  C2  PXY d   1      -5.475   3.417   3.276  0.00  0.00     0.003 A 
ATOM      5  C3  PXY d   1      -5.988   4.122   4.334  0.00  0.00     0.003 A 
ATOM      6  C4  PXY d   1      -5.345   5.239   4.798  0.00  0.00    -0.082 A 
ATOM      7  C5  PXY d   1      -4.224   5.667   4.180  0.00  0.00     0.003 A 
ATOM      8  C6  PXY d   1      -3.743   4.959   3.082  0.00  0.00     0.003 A 
ENDROOT
TORSDOF 0
ENDMDL
