MODEL 1
REMARK minimizedAffinity 12.1086092
REMARK minimizedRMSD -1
REMARK  0 active torsions:
REMARK  status: ('A' for Active; 'I' for Inactive)
ROOT
ATOM      1  C4' PXY d   1       1.291  -1.462  -1.809  0.00  0.00     0.077 C 
ATOM      2  C1' PXY d   1       4.428   2.439   1.080  0.00  0.00     0.077 C 
ATOM      3  C1  PXY d   1       3.607   1.407   0.332  0.00  0.00    -0.082 A 
ATOM      4  C2  PXY d   1       3.476   1.503  -0.981  0.00  0.00     0.003 A 
ATOM      5  C3  PXY d   1       2.711   0.597  -1.669  0.00  0.00     0.003 A 
ATOM      6  C4  PXY d   1       2.118  -0.449  -1.014  0.00  0.00    -0.082 A 
ATOM      7  C5  PXY d   1       2.256  -0.560   0.324  0.00  0.00     0.003 A 
ATOM      8  C6  PXY d   1       3.003   0.394   1.010  0.00  0.00     0.003 A 
ENDROOT
TORSDOF 0
ENDMDL
