MODEL 1
REMARK minimizedAffinity 6.42888784
REMARK minimizedRMSD -1
REMARK  0 active torsions:
REMARK  status: ('A' for Active; 'I' for Inactive)
ROOT
ATOM      1  C4' PXY d   1       1.561  -2.772  -1.202  0.00  0.00     0.077 C 
ATOM      2  C1' PXY d   1       3.726   1.867   1.482  0.00  0.00     0.077 C 
ATOM      3  C1  PXY d   1       3.152   0.658   0.770  0.00  0.00    -0.082 A 
ATOM      4  C2  PXY d   1       2.999  -0.478   1.430  0.00  0.00     0.003 A 
ATOM      5  C3  PXY d   1       2.511  -1.590   0.792  0.00  0.00     0.003 A 
ATOM      6  C4  PXY d   1       2.127  -1.523  -0.520  0.00  0.00    -0.082 A 
ATOM      7  C5  PXY d   1       2.271  -0.364  -1.198  0.00  0.00     0.003 A 
ATOM      8  C6  PXY d   1       2.806   0.741  -0.543  0.00  0.00     0.003 A 
ENDROOT
TORSDOF 0
ENDMDL
