MODEL 1
REMARK minimizedAffinity -4.26684332
REMARK minimizedRMSD -1
REMARK  0 active torsions:
REMARK  status: ('A' for Active; 'I' for Inactive)
ROOT
ATOM      1  C   UNL d   1      -1.035   0.114   3.058  0.00  0.00     0.023 A 
ATOM      2  C1  UNL d   1      -1.748  -0.487   2.020  0.00  0.00     0.003 A 
ATOM      3  C2  UNL d   1      -1.228  -0.487   0.723  0.00  0.00     0.048 A 
ATOM      4  C3  UNL d   1       0.005   0.113   0.472  0.00  0.00     0.023 A 
ATOM      5  C4  UNL d   1       0.722   0.715   1.508  0.00  0.00     0.048 A 
ATOM      6  C5  UNL d   1       0.198   0.713   2.802  0.00  0.00     0.003 A 
ATOM      7  I   UNL d   1       0.780   0.114  -1.456  0.00  0.00    -0.146 I 
ENDROOT
TORSDOF 0
ENDMDL
