MODEL 1
REMARK minimizedAffinity -5.68277216
REMARK minimizedRMSD -1
REMARK  0 active torsions:
REMARK  status: ('A' for Active; 'I' for Inactive)
ROOT
ATOM      1  C   UNL d   1      -1.652  -0.295   3.425  0.00  0.00     0.023 A 
ATOM      2  C1  UNL d   1      -0.278  -0.301   3.189  0.00  0.00     0.003 A 
ATOM      3  C2  UNL d   1       0.210  -0.149   1.890  0.00  0.00     0.048 A 
ATOM      4  C3  UNL d   1      -0.683   0.010   0.831  0.00  0.00     0.023 A 
ATOM      5  C4  UNL d   1      -2.059   0.018   1.062  0.00  0.00     0.048 A 
ATOM      6  C5  UNL d   1      -2.542  -0.135   2.363  0.00  0.00     0.003 A 
ATOM      7  I   UNL d   1       0.041   0.237  -1.105  0.00  0.00    -0.146 I 
ENDROOT
TORSDOF 0
ENDMDL
