MODEL 1
REMARK minimizedAffinity -4.78653049
REMARK minimizedRMSD -1
REMARK  0 active torsions:
REMARK  status: ('A' for Active; 'I' for Inactive)
ROOT
ATOM      1  C   UNL d   1      -1.275  -0.142   3.087  0.00  0.00     0.023 A 
ATOM      2  C1  UNL d   1       0.084  -0.125   2.773  0.00  0.00     0.003 A 
ATOM      3  C2  UNL d   1       0.494  -0.009   1.443  0.00  0.00     0.048 A 
ATOM      4  C3  UNL d   1      -0.461   0.092   0.432  0.00  0.00     0.023 A 
ATOM      5  C4  UNL d   1      -1.822   0.077   0.741  0.00  0.00     0.048 A 
ATOM      6  C5  UNL d   1      -2.227  -0.040   2.072  0.00  0.00     0.003 A 
ATOM      7  I   UNL d   1       0.146   0.265  -1.548  0.00  0.00    -0.146 I 
ENDROOT
TORSDOF 0
ENDMDL
