MODEL 1
REMARK minimizedAffinity -2.55471873
REMARK minimizedRMSD -1
REMARK  0 active torsions:
REMARK  status: ('A' for Active; 'I' for Inactive)
ROOT
ATOM      1  C   UNL d   1       0.348  -0.132   2.615  0.00  0.00     0.023 A 
ATOM      2  C1  UNL d   1      -0.811  -0.490   1.926  0.00  0.00     0.003 A 
ATOM      3  C2  UNL d   1      -0.825  -0.484   0.530  0.00  0.00     0.048 A 
ATOM      4  C3  UNL d   1       0.323  -0.118  -0.171  0.00  0.00     0.023 A 
ATOM      5  C4  UNL d   1       1.485   0.241   0.514  0.00  0.00     0.048 A 
ATOM      6  C5  UNL d   1       1.494   0.234   1.910  0.00  0.00     0.003 A 
ATOM      7  I   UNL d   1       0.305  -0.107  -2.250  0.00  0.00    -0.146 I 
ENDROOT
TORSDOF 0
ENDMDL
