MODEL 1
REMARK minimizedAffinity -4.7037549
REMARK minimizedRMSD -1
REMARK  0 active torsions:
REMARK  status: ('A' for Active; 'I' for Inactive)
ROOT
ATOM      1  C   UNL d   1      -1.221  -0.495   3.081  0.00  0.00     0.023 A 
ATOM      2  C1  UNL d   1      -2.208  -0.596   2.100  0.00  0.00     0.003 A 
ATOM      3  C2  UNL d   1      -1.869  -0.470   0.751  0.00  0.00     0.048 A 
ATOM      4  C3  UNL d   1      -0.541  -0.244   0.390  0.00  0.00     0.023 A 
ATOM      5  C4  UNL d   1       0.450  -0.142   1.368  0.00  0.00     0.048 A 
ATOM      6  C5  UNL d   1       0.106  -0.268   2.716  0.00  0.00     0.003 A 
ATOM      7  I   UNL d   1      -0.034  -0.056  -1.616  0.00  0.00    -0.146 I 
ENDROOT
TORSDOF 0
ENDMDL
