MODEL 1
REMARK minimizedAffinity -4.66126442
REMARK minimizedRMSD -1
REMARK  0 active torsions:
REMARK  status: ('A' for Active; 'I' for Inactive)
ROOT
ATOM      1  C   UNL d   1      -0.691  -0.056   2.617  0.00  0.00     0.023 A 
ATOM      2  C1  UNL d   1       0.632   0.166   2.235  0.00  0.00     0.003 A 
ATOM      3  C2  UNL d   1       0.965   0.248   0.881  0.00  0.00     0.048 A 
ATOM      4  C3  UNL d   1      -0.031   0.106  -0.086  0.00  0.00     0.023 A 
ATOM      5  C4  UNL d   1      -1.356  -0.116   0.292  0.00  0.00     0.048 A 
ATOM      6  C5  UNL d   1      -1.684  -0.197   1.647  0.00  0.00     0.003 A 
ATOM      7  I   UNL d   1       0.462   0.227  -2.101  0.00  0.00    -0.146 I 
ENDROOT
TORSDOF 0
ENDMDL
