MODEL 1
REMARK minimizedAffinity -4.97465897
REMARK minimizedRMSD -1
REMARK  0 active torsions:
REMARK  status: ('A' for Active; 'I' for Inactive)
ROOT
ATOM      1  C   UNL d   1      -1.910  -0.116   2.808  0.00  0.00     0.023 A 
ATOM      2  C1  UNL d   1      -0.552  -0.435   2.829  0.00  0.00     0.003 A 
ATOM      3  C2  UNL d   1       0.174  -0.482   1.637  0.00  0.00     0.048 A 
ATOM      4  C3  UNL d   1      -0.464  -0.207   0.428  0.00  0.00     0.023 A 
ATOM      5  C4  UNL d   1      -1.822   0.114   0.402  0.00  0.00     0.048 A 
ATOM      6  C5  UNL d   1      -2.544   0.158   1.596  0.00  0.00     0.003 A 
ATOM      7  I   UNL d   1       0.615  -0.275  -1.347  0.00  0.00    -0.146 I 
ENDROOT
TORSDOF 0
ENDMDL
