MODEL 1
REMARK minimizedAffinity -5.75703192
REMARK minimizedRMSD -1
REMARK  0 active torsions:
REMARK  status: ('A' for Active; 'I' for Inactive)
ROOT
ATOM      1  C   UNL d   1      -1.387  -0.189   3.232  0.00  0.00     0.023 A 
ATOM      2  C1  UNL d   1      -2.260  -0.041   2.153  0.00  0.00     0.003 A 
ATOM      3  C2  UNL d   1      -1.761  -0.015   0.849  0.00  0.00     0.048 A 
ATOM      4  C3  UNL d   1      -0.390  -0.139   0.630  0.00  0.00     0.023 A 
ATOM      5  C4  UNL d   1       0.487  -0.288   1.706  0.00  0.00     0.048 A 
ATOM      6  C5  UNL d   1      -0.016  -0.312   3.009  0.00  0.00     0.003 A 
ATOM      7  I   UNL d   1       0.354  -0.100  -1.310  0.00  0.00    -0.146 I 
ENDROOT
TORSDOF 0
ENDMDL
