MODEL 1
REMARK minimizedAffinity -0.719135761
REMARK minimizedRMSD -1
REMARK  0 active torsions:
REMARK  status: ('A' for Active; 'I' for Inactive)
ROOT
ATOM      1  C   UNL d   1       0.278  -1.481  -3.364  0.00  0.00     0.023 A 
ATOM      2  C1  UNL d   1      -0.668  -1.602  -2.346  0.00  0.00     0.003 A 
ATOM      3  C2  UNL d   1      -0.495  -0.911  -1.145  0.00  0.00     0.048 A 
ATOM      4  C3  UNL d   1       0.625  -0.099  -0.969  0.00  0.00     0.023 A 
ATOM      5  C4  UNL d   1       1.574   0.026  -1.986  0.00  0.00     0.048 A 
ATOM      6  C5  UNL d   1       1.397  -0.668  -3.184  0.00  0.00     0.003 A 
ATOM      7  I   UNL d   1       0.885   0.931   0.817  0.00  0.00    -0.146 I 
ENDROOT
TORSDOF 0
ENDMDL
