MODEL 1
REMARK minimizedAffinity -0.815756381
REMARK minimizedRMSD -1
REMARK  0 active torsions:
REMARK  status: ('A' for Active; 'I' for Inactive)
ROOT
ATOM      1  C   UNL d   1       0.725   0.664   1.196  0.00  0.00     0.023 A 
ATOM      2  C1  UNL d   1       0.083   1.142   0.053  0.00  0.00     0.003 A 
ATOM      3  C2  UNL d   1       0.127   0.407  -1.133  0.00  0.00     0.048 A 
ATOM      4  C3  UNL d   1       0.814  -0.806  -1.170  0.00  0.00     0.023 A 
ATOM      5  C4  UNL d   1       1.457  -1.288  -0.030  0.00  0.00     0.048 A 
ATOM      6  C5  UNL d   1       1.412  -0.550   1.154  0.00  0.00     0.003 A 
ATOM      7  I   UNL d   1       0.880  -1.901  -2.935  0.00  0.00    -0.146 I 
ENDROOT
TORSDOF 0
ENDMDL
