MODEL 1
REMARK minimizedAffinity -2.68346381
REMARK minimizedRMSD -1
REMARK  0 active torsions:
REMARK  status: ('A' for Active; 'I' for Inactive)
ROOT
ATOM      1  C   UNL d   1       0.611  -0.850  -4.101  0.00  0.00     0.023 A 
ATOM      2  C1  UNL d   1      -0.011  -1.794  -3.284  0.00  0.00     0.003 A 
ATOM      3  C2  UNL d   1      -0.149  -1.553  -1.916  0.00  0.00     0.048 A 
ATOM      4  C3  UNL d   1       0.337  -0.365  -1.371  0.00  0.00     0.023 A 
ATOM      5  C4  UNL d   1       0.959   0.583  -2.184  0.00  0.00     0.048 A 
ATOM      6  C5  UNL d   1       1.095   0.338  -3.552  0.00  0.00     0.003 A 
ATOM      7  I   UNL d   1       0.133  -0.004   0.666  0.00  0.00    -0.146 I 
ENDROOT
TORSDOF 0
ENDMDL
