MODEL 1
REMARK minimizedAffinity -3.32530713
REMARK minimizedRMSD -1
REMARK  0 active torsions:
REMARK  status: ('A' for Active; 'I' for Inactive)
ROOT
ATOM      1  C   UNL d   1      -1.679  -0.437   3.814  0.00  0.00     0.023 A 
ATOM      2  C1  UNL d   1      -2.548  -0.148   2.762  0.00  0.00     0.003 A 
ATOM      3  C2  UNL d   1      -2.044   0.074   1.478  0.00  0.00     0.048 A 
ATOM      4  C3  UNL d   1      -0.669   0.003   1.254  0.00  0.00     0.023 A 
ATOM      5  C4  UNL d   1       0.204  -0.288   2.303  0.00  0.00     0.048 A 
ATOM      6  C5  UNL d   1      -0.304  -0.507   3.585  0.00  0.00     0.003 A 
ATOM      7  I   UNL d   1       0.083   0.331  -0.656  0.00  0.00    -0.146 I 
ENDROOT
TORSDOF 0
ENDMDL
