MODEL 1
REMARK minimizedAffinity -5.22693443
REMARK minimizedRMSD -1
REMARK  0 active torsions:
REMARK  status: ('A' for Active; 'I' for Inactive)
ROOT
ATOM      1  C   UNL d   1      -1.795  -0.239   3.087  0.00  0.00     0.023 A 
ATOM      2  C1  UNL d   1      -0.432  -0.469   2.892  0.00  0.00     0.003 A 
ATOM      3  C2  UNL d   1       0.102  -0.456   1.602  0.00  0.00     0.048 A 
ATOM      4  C3  UNL d   1      -0.731  -0.212   0.511  0.00  0.00     0.023 A 
ATOM      5  C4  UNL d   1      -2.095   0.019   0.701  0.00  0.00     0.048 A 
ATOM      6  C5  UNL d   1      -2.625   0.004   1.993  0.00  0.00     0.003 A 
ATOM      7  I   UNL d   1       0.062  -0.193  -1.410  0.00  0.00    -0.146 I 
ENDROOT
TORSDOF 0
ENDMDL
