MODEL 1
REMARK minimizedAffinity -3.1256423
REMARK minimizedRMSD -1
REMARK  0 active torsions:
REMARK  status: ('A' for Active; 'I' for Inactive)
ROOT
ATOM      1  C   UNL d   1      -2.572   0.180   2.774  0.00  0.00     0.023 A 
ATOM      2  C1  UNL d   1      -1.209  -0.080   2.909  0.00  0.00     0.003 A 
ATOM      3  C2  UNL d   1      -0.399  -0.174   1.776  0.00  0.00     0.048 A 
ATOM      4  C3  UNL d   1      -0.959  -0.004   0.510  0.00  0.00     0.023 A 
ATOM      5  C4  UNL d   1      -2.323   0.257   0.370  0.00  0.00     0.048 A 
ATOM      6  C5  UNL d   1      -3.129   0.349   1.506  0.00  0.00     0.003 A 
ATOM      7  I   UNL d   1       0.245  -0.143  -1.179  0.00  0.00    -0.146 I 
ENDROOT
TORSDOF 0
ENDMDL
