MODEL 1
REMARK minimizedAffinity -5.37216902
REMARK minimizedRMSD -1
REMARK  0 active torsions:
REMARK  status: ('A' for Active; 'I' for Inactive)
ROOT
ATOM      1  C   UNL d   1      -1.865  -0.308   2.932  0.00  0.00     0.023 A 
ATOM      2  C1  UNL d   1      -2.626  -0.052   1.791  0.00  0.00     0.003 A 
ATOM      3  C2  UNL d   1      -1.998   0.119   0.556  0.00  0.00     0.048 A 
ATOM      4  C3  UNL d   1      -0.609   0.032   0.468  0.00  0.00     0.023 A 
ATOM      5  C4  UNL d   1       0.156  -0.224   1.607  0.00  0.00     0.048 A 
ATOM      6  C5  UNL d   1      -0.476  -0.394   2.841  0.00  0.00     0.003 A 
ATOM      7  I   UNL d   1       0.329   0.286  -1.369  0.00  0.00    -0.146 I 
ENDROOT
TORSDOF 0
ENDMDL
