MODEL 1
REMARK minimizedAffinity -1.3201766
REMARK minimizedRMSD -1
REMARK  0 active torsions:
REMARK  status: ('A' for Active; 'I' for Inactive)
ROOT
ATOM      1  C   UNL d   1       5.942   6.000  -1.632  0.00  0.00     0.078 C 
ATOM      2  C1  UNL d   1       5.488   5.241  -2.843  0.00  0.00    -0.077 A 
ATOM      3  C2  UNL d   1       4.545   5.786  -3.723  0.00  0.00    -0.001 A 
ATOM      4  C3  UNL d   1       4.124   5.064  -4.841  0.00  0.00     0.003 A 
ATOM      5  C4  UNL d   1       4.640   3.794  -5.089  0.00  0.00    -0.005 A 
ATOM      6  C5  UNL d   1       5.578   3.243  -4.218  0.00  0.00     0.003 A 
ATOM      7  C6  UNL d   1       6.000   3.963  -3.100  0.00  0.00    -0.001 A 
ENDROOT
TORSDOF 0
ENDMDL
