MODEL 1
REMARK minimizedAffinity -3.21306682
REMARK minimizedRMSD -1
REMARK  0 active torsions:
REMARK  status: ('A' for Active; 'I' for Inactive)
ROOT
ATOM      1  C   UNL d   1       3.514  -1.467   5.253  0.00  0.00     0.078 C 
ATOM      2  C1  UNL d   1       4.289  -2.717   4.957  0.00  0.00    -0.077 A 
ATOM      3  C2  UNL d   1       4.031  -3.470   3.805  0.00  0.00    -0.001 A 
ATOM      4  C3  UNL d   1       4.753  -4.636   3.547  0.00  0.00     0.003 A 
ATOM      5  C4  UNL d   1       5.737  -5.061   4.438  0.00  0.00    -0.005 A 
ATOM      6  C5  UNL d   1       5.999  -4.319   5.588  0.00  0.00     0.003 A 
ATOM      7  C6  UNL d   1       5.278  -3.153   5.847  0.00  0.00    -0.001 A 
ENDROOT
TORSDOF 0
ENDMDL
