MODEL 1
REMARK minimizedAffinity 0.695822656
REMARK minimizedRMSD -1
REMARK  0 active torsions:
REMARK  status: ('A' for Active; 'I' for Inactive)
ROOT
ATOM      1  C   UNL d   1       5.980   5.128  -1.534  0.00  0.00     0.078 C 
ATOM      2  C1  UNL d   1       5.281   5.062  -2.859  0.00  0.00    -0.077 A 
ATOM      3  C2  UNL d   1       5.701   4.170  -3.852  0.00  0.00    -0.001 A 
ATOM      4  C3  UNL d   1       5.047   4.126  -5.085  0.00  0.00     0.003 A 
ATOM      5  C4  UNL d   1       3.969   4.973  -5.335  0.00  0.00    -0.005 A 
ATOM      6  C5  UNL d   1       3.545   5.866  -4.353  0.00  0.00     0.003 A 
ATOM      7  C6  UNL d   1       4.198   5.911  -3.120  0.00  0.00    -0.001 A 
ENDROOT
TORSDOF 0
ENDMDL
