MODEL 1
REMARK minimizedAffinity 0.461633921
REMARK minimizedRMSD -1
REMARK  0 active torsions:
REMARK  status: ('A' for Active; 'I' for Inactive)
ROOT
ATOM      1  C   UNL d   1       4.876   2.578  -5.417  0.00  0.00     0.078 C 
ATOM      2  C1  UNL d   1       4.864   3.764  -4.499  0.00  0.00    -0.077 A 
ATOM      3  C2  UNL d   1       3.724   4.085  -3.752  0.00  0.00    -0.001 A 
ATOM      4  C3  UNL d   1       3.724   5.198  -2.909  0.00  0.00     0.003 A 
ATOM      5  C4  UNL d   1       4.860   5.999  -2.806  0.00  0.00    -0.005 A 
ATOM      6  C5  UNL d   1       5.998   5.688  -3.548  0.00  0.00     0.003 A 
ATOM      7  C6  UNL d   1       6.000   4.576  -4.391  0.00  0.00    -0.001 A 
ENDROOT
TORSDOF 0
ENDMDL
