MODEL 1
REMARK minimizedAffinity -2.26804256
REMARK minimizedRMSD -1
REMARK  0 active torsions:
REMARK  status: ('A' for Active; 'I' for Inactive)
ROOT
ATOM      1  C   UNL d   1       2.835  -0.759   5.286  0.00  0.00     0.078 C 
ATOM      2  C1  UNL d   1       3.903  -1.801   5.131  0.00  0.00    -0.077 A 
ATOM      3  C2  UNL d   1       3.816  -2.780   4.135  0.00  0.00    -0.001 A 
ATOM      4  C3  UNL d   1       4.812  -3.750   4.009  0.00  0.00     0.003 A 
ATOM      5  C4  UNL d   1       5.903  -3.749   4.876  0.00  0.00    -0.005 A 
ATOM      6  C5  UNL d   1       5.997  -2.780   5.872  0.00  0.00     0.003 A 
ATOM      7  C6  UNL d   1       5.002  -1.809   6.000  0.00  0.00    -0.001 A 
ENDROOT
TORSDOF 0
ENDMDL
