MODEL 1
REMARK minimizedAffinity 0.172494382
REMARK minimizedRMSD -1
REMARK  0 active torsions:
REMARK  status: ('A' for Active; 'I' for Inactive)
ROOT
ATOM      1  C   UNL d   1       2.308   5.969  -3.523  0.00  0.00     0.078 C 
ATOM      2  C1  UNL d   1       3.581   5.264  -3.885  0.00  0.00    -0.077 A 
ATOM      3  C2  UNL d   1       3.620   3.871  -4.025  0.00  0.00    -0.001 A 
ATOM      4  C3  UNL d   1       4.814   3.228  -4.354  0.00  0.00     0.003 A 
ATOM      5  C4  UNL d   1       5.979   3.969  -4.544  0.00  0.00    -0.005 A 
ATOM      6  C5  UNL d   1       5.951   5.355  -4.404  0.00  0.00     0.003 A 
ATOM      7  C6  UNL d   1       4.757   6.000  -4.076  0.00  0.00    -0.001 A 
ENDROOT
TORSDOF 0
ENDMDL
