MODEL 1
REMARK minimizedAffinity 13.2461824
REMARK minimizedRMSD -1
REMARK  0 active torsions:
REMARK  status: ('A' for Active; 'I' for Inactive)
ROOT
ATOM      1  C   UNL d   1       2.711   5.997   1.344  0.00  0.00     0.078 C 
ATOM      2  C1  UNL d   1       1.383   5.302   1.404  0.00  0.00    -0.077 A 
ATOM      3  C2  UNL d   1       1.252   3.963   1.019  0.00  0.00    -0.001 A 
ATOM      4  C3  UNL d   1       0.008   3.332   1.071  0.00  0.00     0.003 A 
ATOM      5  C4  UNL d   1      -1.115   4.033   1.507  0.00  0.00    -0.005 A 
ATOM      6  C5  UNL d   1      -0.994   5.368   1.890  0.00  0.00     0.003 A 
ATOM      7  C6  UNL d   1       0.249   6.000   1.838  0.00  0.00    -0.001 A 
ENDROOT
TORSDOF 0
ENDMDL
