MODEL 1
REMARK minimizedAffinity 0.517356992
REMARK minimizedRMSD -1
REMARK  0 active torsions:
REMARK  status: ('A' for Active; 'I' for Inactive)
ROOT
ATOM      1  C   UNL d   1       6.000  -4.291   5.996  0.00  0.00     0.078 C 
ATOM      2  C1  UNL d   1       5.074  -3.349   5.285  0.00  0.00    -0.077 A 
ATOM      3  C2  UNL d   1       4.853  -3.459   3.907  0.00  0.00    -0.001 A 
ATOM      4  C3  UNL d   1       3.996  -2.569   3.257  0.00  0.00     0.003 A 
ATOM      5  C4  UNL d   1       3.354  -1.564   3.977  0.00  0.00    -0.005 A 
ATOM      6  C5  UNL d   1       3.569  -1.446   5.348  0.00  0.00     0.003 A 
ATOM      7  C6  UNL d   1       4.426  -2.334   6.000  0.00  0.00    -0.001 A 
ENDROOT
TORSDOF 0
ENDMDL
