MODEL 1
REMARK minimizedAffinity -2.77961302
REMARK minimizedRMSD -1
REMARK  0 active torsions:
REMARK  status: ('A' for Active; 'I' for Inactive)
ROOT
ATOM      1  C   UNL d   1       5.999  -5.383   5.992  0.00  0.00     0.078 C 
ATOM      2  C1  UNL d   1       5.534  -4.063   5.453  0.00  0.00    -0.077 A 
ATOM      3  C2  UNL d   1       5.997  -2.858   5.995  0.00  0.00    -0.001 A 
ATOM      4  C3  UNL d   1       5.548  -1.637   5.490  0.00  0.00     0.003 A 
ATOM      5  C4  UNL d   1       4.632  -1.609   4.440  0.00  0.00    -0.005 A 
ATOM      6  C5  UNL d   1       4.163  -2.803   3.895  0.00  0.00     0.003 A 
ATOM      7  C6  UNL d   1       4.611  -4.025   4.399  0.00  0.00    -0.001 A 
ENDROOT
TORSDOF 0
ENDMDL
