MODEL 1
REMARK minimizedAffinity -3.4149363
REMARK minimizedRMSD -1
REMARK  0 active torsions:
REMARK  status: ('A' for Active; 'I' for Inactive)
ROOT
ATOM      1  C   UNL d   1       5.993  -3.379   5.996  0.00  0.00     0.078 C 
ATOM      2  C1  UNL d   1       4.747  -2.956   5.276  0.00  0.00    -0.077 A 
ATOM      3  C2  UNL d   1       4.580  -3.216   3.911  0.00  0.00    -0.001 A 
ATOM      4  C3  UNL d   1       3.419  -2.808   3.252  0.00  0.00     0.003 A 
ATOM      5  C4  UNL d   1       2.417  -2.138   3.950  0.00  0.00    -0.005 A 
ATOM      6  C5  UNL d   1       2.575  -1.874   5.309  0.00  0.00     0.003 A 
ATOM      7  C6  UNL d   1       3.735  -2.280   5.969  0.00  0.00    -0.001 A 
ENDROOT
TORSDOF 0
ENDMDL
