MODEL 1
REMARK minimizedAffinity -3.79450321
REMARK minimizedRMSD -1
REMARK  0 active torsions:
REMARK  status: ('A' for Active; 'I' for Inactive)
ROOT
ATOM      1  C   UNL d   1       6.000  -4.796   4.829  0.00  0.00     0.078 C 
ATOM      2  C1  UNL d   1       5.034  -3.649   4.837  0.00  0.00    -0.077 A 
ATOM      3  C2  UNL d   1       4.821  -2.893   5.996  0.00  0.00    -0.001 A 
ATOM      4  C3  UNL d   1       3.912  -1.834   5.992  0.00  0.00     0.003 A 
ATOM      5  C4  UNL d   1       3.207  -1.523   4.831  0.00  0.00    -0.005 A 
ATOM      6  C5  UNL d   1       3.410  -2.270   3.673  0.00  0.00     0.003 A 
ATOM      7  C6  UNL d   1       4.319  -3.330   3.676  0.00  0.00    -0.001 A 
ENDROOT
TORSDOF 0
ENDMDL
