MODEL 1
REMARK minimizedAffinity -2.63051248
REMARK minimizedRMSD -1
REMARK  0 active torsions:
REMARK  status: ('A' for Active; 'I' for Inactive)
ROOT
ATOM      1  C   UNL d   1       6.000   6.000  -1.472  0.00  0.00     0.078 C 
ATOM      2  C1  UNL d   1       5.408   5.407  -2.716  0.00  0.00    -0.077 A 
ATOM      3  C2  UNL d   1       4.267   5.963  -3.307  0.00  0.00    -0.001 A 
ATOM      4  C3  UNL d   1       3.722   5.395  -4.460  0.00  0.00     0.003 A 
ATOM      5  C4  UNL d   1       4.310   4.267  -5.030  0.00  0.00    -0.005 A 
ATOM      6  C5  UNL d   1       5.445   3.706  -4.447  0.00  0.00     0.003 A 
ATOM      7  C6  UNL d   1       5.991   4.273  -3.294  0.00  0.00    -0.001 A 
ENDROOT
TORSDOF 0
ENDMDL
