MODEL 1
REMARK minimizedAffinity -1.14743769
REMARK minimizedRMSD -1
REMARK  0 active torsions:
REMARK  status: ('A' for Active; 'I' for Inactive)
ROOT
ATOM      1  C   UNL d   1       5.920   5.999  -1.804  0.00  0.00     0.078 C 
ATOM      2  C1  UNL d   1       5.375   5.402  -3.067  0.00  0.00    -0.077 A 
ATOM      3  C2  UNL d   1       4.237   5.934  -3.684  0.00  0.00    -0.001 A 
ATOM      4  C3  UNL d   1       3.735   5.362  -4.854  0.00  0.00     0.003 A 
ATOM      5  C4  UNL d   1       4.364   4.253  -5.416  0.00  0.00    -0.005 A 
ATOM      6  C5  UNL d   1       5.496   3.714  -4.807  0.00  0.00     0.003 A 
ATOM      7  C6  UNL d   1       6.000   4.286  -3.638  0.00  0.00    -0.001 A 
ENDROOT
TORSDOF 0
ENDMDL
