MODEL 1
REMARK minimizedAffinity 2.6550746
REMARK minimizedRMSD -1
REMARK  0 active torsions:
REMARK  status: ('A' for Active; 'I' for Inactive)
ROOT
ATOM      1  C   UNL d   1       5.999   5.998  -1.357  0.00  0.00     0.078 C 
ATOM      2  C1  UNL d   1       5.152   5.402  -2.442  0.00  0.00    -0.077 A 
ATOM      3  C2  UNL d   1       3.938   5.992  -2.814  0.00  0.00    -0.001 A 
ATOM      4  C3  UNL d   1       3.155   5.421  -3.819  0.00  0.00     0.003 A 
ATOM      5  C4  UNL d   1       3.577   4.258  -4.459  0.00  0.00    -0.005 A 
ATOM      6  C5  UNL d   1       4.783   3.663  -4.094  0.00  0.00     0.003 A 
ATOM      7  C6  UNL d   1       5.568   4.232  -3.090  0.00  0.00    -0.001 A 
ENDROOT
TORSDOF 0
ENDMDL
