MODEL 1
REMARK minimizedAffinity -3.51282454
REMARK minimizedRMSD -1
REMARK  0 active torsions:
REMARK  status: ('A' for Active; 'I' for Inactive)
ROOT
ATOM      1  C   UNL d   1       6.000   6.000  -1.733  0.00  0.00     0.078 C 
ATOM      2  C1  UNL d   1       5.364   5.255  -2.868  0.00  0.00    -0.077 A 
ATOM      3  C2  UNL d   1       6.000   4.153  -3.454  0.00  0.00    -0.001 A 
ATOM      4  C3  UNL d   1       5.400   3.475  -4.516  0.00  0.00     0.003 A 
ATOM      5  C4  UNL d   1       4.163   3.891  -5.003  0.00  0.00    -0.005 A 
ATOM      6  C5  UNL d   1       3.524   4.988  -4.429  0.00  0.00     0.003 A 
ATOM      7  C6  UNL d   1       4.121   5.667  -3.366  0.00  0.00    -0.001 A 
ENDROOT
TORSDOF 0
ENDMDL
