MODEL 1
REMARK minimizedAffinity -1.85692203
REMARK minimizedRMSD -1
REMARK  0 active torsions:
REMARK  status: ('A' for Active; 'I' for Inactive)
ROOT
ATOM      1  C   UNL d   1       5.555   5.987  -1.788  0.00  0.00     0.078 C 
ATOM      2  C1  UNL d   1       5.531   5.330  -3.135  0.00  0.00    -0.077 A 
ATOM      3  C2  UNL d   1       6.000   5.999  -4.273  0.00  0.00    -0.001 A 
ATOM      4  C3  UNL d   1       5.962   5.379  -5.522  0.00  0.00     0.003 A 
ATOM      5  C4  UNL d   1       5.454   4.087  -5.647  0.00  0.00    -0.005 A 
ATOM      6  C5  UNL d   1       4.984   3.414  -4.521  0.00  0.00     0.003 A 
ATOM      7  C6  UNL d   1       5.021   4.033  -3.271  0.00  0.00    -0.001 A 
ENDROOT
TORSDOF 0
ENDMDL
