MODEL 1
REMARK minimizedAffinity -3.60910368
REMARK minimizedRMSD -1
REMARK  0 active torsions:
REMARK  status: ('A' for Active; 'I' for Inactive)
ROOT
ATOM      1  C   UNL d   1       6.000  -4.871   4.391  0.00  0.00     0.078 C 
ATOM      2  C1  UNL d   1       5.079  -3.706   4.602  0.00  0.00    -0.077 A 
ATOM      3  C2  UNL d   1       5.072  -3.002   5.812  0.00  0.00    -0.001 A 
ATOM      4  C3  UNL d   1       4.203  -1.926   5.998  0.00  0.00     0.003 A 
ATOM      5  C4  UNL d   1       3.333  -1.545   4.978  0.00  0.00    -0.005 A 
ATOM      6  C5  UNL d   1       3.331  -2.241   3.771  0.00  0.00     0.003 A 
ATOM      7  C6  UNL d   1       4.200  -3.317   3.583  0.00  0.00    -0.001 A 
ENDROOT
TORSDOF 0
ENDMDL
