MODEL 1
REMARK minimizedAffinity 0.709638894
REMARK minimizedRMSD -1
REMARK  0 active torsions:
REMARK  status: ('A' for Active; 'I' for Inactive)
ROOT
ATOM      1  C   UNL d   1       6.000  -4.030   5.991  0.00  0.00     0.078 C 
ATOM      2  C1  UNL d   1       4.942  -3.197   5.331  0.00  0.00    -0.077 A 
ATOM      3  C2  UNL d   1       4.352  -2.118   6.000  0.00  0.00    -0.001 A 
ATOM      4  C3  UNL d   1       3.361  -1.357   5.376  0.00  0.00     0.003 A 
ATOM      5  C4  UNL d   1       2.952  -1.668   4.081  0.00  0.00    -0.005 A 
ATOM      6  C5  UNL d   1       3.532  -2.741   3.408  0.00  0.00     0.003 A 
ATOM      7  C6  UNL d   1       4.523  -3.503   4.030  0.00  0.00    -0.001 A 
ENDROOT
TORSDOF 0
ENDMDL
