MODEL 1
REMARK minimizedAffinity -2.55639696
REMARK minimizedRMSD -1
REMARK  0 active torsions:
REMARK  status: ('A' for Active; 'I' for Inactive)
ROOT
ATOM      1  C2' OXE d   1       2.511  -0.215   1.286  0.00  0.00     0.078 C 
ATOM      2  C1' OXE d   1       0.575  -2.245   1.381  0.00  0.00     0.078 C 
ATOM      3  C1  OXE d   1       0.194  -0.940   0.730  0.00  0.00    -0.078 A 
ATOM      4  C2  OXE d   1       1.132   0.064   0.729  0.00  0.00    -0.078 A 
ATOM      5  C3  OXE d   1       0.851   1.270   0.092  0.00  0.00     0.003 A 
ATOM      6  C4  OXE d   1      -0.431   1.524  -0.411  0.00  0.00    -0.002 A 
ATOM      7  C5  OXE d   1      -1.414   0.528  -0.385  0.00  0.00    -0.002 A 
ATOM      8  C6  OXE d   1      -1.105  -0.721   0.142  0.00  0.00     0.003 A 
ENDROOT
TORSDOF 0
ENDMDL
