MODEL 1
REMARK minimizedAffinity 4.47373486
REMARK minimizedRMSD -1
REMARK  0 active torsions:
REMARK  status: ('A' for Active; 'I' for Inactive)
ROOT
ATOM      1  C2' OXE d   1       1.258   1.490  -2.027  0.00  0.00     0.078 C 
ATOM      2  C1' OXE d   1      -0.616   1.016   0.009  0.00  0.00     0.078 C 
ATOM      3  C1  OXE d   1       0.842   1.066   0.392  0.00  0.00    -0.078 A 
ATOM      4  C2  OXE d   1       1.755   1.252  -0.618  0.00  0.00    -0.078 A 
ATOM      5  C3  OXE d   1       3.109   1.361  -0.312  0.00  0.00     0.003 A 
ATOM      6  C4  OXE d   1       3.562   1.130   0.993  0.00  0.00    -0.002 A 
ATOM      7  C5  OXE d   1       2.651   0.899   2.030  0.00  0.00    -0.002 A 
ATOM      8  C6  OXE d   1       1.288   0.907   1.754  0.00  0.00     0.003 A 
ENDROOT
TORSDOF 0
ENDMDL
