MODEL 1
REMARK minimizedAffinity -4.51032495
REMARK minimizedRMSD -1
REMARK  0 active torsions:
REMARK  status: ('A' for Active; 'I' for Inactive)
ROOT
ATOM      1  C2' OXE d   1       2.871  -0.652   1.238  0.00  0.00     0.078 C 
ATOM      2  C1' OXE d   1       0.322  -1.828   1.265  0.00  0.00     0.078 C 
ATOM      3  C1  OXE d   1       0.450  -0.440   0.688  0.00  0.00    -0.078 A 
ATOM      4  C2  OXE d   1       1.693   0.146   0.722  0.00  0.00    -0.078 A 
ATOM      5  C3  OXE d   1       1.878   1.403   0.153  0.00  0.00     0.003 A 
ATOM      6  C4  OXE d   1       0.781   2.138  -0.313  0.00  0.00    -0.002 A 
ATOM      7  C5  OXE d   1      -0.500   1.575  -0.320  0.00  0.00    -0.002 A 
ATOM      8  C6  OXE d   1      -0.675   0.274   0.137  0.00  0.00     0.003 A 
ENDROOT
TORSDOF 0
ENDMDL
