MODEL 1
REMARK minimizedAffinity 8.18686771
REMARK minimizedRMSD -1
REMARK  0 active torsions:
REMARK  status: ('A' for Active; 'I' for Inactive)
ROOT
ATOM      1  C2' OXE d   1       1.417  -0.435   1.909  0.00  0.00     0.078 C 
ATOM      2  C1' OXE d   1       0.163   1.911   2.805  0.00  0.00     0.078 C 
ATOM      3  C1  OXE d   1       0.715   1.900   1.401  0.00  0.00    -0.078 A 
ATOM      4  C2  OXE d   1       1.368   0.764   0.987  0.00  0.00    -0.078 A 
ATOM      5  C3  OXE d   1       1.847   0.681  -0.317  0.00  0.00     0.003 A 
ATOM      6  C4  OXE d   1       1.807   1.798  -1.160  0.00  0.00    -0.002 A 
ATOM      7  C5  OXE d   1       1.181   2.979  -0.744  0.00  0.00    -0.002 A 
ATOM      8  C6  OXE d   1       0.594   3.032   0.515  0.00  0.00     0.003 A 
ENDROOT
TORSDOF 0
ENDMDL
