MODEL 1
REMARK minimizedAffinity -5.06931257
REMARK minimizedRMSD -1
REMARK  0 active torsions:
REMARK  status: ('A' for Active; 'I' for Inactive)
ROOT
ATOM      1  C2' OXE d   1       1.205   2.223  -0.244  0.00  0.00     0.078 C 
ATOM      2  C1' OXE d   1       2.862   0.133   0.630  0.00  0.00     0.078 C 
ATOM      3  C1  OXE d   1       1.383  -0.143   0.513  0.00  0.00    -0.078 A 
ATOM      4  C2  OXE d   1       0.574   0.899   0.130  0.00  0.00    -0.078 A 
ATOM      5  C3  OXE d   1      -0.790   0.684  -0.046  0.00  0.00     0.003 A 
ATOM      6  C4  OXE d   1      -1.366  -0.541   0.311  0.00  0.00    -0.002 A 
ATOM      7  C5  OXE d   1      -0.565  -1.604   0.742  0.00  0.00    -0.002 A 
ATOM      8  C6  OXE d   1       0.814  -1.435   0.807  0.00  0.00     0.003 A 
ENDROOT
TORSDOF 0
ENDMDL
