MODEL 1
REMARK minimizedAffinity -3.63927007
REMARK minimizedRMSD -1
REMARK  0 active torsions:
REMARK  status: ('A' for Active; 'I' for Inactive)
ROOT
ATOM      1  C2' OXE d   1      -0.957   1.049   0.118  0.00  0.00     0.078 C 
ATOM      2  C1' OXE d   1       1.332   2.653  -0.143  0.00  0.00     0.078 C 
ATOM      3  C1  OXE d   1       1.527   1.202   0.220  0.00  0.00    -0.078 A 
ATOM      4  C2  OXE d   1       0.399   0.436   0.392  0.00  0.00    -0.078 A 
ATOM      5  C3  OXE d   1       0.524  -0.922   0.673  0.00  0.00     0.003 A 
ATOM      6  C4  OXE d   1       1.782  -1.479   0.934  0.00  0.00    -0.002 A 
ATOM      7  C5  OXE d   1       2.941  -0.707   0.804  0.00  0.00    -0.002 A 
ATOM      8  C6  OXE d   1       2.834   0.622   0.407  0.00  0.00     0.003 A 
ENDROOT
TORSDOF 0
ENDMDL
