MODEL 1
REMARK minimizedAffinity -0.917277634
REMARK minimizedRMSD -1
REMARK  0 active torsions:
REMARK  status: ('A' for Active; 'I' for Inactive)
ROOT
ATOM      1  C2' OXE d   1      -1.502  -1.251   1.172  0.00  0.00     0.078 C 
ATOM      2  C1' OXE d   1      -1.733  -0.038  -1.349  0.00  0.00     0.078 C 
ATOM      3  C1  OXE d   1      -0.503   0.268  -0.531  0.00  0.00    -0.078 A 
ATOM      4  C2  OXE d   1      -0.421  -0.293   0.720  0.00  0.00    -0.078 A 
ATOM      5  C3  OXE d   1       0.718  -0.087   1.494  0.00  0.00     0.003 A 
ATOM      6  C4  OXE d   1       1.709   0.808   1.074  0.00  0.00    -0.002 A 
ATOM      7  C5  OXE d   1       1.625   1.422  -0.181  0.00  0.00    -0.002 A 
ATOM      8  C6  OXE d   1       0.549   1.130  -1.011  0.00  0.00     0.003 A 
ENDROOT
TORSDOF 0
ENDMDL
