MODEL 1
REMARK minimizedAffinity -4.25808334
REMARK minimizedRMSD -1
REMARK  0 active torsions:
REMARK  status: ('A' for Active; 'I' for Inactive)
ROOT
ATOM      1  C2' OXE d   1      -0.908  -0.587   0.212  0.00  0.00     0.078 C 
ATOM      2  C1' OXE d   1       0.922   1.416  -0.508  0.00  0.00     0.078 C 
ATOM      3  C1  OXE d   1       1.424   0.278   0.344  0.00  0.00    -0.078 A 
ATOM      4  C2  OXE d   1       0.511  -0.674   0.731  0.00  0.00    -0.078 A 
ATOM      5  C3  OXE d   1       0.933  -1.774   1.471  0.00  0.00     0.003 A 
ATOM      6  C4  OXE d   1       2.245  -1.842   1.956  0.00  0.00    -0.002 A 
ATOM      7  C5  OXE d   1       3.182  -0.863   1.607  0.00  0.00    -0.002 A 
ATOM      8  C6  OXE d   1       2.799   0.179   0.769  0.00  0.00     0.003 A 
ENDROOT
TORSDOF 0
ENDMDL
