MODEL 1
REMARK minimizedAffinity -5.04464817
REMARK minimizedRMSD -1
REMARK  0 active torsions:
REMARK  status: ('A' for Active; 'I' for Inactive)
ROOT
ATOM      1  C2' OXE d   1       1.257  -0.343  -0.472  0.00  0.00     0.078 C 
ATOM      2  C1' OXE d   1      -1.327   0.546   0.171  0.00  0.00     0.078 C 
ATOM      3  C1  OXE d   1      -1.089   0.025  -1.224  0.00  0.00    -0.078 A 
ATOM      4  C2  OXE d   1       0.189  -0.364  -1.545  0.00  0.00    -0.078 A 
ATOM      5  C3  OXE d   1       0.451  -0.904  -2.801  0.00  0.00     0.003 A 
ATOM      6  C4  OXE d   1      -0.540  -0.911  -3.790  0.00  0.00    -0.002 A 
ATOM      7  C5  OXE d   1      -1.839  -0.482  -3.497  0.00  0.00    -0.002 A 
ATOM      8  C6  OXE d   1      -2.140  -0.052  -2.209  0.00  0.00     0.003 A 
ENDROOT
TORSDOF 0
ENDMDL
