MODEL 1
REMARK minimizedAffinity -5.41133833
REMARK minimizedRMSD -1
REMARK  0 active torsions:
REMARK  status: ('A' for Active; 'I' for Inactive)
ROOT
ATOM      1  C2' OXE d   1      -0.669   0.306  -0.964  0.00  0.00     0.078 C 
ATOM      2  C1' OXE d   1       0.532   2.439   0.410  0.00  0.00     0.078 C 
ATOM      3  C1  OXE d   1       1.087   1.055   0.636  0.00  0.00    -0.078 A 
ATOM      4  C2  OXE d   1       0.464   0.011  -0.004  0.00  0.00    -0.078 A 
ATOM      5  C3  OXE d   1       0.969  -1.279   0.127  0.00  0.00     0.003 A 
ATOM      6  C4  OXE d   1       2.010  -1.544   1.025  0.00  0.00    -0.002 A 
ATOM      7  C5  OXE d   1       2.634  -0.501   1.717  0.00  0.00    -0.002 A 
ATOM      8  C6  OXE d   1       2.213   0.807   1.502  0.00  0.00     0.003 A 
ENDROOT
TORSDOF 0
ENDMDL
