MODEL 1
REMARK minimizedAffinity -4.24159813
REMARK minimizedRMSD -1
REMARK  0 active torsions:
REMARK  status: ('A' for Active; 'I' for Inactive)
ROOT
ATOM      1  C2' OXE d   1      -0.167   0.748   0.183  0.00  0.00     0.078 C 
ATOM      2  C1' OXE d   1       0.793   0.746  -2.455  0.00  0.00     0.078 C 
ATOM      3  C1  OXE d   1      -0.646   0.357  -2.230  0.00  0.00    -0.078 A 
ATOM      4  C2  OXE d   1      -1.095   0.315  -0.931  0.00  0.00    -0.078 A 
ATOM      5  C3  OXE d   1      -2.429   0.016  -0.672  0.00  0.00     0.003 A 
ATOM      6  C4  OXE d   1      -3.278  -0.393  -1.707  0.00  0.00    -0.002 A 
ATOM      7  C5  OXE d   1      -2.830  -0.397  -3.033  0.00  0.00    -0.002 A 
ATOM      8  C6  OXE d   1      -1.533   0.016  -3.315  0.00  0.00     0.003 A 
ENDROOT
TORSDOF 0
ENDMDL
