MODEL 1
REMARK minimizedAffinity -1.17561936
REMARK minimizedRMSD -1
REMARK  0 active torsions:
REMARK  status: ('A' for Active; 'I' for Inactive)
ROOT
ATOM      1  C   UNL d   1      -4.224  -3.628  -0.005  0.00  0.00    -0.002 A 
ATOM      2  C1  UNL d   1      -3.508  -2.553   0.502  0.00  0.00     0.010 A 
ATOM      3  C2  UNL d   1      -2.666  -1.807  -0.326  0.00  0.00     0.041 A 
ATOM      4  C3  UNL d   1      -2.558  -2.161  -1.685  0.00  0.00    -0.075 A 
ATOM      5  S   UNL d   1      -1.590  -1.390  -2.886  0.00  0.00     0.015 SA
ATOM      6  C4  UNL d   1      -2.106  -2.469  -4.101  0.00  0.00     0.022 A 
ATOM      7  C5  UNL d   1      -2.995  -3.401  -3.619  0.00  0.00     0.026 A 
ATOM      8  C6  UNL d   1      -3.270  -3.238  -2.219  0.00  0.00    -0.082 A 
ATOM      9  C7  UNL d   1      -4.114  -3.976  -1.354  0.00  0.00     0.045 A 
ENDROOT
TORSDOF 0
ENDMDL
