MODEL 1
REMARK minimizedAffinity -1.78558254
REMARK minimizedRMSD -1
REMARK  0 active torsions:
REMARK  status: ('A' for Active; 'I' for Inactive)
ROOT
ATOM      1  C   UNL d   1      -2.880  -3.935  -2.988  0.00  0.00    -0.002 A 
ATOM      2  C1  UNL d   1      -2.961  -2.792  -3.771  0.00  0.00     0.010 A 
ATOM      3  C2  UNL d   1      -2.484  -1.570  -3.295  0.00  0.00     0.041 A 
ATOM      4  C3  UNL d   1      -1.917  -1.514  -2.006  0.00  0.00    -0.075 A 
ATOM      5  S   UNL d   1      -1.268  -0.127  -1.215  0.00  0.00     0.015 SA
ATOM      6  C4  UNL d   1      -0.866  -1.019   0.181  0.00  0.00     0.022 A 
ATOM      7  C5  UNL d   1      -1.213  -2.344   0.063  0.00  0.00     0.026 A 
ATOM      8  C6  UNL d   1      -1.824  -2.651  -1.199  0.00  0.00    -0.082 A 
ATOM      9  C7  UNL d   1      -2.317  -3.876  -1.710  0.00  0.00     0.045 A 
ENDROOT
TORSDOF 0
ENDMDL
