MODEL 1
REMARK minimizedAffinity 1.00592506
REMARK minimizedRMSD -1
REMARK  0 active torsions:
REMARK  status: ('A' for Active; 'I' for Inactive)
ROOT
ATOM      1  C   UNL d   1      -0.757   0.008   0.732  0.00  0.00    -0.002 A 
ATOM      2  C1  UNL d   1       0.058  -0.446  -0.295  0.00  0.00     0.010 A 
ATOM      3  C2  UNL d   1      -0.427  -1.357  -1.236  0.00  0.00     0.041 A 
ATOM      4  C3  UNL d   1      -1.758  -1.806  -1.127  0.00  0.00    -0.075 A 
ATOM      5  S   UNL d   1      -2.567  -2.919  -2.165  0.00  0.00     0.015 SA
ATOM      6  C4  UNL d   1      -4.014  -2.817  -1.270  0.00  0.00     0.022 A 
ATOM      7  C5  UNL d   1      -3.900  -1.959  -0.202  0.00  0.00     0.026 A 
ATOM      8  C6  UNL d   1      -2.598  -1.362  -0.102  0.00  0.00    -0.082 A 
ATOM      9  C7  UNL d   1      -2.076  -0.440   0.837  0.00  0.00     0.045 A 
ENDROOT
TORSDOF 0
ENDMDL
