MODEL 1
REMARK minimizedAffinity 6.83803797
REMARK minimizedRMSD -1
REMARK  0 active torsions:
REMARK  status: ('A' for Active; 'I' for Inactive)
ROOT
ATOM      1  C   UNL d   1      -3.372   2.729   4.596  0.00  0.00    -0.002 A 
ATOM      2  C1  UNL d   1      -3.441   1.874   3.506  0.00  0.00     0.010 A 
ATOM      3  C2  UNL d   1      -3.858   2.345   2.259  0.00  0.00     0.041 A 
ATOM      4  C3  UNL d   1      -4.205   3.704   2.126  0.00  0.00    -0.075 A 
ATOM      5  S   UNL d   1      -4.742   4.504   0.696  0.00  0.00     0.015 SA
ATOM      6  C4  UNL d   1      -4.890   6.000   1.499  0.00  0.00     0.022 A 
ATOM      7  C5  UNL d   1      -4.543   5.909   2.826  0.00  0.00     0.026 A 
ATOM      8  C6  UNL d   1      -4.142   4.585   3.209  0.00  0.00    -0.082 A 
ATOM      9  C7  UNL d   1      -3.717   4.076   4.460  0.00  0.00     0.045 A 
ENDROOT
TORSDOF 0
ENDMDL
