MODEL 1
REMARK minimizedAffinity 9.72835159
REMARK minimizedRMSD -1
REMARK  0 active torsions:
REMARK  status: ('A' for Active; 'I' for Inactive)
ROOT
ATOM      1  C   UNL d   1      -0.808   0.678  -1.042  0.00  0.00    -0.002 A 
ATOM      2  C1  UNL d   1      -0.169  -0.506  -0.702  0.00  0.00     0.010 A 
ATOM      3  C2  UNL d   1      -0.367  -1.085   0.553  0.00  0.00     0.041 A 
ATOM      4  C3  UNL d   1      -1.227  -0.449   1.469  0.00  0.00    -0.075 A 
ATOM      5  S   UNL d   1      -1.621  -0.975   3.063  0.00  0.00     0.015 SA
ATOM      6  C4  UNL d   1      -2.648   0.359   3.330  0.00  0.00     0.022 A 
ATOM      7  C5  UNL d   1      -2.700   1.196   2.241  0.00  0.00     0.026 A 
ATOM      8  C6  UNL d   1      -1.883   0.744   1.150  0.00  0.00    -0.082 A 
ATOM      9  C7  UNL d   1      -1.661   1.306  -0.130  0.00  0.00     0.045 A 
ENDROOT
TORSDOF 0
ENDMDL
