MODEL 1
REMARK minimizedAffinity 9.25304317
REMARK minimizedRMSD -1
REMARK  0 active torsions:
REMARK  status: ('A' for Active; 'I' for Inactive)
ROOT
ATOM      1  C   UNL d   1      -3.197   0.802   2.828  0.00  0.00    -0.002 A 
ATOM      2  C1  UNL d   1      -2.327   0.149   3.689  0.00  0.00     0.010 A 
ATOM      3  C2  UNL d   1      -1.195  -0.503   3.196  0.00  0.00     0.041 A 
ATOM      4  C3  UNL d   1      -0.949  -0.485   1.809  0.00  0.00    -0.075 A 
ATOM      5  S   UNL d   1       0.375  -1.215   0.979  0.00  0.00     0.015 SA
ATOM      6  C4  UNL d   1      -0.183  -0.676  -0.539  0.00  0.00     0.022 A 
ATOM      7  C5  UNL d   1      -1.349   0.044  -0.433  0.00  0.00     0.026 A 
ATOM      8  C6  UNL d   1      -1.810   0.166   0.921  0.00  0.00    -0.082 A 
ATOM      9  C7  UNL d   1      -2.949   0.817   1.452  0.00  0.00     0.045 A 
ENDROOT
TORSDOF 0
ENDMDL
