MODEL 1
REMARK minimizedAffinity -2.78927374
REMARK minimizedRMSD -1
REMARK  0 active torsions:
REMARK  status: ('A' for Active; 'I' for Inactive)
ROOT
ATOM      1  C   UNL d   1      -4.545   2.021   5.901  0.00  0.00    -0.002 A 
ATOM      2  C1  UNL d   1      -4.691   1.393   4.672  0.00  0.00     0.010 A 
ATOM      3  C2  UNL d   1      -4.932   2.141   3.517  0.00  0.00     0.041 A 
ATOM      4  C3  UNL d   1      -5.024   3.543   3.619  0.00  0.00    -0.075 A 
ATOM      5  S   UNL d   1      -5.312   4.662   2.340  0.00  0.00     0.015 SA
ATOM      6  C4  UNL d   1      -5.249   5.999   3.395  0.00  0.00     0.022 A 
ATOM      7  C5  UNL d   1      -5.014   5.619   4.695  0.00  0.00     0.026 A 
ATOM      8  C6  UNL d   1      -4.880   4.197   4.846  0.00  0.00    -0.082 A 
ATOM      9  C7  UNL d   1      -4.637   3.412   5.998  0.00  0.00     0.045 A 
ENDROOT
TORSDOF 0
ENDMDL
