MODEL 1
REMARK minimizedAffinity -0.0918729678
REMARK minimizedRMSD -1
REMARK  0 active torsions:
REMARK  status: ('A' for Active; 'I' for Inactive)
ROOT
ATOM      1  C   UNL d   1      -4.650   3.996   5.922  0.00  0.00    -0.002 A 
ATOM      2  C1  UNL d   1      -5.104   5.306   5.993  0.00  0.00     0.010 A 
ATOM      3  C2  UNL d   1      -5.455   5.999   4.833  0.00  0.00     0.041 A 
ATOM      4  C3  UNL d   1      -5.344   5.348   3.589  0.00  0.00    -0.075 A 
ATOM      5  S   UNL d   1      -5.718   5.999   2.037  0.00  0.00     0.015 SA
ATOM      6  C4  UNL d   1      -5.286   4.554   1.244  0.00  0.00     0.022 A 
ATOM      7  C5  UNL d   1      -4.863   3.588   2.127  0.00  0.00     0.026 A 
ATOM      8  C6  UNL d   1      -4.890   4.029   3.493  0.00  0.00    -0.082 A 
ATOM      9  C7  UNL d   1      -4.541   3.353   4.687  0.00  0.00     0.045 A 
ENDROOT
TORSDOF 0
ENDMDL
