MODEL 1
REMARK minimizedAffinity 13.4403067
REMARK minimizedRMSD -1
REMARK  0 active torsions:
REMARK  status: ('A' for Active; 'I' for Inactive)
ROOT
ATOM      1  C   UNL d   1       0.635   0.602   3.969  0.00  0.00    -0.002 A 
ATOM      2  C1  UNL d   1       1.551  -0.371   4.345  0.00  0.00     0.010 A 
ATOM      3  C2  UNL d   1       2.908  -0.063   4.455  0.00  0.00     0.041 A 
ATOM      4  C3  UNL d   1       3.333   1.252   4.180  0.00  0.00    -0.075 A 
ATOM      5  S   UNL d   1       4.946   1.859   4.251  0.00  0.00     0.015 SA
ATOM      6  C4  UNL d   1       4.456   3.424   3.785  0.00  0.00     0.022 A 
ATOM      7  C5  UNL d   1       3.099   3.499   3.577  0.00  0.00     0.026 A 
ATOM      8  C6  UNL d   1       2.430   2.248   3.802  0.00  0.00    -0.082 A 
ATOM      9  C7  UNL d   1       1.060   1.905   3.698  0.00  0.00     0.045 A 
ENDROOT
TORSDOF 0
ENDMDL
