MODEL 1
REMARK minimizedAffinity 2.95339155
REMARK minimizedRMSD -1
REMARK  0 active torsions:
REMARK  status: ('A' for Active; 'I' for Inactive)
ROOT
ATOM      1  C   UNL d   1      -4.043   5.583   1.218  0.00  0.00    -0.002 A 
ATOM      2  C1  UNL d   1      -5.384   5.923   1.329  0.00  0.00     0.010 A 
ATOM      3  C2  UNL d   1      -5.997   5.995   2.581  0.00  0.00     0.041 A 
ATOM      4  C3  UNL d   1      -5.232   5.718   3.731  0.00  0.00    -0.075 A 
ATOM      5  S   UNL d   1      -5.771   5.744   5.369  0.00  0.00     0.015 SA
ATOM      6  C4  UNL d   1      -4.234   5.305   5.960  0.00  0.00     0.022 A 
ATOM      7  C5  UNL d   1      -3.320   5.138   4.946  0.00  0.00     0.026 A 
ATOM      8  C6  UNL d   1      -3.880   5.374   3.645  0.00  0.00    -0.082 A 
ATOM      9  C7  UNL d   1      -3.288   5.309   2.361  0.00  0.00     0.045 A 
ENDROOT
TORSDOF 0
ENDMDL
