MODEL 1
REMARK minimizedAffinity 3.35837698
REMARK minimizedRMSD -1
REMARK  3 active torsions:
REMARK  status: ('A' for Active; 'I' for Inactive)
REMARK    1  A    between atoms: C3'_2  and  C2'_3 
REMARK    2  A    between atoms: C2'_3  and  C1'_4 
REMARK    3  A    between atoms: C1'_4  and  C1_5 
ROOT
ATOM      1  C1  N4B d   1      -3.483   3.259  -5.842  0.00  0.00    -0.075 A 
ATOM      2  C2  N4B d   1      -4.887   3.243  -5.992  0.00  0.00     0.002 A 
ATOM      3  C3  N4B d   1      -5.590   4.423  -5.997  0.00  0.00     0.002 A 
ATOM      4  C4  N4B d   1      -4.916   5.624  -5.835  0.00  0.00    -0.004 A 
ATOM      5  C5  N4B d   1      -3.557   5.632  -5.716  0.00  0.00     0.002 A 
ATOM      6  C6  N4B d   1      -2.837   4.455  -5.714  0.00  0.00     0.002 A 
ENDROOT
BRANCH   1   7
ATOM      7  C1' N4B d   1      -2.680   1.991  -5.745  0.00  0.00     0.057 C 
BRANCH   7   8
ATOM      8  C2' N4B d   1      -1.530   2.200  -4.764  0.00  0.00     0.009 C 
BRANCH   8   9
ATOM      9  C3' N4B d   1      -1.976   2.942  -3.516  0.00  0.00     0.004 C 
ATOM     10  C4' N4B d   1      -2.934   2.149  -2.678  0.00  0.00     0.003 C 
ENDBRANCH   8   9
ENDBRANCH   7   8
ENDBRANCH   1   7
TORSDOF 3
ENDMDL
