MODEL 1
REMARK minimizedAffinity 2.70388651
REMARK minimizedRMSD -1
REMARK  3 active torsions:
REMARK  status: ('A' for Active; 'I' for Inactive)
REMARK    1  A    between atoms: C3'_2  and  C2'_3 
REMARK    2  A    between atoms: C2'_3  and  C1'_4 
REMARK    3  A    between atoms: C1'_4  and  C1_5 
ROOT
ATOM      1  C1  N4B d   1       4.201  -3.596   4.931  0.00  0.00    -0.075 A 
ATOM      2  C2  N4B d   1       3.690  -4.825   4.457  0.00  0.00     0.002 A 
ATOM      3  C3  N4B d   1       4.333  -5.999   4.765  0.00  0.00     0.002 A 
ATOM      4  C4  N4B d   1       5.492  -5.968   5.525  0.00  0.00    -0.004 A 
ATOM      5  C5  N4B d   1       5.964  -4.780   6.000  0.00  0.00     0.002 A 
ATOM      6  C6  N4B d   1       5.327  -3.592   5.702  0.00  0.00     0.002 A 
ENDROOT
BRANCH   1   7
ATOM      7  C1' N4B d   1       3.582  -2.279   4.549  0.00  0.00     0.057 C 
BRANCH   7   8
ATOM      8  C2' N4B d   1       3.303  -2.273   3.049  0.00  0.00     0.009 C 
BRANCH   8   9
ATOM      9  C3' N4B d   1       2.011  -1.548   2.714  0.00  0.00     0.004 C 
ATOM     10  C4' N4B d   1       1.458  -1.935   1.375  0.00  0.00     0.003 C 
ENDBRANCH   8   9
ENDBRANCH   7   8
ENDBRANCH   1   7
TORSDOF 3
ENDMDL
