MODEL 1
REMARK minimizedAffinity 3.56511116
REMARK minimizedRMSD -1
REMARK  3 active torsions:
REMARK  status: ('A' for Active; 'I' for Inactive)
REMARK    1  A    between atoms: C3'_2  and  C2'_3 
REMARK    2  A    between atoms: C2'_3  and  C1'_4 
REMARK    3  A    between atoms: C1'_4  and  C1_5 
ROOT
ATOM      1  C1  N4B d   1       1.784  -0.662  -1.108  0.00  0.00    -0.075 A 
ATOM      2  C2  N4B d   1       2.832  -1.395  -0.510  0.00  0.00     0.002 A 
ATOM      3  C3  N4B d   1       2.621  -2.048   0.680  0.00  0.00     0.002 A 
ATOM      4  C4  N4B d   1       1.382  -1.967   1.297  0.00  0.00    -0.004 A 
ATOM      5  C5  N4B d   1       0.367  -1.278   0.700  0.00  0.00     0.002 A 
ATOM      6  C6  N4B d   1       0.564  -0.620  -0.498  0.00  0.00     0.002 A 
ENDROOT
BRANCH   1   7
ATOM      7  C1' N4B d   1       1.991   0.139  -2.364  0.00  0.00     0.057 C 
BRANCH   7   8
ATOM      8  C2' N4B d   1       2.567   1.504  -1.998  0.00  0.00     0.009 C 
BRANCH   8   9
ATOM      9  C3' N4B d   1       1.814   2.149  -0.847  0.00  0.00     0.004 C 
ATOM     10  C4' N4B d   1       2.704   2.960   0.047  0.00  0.00     0.003 C 
ENDBRANCH   8   9
ENDBRANCH   7   8
ENDBRANCH   1   7
TORSDOF 3
ENDMDL
