MODEL 1
REMARK minimizedAffinity 1.3816576
REMARK minimizedRMSD -1
REMARK  3 active torsions:
REMARK  status: ('A' for Active; 'I' for Inactive)
REMARK    1  A    between atoms: C3'_2  and  C2'_3 
REMARK    2  A    between atoms: C2'_3  and  C1'_4 
REMARK    3  A    between atoms: C1'_4  and  C1_5 
ROOT
ATOM      1  C1  N4B d   1      -0.465  -1.017   2.307  0.00  0.00    -0.075 A 
ATOM      2  C2  N4B d   1       0.010  -0.374   3.471  0.00  0.00     0.002 A 
ATOM      3  C3  N4B d   1      -0.733   0.620   4.059  0.00  0.00     0.002 A 
ATOM      4  C4  N4B d   1      -1.940   1.000   3.492  0.00  0.00    -0.004 A 
ATOM      5  C5  N4B d   1      -2.404   0.357   2.382  0.00  0.00     0.002 A 
ATOM      6  C6  N4B d   1      -1.670  -0.647   1.783  0.00  0.00     0.002 A 
ENDROOT
BRANCH   1   7
ATOM      7  C1' N4B d   1       0.351  -2.051   1.581  0.00  0.00     0.057 C 
BRANCH   7   8
ATOM      8  C2' N4B d   1       1.703  -1.449   1.208  0.00  0.00     0.009 C 
BRANCH   8   9
ATOM      9  C3' N4B d   1       2.262  -2.055  -0.068  0.00  0.00     0.004 C 
ATOM     10  C4' N4B d   1       1.961  -1.229  -1.283  0.00  0.00     0.003 C 
ENDBRANCH   8   9
ENDBRANCH   7   8
ENDBRANCH   1   7
TORSDOF 3
ENDMDL
