MODEL 1
REMARK minimizedAffinity 5.35878754
REMARK minimizedRMSD -1
REMARK  3 active torsions:
REMARK  status: ('A' for Active; 'I' for Inactive)
REMARK    1  A    between atoms: C3'_2  and  C2'_3 
REMARK    2  A    between atoms: C2'_3  and  C1'_4 
REMARK    3  A    between atoms: C1'_4  and  C1_5 
ROOT
ATOM      1  C1  N4B d   1       0.302  -1.294   0.911  0.00  0.00    -0.075 A 
ATOM      2  C2  N4B d   1      -0.435  -1.244  -0.293  0.00  0.00     0.002 A 
ATOM      3  C3  N4B d   1       0.220  -1.135  -1.495  0.00  0.00     0.002 A 
ATOM      4  C4  N4B d   1       1.605  -1.057  -1.517  0.00  0.00    -0.004 A 
ATOM      5  C5  N4B d   1       2.310  -1.132  -0.352  0.00  0.00     0.002 A 
ATOM      6  C6  N4B d   1       1.666  -1.245   0.863  0.00  0.00     0.002 A 
ENDROOT
BRANCH   1   7
ATOM      7  C1' N4B d   1      -0.373  -1.326   2.255  0.00  0.00     0.057 C 
BRANCH   7   8
ATOM      8  C2' N4B d   1      -0.069  -0.029   2.999  0.00  0.00     0.009 C 
BRANCH   8   9
ATOM      9  C3' N4B d   1      -1.213   0.386   3.908  0.00  0.00     0.004 C 
ATOM     10  C4' N4B d   1      -2.281   1.151   3.185  0.00  0.00     0.003 C 
ENDBRANCH   8   9
ENDBRANCH   7   8
ENDBRANCH   1   7
TORSDOF 3
ENDMDL
