MODEL 1
REMARK minimizedAffinity 0.508978128
REMARK minimizedRMSD -1
REMARK  3 active torsions:
REMARK  status: ('A' for Active; 'I' for Inactive)
REMARK    1  A    between atoms: C3'_2  and  C2'_3 
REMARK    2  A    between atoms: C2'_3  and  C1'_4 
REMARK    3  A    between atoms: C1'_4  and  C1_5 
ROOT
ATOM      1  C1  N4B d   1       2.191  -0.627  -0.324  0.00  0.00    -0.075 A 
ATOM      2  C2  N4B d   1       2.604   0.674   0.039  0.00  0.00     0.002 A 
ATOM      3  C3  N4B d   1       2.366   1.730  -0.807  0.00  0.00     0.002 A 
ATOM      4  C4  N4B d   1       1.737   1.507  -2.022  0.00  0.00    -0.004 A 
ATOM      5  C5  N4B d   1       1.319   0.251  -2.354  0.00  0.00     0.002 A 
ATOM      6  C6  N4B d   1       1.548  -0.819  -1.512  0.00  0.00     0.002 A 
ENDROOT
BRANCH   1   7
ATOM      7  C1' N4B d   1       2.506  -1.826   0.529  0.00  0.00     0.057 C 
BRANCH   7   8
ATOM      8  C2' N4B d   1       1.608  -1.813   1.762  0.00  0.00     0.009 C 
BRANCH   8   9
ATOM      9  C3' N4B d   1       2.320  -1.245   2.977  0.00  0.00     0.004 C 
ATOM     10  C4' N4B d   1       1.651  -0.018   3.522  0.00  0.00     0.003 C 
ENDBRANCH   8   9
ENDBRANCH   7   8
ENDBRANCH   1   7
TORSDOF 3
ENDMDL
