MODEL 1
REMARK minimizedAffinity -3.88324642
REMARK minimizedRMSD -1
REMARK  1 active torsions:
REMARK  status: ('A' for Active; 'I' for Inactive)
REMARK    1  A    between atoms: C1_2  and  C2_3 
ROOT
ATOM      1  C2  UNL d   1       0.727   0.289  -0.311  0.00  0.00    -0.081 A 
ATOM      2  C3  UNL d   1      -0.475  -0.336  -0.664  0.00  0.00     0.006 A 
ATOM      3  C4  UNL d   1      -1.553  -0.351   0.224  0.00  0.00     0.002 A 
ATOM      4  C5  UNL d   1      -1.450   0.264   1.476  0.00  0.00    -0.080 A 
ATOM      5  C6  UNL d   1      -2.610   0.281   2.427  0.00  0.00     0.076 C 
ATOM      6  C7  UNL d   1      -0.243   0.874   1.836  0.00  0.00     0.002 A 
ATOM      7  C8  UNL d   1       0.835   0.889   0.949  0.00  0.00     0.006 A 
ENDROOT
BRANCH   1   8
ATOM      8  C1  UNL d   1       1.869   0.364  -1.292  0.00  0.00     0.054 C 
ATOM      9  C   UNL d   1       1.380   0.740  -2.683  0.00  0.00     0.018 C 
ENDBRANCH   1   8
TORSDOF 1
ENDMDL
