MODEL 1
REMARK minimizedAffinity 25.5061817
REMARK minimizedRMSD -1
REMARK  0 active torsions:
REMARK  status: ('A' for Active; 'I' for Inactive)
ROOT
ATOM      1  C   UNL d   1      -4.851   3.428  -1.095  0.00  0.00     0.124 A 
ATOM      2  C1  UNL d   1      -4.261   2.740  -0.044  0.00  0.00     0.062 A 
ATOM      3  C2  UNL d   1      -4.244   1.349  -0.039  0.00  0.00     0.162 A 
ATOM      4  C3  UNL d   1      -4.819   0.634  -1.090  0.00  0.00    -0.034 A 
ATOM      5  C4  UNL d   1      -5.412   1.333  -2.144  0.00  0.00     0.162 A 
ATOM      6  C5  UNL d   1      -5.426   2.724  -2.144  0.00  0.00     0.062 A 
ATOM      7  F   UNL d   1      -5.996   3.386  -3.161  0.00  0.00    -0.097 F 
ATOM      8  F1  UNL d   1      -5.973   0.677  -3.171  0.00  0.00    -0.096 F 
ATOM      9  I   UNL d   1      -4.796  -1.447  -1.087  0.00  0.00    -0.060 I 
ATOM     10  F2  UNL d   1      -3.667   0.711   0.990  0.00  0.00    -0.096 F 
ATOM     11  F3  UNL d   1      -3.706   3.418   0.971  0.00  0.00    -0.097 F 
ATOM     12  F4  UNL d   1      -4.867   4.767  -1.097  0.00  0.00    -0.092 F 
ENDROOT
TORSDOF 0
ENDMDL
