MODEL 1
REMARK minimizedAffinity 15.9899969
REMARK minimizedRMSD -1
REMARK  0 active torsions:
REMARK  status: ('A' for Active; 'I' for Inactive)
ROOT
ATOM      1  C   UNL d   1       3.053   0.476   0.556  0.00  0.00     0.124 A 
ATOM      2  C1  UNL d   1       2.511  -0.779   0.794  0.00  0.00     0.062 A 
ATOM      3  C2  UNL d   1       2.312  -1.667  -0.259  0.00  0.00     0.162 A 
ATOM      4  C3  UNL d   1       2.656  -1.303  -1.561  0.00  0.00    -0.034 A 
ATOM      5  C4  UNL d   1       3.200  -0.038  -1.793  0.00  0.00     0.162 A 
ATOM      6  C5  UNL d   1       3.397   0.846  -0.736  0.00  0.00     0.062 A 
ATOM      7  F   UNL d   1       3.921   2.058  -0.968  0.00  0.00    -0.097 F 
ATOM      8  F1  UNL d   1       3.542   0.345  -3.032  0.00  0.00    -0.096 F 
ATOM      9  I   UNL d   1       2.360  -2.627  -3.139  0.00  0.00    -0.060 I 
ATOM     10  F2  UNL d   1       1.786  -2.873  -0.000  0.00  0.00    -0.096 F 
ATOM     11  F3  UNL d   1       2.177  -1.138   2.042  0.00  0.00    -0.097 F 
ATOM     12  F4  UNL d   1       3.243   1.329   1.572  0.00  0.00    -0.092 F 
ENDROOT
TORSDOF 0
ENDMDL
