MODEL 1
REMARK minimizedAffinity 17.7241631
REMARK minimizedRMSD -1
REMARK  0 active torsions:
REMARK  status: ('A' for Active; 'I' for Inactive)
ROOT
ATOM      1  C   UNL d   1       3.082   1.111  -1.481  0.00  0.00     0.124 A 
ATOM      2  C1  UNL d   1       4.161   1.984  -1.462  0.00  0.00     0.062 A 
ATOM      3  C2  UNL d   1       4.658   2.457  -0.251  0.00  0.00     0.162 A 
ATOM      4  C3  UNL d   1       4.076   2.057   0.952  0.00  0.00    -0.034 A 
ATOM      5  C4  UNL d   1       2.991   1.179   0.925  0.00  0.00     0.162 A 
ATOM      6  C5  UNL d   1       2.498   0.709  -0.288  0.00  0.00     0.062 A 
ATOM      7  F   UNL d   1       1.456  -0.134  -0.304  0.00  0.00    -0.097 F 
ATOM      8  F1  UNL d   1       2.408   0.775   2.064  0.00  0.00    -0.096 F 
ATOM      9  I   UNL d   1       4.816   2.762   2.765  0.00  0.00    -0.060 I 
ATOM     10  F2  UNL d   1       5.701   3.299  -0.263  0.00  0.00    -0.096 F 
ATOM     11  F3  UNL d   1       4.726   2.373  -2.614  0.00  0.00    -0.097 F 
ATOM     12  F4  UNL d   1       2.606   0.658  -2.648  0.00  0.00    -0.092 F 
ENDROOT
TORSDOF 0
ENDMDL
