MODEL 1
REMARK minimizedAffinity 20.3988247
REMARK minimizedRMSD -1
REMARK  0 active torsions:
REMARK  status: ('A' for Active; 'I' for Inactive)
ROOT
ATOM      1  C   UNL d   1       2.135   0.988   0.329  0.00  0.00     0.124 A 
ATOM      2  C1  UNL d   1       2.614  -0.296   0.106  0.00  0.00     0.062 A 
ATOM      3  C2  UNL d   1       1.974  -1.134  -0.802  0.00  0.00     0.162 A 
ATOM      4  C3  UNL d   1       0.847  -0.691  -1.494  0.00  0.00    -0.034 A 
ATOM      5  C4  UNL d   1       0.370   0.600  -1.264  0.00  0.00     0.162 A 
ATOM      6  C5  UNL d   1       1.014   1.434  -0.356  0.00  0.00     0.062 A 
ATOM      7  F   UNL d   1       0.549   2.674  -0.141  0.00  0.00    -0.097 F 
ATOM      8  F1  UNL d   1      -0.711   1.058  -1.913  0.00  0.00    -0.096 F 
ATOM      9  I   UNL d   1      -0.114  -1.942  -2.853  0.00  0.00    -0.060 I 
ATOM     10  F2  UNL d   1       2.459  -2.369  -0.998  0.00  0.00    -0.096 F 
ATOM     11  F3  UNL d   1       3.697  -0.730   0.767  0.00  0.00    -0.097 F 
ATOM     12  F4  UNL d   1       2.753   1.792   1.204  0.00  0.00    -0.092 F 
ENDROOT
TORSDOF 0
ENDMDL
