MODEL 1
REMARK minimizedAffinity 27.1388092
REMARK minimizedRMSD -1
REMARK  0 active torsions:
REMARK  status: ('A' for Active; 'I' for Inactive)
ROOT
ATOM      1  C   UNL d   1       2.737  -1.331   0.012  0.00  0.00     0.124 A 
ATOM      2  C1  UNL d   1       3.604  -1.275   1.094  0.00  0.00     0.062 A 
ATOM      3  C2  UNL d   1       4.143  -0.057   1.498  0.00  0.00     0.162 A 
ATOM      4  C3  UNL d   1       3.815   1.117   0.819  0.00  0.00    -0.034 A 
ATOM      5  C4  UNL d   1       2.943   1.053  -0.269  0.00  0.00     0.162 A 
ATOM      6  C5  UNL d   1       2.407  -0.167  -0.668  0.00  0.00     0.062 A 
ATOM      7  F   UNL d   1       1.570  -0.218  -1.714  0.00  0.00    -0.097 F 
ATOM      8  F1  UNL d   1       2.607   2.162  -0.944  0.00  0.00    -0.096 F 
ATOM      9  I   UNL d   1       4.619   2.940   1.420  0.00  0.00    -0.060 I 
ATOM     10  F2  UNL d   1       4.978  -0.034   2.547  0.00  0.00    -0.096 F 
ATOM     11  F3  UNL d   1       3.925  -2.399   1.753  0.00  0.00    -0.097 F 
ATOM     12  F4  UNL d   1       2.220  -2.504  -0.375  0.00  0.00    -0.092 F 
ENDROOT
TORSDOF 0
ENDMDL
