MODEL 1
REMARK minimizedAffinity 18.3270988
REMARK minimizedRMSD -1
REMARK  0 active torsions:
REMARK  status: ('A' for Active; 'I' for Inactive)
ROOT
ATOM      1  C   UNL d   1       4.091   1.121  -1.612  0.00  0.00     0.124 A 
ATOM      2  C1  UNL d   1       3.118   0.694  -0.720  0.00  0.00     0.062 A 
ATOM      3  C2  UNL d   1       3.109   1.172   0.588  0.00  0.00     0.162 A 
ATOM      4  C3  UNL d   1       4.078   2.082   1.011  0.00  0.00    -0.034 A 
ATOM      5  C4  UNL d   1       5.054   2.506   0.108  0.00  0.00     0.162 A 
ATOM      6  C5  UNL d   1       5.058   2.026  -1.198  0.00  0.00     0.062 A 
ATOM      7  F   UNL d   1       6.000   2.439  -2.059  0.00  0.00    -0.097 F 
ATOM      8  F1  UNL d   1       6.000   3.380   0.481  0.00  0.00    -0.096 F 
ATOM      9  I   UNL d   1       4.068   2.798   2.965  0.00  0.00    -0.060 I 
ATOM     10  F2  UNL d   1       2.157   0.742   1.429  0.00  0.00    -0.096 F 
ATOM     11  F3  UNL d   1       2.183  -0.181  -1.117  0.00  0.00    -0.097 F 
ATOM     12  F4  UNL d   1       4.098   0.659  -2.869  0.00  0.00    -0.092 F 
ENDROOT
TORSDOF 0
ENDMDL
