MODEL 1
REMARK minimizedAffinity 28.4814243
REMARK minimizedRMSD -1
REMARK  0 active torsions:
REMARK  status: ('A' for Active; 'I' for Inactive)
ROOT
ATOM      1  C   UNL d   1       2.117   0.005  -0.539  0.00  0.00     0.124 A 
ATOM      2  C1  UNL d   1       2.981   1.090  -0.612  0.00  0.00     0.062 A 
ATOM      3  C2  UNL d   1       4.090   1.159   0.226  0.00  0.00     0.162 A 
ATOM      4  C3  UNL d   1       4.342   0.140   1.145  0.00  0.00    -0.034 A 
ATOM      5  C4  UNL d   1       3.469  -0.947   1.213  0.00  0.00     0.162 A 
ATOM      6  C5  UNL d   1       2.362  -1.011   0.373  0.00  0.00     0.062 A 
ATOM      7  F   UNL d   1       1.529  -2.060   0.445  0.00  0.00    -0.097 F 
ATOM      8  F1  UNL d   1       3.682  -1.944   2.084  0.00  0.00    -0.096 F 
ATOM      9  I   UNL d   1       5.999   0.241   2.400  0.00  0.00    -0.060 I 
ATOM     10  F2  UNL d   1       4.907   2.219   0.134  0.00  0.00    -0.096 F 
ATOM     11  F3  UNL d   1       2.746   2.074  -1.492  0.00  0.00    -0.097 F 
ATOM     12  F4  UNL d   1       1.051  -0.058  -1.347  0.00  0.00    -0.092 F 
ENDROOT
TORSDOF 0
ENDMDL
