MODEL 1
REMARK minimizedAffinity 24.7488098
REMARK minimizedRMSD -1
REMARK  0 active torsions:
REMARK  status: ('A' for Active; 'I' for Inactive)
ROOT
ATOM      1  C   UNL d   1       3.006   2.349   2.694  0.00  0.00     0.124 A 
ATOM      2  C1  UNL d   1       3.635   3.577   2.541  0.00  0.00     0.062 A 
ATOM      3  C2  UNL d   1       3.354   4.621   3.418  0.00  0.00     0.162 A 
ATOM      4  C3  UNL d   1       2.441   4.441   4.456  0.00  0.00    -0.034 A 
ATOM      5  C4  UNL d   1       1.812   3.204   4.603  0.00  0.00     0.162 A 
ATOM      6  C5  UNL d   1       2.095   2.164   3.724  0.00  0.00     0.062 A 
ATOM      7  F   UNL d   1       1.487   0.978   3.874  0.00  0.00    -0.097 F 
ATOM      8  F1  UNL d   1       0.928   2.997   5.591  0.00  0.00    -0.096 F 
ATOM      9  I   UNL d   1       2.018   6.000   5.769  0.00  0.00    -0.060 I 
ATOM     10  F2  UNL d   1       3.977   5.797   3.246  0.00  0.00    -0.096 F 
ATOM     11  F3  UNL d   1       4.515   3.759   1.546  0.00  0.00    -0.097 F 
ATOM     12  F4  UNL d   1       3.278   1.346   1.848  0.00  0.00    -0.092 F 
ENDROOT
TORSDOF 0
ENDMDL
