MODEL 1
REMARK minimizedAffinity 23.5977421
REMARK minimizedRMSD -1
REMARK  0 active torsions:
REMARK  status: ('A' for Active; 'I' for Inactive)
ROOT
ATOM      1  C   UNL d   1      -4.518   0.715  -0.353  0.00  0.00     0.124 A 
ATOM      2  C1  UNL d   1      -3.310   1.346  -0.613  0.00  0.00     0.062 A 
ATOM      3  C2  UNL d   1      -2.414   0.795  -1.525  0.00  0.00     0.162 A 
ATOM      4  C3  UNL d   1      -2.724  -0.393  -2.186  0.00  0.00    -0.034 A 
ATOM      5  C4  UNL d   1      -3.941  -1.023  -1.918  0.00  0.00     0.162 A 
ATOM      6  C5  UNL d   1      -4.833  -0.469  -1.006  0.00  0.00     0.062 A 
ATOM      7  F   UNL d   1      -6.000  -1.080  -0.756  0.00  0.00    -0.097 F 
ATOM      8  F1  UNL d   1      -4.271  -2.167  -2.536  0.00  0.00    -0.096 F 
ATOM      9  I   UNL d   1      -1.388  -1.220  -3.550  0.00  0.00    -0.060 I 
ATOM     10  F2  UNL d   1      -1.254   1.427  -1.757  0.00  0.00    -0.096 F 
ATOM     11  F3  UNL d   1      -3.003   2.489   0.017  0.00  0.00    -0.097 F 
ATOM     12  F4  UNL d   1      -5.378   1.246   0.526  0.00  0.00    -0.092 F 
ENDROOT
TORSDOF 0
ENDMDL
