MODEL 1
REMARK minimizedAffinity 11.2476816
REMARK minimizedRMSD -1
REMARK  0 active torsions:
REMARK  status: ('A' for Active; 'I' for Inactive)
ROOT
ATOM      1  C   UNL d   1      -2.321   0.185  -2.236  0.00  0.00     0.124 A 
ATOM      2  C1  UNL d   1      -3.709   0.175  -2.227  0.00  0.00     0.062 A 
ATOM      3  C2  UNL d   1      -4.406   0.666  -1.127  0.00  0.00     0.162 A 
ATOM      4  C3  UNL d   1      -3.716   1.173  -0.026  0.00  0.00    -0.034 A 
ATOM      5  C4  UNL d   1      -2.320   1.179  -0.042  0.00  0.00     0.162 A 
ATOM      6  C5  UNL d   1      -1.628   0.687  -1.143  0.00  0.00     0.062 A 
ATOM      7  F   UNL d   1      -0.287   0.698  -1.150  0.00  0.00    -0.097 F 
ATOM      8  F1  UNL d   1      -1.625   1.660   1.000  0.00  0.00    -0.096 F 
ATOM      9  I   UNL d   1      -4.754   1.909   1.621  0.00  0.00    -0.060 I 
ATOM     10  F2  UNL d   1      -5.747   0.644  -1.146  0.00  0.00    -0.096 F 
ATOM     11  F3  UNL d   1      -4.381  -0.311  -3.281  0.00  0.00    -0.097 F 
ATOM     12  F4  UNL d   1      -1.653  -0.289  -3.295  0.00  0.00    -0.092 F 
ENDROOT
TORSDOF 0
ENDMDL
