MODEL 1
REMARK minimizedAffinity 34.7240791
REMARK minimizedRMSD -1
REMARK  0 active torsions:
REMARK  status: ('A' for Active; 'I' for Inactive)
ROOT
ATOM      1  C   UNL d   1      -3.377  -0.299  -1.461  0.00  0.00     0.124 A 
ATOM      2  C1  UNL d   1      -4.315   0.121  -0.528  0.00  0.00     0.062 A 
ATOM      3  C2  UNL d   1      -4.249   1.407  -0.000  0.00  0.00     0.162 A 
ATOM      4  C3  UNL d   1      -3.243   2.284  -0.406  0.00  0.00    -0.034 A 
ATOM      5  C4  UNL d   1      -2.304   1.854  -1.344  0.00  0.00     0.162 A 
ATOM      6  C5  UNL d   1      -2.373   0.567  -1.869  0.00  0.00     0.062 A 
ATOM      7  F   UNL d   1      -1.467   0.163  -2.770  0.00  0.00    -0.097 F 
ATOM      8  F1  UNL d   1      -1.323   2.671  -1.756  0.00  0.00    -0.096 F 
ATOM      9  I   UNL d   1      -3.142   4.208   0.381  0.00  0.00    -0.060 I 
ATOM     10  F2  UNL d   1      -5.168   1.786   0.900  0.00  0.00    -0.096 F 
ATOM     11  F3  UNL d   1      -5.285  -0.715  -0.132  0.00  0.00    -0.097 F 
ATOM     12  F4  UNL d   1      -3.442  -1.538  -1.966  0.00  0.00    -0.092 F 
ENDROOT
TORSDOF 0
ENDMDL
