MODEL 1
REMARK minimizedAffinity 5.52345657
REMARK minimizedRMSD -1
REMARK  0 active torsions:
REMARK  status: ('A' for Active; 'I' for Inactive)
ROOT
ATOM      1  C   UNL d   1      -1.026   1.878   2.599  0.00  0.00     0.020 A 
ATOM      2  C1  UNL d   1       0.027   1.268   3.280  0.00  0.00     0.020 A 
ATOM      3  C2  UNL d   1       1.082   0.698   2.566  0.00  0.00     0.034 A 
ATOM      4  C3  UNL d   1       1.088   0.736   1.167  0.00  0.00     0.017 A 
ATOM      5  C4  UNL d   1       0.031   1.349   0.484  0.00  0.00     0.017 A 
ATOM      6  C5  UNL d   1      -1.024   1.919   1.204  0.00  0.00     0.034 A 
ATOM      7 Cl   UNL d   1      -0.033   1.436  -1.241  0.00  0.00    -0.070 Cl
ATOM      8 Cl1  UNL d   1       2.426   0.011   0.348  0.00  0.00    -0.070 Cl
ENDROOT
TORSDOF 0
ENDMDL
