MODEL 1
REMARK minimizedAffinity 9.92313862
REMARK minimizedRMSD -1
REMARK  0 active torsions:
REMARK  status: ('A' for Active; 'I' for Inactive)
ROOT
ATOM      1  C   UNL d   1       5.901   0.861  -0.040  0.00  0.00     0.020 A 
ATOM      2  C1  UNL d   1       5.271   2.066  -0.349  0.00  0.00     0.020 A 
ATOM      3  C2  UNL d   1       3.896   2.093  -0.591  0.00  0.00     0.034 A 
ATOM      4  C3  UNL d   1       3.146   0.913  -0.524  0.00  0.00     0.017 A 
ATOM      5  C4  UNL d   1       3.779  -0.296  -0.213  0.00  0.00     0.017 A 
ATOM      6  C5  UNL d   1       5.156  -0.317   0.028  0.00  0.00     0.034 A 
ATOM      7 Cl   UNL d   1       2.921  -1.793  -0.112  0.00  0.00    -0.070 Cl
ATOM      8 Cl1  UNL d   1       1.450   1.020  -0.834  0.00  0.00    -0.070 Cl
ENDROOT
TORSDOF 0
ENDMDL
