MODEL 1
REMARK minimizedAffinity 12.7958479
REMARK minimizedRMSD -1
REMARK  0 active torsions:
REMARK  status: ('A' for Active; 'I' for Inactive)
ROOT
ATOM      1  C   UNL d   1      -4.851  -0.497  -1.115  0.00  0.00     0.020 A 
ATOM      2  C1  UNL d   1      -5.944   0.363  -1.027  0.00  0.00     0.020 A 
ATOM      3  C2  UNL d   1      -5.985   1.522  -1.806  0.00  0.00     0.034 A 
ATOM      4  C3  UNL d   1      -4.931   1.823  -2.676  0.00  0.00     0.017 A 
ATOM      5  C4  UNL d   1      -3.834   0.958  -2.763  0.00  0.00     0.017 A 
ATOM      6  C5  UNL d   1      -3.798  -0.200  -1.981  0.00  0.00     0.034 A 
ATOM      7 Cl   UNL d   1      -2.495   1.262  -3.813  0.00  0.00    -0.070 Cl
ATOM      8 Cl1  UNL d   1      -5.048   3.272  -3.610  0.00  0.00    -0.070 Cl
ENDROOT
TORSDOF 0
ENDMDL
