MODEL 1
REMARK minimizedAffinity 9.65793991
REMARK minimizedRMSD -1
REMARK  0 active torsions:
REMARK  status: ('A' for Active; 'I' for Inactive)
ROOT
ATOM      1  C   UNL d   1       5.663   1.560  -0.060  0.00  0.00     0.020 A 
ATOM      2  C1  UNL d   1       4.884   2.643   0.345  0.00  0.00     0.020 A 
ATOM      3  C2  UNL d   1       3.492   2.533   0.367  0.00  0.00     0.034 A 
ATOM      4  C3  UNL d   1       2.875   1.336  -0.016  0.00  0.00     0.017 A 
ATOM      5  C4  UNL d   1       3.657   0.249  -0.421  0.00  0.00     0.017 A 
ATOM      6  C5  UNL d   1       5.051   0.365  -0.442  0.00  0.00     0.034 A 
ATOM      7 Cl   UNL d   1       2.968  -1.259  -0.907  0.00  0.00    -0.070 Cl
ATOM      8 Cl1  UNL d   1       1.149   1.270   0.037  0.00  0.00    -0.070 Cl
ENDROOT
TORSDOF 0
ENDMDL
