MODEL 1
REMARK minimizedAffinity 8.97918224
REMARK minimizedRMSD -1
REMARK  0 active torsions:
REMARK  status: ('A' for Active; 'I' for Inactive)
ROOT
ATOM      1  C   UNL d   1       3.735   1.284  -1.173  0.00  0.00     0.020 A 
ATOM      2  C1  UNL d   1       5.043   1.510  -0.747  0.00  0.00     0.020 A 
ATOM      3  C2  UNL d   1       5.644   0.631   0.157  0.00  0.00     0.034 A 
ATOM      4  C3  UNL d   1       4.938  -0.478   0.636  0.00  0.00     0.017 A 
ATOM      5  C4  UNL d   1       3.625  -0.704   0.208  0.00  0.00     0.017 A 
ATOM      6  C5  UNL d   1       3.027   0.179  -0.697  0.00  0.00     0.034 A 
ATOM      7 Cl   UNL d   1       2.690  -2.051   0.755  0.00  0.00    -0.070 Cl
ATOM      8 Cl1  UNL d   1       5.744  -1.523   1.751  0.00  0.00    -0.070 Cl
ENDROOT
TORSDOF 0
ENDMDL
