MODEL 1
REMARK minimizedAffinity 5.57270956
REMARK minimizedRMSD -1
REMARK  0 active torsions:
REMARK  status: ('A' for Active; 'I' for Inactive)
ROOT
ATOM      1  C   UNL d   1       3.725   0.624  -0.965  0.00  0.00     0.020 A 
ATOM      2  C1  UNL d   1       2.676   0.534  -0.050  0.00  0.00     0.020 A 
ATOM      3  C2  UNL d   1       1.838  -0.583  -0.058  0.00  0.00     0.034 A 
ATOM      4  C3  UNL d   1       2.046  -1.614  -0.981  0.00  0.00     0.017 A 
ATOM      5  C4  UNL d   1       3.099  -1.522  -1.899  0.00  0.00     0.017 A 
ATOM      6  C5  UNL d   1       3.935  -0.401  -1.887  0.00  0.00     0.034 A 
ATOM      7 Cl   UNL d   1       3.419  -2.753  -3.069  0.00  0.00    -0.070 Cl
ATOM      8 Cl1  UNL d   1       0.971  -2.965  -0.933  0.00  0.00    -0.070 Cl
ENDROOT
TORSDOF 0
ENDMDL
