MODEL 1
REMARK minimizedAffinity 8.72091293
REMARK minimizedRMSD -1
REMARK  0 active torsions:
REMARK  status: ('A' for Active; 'I' for Inactive)
ROOT
ATOM      1  C   UNL d   1      -6.000   1.149  -1.649  0.00  0.00     0.020 A 
ATOM      2  C1  UNL d   1      -6.000   1.083  -3.042  0.00  0.00     0.020 A 
ATOM      3  C2  UNL d   1      -5.807   2.243  -3.795  0.00  0.00     0.034 A 
ATOM      4  C3  UNL d   1      -5.614   3.474  -3.157  0.00  0.00     0.017 A 
ATOM      5  C4  UNL d   1      -5.614   3.538  -1.759  0.00  0.00     0.017 A 
ATOM      6  C5  UNL d   1      -5.807   2.374  -1.009  0.00  0.00     0.034 A 
ATOM      7 Cl   UNL d   1      -5.382   5.020  -0.899  0.00  0.00    -0.070 Cl
ATOM      8 Cl1  UNL d   1      -5.382   4.867  -4.151  0.00  0.00    -0.070 Cl
ENDROOT
TORSDOF 0
ENDMDL
