MODEL 1
REMARK minimizedAffinity 2.33041477
REMARK minimizedRMSD -1
REMARK  0 active torsions:
REMARK  status: ('A' for Active; 'I' for Inactive)
ROOT
ATOM      1  C   UNL d   1       4.538   0.819  -1.133  0.00  0.00     0.020 A 
ATOM      2  C1  UNL d   1       3.662   0.700  -0.055  0.00  0.00     0.020 A 
ATOM      3  C2  UNL d   1       2.823  -0.412   0.044  0.00  0.00     0.034 A 
ATOM      4  C3  UNL d   1       2.859  -1.410  -0.937  0.00  0.00     0.017 A 
ATOM      5  C4  UNL d   1       3.740  -1.291  -2.018  0.00  0.00     0.017 A 
ATOM      6  C5  UNL d   1       4.577  -0.175  -2.112  0.00  0.00     0.034 A 
ATOM      7 Cl   UNL d   1       3.841  -2.481  -3.267  0.00  0.00    -0.070 Cl
ATOM      8 Cl1  UNL d   1       1.795  -2.759  -0.750  0.00  0.00    -0.070 Cl
ENDROOT
TORSDOF 0
ENDMDL
