MODEL 1
REMARK minimizedAffinity 7.24032211
REMARK minimizedRMSD -1
REMARK  0 active torsions:
REMARK  status: ('A' for Active; 'I' for Inactive)
ROOT
ATOM      1  C   UNL d   1       3.823  -1.296  -0.783  0.00  0.00     0.020 A 
ATOM      2  C1  UNL d   1       3.745   0.075  -0.541  0.00  0.00     0.020 A 
ATOM      3  C2  UNL d   1       2.538   0.751  -0.734  0.00  0.00     0.034 A 
ATOM      4  C3  UNL d   1       1.404   0.055  -1.170  0.00  0.00     0.017 A 
ATOM      5  C4  UNL d   1       1.483  -1.321  -1.412  0.00  0.00     0.017 A 
ATOM      6  C5  UNL d   1       2.695  -1.992  -1.218  0.00  0.00     0.034 A 
ATOM      7 Cl   UNL d   1       0.127  -2.247  -1.951  0.00  0.00    -0.070 Cl
ATOM      8 Cl1  UNL d   1      -0.056   0.954  -1.386  0.00  0.00    -0.070 Cl
ENDROOT
TORSDOF 0
ENDMDL
