MODEL 1
REMARK minimizedAffinity 6.42257309
REMARK minimizedRMSD -1
REMARK  0 active torsions:
REMARK  status: ('A' for Active; 'I' for Inactive)
ROOT
ATOM      1  C   UNL d   1       3.741   0.580  -1.166  0.00  0.00     0.020 A 
ATOM      2  C1  UNL d   1       2.747   0.565  -0.189  0.00  0.00     0.020 A 
ATOM      3  C2  UNL d   1       1.953  -0.571  -0.019  0.00  0.00     0.034 A 
ATOM      4  C3  UNL d   1       2.152  -1.697  -0.827  0.00  0.00     0.017 A 
ATOM      5  C4  UNL d   1       3.150  -1.680  -1.808  0.00  0.00     0.017 A 
ATOM      6  C5  UNL d   1       3.942  -0.540  -1.974  0.00  0.00     0.034 A 
ATOM      7 Cl   UNL d   1       3.454  -3.030  -2.843  0.00  0.00    -0.070 Cl
ATOM      8 Cl1  UNL d   1       1.133  -3.067  -0.561  0.00  0.00    -0.070 Cl
ENDROOT
TORSDOF 0
ENDMDL
