MODEL 1
REMARK minimizedAffinity 4.49066305
REMARK minimizedRMSD -1
REMARK  0 active torsions:
REMARK  status: ('A' for Active; 'I' for Inactive)
ROOT
ATOM      1  C   UNL d   1       0.579  -1.789   1.624  0.00  0.00     0.124 A 
ATOM      2  C1  UNL d   1       1.370  -0.650   1.564  0.00  0.00     0.062 A 
ATOM      3  C2  UNL d   1       2.757  -0.758   1.598  0.00  0.00     0.162 A 
ATOM      4  C3  UNL d   1       3.363  -2.011   1.692  0.00  0.00    -0.034 A 
ATOM      5  C4  UNL d   1       2.561  -3.152   1.753  0.00  0.00     0.162 A 
ATOM      6  C5  UNL d   1       1.175  -3.039   1.718  0.00  0.00     0.062 A 
ATOM      7  F   UNL d   1       0.413  -4.140   1.777  0.00  0.00    -0.097 F 
ATOM      8  F1  UNL d   1       3.111  -4.372   1.844  0.00  0.00    -0.096 F 
ATOM      9  I   UNL d   1       5.437  -2.178   1.743  0.00  0.00    -0.060 I 
ATOM     10  F2  UNL d   1       3.497   0.359   1.538  0.00  0.00    -0.096 F 
ATOM     11  F3  UNL d   1       0.797   0.559   1.473  0.00  0.00    -0.097 F 
ATOM     12  F4  UNL d   1      -0.755  -1.682   1.592  0.00  0.00    -0.092 F 
ENDROOT
TORSDOF 0
ENDMDL
