MODEL 1
REMARK minimizedAffinity 8.95330811
REMARK minimizedRMSD -1
REMARK  0 active torsions:
REMARK  status: ('A' for Active; 'I' for Inactive)
ROOT
ATOM      1  C   UNL d   1      -1.432  -3.149  -1.587  0.00  0.00     0.124 A 
ATOM      2  C1  UNL d   1      -1.711  -2.869  -0.256  0.00  0.00     0.062 A 
ATOM      3  C2  UNL d   1      -0.744  -2.279   0.552  0.00  0.00     0.162 A 
ATOM      4  C3  UNL d   1       0.512  -1.965   0.033  0.00  0.00    -0.034 A 
ATOM      5  C4  UNL d   1       0.785  -2.251  -1.306  0.00  0.00     0.162 A 
ATOM      6  C5  UNL d   1      -0.185  -2.840  -2.110  0.00  0.00     0.062 A 
ATOM      7  F   UNL d   1       0.087  -3.110  -3.395  0.00  0.00    -0.097 F 
ATOM      8  F1  UNL d   1       1.982  -1.961  -1.838  0.00  0.00    -0.096 F 
ATOM      9  I   UNL d   1       1.961  -1.083   1.238  0.00  0.00    -0.060 I 
ATOM     10  F2  UNL d   1      -1.041  -2.019   1.834  0.00  0.00    -0.096 F 
ATOM     11  F3  UNL d   1      -2.915  -3.167   0.252  0.00  0.00    -0.097 F 
ATOM     12  F4  UNL d   1      -2.364  -3.718  -2.362  0.00  0.00    -0.092 F 
ENDROOT
TORSDOF 0
ENDMDL
