MODEL 1
REMARK minimizedAffinity 16.8999767
REMARK minimizedRMSD -1
REMARK  0 active torsions:
REMARK  status: ('A' for Active; 'I' for Inactive)
ROOT
ATOM      1  C   UNL d   1       2.871   0.816   2.823  0.00  0.00     0.124 A 
ATOM      2  C1  UNL d   1       3.039  -0.485   2.370  0.00  0.00     0.062 A 
ATOM      3  C2  UNL d   1       2.019  -1.118   1.666  0.00  0.00     0.162 A 
ATOM      4  C3  UNL d   1       0.821  -0.450   1.409  0.00  0.00    -0.034 A 
ATOM      5  C4  UNL d   1       0.659   0.858   1.869  0.00  0.00     0.162 A 
ATOM      6  C5  UNL d   1       1.681   1.486   2.572  0.00  0.00     0.062 A 
ATOM      7  F   UNL d   1       1.517   2.743   3.010  0.00  0.00    -0.097 F 
ATOM      8  F1  UNL d   1      -0.480   1.529   1.640  0.00  0.00    -0.096 F 
ATOM      9  I   UNL d   1      -0.707  -1.393   0.356  0.00  0.00    -0.060 I 
ATOM     10  F2  UNL d   1       2.208  -2.375   1.239  0.00  0.00    -0.096 F 
ATOM     11  F3  UNL d   1       4.186  -1.134   2.612  0.00  0.00    -0.097 F 
ATOM     12  F4  UNL d   1       3.853   1.423   3.501  0.00  0.00    -0.092 F 
ENDROOT
TORSDOF 0
ENDMDL
