MODEL 1
REMARK minimizedAffinity 22.7834854
REMARK minimizedRMSD -1
REMARK  0 active torsions:
REMARK  status: ('A' for Active; 'I' for Inactive)
ROOT
ATOM      1  C   UNL d   1      -0.173  -2.253  -1.010  0.00  0.00     0.124 A 
ATOM      2  C1  UNL d   1       0.587  -2.651  -2.101  0.00  0.00     0.062 A 
ATOM      3  C2  UNL d   1       1.471  -3.720  -1.986  0.00  0.00     0.162 A 
ATOM      4  C3  UNL d   1       1.601  -4.398  -0.774  0.00  0.00    -0.034 A 
ATOM      5  C4  UNL d   1       0.834  -3.991   0.320  0.00  0.00     0.162 A 
ATOM      6  C5  UNL d   1      -0.048  -2.923   0.199  0.00  0.00     0.062 A 
ATOM      7  F   UNL d   1      -0.781  -2.539   1.254  0.00  0.00    -0.097 F 
ATOM      8  F1  UNL d   1       0.934  -4.621   1.500  0.00  0.00    -0.096 F 
ATOM      9  I   UNL d   1       2.923  -5.996  -0.597  0.00  0.00    -0.060 I 
ATOM     10  F2  UNL d   1       2.193  -4.083  -3.056  0.00  0.00    -0.096 F 
ATOM     11  F3  UNL d   1       0.469  -2.005  -3.270  0.00  0.00    -0.097 F 
ATOM     12  F4  UNL d   1      -1.023  -1.224  -1.124  0.00  0.00    -0.092 F 
ENDROOT
TORSDOF 0
ENDMDL
