MODEL 1
REMARK minimizedAffinity 7.50280142
REMARK minimizedRMSD -1
REMARK  0 active torsions:
REMARK  status: ('A' for Active; 'I' for Inactive)
ROOT
ATOM      1  C   UNL d   1      -0.179   0.351   1.524  0.00  0.00     0.124 A 
ATOM      2  C1  UNL d   1       0.013  -0.965   1.128  0.00  0.00     0.062 A 
ATOM      3  C2  UNL d   1       1.299  -1.449   0.907  0.00  0.00     0.162 A 
ATOM      4  C3  UNL d   1       2.404  -0.616   1.081  0.00  0.00    -0.034 A 
ATOM      5  C4  UNL d   1       2.203   0.707   1.478  0.00  0.00     0.162 A 
ATOM      6  C5  UNL d   1       0.915   1.186   1.698  0.00  0.00     0.062 A 
ATOM      7  F   UNL d   1       0.732   2.458   2.080  0.00  0.00    -0.097 F 
ATOM      8  F1  UNL d   1       3.243   1.535   1.655  0.00  0.00    -0.096 F 
ATOM      9  I   UNL d   1       4.329  -1.335   0.751  0.00  0.00    -0.060 I 
ATOM     10  F2  UNL d   1       1.455  -2.725   0.525  0.00  0.00    -0.096 F 
ATOM     11  F3  UNL d   1      -1.044  -1.774   0.958  0.00  0.00    -0.097 F 
ATOM     12  F4  UNL d   1      -1.418   0.814   1.735  0.00  0.00    -0.092 F 
ENDROOT
TORSDOF 0
ENDMDL
