MODEL 1
REMARK minimizedAffinity 24.4351368
REMARK minimizedRMSD -1
REMARK  0 active torsions:
REMARK  status: ('A' for Active; 'I' for Inactive)
ROOT
ATOM      1  C   UNL d   1       3.282  -1.001  -1.976  0.00  0.00     0.124 A 
ATOM      2  C1  UNL d   1       2.105  -1.550  -2.465  0.00  0.00     0.062 A 
ATOM      3  C2  UNL d   1       1.070  -1.876  -1.593  0.00  0.00     0.162 A 
ATOM      4  C3  UNL d   1       1.207  -1.652  -0.223  0.00  0.00    -0.034 A 
ATOM      5  C4  UNL d   1       2.394  -1.100   0.261  0.00  0.00     0.162 A 
ATOM      6  C5  UNL d   1       3.426  -0.777  -0.615  0.00  0.00     0.062 A 
ATOM      7  F   UNL d   1       4.563  -0.246  -0.141  0.00  0.00    -0.097 F 
ATOM      8  F1  UNL d   1       2.560  -0.872   1.572  0.00  0.00    -0.096 F 
ATOM      9  I   UNL d   1      -0.338  -2.138   1.084  0.00  0.00    -0.060 I 
ATOM     10  F2  UNL d   1      -0.057  -2.406  -2.093  0.00  0.00    -0.096 F 
ATOM     11  F3  UNL d   1       1.964  -1.769  -3.780  0.00  0.00    -0.097 F 
ATOM     12  F4  UNL d   1       4.277  -0.689  -2.817  0.00  0.00    -0.092 F 
ENDROOT
TORSDOF 0
ENDMDL
