MODEL 1
REMARK minimizedAffinity 2.58630085
REMARK minimizedRMSD -1
REMARK  0 active torsions:
REMARK  status: ('A' for Active; 'I' for Inactive)
ROOT
ATOM      1  C   UNL d   1      -0.092  -0.129   1.235  0.00  0.00     0.124 A 
ATOM      2  C1  UNL d   1       0.214  -1.432   0.867  0.00  0.00     0.062 A 
ATOM      3  C2  UNL d   1       1.542  -1.836   0.766  0.00  0.00     0.162 A 
ATOM      4  C3  UNL d   1       2.574  -0.937   1.033  0.00  0.00    -0.034 A 
ATOM      5  C4  UNL d   1       2.258   0.372   1.400  0.00  0.00     0.162 A 
ATOM      6  C5  UNL d   1       0.929   0.771   1.501  0.00  0.00     0.062 A 
ATOM      7  F   UNL d   1       0.635   2.031   1.856  0.00  0.00    -0.097 F 
ATOM      8  F1  UNL d   1       3.226   1.263   1.664  0.00  0.00    -0.096 F 
ATOM      9  I   UNL d   1       4.561  -1.538   0.881  0.00  0.00    -0.060 I 
ATOM     10  F2  UNL d   1       1.809  -3.102   0.409  0.00  0.00    -0.096 F 
ATOM     11  F3  UNL d   1      -0.771  -2.304   0.609  0.00  0.00    -0.097 F 
ATOM     12  F4  UNL d   1      -1.371   0.258   1.331  0.00  0.00    -0.092 F 
ENDROOT
TORSDOF 0
ENDMDL
