MODEL 1
REMARK minimizedAffinity 3.37872553
REMARK minimizedRMSD -1
REMARK  0 active torsions:
REMARK  status: ('A' for Active; 'I' for Inactive)
ROOT
ATOM      1  C   UNL d   1      -4.385   2.169  -4.797  0.00  0.00     0.124 A 
ATOM      2  C1  UNL d   1      -3.310   2.949  -4.392  0.00  0.00     0.062 A 
ATOM      3  C2  UNL d   1      -2.728   2.743  -3.145  0.00  0.00     0.162 A 
ATOM      4  C3  UNL d   1      -3.218   1.752  -2.294  0.00  0.00    -0.034 A 
ATOM      5  C4  UNL d   1      -4.300   0.973  -2.708  0.00  0.00     0.162 A 
ATOM      6  C5  UNL d   1      -4.878   1.183  -3.955  0.00  0.00     0.062 A 
ATOM      7  F   UNL d   1      -5.917   0.429  -4.345  0.00  0.00    -0.097 F 
ATOM      8  F1  UNL d   1      -4.796   0.012  -1.915  0.00  0.00    -0.096 F 
ATOM      9  I   UNL d   1      -2.349   1.441  -0.428  0.00  0.00    -0.060 I 
ATOM     10  F2  UNL d   1      -1.690   3.511  -2.779  0.00  0.00    -0.096 F 
ATOM     11  F3  UNL d   1      -2.832   3.903  -5.203  0.00  0.00    -0.097 F 
ATOM     12  F4  UNL d   1      -4.944   2.370  -5.997  0.00  0.00    -0.092 F 
ENDROOT
TORSDOF 0
ENDMDL
