MODEL 1
REMARK minimizedAffinity -3.35172701
REMARK minimizedRMSD -1
REMARK  0 active torsions:
REMARK  status: ('A' for Active; 'I' for Inactive)
ROOT
ATOM      1  O1  BZF d   1      -0.773   0.848  -1.091  0.00  0.00    -0.204 OA
ATOM      2  C2  BZF d   1       0.407   1.534  -1.302  0.00  0.00     0.174 A 
ATOM      3  C3  BZF d   1       1.402   1.015  -0.553  0.00  0.00    -0.012 A 
ATOM      4  C3A BZF d   1       0.828  -0.120   0.102  0.00  0.00    -0.107 A 
ATOM      5  C4  BZF d   1       1.322  -1.054   0.967  0.00  0.00     0.055 A 
ATOM      6  C5  BZF d   1       0.480  -1.990   1.479  0.00  0.00    -0.016 A 
ATOM      7  C6  BZF d   1      -0.859  -2.019   1.152  0.00  0.00     0.022 A 
ATOM      8  C7  BZF d   1      -1.394  -1.116   0.294  0.00  0.00     0.029 A 
ATOM      9  C7A BZF d   1      -0.540  -0.189  -0.251  0.00  0.00     0.058 A 
ENDROOT
TORSDOF 0
ENDMDL
