MODEL 1
REMARK minimizedAffinity -3.04651475
REMARK minimizedRMSD -1
REMARK  0 active torsions:
REMARK  status: ('A' for Active; 'I' for Inactive)
ROOT
ATOM      1  O1  BZF d   1       1.228  -0.234  -0.030  0.00  0.00    -0.204 OA
ATOM      2  C2  BZF d   1       0.943   0.970  -0.644  0.00  0.00     0.174 A 
ATOM      3  C3  BZF d   1      -0.390   1.157  -0.735  0.00  0.00    -0.012 A 
ATOM      4  C3A BZF d   1      -0.974   0.040  -0.058  0.00  0.00    -0.107 A 
ATOM      5  C4  BZF d   1      -2.262  -0.332   0.201  0.00  0.00     0.055 A 
ATOM      6  C5  BZF d   1      -2.495  -1.519   0.821  0.00  0.00    -0.016 A 
ATOM      7  C6  BZF d   1      -1.465  -2.359   1.190  0.00  0.00     0.022 A 
ATOM      8  C7  BZF d   1      -0.171  -2.031   0.958  0.00  0.00     0.029 A 
ATOM      9  C7A BZF d   1       0.069  -0.817   0.362  0.00  0.00     0.058 A 
ENDROOT
TORSDOF 0
ENDMDL
