MODEL 1
REMARK minimizedAffinity -3.31108236
REMARK minimizedRMSD -1
REMARK  0 active torsions:
REMARK  status: ('A' for Active; 'I' for Inactive)
ROOT
ATOM      1  O1  BZF d   1       0.445  -2.477   0.986  0.00  0.00    -0.204 OA
ATOM      2  C2  BZF d   1      -0.853  -2.948   0.972  0.00  0.00     0.174 A 
ATOM      3  C3  BZF d   1      -1.709  -1.981   0.582  0.00  0.00    -0.012 A 
ATOM      4  C3A BZF d   1      -0.884  -0.861   0.249  0.00  0.00    -0.107 A 
ATOM      5  C4  BZF d   1      -1.150   0.395  -0.218  0.00  0.00     0.055 A 
ATOM      6  C5  BZF d   1      -0.124   1.273  -0.371  0.00  0.00    -0.016 A 
ATOM      7  C6  BZF d   1       1.176   0.932  -0.061  0.00  0.00     0.022 A 
ATOM      8  C7  BZF d   1       1.490  -0.303   0.400  0.00  0.00     0.029 A 
ATOM      9  C7A BZF d   1       0.460  -1.203   0.524  0.00  0.00     0.058 A 
ENDROOT
TORSDOF 0
ENDMDL
