MODEL 1
REMARK minimizedAffinity -5.835783
REMARK minimizedRMSD -1
REMARK  0 active torsions:
REMARK  status: ('A' for Active; 'I' for Inactive)
ROOT
ATOM      1  O1  BZF d   1      -0.392   0.979   0.339  0.00  0.00    -0.204 OA
ATOM      2  C2  BZF d   1       0.728   0.517  -0.324  0.00  0.00     0.174 A 
ATOM      3  C3  BZF d   1       0.814  -0.826  -0.239  0.00  0.00    -0.012 A 
ATOM      4  C3A BZF d   1      -0.373  -1.237   0.447  0.00  0.00    -0.107 A 
ATOM      5  C4  BZF d   1      -0.869  -2.454   0.819  0.00  0.00     0.055 A 
ATOM      6  C5  BZF d   1      -2.019  -2.505   1.540  0.00  0.00    -0.016 A 
ATOM      7  C6  BZF d   1      -2.696  -1.362   1.910  0.00  0.00     0.022 A 
ATOM      8  C7  BZF d   1      -2.246  -0.132   1.559  0.00  0.00     0.029 A 
ATOM      9  C7A BZF d   1      -1.101  -0.078   0.803  0.00  0.00     0.058 A 
ENDROOT
TORSDOF 0
ENDMDL
