MODEL 1
REMARK minimizedAffinity -1.86241281
REMARK minimizedRMSD -1
REMARK  0 active torsions:
REMARK  status: ('A' for Active; 'I' for Inactive)
ROOT
ATOM      1  O1  BZF d   1       1.095  -0.213   1.164  0.00  0.00    -0.204 OA
ATOM      2  C2  BZF d   1       0.794   0.355  -0.059  0.00  0.00     0.174 A 
ATOM      3  C3  BZF d   1      -0.230  -0.294  -0.649  0.00  0.00    -0.012 A 
ATOM      4  C3A BZF d   1      -0.652  -1.275   0.302  0.00  0.00    -0.107 A 
ATOM      5  C4  BZF d   1      -1.639  -2.219   0.302  0.00  0.00     0.055 A 
ATOM      6  C5  BZF d   1      -1.740  -3.069   1.358  0.00  0.00    -0.016 A 
ATOM      7  C6  BZF d   1      -0.868  -3.007   2.426  0.00  0.00     0.022 A 
ATOM      8  C7  BZF d   1       0.124  -2.085   2.473  0.00  0.00     0.029 A 
ATOM      9  C7A BZF d   1       0.207  -1.203   1.423  0.00  0.00     0.058 A 
ENDROOT
TORSDOF 0
ENDMDL
