MODEL 1
REMARK minimizedAffinity -3.4432323
REMARK minimizedRMSD -1
REMARK  0 active torsions:
REMARK  status: ('A' for Active; 'I' for Inactive)
ROOT
ATOM      1  O1  BZF d   1      -0.966   0.541  -0.038  0.00  0.00    -0.204 OA
ATOM      2  C2  BZF d   1      -0.238  -0.503   0.500  0.00  0.00     0.174 A 
ATOM      3  C3  BZF d   1       1.038  -0.470   0.065  0.00  0.00    -0.012 A 
ATOM      4  C3A BZF d   1       1.136   0.718  -0.725  0.00  0.00    -0.107 A 
ATOM      5  C4  BZF d   1       2.158   1.306  -1.414  0.00  0.00     0.055 A 
ATOM      6  C5  BZF d   1       1.905   2.424  -2.145  0.00  0.00    -0.016 A 
ATOM      7  C6  BZF d   1       0.644   2.977  -2.212  0.00  0.00     0.022 A 
ATOM      8  C7  BZF d   1      -0.401   2.433  -1.542  0.00  0.00     0.029 A 
ATOM      9  C7A BZF d   1      -0.142   1.322  -0.777  0.00  0.00     0.058 A 
ENDROOT
TORSDOF 0
ENDMDL
