MODEL 1
REMARK minimizedAffinity -2.72129345
REMARK minimizedRMSD -1
REMARK  0 active torsions:
REMARK  status: ('A' for Active; 'I' for Inactive)
ROOT
ATOM      1  O1  BZF d   1      -1.028  -0.198  -0.003  0.00  0.00    -0.204 OA
ATOM      2  C2  BZF d   1      -0.062  -1.015   0.550  0.00  0.00     0.174 A 
ATOM      3  C3  BZF d   1       1.158  -0.713   0.060  0.00  0.00    -0.012 A 
ATOM      4  C3A BZF d   1       0.953   0.422  -0.787  0.00  0.00    -0.107 A 
ATOM      5  C4  BZF d   1       1.789   1.191  -1.544  0.00  0.00     0.055 A 
ATOM      6  C5  BZF d   1       1.261   2.180  -2.313  0.00  0.00    -0.016 A 
ATOM      7  C6  BZF d   1      -0.096   2.423  -2.352  0.00  0.00     0.022 A 
ATOM      8  C7  BZF d   1      -0.965   1.689  -1.614  0.00  0.00     0.029 A 
ATOM      9  C7A BZF d   1      -0.431   0.711  -0.811  0.00  0.00     0.058 A 
ENDROOT
TORSDOF 0
ENDMDL
