MODEL 1
REMARK minimizedAffinity -2.8018527
REMARK minimizedRMSD -1
REMARK  0 active torsions:
REMARK  status: ('A' for Active; 'I' for Inactive)
ROOT
ATOM      1  O1  BZF d   1       1.431  -0.116   0.727  0.00  0.00    -0.204 OA
ATOM      2  C2  BZF d   1       1.269   0.934  -0.156  0.00  0.00     0.174 A 
ATOM      3  C3  BZF d   1       0.067   0.868  -0.763  0.00  0.00    -0.012 A 
ATOM      4  C3A BZF d   1      -0.600  -0.244  -0.158  0.00  0.00    -0.107 A 
ATOM      5  C4  BZF d   1      -1.833  -0.805  -0.327  0.00  0.00     0.055 A 
ATOM      6  C5  BZF d   1      -2.149  -1.929   0.368  0.00  0.00    -0.016 A 
ATOM      7  C6  BZF d   1      -1.255  -2.521   1.236  0.00  0.00     0.022 A 
ATOM      8  C7  BZF d   1      -0.021  -1.998   1.441  0.00  0.00     0.029 A 
ATOM      9  C7A BZF d   1       0.289  -0.844   0.764  0.00  0.00     0.058 A 
ENDROOT
TORSDOF 0
ENDMDL
