MODEL 1
REMARK minimizedAffinity -3.30447316
REMARK minimizedRMSD -1
REMARK  0 active torsions:
REMARK  status: ('A' for Active; 'I' for Inactive)
ROOT
ATOM      1  O1  BZF d   1       1.375   0.214   0.030  0.00  0.00    -0.204 OA
ATOM      2  C2  BZF d   1       0.805   1.290  -0.621  0.00  0.00     0.174 A 
ATOM      3  C3  BZF d   1      -0.526   1.117  -0.756  0.00  0.00    -0.012 A 
ATOM      4  C3A BZF d   1      -0.818  -0.104  -0.069  0.00  0.00    -0.107 A 
ATOM      5  C4  BZF d   1      -1.971  -0.798   0.162  0.00  0.00     0.055 A 
ATOM      6  C5  BZF d   1      -1.904  -1.994   0.803  0.00  0.00    -0.016 A 
ATOM      7  C6  BZF d   1      -0.703  -2.527   1.223  0.00  0.00     0.022 A 
ATOM      8  C7  BZF d   1       0.466  -1.872   1.021  0.00  0.00     0.029 A 
ATOM      9  C7A BZF d   1       0.399  -0.648   0.402  0.00  0.00     0.058 A 
ENDROOT
TORSDOF 0
ENDMDL
