MODEL 1
REMARK minimizedAffinity -5.42873335
REMARK minimizedRMSD -1
REMARK  0 active torsions:
REMARK  status: ('A' for Active; 'I' for Inactive)
ROOT
ATOM      1  O1  BZF d   1      -0.087   1.051   0.435  0.00  0.00    -0.204 OA
ATOM      2  C2  BZF d   1       1.072   0.692  -0.225  0.00  0.00     0.174 A 
ATOM      3  C3  BZF d   1       1.153  -0.648  -0.356  0.00  0.00    -0.012 A 
ATOM      4  C3A BZF d   1      -0.074  -1.153   0.179  0.00  0.00    -0.107 A 
ATOM      5  C4  BZF d   1      -0.592  -2.409   0.317  0.00  0.00     0.055 A 
ATOM      6  C5  BZF d   1      -1.785  -2.566   0.948  0.00  0.00    -0.016 A 
ATOM      7  C6  BZF d   1      -2.484  -1.492   1.458  0.00  0.00     0.022 A 
ATOM      8  C7  BZF d   1      -2.013  -0.226   1.341  0.00  0.00     0.029 A 
ATOM      9  C7A BZF d   1      -0.823  -0.061   0.675  0.00  0.00     0.058 A 
ENDROOT
TORSDOF 0
ENDMDL
