MODEL 1
REMARK minimizedAffinity -3.02831769
REMARK minimizedRMSD -1
REMARK  0 active torsions:
REMARK  status: ('A' for Active; 'I' for Inactive)
ROOT
ATOM      1  O1  BZF d   1       1.031   0.235   0.287  0.00  0.00    -0.204 OA
ATOM      2  C2  BZF d   1       2.092  -0.650   0.314  0.00  0.00     0.174 A 
ATOM      3  C3  BZF d   1       1.653  -1.919   0.444  0.00  0.00    -0.012 A 
ATOM      4  C3A BZF d   1       0.226  -1.829   0.408  0.00  0.00    -0.107 A 
ATOM      5  C4  BZF d   1      -0.775  -2.756   0.476  0.00  0.00     0.055 A 
ATOM      6  C5  BZF d   1      -2.067  -2.333   0.487  0.00  0.00    -0.016 A 
ATOM      7  C6  BZF d   1      -2.393  -0.994   0.437  0.00  0.00     0.022 A 
ATOM      8  C7  BZF d   1      -1.435  -0.038   0.364  0.00  0.00     0.029 A 
ATOM      9  C7A BZF d   1      -0.130  -0.463   0.320  0.00  0.00     0.058 A 
ENDROOT
TORSDOF 0
ENDMDL
