MODEL 1
REMARK minimizedAffinity -5.54424429
REMARK minimizedRMSD -1
REMARK  0 active torsions:
REMARK  status: ('A' for Active; 'I' for Inactive)
ROOT
ATOM      1  O1  BZF d   1      -2.385  -2.282   1.351  0.00  0.00    -0.204 OA
ATOM      2  C2  BZF d   1      -3.227  -1.268   1.766  0.00  0.00     0.174 A 
ATOM      3  C3  BZF d   1      -2.653  -0.063   1.575  0.00  0.00    -0.012 A 
ATOM      4  C3A BZF d   1      -1.411  -0.336   0.920  0.00  0.00    -0.107 A 
ATOM      5  C4  BZF d   1      -0.400   0.456   0.455  0.00  0.00     0.055 A 
ATOM      6  C5  BZF d   1       0.709  -0.129  -0.068  0.00  0.00    -0.016 A 
ATOM      7  C6  BZF d   1       0.843  -1.500  -0.138  0.00  0.00     0.022 A 
ATOM      8  C7  BZF d   1      -0.135  -2.327   0.306  0.00  0.00     0.029 A 
ATOM      9  C7A BZF d   1      -1.271  -1.739   0.805  0.00  0.00     0.058 A 
ENDROOT
TORSDOF 0
ENDMDL
