MODEL 1
REMARK minimizedAffinity -3.137321
REMARK minimizedRMSD -1
REMARK  0 active torsions:
REMARK  status: ('A' for Active; 'I' for Inactive)
ROOT
ATOM      1  O1  BZF d   1      -0.481   1.118  -0.991  0.00  0.00    -0.204 OA
ATOM      2  C2  BZF d   1       0.803   1.571  -1.227  0.00  0.00     0.174 A 
ATOM      3  C3  BZF d   1       1.710   0.767  -0.637  0.00  0.00    -0.012 A 
ATOM      4  C3A BZF d   1       0.950  -0.305  -0.069  0.00  0.00    -0.107 A 
ATOM      5  C4  BZF d   1       1.288  -1.426   0.634  0.00  0.00     0.055 A 
ATOM      6  C5  BZF d   1       0.301  -2.231   1.108  0.00  0.00    -0.016 A 
ATOM      7  C6  BZF d   1      -1.032  -1.942   0.902  0.00  0.00     0.022 A 
ATOM      8  C7  BZF d   1      -1.416  -0.844   0.207  0.00  0.00     0.029 A 
ATOM      9  C7A BZF d   1      -0.420  -0.046  -0.301  0.00  0.00     0.058 A 
ENDROOT
TORSDOF 0
ENDMDL
