MODEL 1
REMARK minimizedAffinity -4.05021191
REMARK minimizedRMSD -1
REMARK  0 active torsions:
REMARK  status: ('A' for Active; 'I' for Inactive)
ROOT
ATOM      1  O1  BZF d   1      -1.378   1.409   0.790  0.00  0.00    -0.204 OA
ATOM      2  C2  BZF d   1      -0.370   2.256   0.371  0.00  0.00     0.174 A 
ATOM      3  C3  BZF d   1       0.743   1.560   0.063  0.00  0.00    -0.012 A 
ATOM      4  C3A BZF d   1       0.381   0.184   0.217  0.00  0.00    -0.107 A 
ATOM      5  C4  BZF d   1       1.056  -0.990   0.040  0.00  0.00     0.055 A 
ATOM      6  C5  BZF d   1       0.437  -2.160   0.347  0.00  0.00    -0.016 A 
ATOM      7  C6  BZF d   1      -0.852  -2.193   0.837  0.00  0.00     0.022 A 
ATOM      8  C7  BZF d   1      -1.564  -1.055   1.024  0.00  0.00     0.029 A 
ATOM      9  C7A BZF d   1      -0.953   0.128   0.684  0.00  0.00     0.058 A 
ENDROOT
TORSDOF 0
ENDMDL
