MODEL 1
REMARK minimizedAffinity -5.1920023
REMARK minimizedRMSD -1
REMARK  0 active torsions:
REMARK  status: ('A' for Active; 'I' for Inactive)
ROOT
ATOM      1  O1  BZF d   1       0.217  -1.910   0.690  0.00  0.00    -0.204 OA
ATOM      2  C2  BZF d   1      -0.904  -2.604   1.102  0.00  0.00     0.174 A 
ATOM      3  C3  BZF d   1      -1.897  -1.755   1.436  0.00  0.00    -0.012 A 
ATOM      4  C3A BZF d   1      -1.395  -0.450   1.133  0.00  0.00    -0.107 A 
ATOM      5  C4  BZF d   1      -1.922   0.805   1.232  0.00  0.00     0.055 A 
ATOM      6  C5  BZF d   1      -1.143   1.875   0.922  0.00  0.00    -0.016 A 
ATOM      7  C6  BZF d   1       0.166   1.726   0.514  0.00  0.00     0.022 A 
ATOM      8  C7  BZF d   1       0.731   0.500   0.395  0.00  0.00     0.029 A 
ATOM      9  C7A BZF d   1      -0.063  -0.584   0.677  0.00  0.00     0.058 A 
ENDROOT
TORSDOF 0
ENDMDL
