MODEL 1
REMARK minimizedAffinity -4.03377676
REMARK minimizedRMSD -1
REMARK  0 active torsions:
REMARK  status: ('A' for Active; 'I' for Inactive)
ROOT
ATOM      1  C   UNL d   1       0.916  -0.700  -1.025  0.00  0.00     0.078 C 
ATOM      2  C1  UNL d   1       0.334   0.332  -0.105  0.00  0.00    -0.077 A 
ATOM      3  C2  UNL d   1      -0.210  -0.031   1.133  0.00  0.00    -0.001 A 
ATOM      4  C3  UNL d   1      -0.758   0.939   1.974  0.00  0.00     0.003 A 
ATOM      5  C4  UNL d   1      -0.768   2.277   1.586  0.00  0.00    -0.005 A 
ATOM      6  C5  UNL d   1      -0.231   2.647   0.355  0.00  0.00     0.003 A 
ATOM      7  C6  UNL d   1       0.317   1.679  -0.488  0.00  0.00    -0.001 A 
ENDROOT
TORSDOF 0
ENDMDL
