MODEL 1
REMARK minimizedAffinity -1.41170192
REMARK minimizedRMSD -1
REMARK  0 active torsions:
REMARK  status: ('A' for Active; 'I' for Inactive)
ROOT
ATOM      1  C   UNL d   1      -1.783   1.446  -0.159  0.00  0.00     0.078 C 
ATOM      2  C1  UNL d   1      -0.556   0.585  -0.129  0.00  0.00    -0.077 A 
ATOM      3  C2  UNL d   1       0.309   0.523  -1.229  0.00  0.00    -0.001 A 
ATOM      4  C3  UNL d   1       1.442  -0.291  -1.191  0.00  0.00     0.003 A 
ATOM      5  C4  UNL d   1       1.721  -1.050  -0.056  0.00  0.00    -0.005 A 
ATOM      6  C5  UNL d   1       0.865  -0.997   1.042  0.00  0.00     0.003 A 
ATOM      7  C6  UNL d   1      -0.269  -0.184   1.006  0.00  0.00    -0.001 A 
ENDROOT
TORSDOF 0
ENDMDL
