MODEL 1
REMARK minimizedAffinity -2.13667011
REMARK minimizedRMSD -1
REMARK  0 active torsions:
REMARK  status: ('A' for Active; 'I' for Inactive)
ROOT
ATOM      1  C   UNL d   1       0.872  -0.988  -0.926  0.00  0.00     0.078 C 
ATOM      2  C1  UNL d   1       0.130  -0.010  -0.066  0.00  0.00    -0.077 A 
ATOM      3  C2  UNL d   1      -0.078   1.309  -0.489  0.00  0.00    -0.001 A 
ATOM      4  C3  UNL d   1      -0.762   2.212   0.327  0.00  0.00     0.003 A 
ATOM      5  C4  UNL d   1      -1.242   1.806   1.571  0.00  0.00    -0.005 A 
ATOM      6  C5  UNL d   1      -1.037   0.497   2.001  0.00  0.00     0.003 A 
ATOM      7  C6  UNL d   1      -0.353  -0.407   1.187  0.00  0.00    -0.001 A 
ENDROOT
TORSDOF 0
ENDMDL
