MODEL 1
REMARK minimizedAffinity -2.51099205
REMARK minimizedRMSD -1
REMARK  0 active torsions:
REMARK  status: ('A' for Active; 'I' for Inactive)
ROOT
ATOM      1  C   UNL d   1       1.100  -1.450  -1.146  0.00  0.00     0.078 C 
ATOM      2  C1  UNL d   1       0.338  -0.609  -0.166  0.00  0.00    -0.077 A 
ATOM      3  C2  UNL d   1      -0.073  -1.132   1.067  0.00  0.00    -0.001 A 
ATOM      4  C3  UNL d   1      -0.791  -0.340   1.965  0.00  0.00     0.003 A 
ATOM      5  C4  UNL d   1      -1.105   0.978   1.640  0.00  0.00    -0.005 A 
ATOM      6  C5  UNL d   1      -0.702   1.506   0.415  0.00  0.00     0.003 A 
ATOM      7  C6  UNL d   1       0.015   0.716  -0.485  0.00  0.00    -0.001 A 
ENDROOT
TORSDOF 0
ENDMDL
