MODEL 1
REMARK minimizedAffinity 1.08140874
REMARK minimizedRMSD -1
REMARK  0 active torsions:
REMARK  status: ('A' for Active; 'I' for Inactive)
ROOT
ATOM      1  C   UNL d   1       0.746  -1.120   1.398  0.00  0.00     0.078 C 
ATOM      2  C1  UNL d   1       0.613  -0.043   0.363  0.00  0.00    -0.077 A 
ATOM      3  C2  UNL d   1       1.572   0.109  -0.647  0.00  0.00    -0.001 A 
ATOM      4  C3  UNL d   1       1.441   1.121  -1.598  0.00  0.00     0.003 A 
ATOM      5  C4  UNL d   1       0.353   1.991  -1.549  0.00  0.00    -0.005 A 
ATOM      6  C5  UNL d   1      -0.604   1.849  -0.546  0.00  0.00     0.003 A 
ATOM      7  C6  UNL d   1      -0.475   0.837   0.406  0.00  0.00    -0.001 A 
ENDROOT
TORSDOF 0
ENDMDL
