MODEL 1
REMARK minimizedAffinity -2.51879501
REMARK minimizedRMSD -1
REMARK  0 active torsions:
REMARK  status: ('A' for Active; 'I' for Inactive)
ROOT
ATOM      1  C   UNL d   1      -1.358   0.741   1.796  0.00  0.00     0.078 C 
ATOM      2  C1  UNL d   1      -0.323   0.566   0.726  0.00  0.00    -0.077 A 
ATOM      3  C2  UNL d   1       0.019   1.623  -0.126  0.00  0.00    -0.001 A 
ATOM      4  C3  UNL d   1       0.978   1.443  -1.125  0.00  0.00     0.003 A 
ATOM      5  C4  UNL d   1       1.601   0.207  -1.282  0.00  0.00    -0.005 A 
ATOM      6  C5  UNL d   1       1.265  -0.852  -0.440  0.00  0.00     0.003 A 
ATOM      7  C6  UNL d   1       0.307  -0.674   0.559  0.00  0.00    -0.001 A 
ENDROOT
TORSDOF 0
ENDMDL
