MODEL 1
REMARK minimizedAffinity -2.97586083
REMARK minimizedRMSD -1
REMARK  0 active torsions:
REMARK  status: ('A' for Active; 'I' for Inactive)
ROOT
ATOM      1  C   UNL d   1       0.740  -1.956  -1.027  0.00  0.00     0.078 C 
ATOM      2  C1  UNL d   1       0.135  -0.959  -0.083  0.00  0.00    -0.077 A 
ATOM      3  C2  UNL d   1      -0.180  -1.312   1.234  0.00  0.00    -0.001 A 
ATOM      4  C3  UNL d   1      -0.751  -0.377   2.098  0.00  0.00     0.003 A 
ATOM      5  C4  UNL d   1      -1.014   0.917   1.654  0.00  0.00    -0.005 A 
ATOM      6  C5  UNL d   1      -0.706   1.277   0.344  0.00  0.00     0.003 A 
ATOM      7  C6  UNL d   1      -0.134   0.343  -0.522  0.00  0.00    -0.001 A 
ENDROOT
TORSDOF 0
ENDMDL
