MODEL 1
REMARK minimizedAffinity -1.72109795
REMARK minimizedRMSD -1
REMARK  0 active torsions:
REMARK  status: ('A' for Active; 'I' for Inactive)
ROOT
ATOM      1  C   UNL d   1       0.435   1.466  -1.377  0.00  0.00     0.078 C 
ATOM      2  C1  UNL d   1       0.028   0.845  -0.075  0.00  0.00    -0.077 A 
ATOM      3  C2  UNL d   1      -0.738   1.557   0.856  0.00  0.00    -0.001 A 
ATOM      4  C3  UNL d   1      -1.102   0.970   2.068  0.00  0.00     0.003 A 
ATOM      5  C4  UNL d   1      -0.703  -0.332   2.363  0.00  0.00    -0.005 A 
ATOM      6  C5  UNL d   1       0.062  -1.048   1.444  0.00  0.00     0.003 A 
ATOM      7  C6  UNL d   1       0.427  -0.463   0.231  0.00  0.00    -0.001 A 
ENDROOT
TORSDOF 0
ENDMDL
