MODEL 1
REMARK minimizedAffinity -2.08800197
REMARK minimizedRMSD -1
REMARK  0 active torsions:
REMARK  status: ('A' for Active; 'I' for Inactive)
ROOT
ATOM      1  C   UNL d   1       0.707  -0.128  -0.056  0.00  0.00     0.078 C 
ATOM      2  C1  UNL d   1       0.592  -1.304  -0.980  0.00  0.00    -0.077 A 
ATOM      3  C2  UNL d   1       1.101  -2.558  -0.619  0.00  0.00    -0.001 A 
ATOM      4  C3  UNL d   1       0.995  -3.641  -1.493  0.00  0.00     0.003 A 
ATOM      5  C4  UNL d   1       0.382  -3.481  -2.734  0.00  0.00    -0.005 A 
ATOM      6  C5  UNL d   1      -0.125  -2.236  -3.103  0.00  0.00     0.003 A 
ATOM      7  C6  UNL d   1      -0.020  -1.152  -2.231  0.00  0.00    -0.001 A 
ENDROOT
TORSDOF 0
ENDMDL
