MODEL 1
REMARK minimizedAffinity -4.54080868
REMARK minimizedRMSD -1
REMARK  0 active torsions:
REMARK  status: ('A' for Active; 'I' for Inactive)
ROOT
ATOM      1  C   UNL d   1      -0.090   3.498  -0.004  0.00  0.00     0.078 C 
ATOM      2  C1  UNL d   1      -0.333   2.087   0.444  0.00  0.00    -0.077 A 
ATOM      3  C2  UNL d   1       0.263   1.008  -0.220  0.00  0.00    -0.001 A 
ATOM      4  C3  UNL d   1       0.021  -0.301   0.201  0.00  0.00     0.003 A 
ATOM      5  C4  UNL d   1      -0.818  -0.542   1.287  0.00  0.00    -0.005 A 
ATOM      6  C5  UNL d   1      -1.417   0.525   1.952  0.00  0.00     0.003 A 
ATOM      7  C6  UNL d   1      -1.176   1.834   1.533  0.00  0.00    -0.001 A 
ENDROOT
TORSDOF 0
ENDMDL
