MODEL 1
REMARK minimizedAffinity -5.7554431
REMARK minimizedRMSD -1
REMARK  0 active torsions:
REMARK  status: ('A' for Active; 'I' for Inactive)
ROOT
ATOM      1  C   UNL d   1      -0.184  -0.210   1.041  0.00  0.00     0.078 C 
ATOM      2  C1  UNL d   1      -0.686   1.194   0.888  0.00  0.00    -0.077 A 
ATOM      3  C2  UNL d   1      -0.317   1.975  -0.214  0.00  0.00    -0.001 A 
ATOM      4  C3  UNL d   1      -0.784   3.285  -0.339  0.00  0.00     0.003 A 
ATOM      5  C4  UNL d   1      -1.621   3.825   0.636  0.00  0.00    -0.005 A 
ATOM      6  C5  UNL d   1      -1.991   3.057   1.737  0.00  0.00     0.003 A 
ATOM      7  C6  UNL d   1      -1.525   1.747   1.864  0.00  0.00    -0.001 A 
ENDROOT
TORSDOF 0
ENDMDL
