MODEL 1
REMARK minimizedAffinity -4.16790676
REMARK minimizedRMSD -1
REMARK  0 active torsions:
REMARK  status: ('A' for Active; 'I' for Inactive)
ROOT
ATOM      1  C   UNL d   1       1.283  -1.906  -0.547  0.00  0.00     0.078 C 
ATOM      2  C1  UNL d   1       0.539  -0.771   0.090  0.00  0.00    -0.077 A 
ATOM      3  C2  UNL d   1       0.001  -0.893   1.377  0.00  0.00    -0.001 A 
ATOM      4  C3  UNL d   1      -0.698   0.168   1.953  0.00  0.00     0.003 A 
ATOM      5  C4  UNL d   1      -0.867   1.359   1.250  0.00  0.00    -0.005 A 
ATOM      6  C5  UNL d   1      -0.338   1.489  -0.032  0.00  0.00     0.003 A 
ATOM      7  C6  UNL d   1       0.362   0.429  -0.610  0.00  0.00    -0.001 A 
ENDROOT
TORSDOF 0
ENDMDL
