MODEL 1
REMARK minimizedAffinity -1.83140075
REMARK minimizedRMSD -1
REMARK  0 active torsions:
REMARK  status: ('A' for Active; 'I' for Inactive)
ROOT
ATOM      1  C   UNL d   1       0.616  -1.835  -0.988  0.00  0.00     0.078 C 
ATOM      2  C1  UNL d   1       0.137  -0.718  -0.110  0.00  0.00    -0.077 A 
ATOM      3  C2  UNL d   1      -0.301  -0.964   1.197  0.00  0.00    -0.001 A 
ATOM      4  C3  UNL d   1      -0.753   0.084   2.000  0.00  0.00     0.003 A 
ATOM      5  C4  UNL d   1      -0.771   1.387   1.505  0.00  0.00    -0.005 A 
ATOM      6  C5  UNL d   1      -0.339   1.642   0.205  0.00  0.00     0.003 A 
ATOM      7  C6  UNL d   1       0.113   0.594  -0.599  0.00  0.00    -0.001 A 
ENDROOT
TORSDOF 0
ENDMDL
