MODEL 1
REMARK minimizedAffinity -2.10448313
REMARK minimizedRMSD -1
REMARK  0 active torsions:
REMARK  status: ('A' for Active; 'I' for Inactive)
ROOT
ATOM      1  C   UNL d   1      -2.111  -0.139   2.519  0.00  0.00     0.172 C 
ATOM      2  N   UNL d   1      -1.056  -0.240   1.538  0.00  0.00    -0.070 N 
ATOM      3  C1  UNL d   1      -1.031   0.393   0.324  0.00  0.00    -0.004 A 
ATOM      4  C2  UNL d   1       0.139   0.040  -0.312  0.00  0.00    -0.047 A 
ATOM      5  C3  UNL d   1       0.842  -0.836   0.549  0.00  0.00    -0.047 A 
ATOM      6  C4  UNL d   1       0.079  -0.992   1.687  0.00  0.00    -0.004 A 
ENDROOT
TORSDOF 0
ENDMDL
