MODEL 1
REMARK minimizedAffinity -2.45978522
REMARK minimizedRMSD -1
REMARK  0 active torsions:
REMARK  status: ('A' for Active; 'I' for Inactive)
ROOT
ATOM      1  C   UNL d   1      -1.057  -0.078   0.334  0.00  0.00     0.172 C 
ATOM      2  N   UNL d   1       0.197  -0.590  -0.168  0.00  0.00    -0.070 N 
ATOM      3  C1  UNL d   1       1.096  -1.338   0.543  0.00  0.00    -0.004 A 
ATOM      4  C2  UNL d   1       2.156  -1.628  -0.289  0.00  0.00    -0.047 A 
ATOM      5  C3  UNL d   1       1.885  -1.032  -1.543  0.00  0.00    -0.047 A 
ATOM      6  C4  UNL d   1       0.666  -0.396  -1.441  0.00  0.00    -0.004 A 
ENDROOT
TORSDOF 0
ENDMDL
