MODEL 1
REMARK minimizedAffinity -3.11812401
REMARK minimizedRMSD -1
REMARK  0 active torsions:
REMARK  status: ('A' for Active; 'I' for Inactive)
ROOT
ATOM      1  C   UNL d   1       2.305  -0.069  -2.097  0.00  0.00     0.172 C 
ATOM      2  N   UNL d   1       1.416  -0.477  -1.035  0.00  0.00    -0.070 N 
ATOM      3  C1  UNL d   1       0.709   0.365  -0.218  0.00  0.00    -0.004 A 
ATOM      4  C2  UNL d   1      -0.017  -0.410   0.660  0.00  0.00    -0.047 A 
ATOM      5  C3  UNL d   1       0.264  -1.765   0.361  0.00  0.00    -0.047 A 
ATOM      6  C4  UNL d   1       1.154  -1.777  -0.692  0.00  0.00    -0.004 A 
ENDROOT
TORSDOF 0
ENDMDL
