MODEL 1
REMARK minimizedAffinity -1.91166699
REMARK minimizedRMSD -1
REMARK  0 active torsions:
REMARK  status: ('A' for Active; 'I' for Inactive)
ROOT
ATOM      1  C   UNL d   1      -0.592   0.518  -0.020  0.00  0.00     0.172 C 
ATOM      2  N   UNL d   1      -1.187   0.612   1.292  0.00  0.00    -0.070 N 
ATOM      3  C1  UNL d   1      -2.377   0.051   1.671  0.00  0.00    -0.004 A 
ATOM      4  C2  UNL d   1      -2.592   0.368   2.995  0.00  0.00    -0.047 A 
ATOM      5  C3  UNL d   1      -1.492   1.148   3.427  0.00  0.00    -0.047 A 
ATOM      6  C4  UNL d   1      -0.638   1.283   2.353  0.00  0.00    -0.004 A 
ENDROOT
TORSDOF 0
ENDMDL
