MODEL 1
REMARK minimizedAffinity -1.32515776
REMARK minimizedRMSD -1
REMARK  0 active torsions:
REMARK  status: ('A' for Active; 'I' for Inactive)
ROOT
ATOM      1  C   UNL d   1      -1.677   0.576   0.087  0.00  0.00     0.172 C 
ATOM      2  N   UNL d   1      -1.942   0.829   1.484  0.00  0.00    -0.070 N 
ATOM      3  C1  UNL d   1      -2.588  -0.023   2.341  0.00  0.00    -0.004 A 
ATOM      4  C2  UNL d   1      -2.639   0.582   3.578  0.00  0.00    -0.047 A 
ATOM      5  C3  UNL d   1      -2.004   1.841   3.460  0.00  0.00    -0.047 A 
ATOM      6  C4  UNL d   1      -1.582   1.968   2.154  0.00  0.00    -0.004 A 
ENDROOT
TORSDOF 0
ENDMDL
