MODEL 1
REMARK minimizedAffinity -3.10909438
REMARK minimizedRMSD -1
REMARK  0 active torsions:
REMARK  status: ('A' for Active; 'I' for Inactive)
ROOT
ATOM      1  C   UNL d   1      -1.127   0.245  -0.126  0.00  0.00     0.172 C 
ATOM      2  N   UNL d   1       0.087  -0.524   0.013  0.00  0.00    -0.070 N 
ATOM      3  C1  UNL d   1       0.482  -1.547  -0.807  0.00  0.00    -0.004 A 
ATOM      4  C2  UNL d   1       1.691  -2.019  -0.342  0.00  0.00    -0.047 A 
ATOM      5  C3  UNL d   1       2.033  -1.254   0.798  0.00  0.00    -0.047 A 
ATOM      6  C4  UNL d   1       1.023  -0.336   0.995  0.00  0.00    -0.004 A 
ENDROOT
TORSDOF 0
ENDMDL
