MODEL 1
REMARK minimizedAffinity 0.304497987
REMARK minimizedRMSD -1
REMARK  0 active torsions:
REMARK  status: ('A' for Active; 'I' for Inactive)
ROOT
ATOM      1  C   UNL d   1       0.087   0.521   1.824  0.00  0.00     0.172 C 
ATOM      2  N   UNL d   1       0.196  -0.663   1.005  0.00  0.00    -0.070 N 
ATOM      3  C1  UNL d   1      -0.462  -0.881  -0.176  0.00  0.00    -0.004 A 
ATOM      4  C2  UNL d   1      -0.090  -2.123  -0.644  0.00  0.00    -0.047 A 
ATOM      5  C3  UNL d   1       0.822  -2.671   0.289  0.00  0.00    -0.047 A 
ATOM      6  C4  UNL d   1       0.982  -1.746   1.299  0.00  0.00    -0.004 A 
ENDROOT
TORSDOF 0
ENDMDL
