MODEL 1
REMARK minimizedAffinity -2.29660845
REMARK minimizedRMSD -1
REMARK  0 active torsions:
REMARK  status: ('A' for Active; 'I' for Inactive)
ROOT
ATOM      1  C   UNL d   1       2.147  -1.129  -1.166  0.00  0.00     0.172 C 
ATOM      2  N   UNL d   1       0.964  -0.515  -0.612  0.00  0.00    -0.070 N 
ATOM      3  C1  UNL d   1       0.171  -1.050   0.368  0.00  0.00    -0.004 A 
ATOM      4  C2  UNL d   1      -0.851  -0.159   0.617  0.00  0.00    -0.047 A 
ATOM      5  C3  UNL d   1      -0.666   0.949  -0.243  0.00  0.00    -0.047 A 
ATOM      6  C4  UNL d   1       0.465   0.703  -0.993  0.00  0.00    -0.004 A 
ENDROOT
TORSDOF 0
ENDMDL
