MODEL 1
REMARK minimizedAffinity -2.86635327
REMARK minimizedRMSD -1
REMARK  0 active torsions:
REMARK  status: ('A' for Active; 'I' for Inactive)
ROOT
ATOM      1  C   UNL d   1      -1.713   1.462   2.851  0.00  0.00     0.172 C 
ATOM      2  N   UNL d   1      -1.100   0.689   1.797  0.00  0.00    -0.070 N 
ATOM      3  C1  UNL d   1       0.053  -0.041   1.909  0.00  0.00    -0.004 A 
ATOM      4  C2  UNL d   1       0.301  -0.629   0.688  0.00  0.00    -0.047 A 
ATOM      5  C3  UNL d   1      -0.738  -0.237  -0.190  0.00  0.00    -0.047 A 
ATOM      6  C4  UNL d   1      -1.592   0.579   0.523  0.00  0.00    -0.004 A 
ENDROOT
TORSDOF 0
ENDMDL
