MODEL 1
REMARK minimizedAffinity -2.89622927
REMARK minimizedRMSD -1
REMARK  0 active torsions:
REMARK  status: ('A' for Active; 'I' for Inactive)
ROOT
ATOM      1  C   UNL d   1       2.306   0.260  -2.818  0.00  0.00     0.172 C 
ATOM      2  N   UNL d   1       1.654  -0.250  -1.635  0.00  0.00    -0.070 N 
ATOM      3  C1  UNL d   1       1.544  -1.571  -1.291  0.00  0.00    -0.004 A 
ATOM      4  C2  UNL d   1       0.858  -1.641  -0.098  0.00  0.00    -0.047 A 
ATOM      5  C3  UNL d   1       0.543  -0.316   0.287  0.00  0.00    -0.047 A 
ATOM      6  C4  UNL d   1       1.048   0.525  -0.682  0.00  0.00    -0.004 A 
ENDROOT
TORSDOF 0
ENDMDL
