MODEL 1
REMARK minimizedAffinity -2.80959368
REMARK minimizedRMSD -1
REMARK  0 active torsions:
REMARK  status: ('A' for Active; 'I' for Inactive)
ROOT
ATOM      1  C   UNL d   1       1.284  -1.199  -0.885  0.00  0.00     0.172 C 
ATOM      2  N   UNL d   1       0.416  -0.440  -0.016  0.00  0.00    -0.070 N 
ATOM      3  C1  UNL d   1      -0.816   0.054  -0.352  0.00  0.00    -0.004 A 
ATOM      4  C2  UNL d   1      -1.320   0.715   0.747  0.00  0.00    -0.047 A 
ATOM      5  C3  UNL d   1      -0.357   0.616   1.779  0.00  0.00    -0.047 A 
ATOM      6  C4  UNL d   1       0.708  -0.104   1.279  0.00  0.00    -0.004 A 
ENDROOT
TORSDOF 0
ENDMDL
