MODEL 1
REMARK minimizedAffinity -2.09451509
REMARK minimizedRMSD -1
REMARK  0 active torsions:
REMARK  status: ('A' for Active; 'I' for Inactive)
ROOT
ATOM      1  C   UNL d   1      -1.483   0.006   0.122  0.00  0.00     0.172 C 
ATOM      2  N   UNL d   1      -1.796   0.435   1.465  0.00  0.00    -0.070 N 
ATOM      3  C1  UNL d   1      -3.043   0.443   2.030  0.00  0.00    -0.004 A 
ATOM      4  C2  UNL d   1      -2.919   0.919   3.318  0.00  0.00    -0.047 A 
ATOM      5  C3  UNL d   1      -1.551   1.208   3.533  0.00  0.00    -0.047 A 
ATOM      6  C4  UNL d   1      -0.878   0.900   2.370  0.00  0.00    -0.004 A 
ENDROOT
TORSDOF 0
ENDMDL
