MODEL 1
REMARK minimizedAffinity -3.14169264
REMARK minimizedRMSD -1
REMARK  0 active torsions:
REMARK  status: ('A' for Active; 'I' for Inactive)
ROOT
ATOM      1  C   UNL d   1       1.082   0.761  -2.409  0.00  0.00     0.172 C 
ATOM      2  N   UNL d   1       0.418   0.068  -1.330  0.00  0.00    -0.070 N 
ATOM      3  C1  UNL d   1       0.904  -1.026  -0.665  0.00  0.00    -0.004 A 
ATOM      4  C2  UNL d   1      -0.023  -1.385   0.290  0.00  0.00    -0.047 A 
ATOM      5  C3  UNL d   1      -1.104  -0.476   0.194  0.00  0.00    -0.047 A 
ATOM      6  C4  UNL d   1      -0.804   0.413  -0.817  0.00  0.00    -0.004 A 
ENDROOT
TORSDOF 0
ENDMDL
