MODEL 1
REMARK minimizedAffinity -1.98044705
REMARK minimizedRMSD -1
REMARK  0 active torsions:
REMARK  status: ('A' for Active; 'I' for Inactive)
ROOT
ATOM      1  C   UNL d   1       1.926   0.124  -2.407  0.00  0.00     0.172 C 
ATOM      2  N   UNL d   1       1.266  -0.209  -1.167  0.00  0.00    -0.070 N 
ATOM      3  C1  UNL d   1       0.034   0.240  -0.772  0.00  0.00    -0.004 A 
ATOM      4  C2  UNL d   1      -0.237  -0.303   0.465  0.00  0.00    -0.047 A 
ATOM      5  C3  UNL d   1       0.872  -1.105   0.827  0.00  0.00    -0.047 A 
ATOM      6  C4  UNL d   1       1.787  -1.029  -0.201  0.00  0.00    -0.004 A 
ENDROOT
TORSDOF 0
ENDMDL
