MODEL 1
REMARK minimizedAffinity -2.44203377
REMARK minimizedRMSD -1
REMARK  0 active torsions:
REMARK  status: ('A' for Active; 'I' for Inactive)
ROOT
ATOM      1  C   UNL d   1       1.465  -1.863  -1.163  0.00  0.00     0.172 C 
ATOM      2  N   UNL d   1       0.540  -0.914  -0.588  0.00  0.00    -0.070 N 
ATOM      3  C1  UNL d   1       0.088  -0.922   0.704  0.00  0.00    -0.004 A 
ATOM      4  C2  UNL d   1      -0.774   0.143   0.856  0.00  0.00    -0.047 A 
ATOM      5  C3  UNL d   1      -0.843   0.813  -0.388  0.00  0.00    -0.047 A 
ATOM      6  C4  UNL d   1      -0.020   0.137  -1.265  0.00  0.00    -0.004 A 
ENDROOT
TORSDOF 0
ENDMDL
