MODEL 1
REMARK minimizedAffinity 1.04754877
REMARK minimizedRMSD -1
REMARK  0 active torsions:
REMARK  status: ('A' for Active; 'I' for Inactive)
ROOT
ATOM      1  C   UNL d   1       0.230  -4.082   0.882  0.00  0.00     0.172 C 
ATOM      2  N   UNL d   1       1.096  -3.148   0.202  0.00  0.00    -0.070 N 
ATOM      3  C1  UNL d   1       0.819  -2.522  -0.985  0.00  0.00    -0.004 A 
ATOM      4  C2  UNL d   1       1.891  -1.714  -1.296  0.00  0.00    -0.047 A 
ATOM      5  C3  UNL d   1       2.845  -1.860  -0.261  0.00  0.00    -0.047 A 
ATOM      6  C4  UNL d   1       2.327  -2.753   0.653  0.00  0.00    -0.004 A 
ENDROOT
TORSDOF 0
ENDMDL
