MODEL 1
REMARK minimizedAffinity -2.90398431
REMARK minimizedRMSD -1
REMARK  0 active torsions:
REMARK  status: ('A' for Active; 'I' for Inactive)
ROOT
ATOM      1  C   UNL d   1      -3.005  -1.587   1.249  0.00  0.00     0.023 A 
ATOM      2  C1  UNL d   1      -2.761  -0.279   0.829  0.00  0.00     0.003 A 
ATOM      3  C2  UNL d   1      -1.461   0.125   0.518  0.00  0.00     0.048 A 
ATOM      4  C3  UNL d   1      -0.410  -0.784   0.629  0.00  0.00     0.023 A 
ATOM      5  C4  UNL d   1      -0.649  -2.094   1.048  0.00  0.00     0.048 A 
ATOM      6  C5  UNL d   1      -1.950  -2.493   1.359  0.00  0.00     0.003 A 
ATOM      7  I   UNL d   1       1.526  -0.185   0.167  0.00  0.00    -0.146 I 
ENDROOT
TORSDOF 0
ENDMDL
