MODEL 1
REMARK minimizedAffinity -1.1598419
REMARK minimizedRMSD -1
REMARK  0 active torsions:
REMARK  status: ('A' for Active; 'I' for Inactive)
ROOT
ATOM      1  C   UNL d   1      -0.243   0.082   1.195  0.00  0.00     0.023 A 
ATOM      2  C1  UNL d   1      -0.259   1.439   0.870  0.00  0.00     0.003 A 
ATOM      3  C2  UNL d   1       0.105   1.855  -0.413  0.00  0.00     0.048 A 
ATOM      4  C3  UNL d   1       0.482   0.909  -1.365  0.00  0.00     0.023 A 
ATOM      5  C4  UNL d   1       0.498  -0.450  -1.044  0.00  0.00     0.048 A 
ATOM      6  C5  UNL d   1       0.135  -0.861   0.239  0.00  0.00     0.003 A 
ATOM      7  I   UNL d   1       1.023   1.525  -3.275  0.00  0.00    -0.146 I 
ENDROOT
TORSDOF 0
ENDMDL
