MODEL 1
REMARK minimizedAffinity -3.37792158
REMARK minimizedRMSD -1
REMARK  0 active torsions:
REMARK  status: ('A' for Active; 'I' for Inactive)
ROOT
ATOM      1  C   UNL d   1      -0.011   1.920  -2.650  0.00  0.00     0.023 A 
ATOM      2  C1  UNL d   1       0.675   1.328  -3.711  0.00  0.00     0.003 A 
ATOM      3  C2  UNL d   1       2.062   1.178  -3.651  0.00  0.00     0.048 A 
ATOM      4  C3  UNL d   1       2.757   1.622  -2.527  0.00  0.00     0.023 A 
ATOM      5  C4  UNL d   1       2.076   2.215  -1.463  0.00  0.00     0.048 A 
ATOM      6  C5  UNL d   1       0.689   2.363  -1.527  0.00  0.00     0.003 A 
ATOM      7  I   UNL d   1       4.822   1.400  -2.436  0.00  0.00    -0.146 I 
ENDROOT
TORSDOF 0
ENDMDL
