MODEL 1
REMARK minimizedAffinity -2.06122184
REMARK minimizedRMSD -1
REMARK  0 active torsions:
REMARK  status: ('A' for Active; 'I' for Inactive)
ROOT
ATOM      1  C   UNL d   1      -1.002  -2.270   1.314  0.00  0.00     0.023 A 
ATOM      2  C1  UNL d   1       0.367  -2.057   1.156  0.00  0.00     0.003 A 
ATOM      3  C2  UNL d   1       0.824  -0.968   0.410  0.00  0.00     0.048 A 
ATOM      4  C3  UNL d   1      -0.094  -0.097  -0.175  0.00  0.00     0.023 A 
ATOM      5  C4  UNL d   1      -1.465  -0.306  -0.019  0.00  0.00     0.048 A 
ATOM      6  C5  UNL d   1      -1.917  -1.396   0.727  0.00  0.00     0.003 A 
ATOM      7  I   UNL d   1       0.583   1.523  -1.287  0.00  0.00    -0.146 I 
ENDROOT
TORSDOF 0
ENDMDL
