MODEL 1
REMARK minimizedAffinity -4.27704906
REMARK minimizedRMSD -1
REMARK  0 active torsions:
REMARK  status: ('A' for Active; 'I' for Inactive)
ROOT
ATOM      1  C   UNL d   1      -0.459   1.631   0.167  0.00  0.00     0.023 A 
ATOM      2  C1  UNL d   1      -1.426   1.440   1.154  0.00  0.00     0.003 A 
ATOM      3  C2  UNL d   1      -1.732   0.150   1.593  0.00  0.00     0.048 A 
ATOM      4  C3  UNL d   1      -1.067  -0.944   1.041  0.00  0.00     0.023 A 
ATOM      5  C4  UNL d   1      -0.098  -0.757   0.053  0.00  0.00     0.048 A 
ATOM      6  C5  UNL d   1       0.204   0.534  -0.383  0.00  0.00     0.003 A 
ATOM      7  I   UNL d   1      -1.521  -2.865   1.692  0.00  0.00    -0.146 I 
ENDROOT
TORSDOF 0
ENDMDL
