MODEL 1
REMARK minimizedAffinity -5.06111526
REMARK minimizedRMSD -1
REMARK  0 active torsions:
REMARK  status: ('A' for Active; 'I' for Inactive)
ROOT
ATOM      1  C   UNL d   1      -2.746  -1.755   2.054  0.00  0.00     0.023 A 
ATOM      2  C1  UNL d   1      -1.739  -2.312   1.265  0.00  0.00     0.003 A 
ATOM      3  C2  UNL d   1      -0.873  -1.483   0.549  0.00  0.00     0.048 A 
ATOM      4  C3  UNL d   1      -1.018  -0.099   0.627  0.00  0.00     0.023 A 
ATOM      5  C4  UNL d   1      -2.024   0.463   1.416  0.00  0.00     0.048 A 
ATOM      6  C5  UNL d   1      -2.888  -0.370   2.129  0.00  0.00     0.003 A 
ATOM      7  I   UNL d   1       0.271   1.137  -0.437  0.00  0.00    -0.146 I 
ENDROOT
TORSDOF 0
ENDMDL
