MODEL 1
REMARK minimizedAffinity -2.12618303
REMARK minimizedRMSD -1
REMARK  0 active torsions:
REMARK  status: ('A' for Active; 'I' for Inactive)
ROOT
ATOM      1  C   UNL d   1      -1.233  -2.571   1.276  0.00  0.00     0.023 A 
ATOM      2  C1  UNL d   1       0.065  -2.101   1.477  0.00  0.00     0.003 A 
ATOM      3  C2  UNL d   1       0.539  -1.017   0.737  0.00  0.00     0.048 A 
ATOM      4  C3  UNL d   1      -0.290  -0.406  -0.203  0.00  0.00     0.023 A 
ATOM      5  C4  UNL d   1      -1.589  -0.871  -0.408  0.00  0.00     0.048 A 
ATOM      6  C5  UNL d   1      -2.059  -1.957   0.334  0.00  0.00     0.003 A 
ATOM      7  I   UNL d   1       0.415   1.209  -1.307  0.00  0.00    -0.146 I 
ENDROOT
TORSDOF 0
ENDMDL
