MODEL 1
REMARK minimizedAffinity -3.47680426
REMARK minimizedRMSD -1
REMARK  0 active torsions:
REMARK  status: ('A' for Active; 'I' for Inactive)
ROOT
ATOM      1  C   UNL d   1      -0.848  -2.809   1.104  0.00  0.00     0.023 A 
ATOM      2  C1  UNL d   1      -1.812  -1.894   0.682  0.00  0.00     0.003 A 
ATOM      3  C2  UNL d   1      -1.423  -0.694   0.083  0.00  0.00     0.048 A 
ATOM      4  C3  UNL d   1      -0.068  -0.417  -0.093  0.00  0.00     0.023 A 
ATOM      5  C4  UNL d   1       0.901  -1.331   0.326  0.00  0.00     0.048 A 
ATOM      6  C5  UNL d   1       0.507  -2.528   0.926  0.00  0.00     0.003 A 
ATOM      7  I   UNL d   1       0.514   1.368  -0.985  0.00  0.00    -0.146 I 
ENDROOT
TORSDOF 0
ENDMDL
