MODEL 1
REMARK minimizedAffinity 2.85496402
REMARK minimizedRMSD -1
REMARK  0 active torsions:
REMARK  status: ('A' for Active; 'I' for Inactive)
ROOT
ATOM      1  C   UNL d   1      -0.368  -5.820  -4.001  0.00  0.00     0.023 A 
ATOM      2  C1  UNL d   1      -1.501  -5.795  -3.188  0.00  0.00     0.003 A 
ATOM      3  C2  UNL d   1      -2.774  -5.846  -3.760  0.00  0.00     0.048 A 
ATOM      4  C3  UNL d   1      -2.906  -5.923  -5.146  0.00  0.00     0.023 A 
ATOM      5  C4  UNL d   1      -1.775  -5.950  -5.963  0.00  0.00     0.048 A 
ATOM      6  C5  UNL d   1      -0.505  -5.897  -5.387  0.00  0.00     0.003 A 
ATOM      7  I   UNL d   1      -4.800  -6.000  -6.000  0.00  0.00    -0.146 I 
ENDROOT
TORSDOF 0
ENDMDL
