MODEL 1
REMARK minimizedAffinity 0.164445207
REMARK minimizedRMSD -1
REMARK  0 active torsions:
REMARK  status: ('A' for Active; 'I' for Inactive)
ROOT
ATOM      1  C   UNL d   1      -2.974  -0.507   0.646  0.00  0.00     0.023 A 
ATOM      2  C1  UNL d   1      -2.784   0.824   1.018  0.00  0.00     0.003 A 
ATOM      3  C2  UNL d   1      -1.640   1.510   0.605  0.00  0.00     0.048 A 
ATOM      4  C3  UNL d   1      -0.690   0.858  -0.181  0.00  0.00     0.023 A 
ATOM      5  C4  UNL d   1      -0.875  -0.473  -0.556  0.00  0.00     0.048 A 
ATOM      6  C5  UNL d   1      -2.020  -1.155  -0.140  0.00  0.00     0.003 A 
ATOM      7  I   UNL d   1       1.014   1.877  -0.797  0.00  0.00    -0.146 I 
ENDROOT
TORSDOF 0
ENDMDL
