MODEL 1
REMARK minimizedAffinity -2.87362027
REMARK minimizedRMSD -1
REMARK  0 active torsions:
REMARK  status: ('A' for Active; 'I' for Inactive)
ROOT
ATOM      1  C   UNL d   1      -1.254  -2.644   1.742  0.00  0.00     0.023 A 
ATOM      2  C1  UNL d   1       0.106  -2.334   1.734  0.00  0.00     0.003 A 
ATOM      3  C2  UNL d   1       0.607  -1.411   0.813  0.00  0.00     0.048 A 
ATOM      4  C3  UNL d   1      -0.257  -0.802  -0.096  0.00  0.00     0.023 A 
ATOM      5  C4  UNL d   1      -1.619  -1.110  -0.092  0.00  0.00     0.048 A 
ATOM      6  C5  UNL d   1      -2.115  -2.033   0.830  0.00  0.00     0.003 A 
ATOM      7  I   UNL d   1       0.487   0.571  -1.468  0.00  0.00    -0.146 I 
ENDROOT
TORSDOF 0
ENDMDL
