MODEL 1
REMARK minimizedAffinity -2.57158899
REMARK minimizedRMSD -1
REMARK  0 active torsions:
REMARK  status: ('A' for Active; 'I' for Inactive)
ROOT
ATOM      1  C   UNL d   1      -0.707  -2.095   1.120  0.00  0.00     0.023 A 
ATOM      2  C1  UNL d   1       0.664  -1.948   0.906  0.00  0.00     0.003 A 
ATOM      3  C2  UNL d   1       1.156  -0.797   0.288  0.00  0.00     0.048 A 
ATOM      4  C3  UNL d   1       0.272   0.204  -0.113  0.00  0.00     0.023 A 
ATOM      5  C4  UNL d   1      -1.100   0.062   0.099  0.00  0.00     0.048 A 
ATOM      6  C5  UNL d   1      -1.588  -1.091   0.717  0.00  0.00     0.003 A 
ATOM      7  I   UNL d   1       1.003   1.919  -1.034  0.00  0.00    -0.146 I 
ENDROOT
TORSDOF 0
ENDMDL
