MODEL 1
REMARK minimizedAffinity -1.29895711
REMARK minimizedRMSD -1
REMARK  0 active torsions:
REMARK  status: ('A' for Active; 'I' for Inactive)
ROOT
ATOM      1  C   UNL d   1      -2.080  -2.141   1.082  0.00  0.00     0.023 A 
ATOM      2  C1  UNL d   1      -1.019  -2.598   1.863  0.00  0.00     0.003 A 
ATOM      3  C2  UNL d   1       0.253  -2.045   1.707  0.00  0.00     0.048 A 
ATOM      4  C3  UNL d   1       0.458  -1.035   0.767  0.00  0.00     0.023 A 
ATOM      5  C4  UNL d   1      -0.601  -0.574  -0.017  0.00  0.00     0.048 A 
ATOM      6  C5  UNL d   1      -1.872  -1.130   0.143  0.00  0.00     0.003 A 
ATOM      7  I   UNL d   1       2.351  -0.211   0.533  0.00  0.00    -0.146 I 
ENDROOT
TORSDOF 0
ENDMDL
