MODEL 1
REMARK minimizedAffinity -1.85419512
REMARK minimizedRMSD -1
REMARK  0 active torsions:
REMARK  status: ('A' for Active; 'I' for Inactive)
ROOT
ATOM      1  C   UNL d   1      -0.427   0.149  -0.411  0.00  0.00     0.172 C 
ATOM      2  N   UNL d   1      -0.612   1.233  -1.348  0.00  0.00    -0.070 N 
ATOM      3  C1  UNL d   1       0.388   1.896  -2.009  0.00  0.00    -0.004 A 
ATOM      4  C2  UNL d   1      -0.198   2.856  -2.806  0.00  0.00    -0.047 A 
ATOM      5  C3  UNL d   1      -1.597   2.767  -2.617  0.00  0.00    -0.047 A 
ATOM      6  C4  UNL d   1      -1.826   1.754  -1.709  0.00  0.00    -0.004 A 
ENDROOT
TORSDOF 0
ENDMDL
