MODEL 1
REMARK minimizedAffinity -3.6025629
REMARK minimizedRMSD -1
REMARK  0 active torsions:
REMARK  status: ('A' for Active; 'I' for Inactive)
ROOT
ATOM      1  C   UNL d   1      -0.040   0.152   0.142  0.00  0.00     0.172 C 
ATOM      2  N   UNL d   1       0.778  -0.734   0.937  0.00  0.00    -0.070 N 
ATOM      3  C1  UNL d   1       0.633  -0.965   2.279  0.00  0.00    -0.004 A 
ATOM      4  C2  UNL d   1       1.601  -1.869   2.658  0.00  0.00    -0.047 A 
ATOM      5  C3  UNL d   1       2.354  -2.193   1.504  0.00  0.00    -0.047 A 
ATOM      6  C4  UNL d   1       1.822  -1.476   0.453  0.00  0.00    -0.004 A 
ENDROOT
TORSDOF 0
ENDMDL
