MODEL 1
REMARK minimizedAffinity -1.68122089
REMARK minimizedRMSD -1
REMARK  0 active torsions:
REMARK  status: ('A' for Active; 'I' for Inactive)
ROOT
ATOM      1  C   UNL d   1       0.105   2.942  -1.936  0.00  0.00     0.172 C 
ATOM      2  N   UNL d   1      -0.198   1.750  -1.179  0.00  0.00    -0.070 N 
ATOM      3  C1  UNL d   1       0.163   1.517   0.121  0.00  0.00    -0.004 A 
ATOM      4  C2  UNL d   1      -0.312   0.273   0.475  0.00  0.00    -0.047 A 
ATOM      5  C3  UNL d   1      -0.982  -0.261  -0.652  0.00  0.00    -0.047 A 
ATOM      6  C4  UNL d   1      -0.895   0.675  -1.662  0.00  0.00    -0.004 A 
ENDROOT
TORSDOF 0
ENDMDL
