MODEL 1
REMARK minimizedAffinity -2.52588439
REMARK minimizedRMSD -1
REMARK  0 active torsions:
REMARK  status: ('A' for Active; 'I' for Inactive)
ROOT
ATOM      1  C   UNL d   1      -0.226   2.612  -1.957  0.00  0.00     0.172 C 
ATOM      2  N   UNL d   1      -0.520   1.595  -0.975  0.00  0.00    -0.070 N 
ATOM      3  C1  UNL d   1      -0.748   0.271  -1.241  0.00  0.00    -0.004 A 
ATOM      4  C2  UNL d   1      -0.989  -0.365  -0.042  0.00  0.00    -0.047 A 
ATOM      5  C3  UNL d   1      -0.904   0.611   0.979  0.00  0.00    -0.047 A 
ATOM      6  C4  UNL d   1      -0.613   1.815   0.374  0.00  0.00    -0.004 A 
ENDROOT
TORSDOF 0
ENDMDL
