MODEL 1
REMARK minimizedAffinity -2.84915829
REMARK minimizedRMSD -1
REMARK  0 active torsions:
REMARK  status: ('A' for Active; 'I' for Inactive)
ROOT
ATOM      1  C   UNL d   1       1.475  -1.392  -1.019  0.00  0.00     0.172 C 
ATOM      2  N   UNL d   1       0.529  -0.886  -0.052  0.00  0.00    -0.070 N 
ATOM      3  C1  UNL d   1      -0.520  -0.049  -0.325  0.00  0.00    -0.004 A 
ATOM      4  C2  UNL d   1      -1.180   0.199   0.859  0.00  0.00    -0.047 A 
ATOM      5  C3  UNL d   1      -0.505  -0.513   1.878  0.00  0.00    -0.047 A 
ATOM      6  C4  UNL d   1       0.549  -1.176   1.286  0.00  0.00    -0.004 A 
ENDROOT
TORSDOF 0
ENDMDL
