MODEL 1
REMARK minimizedAffinity -3.19187331
REMARK minimizedRMSD -1
REMARK  0 active torsions:
REMARK  status: ('A' for Active; 'I' for Inactive)
ROOT
ATOM      1  C   UNL d   1      -0.893   0.758   0.875  0.00  0.00     0.172 C 
ATOM      2  N   UNL d   1      -0.743   0.800  -0.561  0.00  0.00    -0.070 N 
ATOM      3  C1  UNL d   1       0.012  -0.062  -1.310  0.00  0.00    -0.004 A 
ATOM      4  C2  UNL d   1      -0.108   0.311  -2.632  0.00  0.00    -0.047 A 
ATOM      5  C3  UNL d   1      -0.963   1.438  -2.678  0.00  0.00    -0.047 A 
ATOM      6  C4  UNL d   1      -1.342   1.719  -1.382  0.00  0.00    -0.004 A 
ENDROOT
TORSDOF 0
ENDMDL
