MODEL 1
REMARK minimizedAffinity -2.86445761
REMARK minimizedRMSD -1
REMARK  0 active torsions:
REMARK  status: ('A' for Active; 'I' for Inactive)
ROOT
ATOM      1  C   UNL d   1      -0.176  -0.290  -2.040  0.00  0.00     0.172 C 
ATOM      2  N   UNL d   1      -0.291   1.147  -2.124  0.00  0.00    -0.070 N 
ATOM      3  C1  UNL d   1       0.553   1.977  -2.812  0.00  0.00    -0.004 A 
ATOM      4  C2  UNL d   1       0.103   3.269  -2.645  0.00  0.00    -0.047 A 
ATOM      5  C3  UNL d   1      -1.050   3.213  -1.827  0.00  0.00    -0.047 A 
ATOM      6  C4  UNL d   1      -1.272   1.888  -1.519  0.00  0.00    -0.004 A 
ENDROOT
TORSDOF 0
ENDMDL
