MODEL 1
REMARK minimizedAffinity -1.81595361
REMARK minimizedRMSD -1
REMARK  0 active torsions:
REMARK  status: ('A' for Active; 'I' for Inactive)
ROOT
ATOM      1  C   UNL d   1      -0.121   0.296  -0.939  0.00  0.00     0.172 C 
ATOM      2  N   UNL d   1      -0.324   1.536  -1.650  0.00  0.00    -0.070 N 
ATOM      3  C1  UNL d   1       0.656   2.426  -2.000  0.00  0.00    -0.004 A 
ATOM      4  C2  UNL d   1       0.057   3.475  -2.663  0.00  0.00    -0.047 A 
ATOM      5  C3  UNL d   1      -1.332   3.208  -2.711  0.00  0.00    -0.047 A 
ATOM      6  C4  UNL d   1      -1.540   2.002  -2.077  0.00  0.00    -0.004 A 
ENDROOT
TORSDOF 0
ENDMDL
