MODEL 1
REMARK minimizedAffinity -0.707955301
REMARK minimizedRMSD -1
REMARK  0 active torsions:
REMARK  status: ('A' for Active; 'I' for Inactive)
ROOT
ATOM      1  C   UNL d   1       0.026  -1.486   2.410  0.00  0.00     0.172 C 
ATOM      2  N   UNL d   1      -0.221  -0.773   1.178  0.00  0.00    -0.070 N 
ATOM      3  C1  UNL d   1      -1.411  -0.204   0.810  0.00  0.00    -0.004 A 
ATOM      4  C2  UNL d   1      -1.237   0.377  -0.427  0.00  0.00    -0.047 A 
ATOM      5  C3  UNL d   1       0.105   0.149  -0.816  0.00  0.00    -0.047 A 
ATOM      6  C4  UNL d   1       0.710  -0.566   0.196  0.00  0.00    -0.004 A 
ENDROOT
TORSDOF 0
ENDMDL
