MODEL 1
REMARK minimizedAffinity 0.742858946
REMARK minimizedRMSD -1
REMARK  2 active torsions:
REMARK  status: ('A' for Active; 'I' for Inactive)
REMARK    1  A    between atoms: C1_2  and  C2_3 
REMARK    2  A    between atoms: C2_3  and  C3_4 
ROOT
ATOM      1  C3  UNL d   1      -1.161  -0.875   2.197  0.00  0.00    -0.075 A 
ATOM      2  C4  UNL d   1       0.150  -0.505   2.528  0.00  0.00     0.002 A 
ATOM      3  C5  UNL d   1       0.755  -1.001   3.684  0.00  0.00     0.002 A 
ATOM      4  C6  UNL d   1       0.055  -1.863   4.526  0.00  0.00    -0.004 A 
ATOM      5  C7  UNL d   1      -1.254  -2.223   4.215  0.00  0.00     0.002 A 
ATOM      6  C8  UNL d   1      -1.860  -1.733   3.057  0.00  0.00     0.002 A 
ENDROOT
BRANCH   1   7
ATOM      7  C2  UNL d   1      -1.812  -0.366   0.933  0.00  0.00     0.056 C 
BRANCH   7   8
ATOM      8  C1  UNL d   1      -1.400  -1.127  -0.331  0.00  0.00     0.007 C 
ATOM      9  C   UNL d   1      -2.238  -0.766  -1.550  0.00  0.00     0.009 C 
ENDBRANCH   7   8
ENDBRANCH   1   7
TORSDOF 2
ENDMDL
