MODEL 1
REMARK minimizedAffinity 7.86694813
REMARK minimizedRMSD -1
REMARK  2 active torsions:
REMARK  status: ('A' for Active; 'I' for Inactive)
REMARK    1  A    between atoms: C1_2  and  C2_3 
REMARK    2  A    between atoms: C2_3  and  C3_4 
ROOT
ATOM      1  C3  UNL d   1      -1.266  -1.644  -2.591  0.00  0.00    -0.075 A 
ATOM      2  C4  UNL d   1      -0.173  -0.767  -2.649  0.00  0.00     0.002 A 
ATOM      3  C5  UNL d   1       0.092  -0.042  -3.810  0.00  0.00     0.002 A 
ATOM      4  C6  UNL d   1      -0.723  -0.190  -4.930  0.00  0.00    -0.004 A 
ATOM      5  C7  UNL d   1      -1.802  -1.071  -4.890  0.00  0.00     0.002 A 
ATOM      6  C8  UNL d   1      -2.073  -1.795  -3.727  0.00  0.00     0.002 A 
ENDROOT
BRANCH   1   7
ATOM      7  C2  UNL d   1      -1.576  -2.410  -1.327  0.00  0.00     0.056 C 
BRANCH   7   8
ATOM      8  C1  UNL d   1      -2.657  -1.763  -0.455  0.00  0.00     0.007 C 
ATOM      9  C   UNL d   1      -2.944  -0.315  -0.830  0.00  0.00     0.009 C 
ENDBRANCH   7   8
ENDBRANCH   1   7
TORSDOF 2
ENDMDL
