MODEL 1
REMARK minimizedAffinity -0.624100029
REMARK minimizedRMSD -1
REMARK  2 active torsions:
REMARK  status: ('A' for Active; 'I' for Inactive)
REMARK    1  A    between atoms: C1_2  and  C2_3 
REMARK    2  A    between atoms: C2_3  and  C3_4 
ROOT
ATOM      1  C3  UNL d   1       1.279  -0.101   1.380  0.00  0.00    -0.075 A 
ATOM      2  C4  UNL d   1      -0.086   0.222   1.397  0.00  0.00     0.002 A 
ATOM      3  C5  UNL d   1      -0.946  -0.383   2.313  0.00  0.00     0.002 A 
ATOM      4  C6  UNL d   1      -0.456  -1.324   3.216  0.00  0.00    -0.004 A 
ATOM      5  C7  UNL d   1       0.895  -1.665   3.197  0.00  0.00     0.002 A 
ATOM      6  C8  UNL d   1       1.758  -1.058   2.284  0.00  0.00     0.002 A 
ENDROOT
BRANCH   1   7
ATOM      7  C2  UNL d   1       2.220   0.572   0.410  0.00  0.00     0.056 C 
BRANCH   7   8
ATOM      8  C1  UNL d   1       2.746   1.929   0.890  0.00  0.00     0.007 C 
ATOM      9  C   UNL d   1       2.238   3.098   0.058  0.00  0.00     0.009 C 
ENDBRANCH   7   8
ENDBRANCH   1   7
TORSDOF 2
ENDMDL
