MODEL 1
REMARK minimizedAffinity 6.67798901
REMARK minimizedRMSD -1
REMARK  2 active torsions:
REMARK  status: ('A' for Active; 'I' for Inactive)
REMARK    1  A    between atoms: C1_2  and  C2_3 
REMARK    2  A    between atoms: C2_3  and  C3_4 
ROOT
ATOM      1  C3  UNL d   1       0.761   4.859  -0.729  0.00  0.00    -0.075 A 
ATOM      2  C4  UNL d   1       0.458   3.880  -1.686  0.00  0.00     0.002 A 
ATOM      3  C5  UNL d   1      -0.709   3.968  -2.445  0.00  0.00     0.002 A 
ATOM      4  C6  UNL d   1      -1.592   5.028  -2.250  0.00  0.00    -0.004 A 
ATOM      5  C7  UNL d   1      -1.310   5.998  -1.290  0.00  0.00     0.002 A 
ATOM      6  C8  UNL d   1      -0.140   5.914  -0.533  0.00  0.00     0.002 A 
ENDROOT
BRANCH   1   7
ATOM      7  C2  UNL d   1       2.037   4.785   0.075  0.00  0.00     0.056 C 
BRANCH   7   8
ATOM      8  C1  UNL d   1       1.977   3.804   1.251  0.00  0.00     0.007 C 
ATOM      9  C   UNL d   1       3.131   2.810   1.262  0.00  0.00     0.009 C 
ENDBRANCH   7   8
ENDBRANCH   1   7
TORSDOF 2
ENDMDL
