MODEL 1
REMARK minimizedAffinity 5.59688807
REMARK minimizedRMSD -1
REMARK  2 active torsions:
REMARK  status: ('A' for Active; 'I' for Inactive)
REMARK    1  A    between atoms: C1_2  and  C2_3 
REMARK    2  A    between atoms: C2_3  and  C3_4 
ROOT
ATOM      1  C3  UNL d   1       4.843  -2.532  -3.394  0.00  0.00    -0.075 A 
ATOM      2  C4  UNL d   1       3.694  -2.538  -2.590  0.00  0.00     0.002 A 
ATOM      3  C5  UNL d   1       3.696  -1.905  -1.346  0.00  0.00     0.002 A 
ATOM      4  C6  UNL d   1       4.848  -1.270  -0.887  0.00  0.00    -0.004 A 
ATOM      5  C7  UNL d   1       6.000  -1.272  -1.670  0.00  0.00     0.002 A 
ATOM      6  C8  UNL d   1       5.999  -1.900  -2.917  0.00  0.00     0.002 A 
ENDROOT
BRANCH   1   7
ATOM      7  C2  UNL d   1       4.838  -3.189  -4.754  0.00  0.00     0.056 C 
BRANCH   7   8
ATOM      8  C1  UNL d   1       5.607  -2.410  -5.826  0.00  0.00     0.007 C 
ATOM      9  C   UNL d   1       5.641  -0.909  -5.569  0.00  0.00     0.009 C 
ENDBRANCH   7   8
ENDBRANCH   1   7
TORSDOF 2
ENDMDL
