MODEL 1
REMARK minimizedAffinity 6.18704748
REMARK minimizedRMSD -1
REMARK  2 active torsions:
REMARK  status: ('A' for Active; 'I' for Inactive)
REMARK    1  A    between atoms: C1_2  and  C2_3 
REMARK    2  A    between atoms: C2_3  and  C3_4 
ROOT
ATOM      1  C3  UNL d   1       1.602   0.628   1.995  0.00  0.00    -0.075 A 
ATOM      2  C4  UNL d   1       2.570   1.413   1.352  0.00  0.00     0.002 A 
ATOM      3  C5  UNL d   1       2.262   2.703   0.918  0.00  0.00     0.002 A 
ATOM      4  C6  UNL d   1       0.983   3.220   1.112  0.00  0.00    -0.004 A 
ATOM      5  C7  UNL d   1       0.009   2.443   1.735  0.00  0.00     0.002 A 
ATOM      6  C8  UNL d   1       0.315   1.154   2.174  0.00  0.00     0.002 A 
ENDROOT
BRANCH   1   7
ATOM      7  C2  UNL d   1       1.937  -0.757   2.493  0.00  0.00     0.056 C 
BRANCH   7   8
ATOM      8  C1  UNL d   1       1.330  -1.092   3.859  0.00  0.00     0.007 C 
ATOM      9  C   UNL d   1       2.286  -1.849   4.772  0.00  0.00     0.009 C 
ENDBRANCH   7   8
ENDBRANCH   1   7
TORSDOF 2
ENDMDL
