MODEL 1
REMARK minimizedAffinity 1.83145273
REMARK minimizedRMSD -1
REMARK  2 active torsions:
REMARK  status: ('A' for Active; 'I' for Inactive)
REMARK    1  A    between atoms: C1_2  and  C2_3 
REMARK    2  A    between atoms: C2_3  and  C3_4 
ROOT
ATOM      1  C3  UNL d   1       1.294  -3.345  -2.165  0.00  0.00    -0.075 A 
ATOM      2  C4  UNL d   1      -0.083  -3.298  -1.904  0.00  0.00     0.002 A 
ATOM      3  C5  UNL d   1      -0.899  -4.391  -2.201  0.00  0.00     0.002 A 
ATOM      4  C6  UNL d   1      -0.351  -5.538  -2.771  0.00  0.00    -0.004 A 
ATOM      5  C7  UNL d   1       1.013  -5.590  -3.049  0.00  0.00     0.002 A 
ATOM      6  C8  UNL d   1       1.832  -4.500  -2.749  0.00  0.00     0.002 A 
ENDROOT
BRANCH   1   7
ATOM      7  C2  UNL d   1       2.186  -2.177  -1.819  0.00  0.00     0.056 C 
BRANCH   7   8
ATOM      8  C1  UNL d   1       2.488  -2.045  -0.322  0.00  0.00     0.007 C 
ATOM      9  C   UNL d   1       3.595  -1.045  -0.019  0.00  0.00     0.009 C 
ENDBRANCH   7   8
ENDBRANCH   1   7
TORSDOF 2
ENDMDL
