MODEL 1
REMARK minimizedAffinity 12.0673122
REMARK minimizedRMSD -1
REMARK  1 active torsions:
REMARK  status: ('A' for Active; 'I' for Inactive)
REMARK    1  A    between atoms: C1_2  and  C2_3 
ROOT
ATOM      1  C2  UNL d   1      -5.072   2.951  -4.062  0.00  0.00    -0.073 A 
ATOM      2  C3  UNL d   1      -3.711   2.673  -4.235  0.00  0.00    -0.002 A 
ATOM      3  C4  UNL d   1      -2.856   2.623  -3.133  0.00  0.00     0.004 A 
ATOM      4  C5  UNL d   1      -3.354   2.843  -1.848  0.00  0.00    -0.004 A 
ATOM      5  C6  UNL d   1      -4.713   3.110  -1.654  0.00  0.00    -0.075 A 
ATOM      6  C7  UNL d   1      -5.263   3.351  -0.279  0.00  0.00     0.076 C 
ATOM      7  C8  UNL d   1      -5.564   3.162  -2.766  0.00  0.00     0.001 A 
ENDROOT
BRANCH   1   8
ATOM      8  C1  UNL d   1      -5.999   3.000  -5.249  0.00  0.00     0.053 C 
ATOM      9  C   UNL d   1      -6.000   4.366  -5.916  0.00  0.00     0.018 C 
ENDBRANCH   1   8
TORSDOF 1
ENDMDL
