MODEL 1
REMARK minimizedAffinity 4.88030386
REMARK minimizedRMSD -1
REMARK  1 active torsions:
REMARK  status: ('A' for Active; 'I' for Inactive)
REMARK    1  A    between atoms: C1_2  and  C2_3 
ROOT
ATOM      1  C2  UNL d   1       0.295  -2.467  -1.556  0.00  0.00    -0.073 A 
ATOM      2  C3  UNL d   1       0.865  -2.095  -0.333  0.00  0.00    -0.002 A 
ATOM      3  C4  UNL d   1       0.077  -1.530   0.670  0.00  0.00     0.004 A 
ATOM      4  C5  UNL d   1      -1.289  -1.337   0.463  0.00  0.00    -0.004 A 
ATOM      5  C6  UNL d   1      -1.880  -1.713  -0.747  0.00  0.00    -0.075 A 
ATOM      6  C7  UNL d   1      -3.347  -1.509  -0.986  0.00  0.00     0.076 C 
ATOM      7  C8  UNL d   1      -1.081  -2.277  -1.750  0.00  0.00     0.001 A 
ENDROOT
BRANCH   1   8
ATOM      8  C1  UNL d   1       1.142  -3.084  -2.639  0.00  0.00     0.053 C 
ATOM      9  C   UNL d   1       2.599  -2.663  -2.533  0.00  0.00     0.018 C 
ENDBRANCH   1   8
TORSDOF 1
ENDMDL
