MODEL 1
REMARK minimizedAffinity 4.18808365
REMARK minimizedRMSD -1
REMARK  1 active torsions:
REMARK  status: ('A' for Active; 'I' for Inactive)
REMARK    1  A    between atoms: C1_2  and  C2_3 
ROOT
ATOM      1  C2  UNL d   1       0.598  -1.044   1.155  0.00  0.00    -0.073 A 
ATOM      2  C3  UNL d   1       1.278   0.170   1.301  0.00  0.00    -0.002 A 
ATOM      3  C4  UNL d   1       2.143   0.368   2.378  0.00  0.00     0.004 A 
ATOM      4  C5  UNL d   1       2.342  -0.646   3.315  0.00  0.00    -0.004 A 
ATOM      5  C6  UNL d   1       1.680  -1.871   3.180  0.00  0.00    -0.075 A 
ATOM      6  C7  UNL d   1       1.881  -2.971   4.180  0.00  0.00     0.076 C 
ATOM      7  C8  UNL d   1       0.811  -2.061   2.097  0.00  0.00     0.001 A 
ENDROOT
BRANCH   1   8
ATOM      8  C1  UNL d   1      -0.332  -1.266  -0.009  0.00  0.00     0.053 C 
ATOM      9  C   UNL d   1      -1.614  -0.459   0.124  0.00  0.00     0.018 C 
ENDBRANCH   1   8
TORSDOF 1
ENDMDL
