MODEL 1
REMARK minimizedAffinity 4.06489658
REMARK minimizedRMSD -1
REMARK  1 active torsions:
REMARK  status: ('A' for Active; 'I' for Inactive)
REMARK    1  A    between atoms: C1_2  and  C2_3 
ROOT
ATOM      1  C2  UNL d   1       2.164  -1.033   2.382  0.00  0.00    -0.073 A 
ATOM      2  C3  UNL d   1       2.481  -0.914   1.024  0.00  0.00    -0.002 A 
ATOM      3  C4  UNL d   1       2.945   0.298   0.511  0.00  0.00     0.004 A 
ATOM      4  C5  UNL d   1       3.103   1.401   1.351  0.00  0.00    -0.004 A 
ATOM      5  C6  UNL d   1       2.803   1.299   2.713  0.00  0.00    -0.075 A 
ATOM      6  C7  UNL d   1       2.966   2.476   3.629  0.00  0.00     0.076 C 
ATOM      7  C8  UNL d   1       2.335   0.079   3.220  0.00  0.00     0.001 A 
ENDROOT
BRANCH   1   8
ATOM      8  C1  UNL d   1       1.669  -2.342   2.941  0.00  0.00     0.053 C 
ATOM      9  C   UNL d   1       2.702  -3.005   3.839  0.00  0.00     0.018 C 
ENDBRANCH   1   8
TORSDOF 1
ENDMDL
