MODEL 1
REMARK minimizedAffinity -4.31377459
REMARK minimizedRMSD -1
REMARK  1 active torsions:
REMARK  status: ('A' for Active; 'I' for Inactive)
REMARK    1  A    between atoms: N_2  and  C1_3 
ROOT
ATOM      1  C1  UNL d   1       0.059  -0.239  -0.114  0.00  0.00     0.143 A 
ATOM      2  C2  UNL d   1      -0.621   0.897  -0.566  0.00  0.00    -0.057 A 
ATOM      3  C3  UNL d   1      -1.409   1.664   0.300  0.00  0.00     0.033 A 
ATOM      4  C4  UNL d   1      -1.554   1.292   1.632  0.00  0.00    -0.042 A 
ATOM      5  C5  UNL d   1      -0.908   0.153   2.098  0.00  0.00     0.033 A 
ATOM      6  C6  UNL d   1      -0.117  -0.606   1.230  0.00  0.00    -0.057 A 
ENDROOT
BRANCH   1   7
ATOM      7  N   UNL d   1       0.778  -1.099  -0.947  0.00  0.00    -0.732 N 
ATOM      8  C   UNL d   1       0.094  -1.930  -1.915  0.00  0.00     0.284 C 
ATOM      9  H3  UNL d   1       1.636  -0.676  -1.295  0.00  0.00     0.395 HD
ENDBRANCH   1   7
TORSDOF 1
ENDMDL
