MODEL 1
REMARK minimizedAffinity -5.09321165
REMARK minimizedRMSD -1
REMARK  1 active torsions:
REMARK  status: ('A' for Active; 'I' for Inactive)
REMARK    1  A    between atoms: N_2  and  C1_3 
ROOT
ATOM      1  C1  UNL d   1      -0.362  -1.044   0.036  0.00  0.00     0.143 A 
ATOM      2  C2  UNL d   1      -1.161  -1.084   1.184  0.00  0.00    -0.057 A 
ATOM      3  C3  UNL d   1      -1.596   0.091   1.808  0.00  0.00     0.033 A 
ATOM      4  C4  UNL d   1      -1.216   1.332   1.309  0.00  0.00    -0.042 A 
ATOM      5  C5  UNL d   1      -0.402   1.397   0.183  0.00  0.00     0.033 A 
ATOM      6  C6  UNL d   1       0.024   0.219  -0.439  0.00  0.00    -0.057 A 
ENDROOT
BRANCH   1   7
ATOM      7  N   UNL d   1       0.184  -2.177  -0.572  0.00  0.00    -0.732 N 
ATOM      8  C   UNL d   1       0.374  -2.224  -2.006  0.00  0.00     0.284 C 
ATOM      9  H3  UNL d   1       0.954  -2.571  -0.038  0.00  0.00     0.395 HD
ENDBRANCH   1   7
TORSDOF 1
ENDMDL
