MODEL 1
REMARK minimizedAffinity -4.71420288
REMARK minimizedRMSD -1
REMARK  1 active torsions:
REMARK  status: ('A' for Active; 'I' for Inactive)
REMARK    1  A    between atoms: N_2  and  C1_3 
ROOT
ATOM      1  C1  UNL d   1       0.039   0.323  -0.237  0.00  0.00     0.143 A 
ATOM      2  C2  UNL d   1      -0.913   1.237  -0.700  0.00  0.00    -0.057 A 
ATOM      3  C3  UNL d   1      -1.946   1.692   0.128  0.00  0.00     0.033 A 
ATOM      4  C4  UNL d   1      -2.062   1.216   1.430  0.00  0.00    -0.042 A 
ATOM      5  C5  UNL d   1      -1.142   0.288   1.903  0.00  0.00     0.033 A 
ATOM      6  C6  UNL d   1      -0.109  -0.157   1.074  0.00  0.00    -0.057 A 
ENDROOT
BRANCH   1   7
ATOM      7  N   UNL d   1       1.032  -0.242  -1.042  0.00  0.00    -0.732 N 
ATOM      8  C   UNL d   1       0.942  -1.624  -1.462  0.00  0.00     0.284 C 
ATOM      9  H3  UNL d   1       1.350   0.394  -1.770  0.00  0.00     0.395 HD
ENDBRANCH   1   7
TORSDOF 1
ENDMDL
