MODEL 1
REMARK minimizedAffinity -3.61421323
REMARK minimizedRMSD -1
REMARK  1 active torsions:
REMARK  status: ('A' for Active; 'I' for Inactive)
REMARK    1  A    between atoms: N_2  and  C1_3 
ROOT
ATOM      1  C1  UNL d   1      -0.349   0.266   0.088  0.00  0.00     0.143 A 
ATOM      2  C2  UNL d   1      -1.392   0.803  -0.674  0.00  0.00    -0.057 A 
ATOM      3  C3  UNL d   1      -2.313   1.697  -0.116  0.00  0.00     0.033 A 
ATOM      4  C4  UNL d   1      -2.224   2.049   1.227  0.00  0.00    -0.042 A 
ATOM      5  C5  UNL d   1      -1.210   1.508   2.010  0.00  0.00     0.033 A 
ATOM      6  C6  UNL d   1      -0.289   0.621   1.445  0.00  0.00    -0.057 A 
ENDROOT
BRANCH   1   7
ATOM      7  N   UNL d   1       0.540  -0.703  -0.384  0.00  0.00    -0.732 N 
ATOM      8  C   UNL d   1       0.568  -1.057  -1.787  0.00  0.00     0.284 C 
ATOM      9  H3  UNL d   1       1.460  -0.629   0.045  0.00  0.00     0.395 HD
ENDBRANCH   1   7
TORSDOF 1
ENDMDL
