MODEL 1
REMARK minimizedAffinity -4.10326862
REMARK minimizedRMSD -1
REMARK  1 active torsions:
REMARK  status: ('A' for Active; 'I' for Inactive)
REMARK    1  A    between atoms: N_2  and  C1_3 
ROOT
ATOM      1  C1  UNL d   1      -0.215   0.687   0.056  0.00  0.00     0.143 A 
ATOM      2  C2  UNL d   1      -0.113   0.839   1.443  0.00  0.00    -0.057 A 
ATOM      3  C3  UNL d   1      -1.191   1.311   2.202  0.00  0.00     0.033 A 
ATOM      4  C4  UNL d   1      -2.383   1.667   1.582  0.00  0.00    -0.042 A 
ATOM      5  C5  UNL d   1      -2.499   1.548   0.201  0.00  0.00     0.033 A 
ATOM      6  C6  UNL d   1      -1.421   1.070  -0.551  0.00  0.00    -0.057 A 
ENDROOT
BRANCH   1   7
ATOM      7  N   UNL d   1       0.852   0.316  -0.766  0.00  0.00    -0.732 N 
ATOM      8  C   UNL d   1       1.488   1.287  -1.631  0.00  0.00     0.284 C 
ATOM      9  H3  UNL d   1       1.501  -0.313  -0.300  0.00  0.00     0.395 HD
ENDBRANCH   1   7
TORSDOF 1
ENDMDL
