MODEL 1
REMARK minimizedAffinity -5.09207535
REMARK minimizedRMSD -1
REMARK  1 active torsions:
REMARK  status: ('A' for Active; 'I' for Inactive)
REMARK    1  A    between atoms: N_2  and  C1_3 
ROOT
ATOM      1  C1  UNL d   1      -0.111  -0.000   0.084  0.00  0.00     0.143 A 
ATOM      2  C2  UNL d   1      -0.930  -0.011   1.218  0.00  0.00    -0.057 A 
ATOM      3  C3  UNL d   1      -1.660   1.122   1.598  0.00  0.00     0.033 A 
ATOM      4  C4  UNL d   1      -1.562   2.298   0.862  0.00  0.00    -0.042 A 
ATOM      5  C5  UNL d   1      -0.735   2.340  -0.255  0.00  0.00     0.033 A 
ATOM      6  C6  UNL d   1      -0.013   1.203  -0.632  0.00  0.00    -0.057 A 
ENDROOT
BRANCH   1   7
ATOM      7  N   UNL d   1       0.715  -1.063  -0.289  0.00  0.00    -0.732 N 
ATOM      8  C   UNL d   1       0.250  -2.068  -1.221  0.00  0.00     0.284 C 
ATOM      9  H3  UNL d   1       1.679  -0.772  -0.439  0.00  0.00     0.395 HD
ENDBRANCH   1   7
TORSDOF 1
ENDMDL
