MODEL 1
REMARK minimizedAffinity -1.70777225
REMARK minimizedRMSD -1
REMARK  1 active torsions:
REMARK  status: ('A' for Active; 'I' for Inactive)
REMARK    1  A    between atoms: N_2  and  C1_3 
ROOT
ATOM      1  C1  UNL d   1       0.413  -1.206  -1.189  0.00  0.00     0.143 A 
ATOM      2  C2  UNL d   1       0.972  -2.435  -0.820  0.00  0.00    -0.057 A 
ATOM      3  C3  UNL d   1       0.747  -3.591  -1.577  0.00  0.00     0.033 A 
ATOM      4  C4  UNL d   1      -0.068  -3.544  -2.704  0.00  0.00    -0.042 A 
ATOM      5  C5  UNL d   1      -0.654  -2.339  -3.075  0.00  0.00     0.033 A 
ATOM      6  C6  UNL d   1      -0.419  -1.187  -2.318  0.00  0.00    -0.057 A 
ENDROOT
BRANCH   1   7
ATOM      7  N   UNL d   1       0.520  -0.043  -0.423  0.00  0.00    -0.732 N 
ATOM      8  C   UNL d   1      -0.202   0.087   0.825  0.00  0.00     0.284 C 
ATOM      9  H3  UNL d   1       1.471   0.316  -0.392  0.00  0.00     0.395 HD
ENDBRANCH   1   7
TORSDOF 1
ENDMDL
