MODEL 1
REMARK minimizedAffinity -4.24725485
REMARK minimizedRMSD -1
REMARK  1 active torsions:
REMARK  status: ('A' for Active; 'I' for Inactive)
REMARK    1  A    between atoms: N_2  and  C1_3 
ROOT
ATOM      1  C1  UNL d   1       0.299  -0.237   0.068  0.00  0.00     0.143 A 
ATOM      2  C2  UNL d   1       0.126   0.932  -0.681  0.00  0.00    -0.057 A 
ATOM      3  C3  UNL d   1      -0.738   1.947  -0.253  0.00  0.00     0.033 A 
ATOM      4  C4  UNL d   1      -1.468   1.798   0.921  0.00  0.00    -0.042 A 
ATOM      5  C5  UNL d   1      -1.331   0.634   1.669  0.00  0.00     0.033 A 
ATOM      6  C6  UNL d   1      -0.462  -0.373   1.240  0.00  0.00    -0.057 A 
ENDROOT
BRANCH   1   7
ATOM      7  N   UNL d   1       1.068  -1.325  -0.354  0.00  0.00    -0.732 N 
ATOM      8  C   UNL d   1       0.601  -2.189  -1.416  0.00  0.00     0.284 C 
ATOM      9  H3  UNL d   1       2.059  -1.103  -0.403  0.00  0.00     0.395 HD
ENDBRANCH   1   7
TORSDOF 1
ENDMDL
