MODEL 1
REMARK minimizedAffinity -4.39590883
REMARK minimizedRMSD -1
REMARK  1 active torsions:
REMARK  status: ('A' for Active; 'I' for Inactive)
REMARK    1  A    between atoms: N_2  and  C1_3 
ROOT
ATOM      1  C1  UNL d   1      -0.229   0.336   0.400  0.00  0.00     0.143 A 
ATOM      2  C2  UNL d   1      -0.256   0.367   1.798  0.00  0.00    -0.057 A 
ATOM      3  C3  UNL d   1      -1.192   1.145   2.490  0.00  0.00     0.033 A 
ATOM      4  C4  UNL d   1      -2.102   1.932   1.792  0.00  0.00    -0.042 A 
ATOM      5  C5  UNL d   1      -2.077   1.937   0.402  0.00  0.00     0.033 A 
ATOM      6  C6  UNL d   1      -1.144   1.152  -0.283  0.00  0.00    -0.057 A 
ENDROOT
BRANCH   1   7
ATOM      7  N   UNL d   1       0.741  -0.340  -0.345  0.00  0.00    -0.732 N 
ATOM      8  C   UNL d   1       0.356  -1.320  -1.338  0.00  0.00     0.284 C 
ATOM      9  H3  UNL d   1       1.503   0.269  -0.635  0.00  0.00     0.395 HD
ENDBRANCH   1   7
TORSDOF 1
ENDMDL
