MODEL 1
REMARK minimizedAffinity -2.72196174
REMARK minimizedRMSD -1
REMARK  1 active torsions:
REMARK  status: ('A' for Active; 'I' for Inactive)
REMARK    1  A    between atoms: N_2  and  C1_3 
ROOT
ATOM      1  C1  UNL d   1       0.269  -0.888  -0.597  0.00  0.00     0.143 A 
ATOM      2  C2  UNL d   1      -0.142   0.204  -1.368  0.00  0.00    -0.057 A 
ATOM      3  C3  UNL d   1      -0.816   1.288  -0.791  0.00  0.00     0.033 A 
ATOM      4  C4  UNL d   1      -1.116   1.285   0.567  0.00  0.00    -0.042 A 
ATOM      5  C5  UNL d   1      -0.738   0.198   1.348  0.00  0.00     0.033 A 
ATOM      6  C6  UNL d   1      -0.061  -0.878   0.768  0.00  0.00    -0.057 A 
ENDROOT
BRANCH   1   7
ATOM      7  N   UNL d   1       0.854  -2.040  -1.129  0.00  0.00    -0.732 N 
ATOM      8  C   UNL d   1       0.097  -2.920  -1.992  0.00  0.00     0.284 C 
ATOM      9  H3  UNL d   1       1.813  -1.884  -1.433  0.00  0.00     0.395 HD
ENDBRANCH   1   7
TORSDOF 1
ENDMDL
