MODEL 1
REMARK minimizedAffinity -5.39198685
REMARK minimizedRMSD -1
REMARK  1 active torsions:
REMARK  status: ('A' for Active; 'I' for Inactive)
REMARK    1  A    between atoms: N_2  and  C1_3 
ROOT
ATOM      1  C1  UNL d   1       0.065  -0.059   0.013  0.00  0.00     0.143 A 
ATOM      2  C2  UNL d   1      -0.405  -0.485   1.260  0.00  0.00    -0.057 A 
ATOM      3  C3  UNL d   1      -1.300   0.295   2.003  0.00  0.00     0.033 A 
ATOM      4  C4  UNL d   1      -1.718   1.532   1.524  0.00  0.00    -0.042 A 
ATOM      5  C5  UNL d   1      -1.244   1.986   0.298  0.00  0.00     0.033 A 
ATOM      6  C6  UNL d   1      -0.356   1.200  -0.442  0.00  0.00    -0.057 A 
ENDROOT
BRANCH   1   7
ATOM      7  N   UNL d   1       1.031  -0.743  -0.729  0.00  0.00    -0.732 N 
ATOM      8  C   UNL d   1       0.825  -2.123  -1.113  0.00  0.00     0.284 C 
ATOM      9  H3  UNL d   1       1.441  -0.166  -1.459  0.00  0.00     0.395 HD
ENDBRANCH   1   7
TORSDOF 1
ENDMDL
