MODEL 1
REMARK minimizedAffinity -3.37567019
REMARK minimizedRMSD -1
REMARK  1 active torsions:
REMARK  status: ('A' for Active; 'I' for Inactive)
REMARK    1  A    between atoms: N_2  and  C1_3 
ROOT
ATOM      1  C1  UNL d   1      -0.441  -0.110   0.106  0.00  0.00     0.143 A 
ATOM      2  C2  UNL d   1      -0.476  -0.170   1.503  0.00  0.00    -0.057 A 
ATOM      3  C3  UNL d   1      -1.239   0.736   2.250  0.00  0.00     0.033 A 
ATOM      4  C4  UNL d   1      -1.959   1.740   1.612  0.00  0.00    -0.042 A 
ATOM      5  C5  UNL d   1      -1.919   1.835   0.225  0.00  0.00     0.033 A 
ATOM      6  C6  UNL d   1      -1.161   0.923  -0.515  0.00  0.00    -0.057 A 
ENDROOT
BRANCH   1   7
ATOM      7  N   UNL d   1       0.376  -0.920  -0.687  0.00  0.00    -0.732 N 
ATOM      8  C   UNL d   1      -0.178  -2.050  -1.401  0.00  0.00     0.284 C 
ATOM      9  H3  UNL d   1       1.054  -0.382  -1.222  0.00  0.00     0.395 HD
ENDBRANCH   1   7
TORSDOF 1
ENDMDL
