MODEL 1
REMARK minimizedAffinity -3.48122096
REMARK minimizedRMSD -1
REMARK  1 active torsions:
REMARK  status: ('A' for Active; 'I' for Inactive)
REMARK    1  A    between atoms: N_2  and  C1_3 
ROOT
ATOM      1  C1  UNL d   1      -0.046   0.158   0.101  0.00  0.00     0.143 A 
ATOM      2  C2  UNL d   1      -0.590  -0.656   1.100  0.00  0.00    -0.057 A 
ATOM      3  C3  UNL d   1      -1.293  -0.109   2.180  0.00  0.00     0.033 A 
ATOM      4  C4  UNL d   1      -1.440   1.270   2.296  0.00  0.00    -0.042 A 
ATOM      5  C5  UNL d   1      -0.887   2.100   1.328  0.00  0.00     0.033 A 
ATOM      6  C6  UNL d   1      -0.191   1.547   0.248  0.00  0.00    -0.057 A 
ENDROOT
BRANCH   1   7
ATOM      7  N   UNL d   1       0.747  -0.319  -0.945  0.00  0.00    -0.732 N 
ATOM      8  C   UNL d   1       0.702  -1.714  -1.327  0.00  0.00     0.284 C 
ATOM      9  H3  UNL d   1       0.783   0.327  -1.731  0.00  0.00     0.395 HD
ENDBRANCH   1   7
TORSDOF 1
ENDMDL
