MODEL 1
REMARK minimizedAffinity -3.30314183
REMARK minimizedRMSD -1
REMARK  1 active torsions:
REMARK  status: ('A' for Active; 'I' for Inactive)
REMARK    1  A    between atoms: N_2  and  C1_3 
ROOT
ATOM      1  C1  UNL d   1       0.492  -0.113  -0.286  0.00  0.00     0.143 A 
ATOM      2  C2  UNL d   1      -0.129   0.894  -1.034  0.00  0.00    -0.057 A 
ATOM      3  C3  UNL d   1      -1.115   1.713  -0.472  0.00  0.00     0.033 A 
ATOM      4  C4  UNL d   1      -1.521   1.520   0.845  0.00  0.00    -0.042 A 
ATOM      5  C5  UNL d   1      -0.935   0.509   1.600  0.00  0.00     0.033 A 
ATOM      6  C6  UNL d   1       0.055  -0.301   1.034  0.00  0.00    -0.057 A 
ENDROOT
BRANCH   1   7
ATOM      7  N   UNL d   1       1.409  -1.023  -0.817  0.00  0.00    -0.732 N 
ATOM      8  C   UNL d   1       0.984  -2.347  -1.218  0.00  0.00     0.284 C 
ATOM      9  H3  UNL d   1       2.064  -0.584  -1.460  0.00  0.00     0.395 HD
ENDBRANCH   1   7
TORSDOF 1
ENDMDL
