MODEL 1
REMARK minimizedAffinity -3.68960452
REMARK minimizedRMSD -1
REMARK  1 active torsions:
REMARK  status: ('A' for Active; 'I' for Inactive)
REMARK    1  A    between atoms: C1_2  and  C2_3 
ROOT
ATOM      1  C2  UNL d   1      -1.549  -1.536  -0.306  0.00  0.00    -0.077 A 
ATOM      2  C3  UNL d   1      -0.277  -0.970  -0.470  0.00  0.00     0.002 A 
ATOM      3  C4  UNL d   1       0.059   0.214   0.189  0.00  0.00     0.002 A 
ATOM      4  C5  UNL d   1      -0.869   0.839   1.020  0.00  0.00    -0.004 A 
ATOM      5  C6  UNL d   1      -2.137   0.284   1.188  0.00  0.00     0.002 A 
ATOM      6  C7  UNL d   1      -2.476  -0.898   0.528  0.00  0.00     0.002 A 
ENDROOT
BRANCH   1   7
ATOM      7  C1  UNL d   1      -1.897  -2.839  -0.978  0.00  0.00     0.055 C 
ATOM      8  C   UNL d   1      -3.384  -2.921  -1.290  0.00  0.00     0.019 C 
ENDBRANCH   1   7
TORSDOF 1
ENDMDL
