MODEL 1
REMARK minimizedAffinity -2.84841681
REMARK minimizedRMSD -1
REMARK  1 active torsions:
REMARK  status: ('A' for Active; 'I' for Inactive)
REMARK    1  A    between atoms: C1_2  and  C2_3 
ROOT
ATOM      1  C2  UNL d   1       0.506  -0.384  -0.599  0.00  0.00    -0.077 A 
ATOM      2  C3  UNL d   1      -0.436   0.529  -0.103  0.00  0.00     0.002 A 
ATOM      3  C4  UNL d   1      -0.309   1.044   1.188  0.00  0.00     0.002 A 
ATOM      4  C5  UNL d   1       0.760   0.657   1.992  0.00  0.00    -0.004 A 
ATOM      5  C6  UNL d   1       1.701  -0.252   1.510  0.00  0.00     0.002 A 
ATOM      6  C7  UNL d   1       1.575  -0.769   0.220  0.00  0.00     0.002 A 
ENDROOT
BRANCH   1   7
ATOM      7  C1  UNL d   1       0.397  -0.903  -2.008  0.00  0.00     0.055 C 
ATOM      8  C   UNL d   1       1.139  -0.005  -2.988  0.00  0.00     0.019 C 
ENDBRANCH   1   7
TORSDOF 1
ENDMDL
