MODEL 1
REMARK minimizedAffinity -6.09362793
REMARK minimizedRMSD -1
REMARK  1 active torsions:
REMARK  status: ('A' for Active; 'I' for Inactive)
REMARK    1  A    between atoms: C1_2  and  C2_3 
ROOT
ATOM      1  C2  UNL d   1      -0.020  -0.140   0.647  0.00  0.00    -0.077 A 
ATOM      2  C3  UNL d   1       0.832   0.049   1.744  0.00  0.00     0.002 A 
ATOM      3  C4  UNL d   1       0.331   0.542   2.951  0.00  0.00     0.002 A 
ATOM      4  C5  UNL d   1      -1.024   0.845   3.073  0.00  0.00    -0.004 A 
ATOM      5  C6  UNL d   1      -1.879   0.662   1.987  0.00  0.00     0.002 A 
ATOM      6  C7  UNL d   1      -1.380   0.171   0.780  0.00  0.00     0.002 A 
ENDROOT
BRANCH   1   7
ATOM      7  C1  UNL d   1       0.509  -0.717  -0.640  0.00  0.00     0.055 C 
ATOM      8  C   UNL d   1      -0.204  -2.013  -1.000  0.00  0.00     0.019 C 
ENDBRANCH   1   7
TORSDOF 1
ENDMDL
