MODEL 1
REMARK minimizedAffinity -1.92145121
REMARK minimizedRMSD -1
REMARK  1 active torsions:
REMARK  status: ('A' for Active; 'I' for Inactive)
REMARK    1  A    between atoms: C1_2  and  C2_3 
ROOT
ATOM      1  C2  UNL d   1      -0.122   1.062   1.734  0.00  0.00    -0.077 A 
ATOM      2  C3  UNL d   1       1.079   0.575   2.269  0.00  0.00     0.002 A 
ATOM      3  C4  UNL d   1       1.782  -0.441   1.619  0.00  0.00     0.002 A 
ATOM      4  C5  UNL d   1       1.295  -0.976   0.428  0.00  0.00    -0.004 A 
ATOM      5  C6  UNL d   1       0.100  -0.500  -0.111  0.00  0.00     0.002 A 
ATOM      6  C7  UNL d   1      -0.604   0.515   0.538  0.00  0.00     0.002 A 
ENDROOT
BRANCH   1   7
ATOM      7  C1  UNL d   1      -0.855   2.191   2.407  0.00  0.00     0.055 C 
ATOM      8  C   UNL d   1      -0.867   3.440   1.538  0.00  0.00     0.019 C 
ENDBRANCH   1   7
TORSDOF 1
ENDMDL
