MODEL 1
REMARK minimizedAffinity -5.80224943
REMARK minimizedRMSD -1
REMARK  1 active torsions:
REMARK  status: ('A' for Active; 'I' for Inactive)
REMARK    1  A    between atoms: C1_2  and  C2_3 
ROOT
ATOM      1  C2  UNL d   1      -0.458   0.333   2.906  0.00  0.00    -0.077 A 
ATOM      2  C3  UNL d   1       0.471  -0.436   3.620  0.00  0.00     0.002 A 
ATOM      3  C4  UNL d   1       0.061  -1.582   4.305  0.00  0.00     0.002 A 
ATOM      4  C5  UNL d   1      -1.277  -1.971   4.278  0.00  0.00    -0.004 A 
ATOM      5  C6  UNL d   1      -2.209  -1.211   3.573  0.00  0.00     0.002 A 
ATOM      6  C7  UNL d   1      -1.801  -0.064   2.889  0.00  0.00     0.002 A 
ENDROOT
BRANCH   1   7
ATOM      7  C1  UNL d   1      -0.010   1.542   2.127  0.00  0.00     0.055 C 
ATOM      8  C   UNL d   1       1.070   1.181   1.117  0.00  0.00     0.019 C 
ENDBRANCH   1   7
TORSDOF 1
ENDMDL
