MODEL 1
REMARK minimizedAffinity -1.69787979
REMARK minimizedRMSD -1
REMARK  1 active torsions:
REMARK  status: ('A' for Active; 'I' for Inactive)
REMARK    1  A    between atoms: C1_2  and  C2_3 
ROOT
ATOM      1  C2  UNL d   1      -1.022  -0.612  -0.094  0.00  0.00    -0.077 A 
ATOM      2  C3  UNL d   1      -0.792  -0.675   1.287  0.00  0.00     0.002 A 
ATOM      3  C4  UNL d   1       0.108   0.202   1.894  0.00  0.00     0.002 A 
ATOM      4  C5  UNL d   1       0.782   1.152   1.129  0.00  0.00    -0.004 A 
ATOM      5  C6  UNL d   1       0.562   1.221  -0.246  0.00  0.00     0.002 A 
ATOM      6  C7  UNL d   1      -0.337   0.344  -0.855  0.00  0.00     0.002 A 
ENDROOT
BRANCH   1   7
ATOM      7  C1  UNL d   1      -2.030  -1.525  -0.743  0.00  0.00     0.055 C 
ATOM      8  C   UNL d   1      -1.347  -2.584  -1.597  0.00  0.00     0.019 C 
ENDBRANCH   1   7
TORSDOF 1
ENDMDL
