MODEL 1
REMARK minimizedAffinity 3.46190214
REMARK minimizedRMSD -1
REMARK  0 active torsions:
REMARK  status: ('A' for Active; 'I' for Inactive)
ROOT
ATOM      1  C   UNL d   1       5.647  -5.634   0.204  0.00  0.00     0.077 C 
ATOM      2  C1  UNL d   1       5.192  -4.759  -0.926  0.00  0.00    -0.074 A 
ATOM      3  C2  UNL d   1       5.208  -3.365  -0.807  0.00  0.00    -0.005 A 
ATOM      4  C3  UNL d   1       4.792  -2.564  -1.870  0.00  0.00     0.006 A 
ATOM      5  C4  UNL d   1       4.356  -3.147  -3.060  0.00  0.00    -0.005 A 
ATOM      6  C5  UNL d   1       4.334  -4.538  -3.198  0.00  0.00    -0.074 A 
ATOM      7  C6  UNL d   1       3.877  -5.181  -4.474  0.00  0.00     0.077 C 
ATOM      8  C7  UNL d   1       4.760  -5.336  -2.128  0.00  0.00    -0.001 A 
ENDROOT
TORSDOF 0
ENDMDL
