MODEL 1
REMARK minimizedAffinity -1.11585379
REMARK minimizedRMSD -1
REMARK  0 active torsions:
REMARK  status: ('A' for Active; 'I' for Inactive)
ROOT
ATOM      1  C   UNL d   1      -6.000   4.506  -5.991  0.00  0.00     0.077 C 
ATOM      2  C1  UNL d   1      -5.684   4.317  -4.537  0.00  0.00    -0.074 A 
ATOM      3  C2  UNL d   1      -5.124   5.353  -3.783  0.00  0.00    -0.005 A 
ATOM      4  C3  UNL d   1      -4.844   5.166  -2.429  0.00  0.00     0.006 A 
ATOM      5  C4  UNL d   1      -5.121   3.942  -1.818  0.00  0.00    -0.005 A 
ATOM      6  C5  UNL d   1      -5.682   2.895  -2.556  0.00  0.00    -0.074 A 
ATOM      7  C6  UNL d   1      -5.994   1.578  -1.912  0.00  0.00     0.077 C 
ATOM      8  C7  UNL d   1      -5.966   3.094  -3.914  0.00  0.00    -0.001 A 
ENDROOT
TORSDOF 0
ENDMDL
