MODEL 1
REMARK minimizedAffinity 2.32326293
REMARK minimizedRMSD -1
REMARK  0 active torsions:
REMARK  status: ('A' for Active; 'I' for Inactive)
ROOT
ATOM      1  C   UNL d   1       0.995   5.030  -0.234  0.00  0.00     0.077 C 
ATOM      2  C1  UNL d   1       0.719   4.157   0.954  0.00  0.00    -0.074 A 
ATOM      3  C2  UNL d   1      -0.581   3.737   1.252  0.00  0.00    -0.005 A 
ATOM      4  C3  UNL d   1      -0.820   2.917   2.354  0.00  0.00     0.006 A 
ATOM      5  C4  UNL d   1       0.237   2.510   3.169  0.00  0.00    -0.005 A 
ATOM      6  C5  UNL d   1       1.544   2.919   2.887  0.00  0.00    -0.074 A 
ATOM      7  C6  UNL d   1       2.692   2.482   3.747  0.00  0.00     0.077 C 
ATOM      8  C7  UNL d   1       1.777   3.737   1.773  0.00  0.00    -0.001 A 
ENDROOT
TORSDOF 0
ENDMDL
