MODEL 1
REMARK minimizedAffinity -3.29983497
REMARK minimizedRMSD -1
REMARK  0 active torsions:
REMARK  status: ('A' for Active; 'I' for Inactive)
ROOT
ATOM      1  C   UNL d   1      -5.945   4.820  -6.000  0.00  0.00     0.077 C 
ATOM      2  C1  UNL d   1      -5.504   4.293  -4.667  0.00  0.00    -0.074 A 
ATOM      3  C2  UNL d   1      -4.886   5.130  -3.732  0.00  0.00    -0.005 A 
ATOM      4  C3  UNL d   1      -4.490   4.628  -2.492  0.00  0.00     0.006 A 
ATOM      5  C4  UNL d   1      -4.709   3.286  -2.175  0.00  0.00    -0.005 A 
ATOM      6  C5  UNL d   1      -5.326   2.435  -3.097  0.00  0.00    -0.074 A 
ATOM      7  C6  UNL d   1      -5.577   0.993  -2.768  0.00  0.00     0.077 C 
ATOM      8  C7  UNL d   1      -5.727   2.949  -4.338  0.00  0.00    -0.001 A 
ENDROOT
TORSDOF 0
ENDMDL
