MODEL 1
REMARK minimizedAffinity -4.50761747
REMARK minimizedRMSD -1
REMARK  0 active torsions:
REMARK  status: ('A' for Active; 'I' for Inactive)
ROOT
ATOM      1  C   UNL d   1      -4.464   3.752  -5.998  0.00  0.00     0.077 C 
ATOM      2  C1  UNL d   1      -4.873   3.900  -4.563  0.00  0.00    -0.074 A 
ATOM      3  C2  UNL d   1      -5.618   5.005  -4.138  0.00  0.00    -0.005 A 
ATOM      4  C3  UNL d   1      -6.000   5.125  -2.802  0.00  0.00     0.006 A 
ATOM      5  C4  UNL d   1      -5.640   4.143  -1.878  0.00  0.00    -0.005 A 
ATOM      6  C5  UNL d   1      -4.896   3.031  -2.284  0.00  0.00    -0.074 A 
ATOM      7  C6  UNL d   1      -4.510   1.961  -1.306  0.00  0.00     0.077 C 
ATOM      8  C7  UNL d   1      -4.523   2.914  -3.630  0.00  0.00    -0.001 A 
ENDROOT
TORSDOF 0
ENDMDL
