MODEL 1
REMARK minimizedAffinity -2.1195693
REMARK minimizedRMSD -1
REMARK  0 active torsions:
REMARK  status: ('A' for Active; 'I' for Inactive)
ROOT
ATOM      1  C   UNL d   1      -5.999   2.402  -1.867  0.00  0.00     0.077 C 
ATOM      2  C1  UNL d   1      -5.278   2.934  -3.070  0.00  0.00    -0.074 A 
ATOM      3  C2  UNL d   1      -3.962   2.550  -3.347  0.00  0.00    -0.005 A 
ATOM      4  C3  UNL d   1      -3.308   3.046  -4.475  0.00  0.00     0.006 A 
ATOM      5  C4  UNL d   1      -3.961   3.929  -5.335  0.00  0.00    -0.005 A 
ATOM      6  C5  UNL d   1      -5.278   4.323  -5.075  0.00  0.00    -0.074 A 
ATOM      7  C6  UNL d   1      -5.998   5.263  -5.994  0.00  0.00     0.077 C 
ATOM      8  C7  UNL d   1      -5.931   3.815  -3.943  0.00  0.00    -0.001 A 
ENDROOT
TORSDOF 0
ENDMDL
