MODEL 1
REMARK minimizedAffinity -3.42487025
REMARK minimizedRMSD -1
REMARK  0 active torsions:
REMARK  status: ('A' for Active; 'I' for Inactive)
ROOT
ATOM      1  C   UNL d   1      -5.976   0.301  -5.193  0.00  0.00     0.077 C 
ATOM      2  C1  UNL d   1      -5.710   1.755  -4.942  0.00  0.00    -0.074 A 
ATOM      3  C2  UNL d   1      -5.674   2.672  -5.998  0.00  0.00    -0.005 A 
ATOM      4  C3  UNL d   1      -5.436   4.023  -5.748  0.00  0.00     0.006 A 
ATOM      5  C4  UNL d   1      -5.231   4.471  -4.442  0.00  0.00    -0.005 A 
ATOM      6  C5  UNL d   1      -5.264   3.569  -3.374  0.00  0.00    -0.074 A 
ATOM      7  C6  UNL d   1      -5.056   4.035  -1.964  0.00  0.00     0.077 C 
ATOM      8  C7  UNL d   1      -5.511   2.214  -3.633  0.00  0.00    -0.001 A 
ENDROOT
TORSDOF 0
ENDMDL
