MODEL 1
REMARK minimizedAffinity 2.12751913
REMARK minimizedRMSD -1
REMARK  0 active torsions:
REMARK  status: ('A' for Active; 'I' for Inactive)
ROOT
ATOM      1  C   UNL d   1       2.652  -5.239   1.865  0.00  0.00     0.078 C 
ATOM      2  C1  UNL d   1       1.935  -3.924   1.796  0.00  0.00    -0.077 A 
ATOM      3  C2  UNL d   1       2.423  -2.877   1.004  0.00  0.00    -0.001 A 
ATOM      4  C3  UNL d   1       1.750  -1.655   0.956  0.00  0.00     0.003 A 
ATOM      5  C4  UNL d   1       0.586  -1.468   1.699  0.00  0.00    -0.005 A 
ATOM      6  C5  UNL d   1       0.094  -2.503   2.492  0.00  0.00     0.003 A 
ATOM      7  C6  UNL d   1       0.766  -3.725   2.541  0.00  0.00    -0.001 A 
ENDROOT
TORSDOF 0
ENDMDL
