MODEL 1
REMARK minimizedAffinity 0.167342573
REMARK minimizedRMSD -1
REMARK  0 active torsions:
REMARK  status: ('A' for Active; 'I' for Inactive)
ROOT
ATOM      1  C   UNL d   1       2.252   2.995   2.304  0.00  0.00     0.078 C 
ATOM      2  C1  UNL d   1       3.553   2.358   1.915  0.00  0.00    -0.077 A 
ATOM      3  C2  UNL d   1       3.582   1.160   1.191  0.00  0.00    -0.001 A 
ATOM      4  C3  UNL d   1       4.801   0.574   0.845  0.00  0.00     0.003 A 
ATOM      5  C4  UNL d   1       5.999   1.178   1.220  0.00  0.00    -0.005 A 
ATOM      6  C5  UNL d   1       5.980   2.368   1.943  0.00  0.00     0.003 A 
ATOM      7  C6  UNL d   1       4.763   2.956   2.290  0.00  0.00    -0.001 A 
ENDROOT
TORSDOF 0
ENDMDL
