MODEL 1
REMARK minimizedAffinity 8.30415916
REMARK minimizedRMSD -1
REMARK  0 active torsions:
REMARK  status: ('A' for Active; 'I' for Inactive)
ROOT
ATOM      1  C   UNL d   1       2.482  -5.096   1.263  0.00  0.00     0.078 C 
ATOM      2  C1  UNL d   1       1.980  -3.694   1.439  0.00  0.00    -0.077 A 
ATOM      3  C2  UNL d   1       1.815  -2.844   0.338  0.00  0.00    -0.001 A 
ATOM      4  C3  UNL d   1       1.356  -1.538   0.518  0.00  0.00     0.003 A 
ATOM      5  C4  UNL d   1       1.059  -1.070   1.796  0.00  0.00    -0.005 A 
ATOM      6  C5  UNL d   1       1.222  -1.908   2.898  0.00  0.00     0.003 A 
ATOM      7  C6  UNL d   1       1.681  -3.214   2.720  0.00  0.00    -0.001 A 
ENDROOT
TORSDOF 0
ENDMDL
