MODEL 1
REMARK minimizedAffinity 4.37269497
REMARK minimizedRMSD -1
REMARK  0 active torsions:
REMARK  status: ('A' for Active; 'I' for Inactive)
ROOT
ATOM      1  C   UNL d   1       2.662  -3.737   2.257  0.00  0.00     0.078 C 
ATOM      2  C1  UNL d   1       3.216  -4.215   3.566  0.00  0.00    -0.077 A 
ATOM      3  C2  UNL d   1       3.329  -3.349   4.661  0.00  0.00    -0.001 A 
ATOM      4  C3  UNL d   1       3.855  -3.805   5.870  0.00  0.00     0.003 A 
ATOM      5  C4  UNL d   1       4.273  -5.129   5.997  0.00  0.00    -0.005 A 
ATOM      6  C5  UNL d   1       4.166  -5.997   4.913  0.00  0.00     0.003 A 
ATOM      7  C6  UNL d   1       3.640  -5.543   3.702  0.00  0.00    -0.001 A 
ENDROOT
TORSDOF 0
ENDMDL
