MODEL 1
REMARK minimizedAffinity 0.361050695
REMARK minimizedRMSD -1
REMARK  0 active torsions:
REMARK  status: ('A' for Active; 'I' for Inactive)
ROOT
ATOM      1  C   UNL d   1       5.999   1.848   1.103  0.00  0.00     0.078 C 
ATOM      2  C1  UNL d   1       4.632   2.160   1.635  0.00  0.00    -0.077 A 
ATOM      3  C2  UNL d   1       3.522   2.213   0.783  0.00  0.00    -0.001 A 
ATOM      4  C3  UNL d   1       2.257   2.514   1.290  0.00  0.00     0.003 A 
ATOM      5  C4  UNL d   1       2.090   2.765   2.650  0.00  0.00    -0.005 A 
ATOM      6  C5  UNL d   1       3.189   2.716   3.505  0.00  0.00     0.003 A 
ATOM      7  C6  UNL d   1       4.455   2.415   3.000  0.00  0.00    -0.001 A 
ENDROOT
TORSDOF 0
ENDMDL
