MODEL 1
REMARK minimizedAffinity 1.03495884
REMARK minimizedRMSD -1
REMARK  0 active torsions:
REMARK  status: ('A' for Active; 'I' for Inactive)
ROOT
ATOM      1  C   UNL d   1       0.171  -1.673   3.044  0.00  0.00     0.078 C 
ATOM      2  C1  UNL d   1       1.124  -2.466   2.201  0.00  0.00    -0.077 A 
ATOM      3  C2  UNL d   1       0.964  -3.847   2.036  0.00  0.00    -0.001 A 
ATOM      4  C3  UNL d   1       1.865  -4.574   1.256  0.00  0.00     0.003 A 
ATOM      5  C4  UNL d   1       2.933  -3.928   0.635  0.00  0.00    -0.005 A 
ATOM      6  C5  UNL d   1       3.101  -2.554   0.796  0.00  0.00     0.003 A 
ATOM      7  C6  UNL d   1       2.202  -1.826   1.575  0.00  0.00    -0.001 A 
ENDROOT
TORSDOF 0
ENDMDL
