MODEL 1
REMARK minimizedAffinity 9.01868439
REMARK minimizedRMSD -1
REMARK  1 active torsions:
REMARK  status: ('A' for Active; 'I' for Inactive)
REMARK    1  A    between atoms: N_2  and  C1_3 
ROOT
ATOM      1  C1  UNL d   1      -3.175   2.454  -3.316  0.00  0.00     0.143 A 
ATOM      2  C2  UNL d   1      -3.846   1.850  -2.247  0.00  0.00    -0.057 A 
ATOM      3  C3  UNL d   1      -3.301   0.748  -1.578  0.00  0.00     0.033 A 
ATOM      4  C4  UNL d   1      -2.085   0.210  -1.985  0.00  0.00    -0.042 A 
ATOM      5  C5  UNL d   1      -1.412   0.779  -3.061  0.00  0.00     0.033 A 
ATOM      6  C6  UNL d   1      -1.959   1.883  -3.722  0.00  0.00    -0.057 A 
ENDROOT
BRANCH   1   7
ATOM      7  N   UNL d   1      -3.711   3.490  -4.085  0.00  0.00    -0.732 N 
ATOM      8  C   UNL d   1      -4.696   3.215  -5.109  0.00  0.00     0.284 C 
ATOM      9  H3  UNL d   1      -3.906   4.322  -3.533  0.00  0.00     0.395 HD
ENDBRANCH   1   7
TORSDOF 1
ENDMDL
