MODEL 1
REMARK minimizedAffinity 6.43812323
REMARK minimizedRMSD -1
REMARK  1 active torsions:
REMARK  status: ('A' for Active; 'I' for Inactive)
REMARK    1  A    between atoms: N_2  and  C1_3 
ROOT
ATOM      1  C1  UNL d   1       1.049  -2.119   2.018  0.00  0.00     0.143 A 
ATOM      2  C2  UNL d   1       1.118  -0.849   2.600  0.00  0.00    -0.057 A 
ATOM      3  C3  UNL d   1       0.074  -0.355   3.392  0.00  0.00     0.033 A 
ATOM      4  C4  UNL d   1      -1.074  -1.114   3.592  0.00  0.00    -0.042 A 
ATOM      5  C5  UNL d   1      -1.175  -2.369   3.002  0.00  0.00     0.033 A 
ATOM      6  C6  UNL d   1      -0.126  -2.860   2.219  0.00  0.00    -0.057 A 
ENDROOT
BRANCH   1   7
ATOM      7  N   UNL d   1       2.011  -2.626   1.141  0.00  0.00    -0.732 N 
ATOM      8  C   UNL d   1       2.088  -4.046   0.873  0.00  0.00     0.284 C 
ATOM      9  H3  UNL d   1       2.134  -2.040   0.318  0.00  0.00     0.395 HD
ENDBRANCH   1   7
TORSDOF 1
ENDMDL
