MODEL 1
REMARK minimizedAffinity 10.6303272
REMARK minimizedRMSD -1
REMARK  1 active torsions:
REMARK  status: ('A' for Active; 'I' for Inactive)
REMARK    1  A    between atoms: N_2  and  C1_3 
ROOT
ATOM      1  C1  UNL d   1       1.340  -1.821   1.529  0.00  0.00     0.143 A 
ATOM      2  C2  UNL d   1       0.124  -2.512   1.549  0.00  0.00    -0.057 A 
ATOM      3  C3  UNL d   1      -1.019  -1.954   2.134  0.00  0.00     0.033 A 
ATOM      4  C4  UNL d   1      -0.958  -0.702   2.737  0.00  0.00    -0.042 A 
ATOM      5  C5  UNL d   1       0.246  -0.007   2.751  0.00  0.00     0.033 A 
ATOM      6  C6  UNL d   1       1.382  -0.567   2.159  0.00  0.00    -0.057 A 
ENDROOT
BRANCH   1   7
ATOM      7  N   UNL d   1       2.535  -2.363   1.050  0.00  0.00    -0.732 N 
ATOM      8  C   UNL d   1       2.633  -3.774   0.742  0.00  0.00     0.284 C 
ATOM      9  H3  UNL d   1       2.993  -1.757   0.373  0.00  0.00     0.395 HD
ENDBRANCH   1   7
TORSDOF 1
ENDMDL
