MODEL 1
REMARK minimizedAffinity 5.35280752
REMARK minimizedRMSD -1
REMARK  1 active torsions:
REMARK  status: ('A' for Active; 'I' for Inactive)
REMARK    1  A    between atoms: N_2  and  C1_3 
ROOT
ATOM      1  C1  UNL d   1       4.478  -3.372   4.852  0.00  0.00     0.143 A 
ATOM      2  C2  UNL d   1       5.562  -3.602   5.706  0.00  0.00    -0.057 A 
ATOM      3  C3  UNL d   1       5.997  -4.901   5.994  0.00  0.00     0.033 A 
ATOM      4  C4  UNL d   1       5.335  -5.998   5.455  0.00  0.00    -0.042 A 
ATOM      5  C5  UNL d   1       4.239  -5.795   4.624  0.00  0.00     0.033 A 
ATOM      6  C6  UNL d   1       3.813  -4.495   4.334  0.00  0.00    -0.057 A 
ENDROOT
BRANCH   1   7
ATOM      7  N   UNL d   1       3.937  -2.108   4.604  0.00  0.00    -0.732 N 
ATOM      8  C   UNL d   1       3.063  -1.890   3.472  0.00  0.00     0.284 C 
ATOM      9  H3  UNL d   1       3.637  -1.640   5.457  0.00  0.00     0.395 HD
ENDBRANCH   1   7
TORSDOF 1
ENDMDL
