MODEL 1
REMARK minimizedAffinity 16.3367844
REMARK minimizedRMSD -1
REMARK  1 active torsions:
REMARK  status: ('A' for Active; 'I' for Inactive)
REMARK    1  A    between atoms: N_2  and  C1_3 
ROOT
ATOM      1  C1  UNL d   1      -3.542   2.656  -4.108  0.00  0.00     0.143 A 
ATOM      2  C2  UNL d   1      -4.424   1.836  -4.821  0.00  0.00    -0.057 A 
ATOM      3  C3  UNL d   1      -5.383   2.380  -5.685  0.00  0.00     0.033 A 
ATOM      4  C4  UNL d   1      -5.496   3.759  -5.829  0.00  0.00    -0.042 A 
ATOM      5  C5  UNL d   1      -4.647   4.593  -5.111  0.00  0.00     0.033 A 
ATOM      6  C6  UNL d   1      -3.687   4.044  -4.255  0.00  0.00    -0.057 A 
ENDROOT
BRANCH   1   7
ATOM      7  N   UNL d   1      -2.633   2.180  -3.160  0.00  0.00    -0.732 N 
ATOM      8  C   UNL d   1      -3.099   1.538  -1.950  0.00  0.00     0.284 C 
ATOM      9  H3  UNL d   1      -1.827   1.729  -3.587  0.00  0.00     0.395 HD
ENDBRANCH   1   7
TORSDOF 1
ENDMDL
