MODEL 1
REMARK minimizedAffinity 3.05296755
REMARK minimizedRMSD -1
REMARK  1 active torsions:
REMARK  status: ('A' for Active; 'I' for Inactive)
REMARK    1  A    between atoms: N_2  and  C1_3 
ROOT
ATOM      1  C1  UNL d   1       4.187  -4.434   0.589  0.00  0.00     0.143 A 
ATOM      2  C2  UNL d   1       3.114  -5.322   0.723  0.00  0.00    -0.057 A 
ATOM      3  C3  UNL d   1       1.797  -4.859   0.830  0.00  0.00     0.033 A 
ATOM      4  C4  UNL d   1       1.532  -3.493   0.836  0.00  0.00    -0.042 A 
ATOM      5  C5  UNL d   1       2.585  -2.592   0.729  0.00  0.00     0.033 A 
ATOM      6  C6  UNL d   1       3.898  -3.061   0.615  0.00  0.00    -0.057 A 
ENDROOT
BRANCH   1   7
ATOM      7  N   UNL d   1       5.527  -4.829   0.576  0.00  0.00    -0.732 N 
ATOM      8  C   UNL d   1       5.944  -5.998  -0.168  0.00  0.00     0.284 C 
ATOM      9  H3  UNL d   1       6.164  -4.040   0.502  0.00  0.00     0.395 HD
ENDBRANCH   1   7
TORSDOF 1
ENDMDL
