MODEL 1
REMARK minimizedAffinity 6.15437508
REMARK minimizedRMSD -1
REMARK  1 active torsions:
REMARK  status: ('A' for Active; 'I' for Inactive)
REMARK    1  A    between atoms: N_2  and  C1_3 
ROOT
ATOM      1  C1  UNL d   1       0.429  -1.416   2.427  0.00  0.00     0.143 A 
ATOM      2  C2  UNL d   1       0.682  -1.925   1.149  0.00  0.00    -0.057 A 
ATOM      3  C3  UNL d   1       1.967  -1.887   0.594  0.00  0.00     0.033 A 
ATOM      4  C4  UNL d   1       3.019  -1.311   1.298  0.00  0.00    -0.042 A 
ATOM      5  C5  UNL d   1       2.786  -0.776   2.560  0.00  0.00     0.033 A 
ATOM      6  C6  UNL d   1       1.502  -0.823   3.112  0.00  0.00    -0.057 A 
ENDROOT
BRANCH   1   7
ATOM      7  N   UNL d   1      -0.845  -1.335   2.995  0.00  0.00    -0.732 N 
ATOM      8  C   UNL d   1      -1.661  -2.520   3.145  0.00  0.00     0.284 C 
ATOM      9  H3  UNL d   1      -0.876  -0.705   3.793  0.00  0.00     0.395 HD
ENDBRANCH   1   7
TORSDOF 1
ENDMDL
