MODEL 1
REMARK minimizedAffinity 0.54675597
REMARK minimizedRMSD -1
REMARK  1 active torsions:
REMARK  status: ('A' for Active; 'I' for Inactive)
REMARK    1  A    between atoms: N_2  and  C1_3 
ROOT
ATOM      1  C1  UNL d   1       1.499  -1.556   2.205  0.00  0.00     0.143 A 
ATOM      2  C2  UNL d   1       2.015  -2.821   2.505  0.00  0.00    -0.057 A 
ATOM      3  C3  UNL d   1       2.813  -3.516   1.588  0.00  0.00     0.033 A 
ATOM      4  C4  UNL d   1       3.086  -2.968   0.339  0.00  0.00    -0.042 A 
ATOM      5  C5  UNL d   1       2.564  -1.723   0.009  0.00  0.00     0.033 A 
ATOM      6  C6  UNL d   1       1.773  -1.031   0.932  0.00  0.00    -0.057 A 
ENDROOT
BRANCH   1   7
ATOM      7  N   UNL d   1       0.619  -0.858   3.035  0.00  0.00    -0.732 N 
ATOM      8  C   UNL d   1      -0.809  -1.075   2.943  0.00  0.00     0.284 C 
ATOM      9  H3  UNL d   1       0.967  -0.775   3.987  0.00  0.00     0.395 HD
ENDBRANCH   1   7
TORSDOF 1
ENDMDL
