MODEL 1
REMARK minimizedAffinity -2.2473321
REMARK minimizedRMSD -1
REMARK  2 active torsions:
REMARK  status: ('A' for Active; 'I' for Inactive)
REMARK    1  A    between atoms: C1_2  and  C2_3 
REMARK    2  A    between atoms: C2_3  and  C3_4 
ROOT
ATOM      1  C3  UNL d   1       0.481  -1.058  -0.845  0.00  0.00    -0.075 A 
ATOM      2  C4  UNL d   1       0.627  -0.889   0.539  0.00  0.00     0.002 A 
ATOM      3  C5  UNL d   1       0.414   0.358   1.127  0.00  0.00     0.002 A 
ATOM      4  C6  UNL d   1       0.065   1.452   0.338  0.00  0.00    -0.004 A 
ATOM      5  C7  UNL d   1      -0.066   1.300  -1.040  0.00  0.00     0.002 A 
ATOM      6  C8  UNL d   1       0.141   0.052  -1.630  0.00  0.00     0.002 A 
ENDROOT
BRANCH   1   7
ATOM      7  C2  UNL d   1       0.681  -2.412  -1.484  0.00  0.00     0.056 C 
BRANCH   7   8
ATOM      8  C1  UNL d   1      -0.616  -3.203  -1.688  0.00  0.00     0.007 C 
ATOM      9  C   UNL d   1      -0.748  -4.391  -0.745  0.00  0.00     0.009 C 
ENDBRANCH   7   8
ENDBRANCH   1   7
TORSDOF 2
ENDMDL
