MODEL 1
REMARK minimizedAffinity -4.85652733
REMARK minimizedRMSD -1
REMARK  2 active torsions:
REMARK  status: ('A' for Active; 'I' for Inactive)
REMARK    1  A    between atoms: C1_2  and  C2_3 
REMARK    2  A    between atoms: C2_3  and  C3_4 
ROOT
ATOM      1  C3  UNL d   1       0.092   0.046  -0.069  0.00  0.00    -0.075 A 
ATOM      2  C4  UNL d   1       0.423   0.154   1.289  0.00  0.00     0.002 A 
ATOM      3  C5  UNL d   1      -0.018   1.242   2.042  0.00  0.00     0.002 A 
ATOM      4  C6  UNL d   1      -0.787   2.240   1.445  0.00  0.00    -0.004 A 
ATOM      5  C7  UNL d   1      -1.108   2.151   0.093  0.00  0.00     0.002 A 
ATOM      6  C8  UNL d   1      -0.671   1.060  -0.662  0.00  0.00     0.002 A 
ENDROOT
BRANCH   1   7
ATOM      7  C2  UNL d   1       0.542  -1.145  -0.882  0.00  0.00     0.056 C 
BRANCH   7   8
ATOM      8  C1  UNL d   1      -0.090  -2.472  -0.447  0.00  0.00     0.007 C 
ATOM      9  C   UNL d   1      -0.793  -3.203  -1.583  0.00  0.00     0.009 C 
ENDBRANCH   7   8
ENDBRANCH   1   7
TORSDOF 2
ENDMDL
