MODEL 1
REMARK minimizedAffinity 3.11458492
REMARK minimizedRMSD -1
REMARK  2 active torsions:
REMARK  status: ('A' for Active; 'I' for Inactive)
REMARK    1  A    between atoms: C1_2  and  C2_3 
REMARK    2  A    between atoms: C2_3  and  C3_4 
ROOT
ATOM      1  C3  UNL d   1      -1.009  -0.904  -0.543  0.00  0.00    -0.075 A 
ATOM      2  C4  UNL d   1      -1.832  -0.471   0.507  0.00  0.00     0.002 A 
ATOM      3  C5  UNL d   1      -3.089  -1.044   0.704  0.00  0.00     0.002 A 
ATOM      4  C6  UNL d   1      -3.543  -2.047  -0.150  0.00  0.00    -0.004 A 
ATOM      5  C7  UNL d   1      -2.740  -2.473  -1.206  0.00  0.00     0.002 A 
ATOM      6  C8  UNL d   1      -1.480  -1.905  -1.403  0.00  0.00     0.002 A 
ENDROOT
BRANCH   1   7
ATOM      7  C2  UNL d   1       0.364  -0.310  -0.744  0.00  0.00     0.056 C 
BRANCH   7   8
ATOM      8  C1  UNL d   1       0.696   0.015  -2.204  0.00  0.00     0.007 C 
ATOM      9  C   UNL d   1       2.159  -0.222  -2.555  0.00  0.00     0.009 C 
ENDBRANCH   7   8
ENDBRANCH   1   7
TORSDOF 2
ENDMDL
