MODEL 1
REMARK minimizedAffinity -0.158123583
REMARK minimizedRMSD -1
REMARK  2 active torsions:
REMARK  status: ('A' for Active; 'I' for Inactive)
REMARK    1  A    between atoms: C1_2  and  C2_3 
REMARK    2  A    between atoms: C2_3  and  C3_4 
ROOT
ATOM      1  C3  UNL d   1      -1.193  -1.176  -0.575  0.00  0.00    -0.075 A 
ATOM      2  C4  UNL d   1      -1.488  -2.324  -1.323  0.00  0.00     0.002 A 
ATOM      3  C5  UNL d   1      -2.760  -2.895  -1.273  0.00  0.00     0.002 A 
ATOM      4  C6  UNL d   1      -3.748  -2.331  -0.469  0.00  0.00    -0.004 A 
ATOM      5  C7  UNL d   1      -3.461  -1.200   0.292  0.00  0.00     0.002 A 
ATOM      6  C8  UNL d   1      -2.190  -0.625   0.241  0.00  0.00     0.002 A 
ENDROOT
BRANCH   1   7
ATOM      7  C2  UNL d   1       0.174  -0.537  -0.647  0.00  0.00     0.056 C 
BRANCH   7   8
ATOM      8  C1  UNL d   1       0.352   0.421  -1.829  0.00  0.00     0.007 C 
ATOM      9  C   UNL d   1       0.065   1.874  -1.474  0.00  0.00     0.009 C 
ENDBRANCH   7   8
ENDBRANCH   1   7
TORSDOF 2
ENDMDL
