MODEL 1
REMARK minimizedAffinity -2.10514617
REMARK minimizedRMSD -1
REMARK  2 active torsions:
REMARK  status: ('A' for Active; 'I' for Inactive)
REMARK    1  A    between atoms: C1_2  and  C2_3 
REMARK    2  A    between atoms: C2_3  and  C3_4 
ROOT
ATOM      1  C3  UNL d   1      -1.225  -1.356  -0.844  0.00  0.00    -0.075 A 
ATOM      2  C4  UNL d   1      -1.807  -2.539  -1.321  0.00  0.00     0.002 A 
ATOM      3  C5  UNL d   1      -2.938  -3.072  -0.701  0.00  0.00     0.002 A 
ATOM      4  C6  UNL d   1      -3.493  -2.436   0.407  0.00  0.00    -0.004 A 
ATOM      5  C7  UNL d   1      -2.913  -1.269   0.899  0.00  0.00     0.002 A 
ATOM      6  C8  UNL d   1      -1.785  -0.731   0.279  0.00  0.00     0.002 A 
ENDROOT
BRANCH   1   7
ATOM      7  C2  UNL d   1      -0.019  -0.758  -1.528  0.00  0.00     0.056 C 
BRANCH   7   8
ATOM      8  C1  UNL d   1       1.201  -0.598  -0.614  0.00  0.00     0.007 C 
ATOM      9  C   UNL d   1       2.407   0.003  -1.323  0.00  0.00     0.009 C 
ENDBRANCH   7   8
ENDBRANCH   1   7
TORSDOF 2
ENDMDL
