MODEL 1
REMARK minimizedAffinity -2.88618898
REMARK minimizedRMSD -1
REMARK  2 active torsions:
REMARK  status: ('A' for Active; 'I' for Inactive)
REMARK    1  A    between atoms: C1_2  and  C2_3 
REMARK    2  A    between atoms: C2_3  and  C3_4 
ROOT
ATOM      1  C3  UNL d   1      -5.297   4.198   4.521  0.00  0.00    -0.075 A 
ATOM      2  C4  UNL d   1      -4.875   3.468   3.400  0.00  0.00     0.002 A 
ATOM      3  C5  UNL d   1      -5.003   4.003   2.117  0.00  0.00     0.002 A 
ATOM      4  C6  UNL d   1      -5.562   5.267   1.939  0.00  0.00    -0.004 A 
ATOM      5  C7  UNL d   1      -6.000   5.993   3.044  0.00  0.00     0.002 A 
ATOM      6  C8  UNL d   1      -5.869   5.462   4.329  0.00  0.00     0.002 A 
ENDROOT
BRANCH   1   7
ATOM      7  C2  UNL d   1      -5.134   3.637   5.913  0.00  0.00     0.056 C 
BRANCH   7   8
ATOM      8  C1  UNL d   1      -4.167   2.451   5.999  0.00  0.00     0.007 C 
ATOM      9  C   UNL d   1      -4.853   1.104   5.818  0.00  0.00     0.009 C 
ENDBRANCH   7   8
ENDBRANCH   1   7
TORSDOF 2
ENDMDL
