MODEL 1
REMARK minimizedAffinity -4.02090836
REMARK minimizedRMSD -1
REMARK  2 active torsions:
REMARK  status: ('A' for Active; 'I' for Inactive)
REMARK    1  A    between atoms: C1_2  and  C2_3 
REMARK    2  A    between atoms: C2_3  and  C3_4 
ROOT
ATOM      1  C3  UNL d   1      -4.715   4.283   3.981  0.00  0.00    -0.075 A 
ATOM      2  C4  UNL d   1      -3.838   4.137   5.065  0.00  0.00     0.002 A 
ATOM      3  C5  UNL d   1      -4.029   3.117   5.998  0.00  0.00     0.002 A 
ATOM      4  C6  UNL d   1      -5.103   2.239   5.865  0.00  0.00    -0.004 A 
ATOM      5  C7  UNL d   1      -5.990   2.385   4.800  0.00  0.00     0.002 A 
ATOM      6  C8  UNL d   1      -5.798   3.402   3.863  0.00  0.00     0.002 A 
ENDROOT
BRANCH   1   7
ATOM      7  C2  UNL d   1      -4.497   5.366   2.951  0.00  0.00     0.056 C 
BRANCH   7   8
ATOM      8  C1  UNL d   1      -5.790   5.922   2.347  0.00  0.00     0.007 C 
ATOM      9  C   UNL d   1      -5.867   5.755   0.835  0.00  0.00     0.009 C 
ENDBRANCH   7   8
ENDBRANCH   1   7
TORSDOF 2
ENDMDL
