MODEL 1
REMARK minimizedAffinity -0.556675076
REMARK minimizedRMSD -1
REMARK  2 active torsions:
REMARK  status: ('A' for Active; 'I' for Inactive)
REMARK    1  A    between atoms: C1_2  and  C2_3 
REMARK    2  A    between atoms: C2_3  and  C3_4 
ROOT
ATOM      1  C3  UNL d   1      -1.363  -1.089  -0.352  0.00  0.00    -0.075 A 
ATOM      2  C4  UNL d   1      -2.070  -2.033  -1.111  0.00  0.00     0.002 A 
ATOM      3  C5  UNL d   1      -3.365  -2.405  -0.751  0.00  0.00     0.002 A 
ATOM      4  C6  UNL d   1      -3.965  -1.848   0.376  0.00  0.00    -0.004 A 
ATOM      5  C7  UNL d   1      -3.266  -0.922   1.147  0.00  0.00     0.002 A 
ATOM      6  C8  UNL d   1      -1.971  -0.544   0.786  0.00  0.00     0.002 A 
ENDROOT
BRANCH   1   7
ATOM      7  C2  UNL d   1       0.028  -0.659  -0.754  0.00  0.00     0.056 C 
BRANCH   7   8
ATOM      8  C1  UNL d   1       0.059   0.516  -1.736  0.00  0.00     0.007 C 
ATOM      9  C   UNL d   1      -0.676   0.229  -3.039  0.00  0.00     0.009 C 
ENDBRANCH   7   8
ENDBRANCH   1   7
TORSDOF 2
ENDMDL
