MODEL 1
REMARK minimizedAffinity 2.2373805
REMARK minimizedRMSD -1
REMARK  2 active torsions:
REMARK  status: ('A' for Active; 'I' for Inactive)
REMARK    1  A    between atoms: C1_2  and  C2_3 
REMARK    2  A    between atoms: C2_3  and  C3_4 
ROOT
ATOM      1  C3  UNL d   1      -2.063  -2.300  -1.137  0.00  0.00    -0.075 A 
ATOM      2  C4  UNL d   1      -3.239  -1.823  -0.540  0.00  0.00     0.002 A 
ATOM      3  C5  UNL d   1      -3.951  -2.620   0.357  0.00  0.00     0.002 A 
ATOM      4  C6  UNL d   1      -3.503  -3.903   0.661  0.00  0.00    -0.004 A 
ATOM      5  C7  UNL d   1      -2.345  -4.393   0.061  0.00  0.00     0.002 A 
ATOM      6  C8  UNL d   1      -1.629  -3.597  -0.834  0.00  0.00     0.002 A 
ENDROOT
BRANCH   1   7
ATOM      7  C2  UNL d   1      -1.272  -1.432  -2.086  0.00  0.00     0.056 C 
BRANCH   7   8
ATOM      8  C1  UNL d   1      -0.116  -0.676  -1.424  0.00  0.00     0.007 C 
ATOM      9  C   UNL d   1      -0.423  -0.239   0.003  0.00  0.00     0.009 C 
ENDBRANCH   7   8
ENDBRANCH   1   7
TORSDOF 2
ENDMDL
