MODEL 1
REMARK minimizedAffinity -3.16468287
REMARK minimizedRMSD -1
REMARK  2 active torsions:
REMARK  status: ('A' for Active; 'I' for Inactive)
REMARK    1  A    between atoms: C1_2  and  C2_3 
REMARK    2  A    between atoms: C2_3  and  C3_4 
ROOT
ATOM      1  C3  UNL d   1      -5.299   4.352   4.409  0.00  0.00    -0.075 A 
ATOM      2  C4  UNL d   1      -5.988   5.511   4.020  0.00  0.00     0.002 A 
ATOM      3  C5  UNL d   1      -5.873   5.999   2.718  0.00  0.00     0.002 A 
ATOM      4  C6  UNL d   1      -5.062   5.344   1.794  0.00  0.00    -0.004 A 
ATOM      5  C7  UNL d   1      -4.360   4.202   2.174  0.00  0.00     0.002 A 
ATOM      6  C8  UNL d   1      -4.477   3.709   3.475  0.00  0.00     0.002 A 
ENDROOT
BRANCH   1   7
ATOM      7  C2  UNL d   1      -5.443   3.802   5.808  0.00  0.00     0.056 C 
BRANCH   7   8
ATOM      8  C1  UNL d   1      -4.816   2.416   6.000  0.00  0.00     0.007 C 
ATOM      9  C   UNL d   1      -5.840   1.289   5.999  0.00  0.00     0.009 C 
ENDBRANCH   7   8
ENDBRANCH   1   7
TORSDOF 2
ENDMDL
