MODEL 1
REMARK minimizedAffinity -2.15869117
REMARK minimizedRMSD -1
REMARK  2 active torsions:
REMARK  status: ('A' for Active; 'I' for Inactive)
REMARK    1  A    between atoms: C1_2  and  C2_3 
REMARK    2  A    between atoms: C2_3  and  C3_4 
ROOT
ATOM      1  C3  UNL d   1      -5.160   4.847   2.116  0.00  0.00    -0.075 A 
ATOM      2  C4  UNL d   1      -5.309   3.592   1.509  0.00  0.00     0.002 A 
ATOM      3  C5  UNL d   1      -5.621   3.493   0.153  0.00  0.00     0.002 A 
ATOM      4  C6  UNL d   1      -5.797   4.645  -0.610  0.00  0.00    -0.004 A 
ATOM      5  C7  UNL d   1      -5.668   5.898  -0.014  0.00  0.00     0.002 A 
ATOM      6  C8  UNL d   1      -5.352   6.000   1.342  0.00  0.00     0.002 A 
ENDROOT
BRANCH   1   7
ATOM      7  C2  UNL d   1      -4.793   4.961   3.576  0.00  0.00     0.056 C 
BRANCH   7   8
ATOM      8  C1  UNL d   1      -6.000   5.055   4.517  0.00  0.00     0.007 C 
ATOM      9  C   UNL d   1      -5.729   4.478   5.900  0.00  0.00     0.009 C 
ENDBRANCH   7   8
ENDBRANCH   1   7
TORSDOF 2
ENDMDL
