MODEL 1
REMARK minimizedAffinity -2.75473714
REMARK minimizedRMSD -1
REMARK  2 active torsions:
REMARK  status: ('A' for Active; 'I' for Inactive)
REMARK    1  A    between atoms: C1_2  and  C2_3 
REMARK    2  A    between atoms: C2_3  and  C3_4 
ROOT
ATOM      1  C3  UNL d   1      -5.472   4.270   3.375  0.00  0.00    -0.075 A 
ATOM      2  C4  UNL d   1      -5.994   4.139   4.670  0.00  0.00     0.002 A 
ATOM      3  C5  UNL d   1      -5.894   2.927   5.355  0.00  0.00     0.002 A 
ATOM      4  C6  UNL d   1      -5.282   1.831   4.752  0.00  0.00    -0.004 A 
ATOM      5  C7  UNL d   1      -4.774   1.945   3.459  0.00  0.00     0.002 A 
ATOM      6  C8  UNL d   1      -4.869   3.157   2.773  0.00  0.00     0.002 A 
ENDROOT
BRANCH   1   7
ATOM      7  C2  UNL d   1      -5.550   5.586   2.640  0.00  0.00     0.056 C 
BRANCH   7   8
ATOM      8  C1  UNL d   1      -4.994   5.538   1.213  0.00  0.00     0.007 C 
ATOM      9  C   UNL d   1      -5.999   5.986   0.161  0.00  0.00     0.009 C 
ENDBRANCH   7   8
ENDBRANCH   1   7
TORSDOF 2
ENDMDL
