MODEL 1
REMARK minimizedAffinity -1.54727423
REMARK minimizedRMSD -1
REMARK  2 active torsions:
REMARK  status: ('A' for Active; 'I' for Inactive)
REMARK    1  A    between atoms: C1_2  and  C2_3 
REMARK    2  A    between atoms: C2_3  and  C3_4 
ROOT
ATOM      1  C3  UNL d   1      -5.498   4.769   3.597  0.00  0.00    -0.075 A 
ATOM      2  C4  UNL d   1      -4.710   3.609   3.567  0.00  0.00     0.002 A 
ATOM      3  C5  UNL d   1      -4.448   2.899   4.739  0.00  0.00     0.002 A 
ATOM      4  C6  UNL d   1      -4.962   3.343   5.955  0.00  0.00    -0.004 A 
ATOM      5  C7  UNL d   1      -5.732   4.503   6.000  0.00  0.00     0.002 A 
ATOM      6  C8  UNL d   1      -5.999   5.213   4.828  0.00  0.00     0.002 A 
ENDROOT
BRANCH   1   7
ATOM      7  C2  UNL d   1      -5.809   5.525   2.328  0.00  0.00     0.056 C 
BRANCH   7   8
ATOM      8  C1  UNL d   1      -4.925   5.138   1.138  0.00  0.00     0.007 C 
ATOM      9  C   UNL d   1      -5.674   5.125  -0.187  0.00  0.00     0.009 C 
ENDBRANCH   7   8
ENDBRANCH   1   7
TORSDOF 2
ENDMDL
