MODEL 1
REMARK minimizedAffinity -1.40236294
REMARK minimizedRMSD -1
REMARK  2 active torsions:
REMARK  status: ('A' for Active; 'I' for Inactive)
REMARK    1  A    between atoms: C1_2  and  C2_3 
REMARK    2  A    between atoms: C2_3  and  C3_4 
ROOT
ATOM      1  C3  UNL d   1      -5.712   4.633   3.780  0.00  0.00    -0.075 A 
ATOM      2  C4  UNL d   1      -6.000   5.748   2.981  0.00  0.00     0.002 A 
ATOM      3  C5  UNL d   1      -5.817   5.696   1.599  0.00  0.00     0.002 A 
ATOM      4  C6  UNL d   1      -5.336   4.534   1.001  0.00  0.00    -0.004 A 
ATOM      5  C7  UNL d   1      -5.031   3.425   1.787  0.00  0.00     0.002 A 
ATOM      6  C8  UNL d   1      -5.217   3.473   3.169  0.00  0.00     0.002 A 
ENDROOT
BRANCH   1   7
ATOM      7  C2  UNL d   1      -5.935   4.673   5.273  0.00  0.00     0.056 C 
BRANCH   7   8
ATOM      8  C1  UNL d   1      -5.933   3.294   5.942  0.00  0.00     0.007 C 
ATOM      9  C   UNL d   1      -4.551   2.656   5.997  0.00  0.00     0.009 C 
ENDBRANCH   7   8
ENDBRANCH   1   7
TORSDOF 2
ENDMDL
