MODEL 1
REMARK minimizedAffinity -3.45071316
REMARK minimizedRMSD -1
REMARK  2 active torsions:
REMARK  status: ('A' for Active; 'I' for Inactive)
REMARK    1  A    between atoms: C1_2  and  C2_3 
REMARK    2  A    between atoms: C2_3  and  C3_4 
ROOT
ATOM      1  C3  UNL d   1      -4.447   4.301   3.507  0.00  0.00    -0.075 A 
ATOM      2  C4  UNL d   1      -4.577   3.417   2.426  0.00  0.00     0.002 A 
ATOM      3  C5  UNL d   1      -5.221   3.819   1.256  0.00  0.00     0.002 A 
ATOM      4  C6  UNL d   1      -5.753   5.103   1.155  0.00  0.00    -0.004 A 
ATOM      5  C7  UNL d   1      -5.645   5.984   2.230  0.00  0.00     0.002 A 
ATOM      6  C8  UNL d   1      -4.997   5.586   3.400  0.00  0.00     0.002 A 
ENDROOT
BRANCH   1   7
ATOM      7  C2  UNL d   1      -3.725   3.882   4.765  0.00  0.00     0.056 C 
BRANCH   7   8
ATOM      8  C1  UNL d   1      -4.627   3.785   6.000  0.00  0.00     0.007 C 
ATOM      9  C   UNL d   1      -5.871   2.936   5.769  0.00  0.00     0.009 C 
ENDBRANCH   7   8
ENDBRANCH   1   7
TORSDOF 2
ENDMDL
