MODEL 1
REMARK minimizedAffinity -3.02631259
REMARK minimizedRMSD -1
REMARK  2 active torsions:
REMARK  status: ('A' for Active; 'I' for Inactive)
REMARK    1  A    between atoms: C1_2  and  C2_3 
REMARK    2  A    between atoms: C2_3  and  C3_4 
ROOT
ATOM      1  C3  UNL d   1      -5.222   4.782   4.069  0.00  0.00    -0.075 A 
ATOM      2  C4  UNL d   1      -5.996   4.469   5.196  0.00  0.00     0.002 A 
ATOM      3  C5  UNL d   1      -5.675   3.371   5.994  0.00  0.00     0.002 A 
ATOM      4  C6  UNL d   1      -4.583   2.568   5.672  0.00  0.00    -0.004 A 
ATOM      5  C7  UNL d   1      -3.816   2.859   4.546  0.00  0.00     0.002 A 
ATOM      6  C8  UNL d   1      -4.133   3.960   3.748  0.00  0.00     0.002 A 
ENDROOT
BRANCH   1   7
ATOM      7  C2  UNL d   1      -5.547   5.986   3.218  0.00  0.00     0.056 C 
BRANCH   7   8
ATOM      8  C1  UNL d   1      -4.983   5.914   1.795  0.00  0.00     0.007 C 
ATOM      9  C   UNL d   1      -5.938   5.265   0.802  0.00  0.00     0.009 C 
ENDBRANCH   7   8
ENDBRANCH   1   7
TORSDOF 2
ENDMDL
