MODEL 1
REMARK minimizedAffinity -3.78954244
REMARK minimizedRMSD -1
REMARK  2 active torsions:
REMARK  status: ('A' for Active; 'I' for Inactive)
REMARK    1  A    between atoms: C1_2  and  C2_3 
REMARK    2  A    between atoms: C2_3  and  C3_4 
ROOT
ATOM      1  C3  UNL d   1      -5.615   4.536   4.028  0.00  0.00    -0.075 A 
ATOM      2  C4  UNL d   1      -5.984   3.698   2.966  0.00  0.00     0.002 A 
ATOM      3  C5  UNL d   1      -5.606   4.003   1.658  0.00  0.00     0.002 A 
ATOM      4  C6  UNL d   1      -4.863   5.151   1.394  0.00  0.00    -0.004 A 
ATOM      5  C7  UNL d   1      -4.504   6.000   2.439  0.00  0.00     0.002 A 
ATOM      6  C8  UNL d   1      -4.878   5.696   3.749  0.00  0.00     0.002 A 
ENDROOT
BRANCH   1   7
ATOM      7  C2  UNL d   1      -5.996   4.197   5.449  0.00  0.00     0.056 C 
BRANCH   7   8
ATOM      8  C1  UNL d   1      -5.662   2.759   5.858  0.00  0.00     0.007 C 
ATOM      9  C   UNL d   1      -4.166   2.508   6.000  0.00  0.00     0.009 C 
ENDBRANCH   7   8
ENDBRANCH   1   7
TORSDOF 2
ENDMDL
