MODEL 1
REMARK minimizedAffinity -1.33675361
REMARK minimizedRMSD -1
REMARK  2 active torsions:
REMARK  status: ('A' for Active; 'I' for Inactive)
REMARK    1  A    between atoms: C1_2  and  C2_3 
REMARK    2  A    between atoms: C2_3  and  C3_4 
ROOT
ATOM      1  C3  UNL d   1      -5.836   4.148   3.328  0.00  0.00    -0.075 A 
ATOM      2  C4  UNL d   1      -5.906   3.218   4.375  0.00  0.00     0.002 A 
ATOM      3  C5  UNL d   1      -5.823   3.639   5.703  0.00  0.00     0.002 A 
ATOM      4  C6  UNL d   1      -5.659   4.990   6.000  0.00  0.00    -0.004 A 
ATOM      5  C7  UNL d   1      -5.571   5.921   4.967  0.00  0.00     0.002 A 
ATOM      6  C8  UNL d   1      -5.658   5.503   3.638  0.00  0.00     0.002 A 
ENDROOT
BRANCH   1   7
ATOM      7  C2  UNL d   1      -5.955   3.703   1.890  0.00  0.00     0.056 C 
BRANCH   7   8
ATOM      8  C1  UNL d   1      -5.152   4.558   0.904  0.00  0.00     0.007 C 
ATOM      9  C   UNL d   1      -5.649   5.995   0.812  0.00  0.00     0.009 C 
ENDBRANCH   7   8
ENDBRANCH   1   7
TORSDOF 2
ENDMDL
