MODEL 1
REMARK minimizedAffinity -2.38590598
REMARK minimizedRMSD -1
REMARK  0 active torsions:
REMARK  status: ('A' for Active; 'I' for Inactive)
ROOT
ATOM      1  C   UNL d   1       0.435   0.327   2.697  0.00  0.00    -0.002 A 
ATOM      2  C1  UNL d   1      -0.514  -0.686   2.705  0.00  0.00     0.010 A 
ATOM      3  C2  UNL d   1      -0.948  -1.261   1.509  0.00  0.00     0.041 A 
ATOM      4  C3  UNL d   1      -0.407  -0.798   0.294  0.00  0.00    -0.075 A 
ATOM      5  S   UNL d   1      -0.788  -1.354  -1.293  0.00  0.00     0.015 SA
ATOM      6  C4  UNL d   1       0.300  -0.261  -2.019  0.00  0.00     0.022 A 
ATOM      7  C5  UNL d   1       0.946   0.517  -1.088  0.00  0.00     0.026 A 
ATOM      8  C6  UNL d   1       0.550   0.220   0.260  0.00  0.00    -0.082 A 
ATOM      9  C7  UNL d   1       0.969   0.784   1.489  0.00  0.00     0.045 A 
ENDROOT
TORSDOF 0
ENDMDL
