MODEL 1
REMARK minimizedAffinity 9.97399521
REMARK minimizedRMSD -1
REMARK  0 active torsions:
REMARK  status: ('A' for Active; 'I' for Inactive)
ROOT
ATOM      1  C   UNL d   1      -5.606  -0.190   1.161  0.00  0.00    -0.002 A 
ATOM      2  C1  UNL d   1      -5.261   0.826   0.281  0.00  0.00     0.010 A 
ATOM      3  C2  UNL d   1      -3.956   1.320   0.243  0.00  0.00     0.041 A 
ATOM      4  C3  UNL d   1      -2.993   0.769   1.112  0.00  0.00    -0.075 A 
ATOM      5  S   UNL d   1      -1.333   1.216   1.241  0.00  0.00     0.015 SA
ATOM      6  C4  UNL d   1      -1.043   0.068   2.467  0.00  0.00     0.022 A 
ATOM      7  C5  UNL d   1      -2.174  -0.647   2.783  0.00  0.00     0.026 A 
ATOM      8  C6  UNL d   1      -3.317  -0.255   2.007  0.00  0.00    -0.082 A 
ATOM      9  C7  UNL d   1      -4.649  -0.734   2.021  0.00  0.00     0.045 A 
ENDROOT
TORSDOF 0
ENDMDL
