MODEL 1
REMARK minimizedAffinity 9.92211151
REMARK minimizedRMSD -1
REMARK  0 active torsions:
REMARK  status: ('A' for Active; 'I' for Inactive)
ROOT
ATOM      1  C   UNL d   1      -2.547  -0.257   3.275  0.00  0.00    -0.002 A 
ATOM      2  C1  UNL d   1      -3.756   0.334   2.938  0.00  0.00     0.010 A 
ATOM      3  C2  UNL d   1      -4.049   0.643   1.608  0.00  0.00     0.041 A 
ATOM      4  C3  UNL d   1      -3.098   0.344   0.613  0.00  0.00    -0.075 A 
ATOM      5  S   UNL d   1      -3.239   0.632  -1.081  0.00  0.00     0.015 SA
ATOM      6  C4  UNL d   1      -1.698  -0.023  -1.396  0.00  0.00     0.022 A 
ATOM      7  C5  UNL d   1      -1.076  -0.456  -0.249  0.00  0.00     0.026 A 
ATOM      8  C6  UNL d   1      -1.873  -0.252   0.928  0.00  0.00    -0.082 A 
ATOM      9  C7  UNL d   1      -1.605  -0.552   2.286  0.00  0.00     0.045 A 
ENDROOT
TORSDOF 0
ENDMDL
