MODEL 1
REMARK minimizedAffinity 6.11533213
REMARK minimizedRMSD -1
REMARK  0 active torsions:
REMARK  status: ('A' for Active; 'I' for Inactive)
ROOT
ATOM      1  C   UNL d   1       1.027   1.423   3.505  0.00  0.00    -0.002 A 
ATOM      2  C1  UNL d   1       0.097   0.510   3.029  0.00  0.00     0.010 A 
ATOM      3  C2  UNL d   1      -0.189   0.434   1.664  0.00  0.00     0.041 A 
ATOM      4  C3  UNL d   1       0.484   1.297   0.778  0.00  0.00    -0.075 A 
ATOM      5  S   UNL d   1       0.296   1.382  -0.934  0.00  0.00     0.015 SA
ATOM      6  C4  UNL d   1       1.447   2.631  -1.074  0.00  0.00     0.022 A 
ATOM      7  C5  UNL d   1       1.972   2.987   0.146  0.00  0.00     0.026 A 
ATOM      8  C6  UNL d   1       1.426   2.224   1.233  0.00  0.00    -0.082 A 
ATOM      9  C7  UNL d   1       1.693   2.278   2.622  0.00  0.00     0.045 A 
ENDROOT
TORSDOF 0
ENDMDL
