MODEL 1
REMARK minimizedAffinity 6.80642414
REMARK minimizedRMSD -1
REMARK  0 active torsions:
REMARK  status: ('A' for Active; 'I' for Inactive)
ROOT
ATOM      1  C   UNL d   1      -4.407   0.119   2.423  0.00  0.00    -0.002 A 
ATOM      2  C1  UNL d   1      -3.925   1.185   1.677  0.00  0.00     0.010 A 
ATOM      3  C2  UNL d   1      -2.552   1.419   1.578  0.00  0.00     0.041 A 
ATOM      4  C3  UNL d   1      -1.663   0.554   2.247  0.00  0.00    -0.075 A 
ATOM      5  S   UNL d   1       0.058   0.645   2.267  0.00  0.00     0.015 SA
ATOM      6  C4  UNL d   1       0.194  -0.730   3.266  0.00  0.00     0.022 A 
ATOM      7  C5  UNL d   1      -1.035  -1.258   3.586  0.00  0.00     0.026 A 
ATOM      8  C6  UNL d   1      -2.125  -0.527   3.003  0.00  0.00    -0.082 A 
ATOM      9  C7  UNL d   1      -3.523  -0.737   3.085  0.00  0.00     0.045 A 
ENDROOT
TORSDOF 0
ENDMDL
