MODEL 1
REMARK minimizedAffinity 10.3110323
REMARK minimizedRMSD -1
REMARK  0 active torsions:
REMARK  status: ('A' for Active; 'I' for Inactive)
ROOT
ATOM      1  C   UNL d   1      -2.751   0.409   3.326  0.00  0.00    -0.002 A 
ATOM      2  C1  UNL d   1      -4.034   0.642   2.850  0.00  0.00     0.010 A 
ATOM      3  C2  UNL d   1      -4.269   0.785   1.482  0.00  0.00     0.041 A 
ATOM      4  C3  UNL d   1      -3.183   0.687   0.589  0.00  0.00    -0.075 A 
ATOM      5  S   UNL d   1      -3.233   0.827  -1.128  0.00  0.00     0.015 SA
ATOM      6  C4  UNL d   1      -1.553   0.580  -1.272  0.00  0.00     0.022 A 
ATOM      7  C5  UNL d   1      -0.953   0.393  -0.049  0.00  0.00     0.026 A 
ATOM      8  C6  UNL d   1      -1.882   0.451   1.044  0.00  0.00    -0.082 A 
ATOM      9  C7  UNL d   1      -1.676   0.312   2.438  0.00  0.00     0.045 A 
ENDROOT
TORSDOF 0
ENDMDL
