MODEL 1
REMARK minimizedAffinity 3.11161184
REMARK minimizedRMSD -1
REMARK  0 active torsions:
REMARK  status: ('A' for Active; 'I' for Inactive)
ROOT
ATOM      1  C   UNL d   1      -2.195  -0.285   3.619  0.00  0.00    -0.002 A 
ATOM      2  C1  UNL d   1      -1.547   0.839   4.112  0.00  0.00     0.010 A 
ATOM      3  C2  UNL d   1      -0.485   1.411   3.410  0.00  0.00     0.041 A 
ATOM      4  C3  UNL d   1      -0.082   0.831   2.191  0.00  0.00    -0.075 A 
ATOM      5  S   UNL d   1       1.194   1.361   1.159  0.00  0.00     0.015 SA
ATOM      6  C4  UNL d   1       0.908   0.108   0.039  0.00  0.00     0.022 A 
ATOM      7  C5  UNL d   1      -0.131  -0.704   0.427  0.00  0.00     0.026 A 
ATOM      8  C6  UNL d   1      -0.719  -0.300   1.674  0.00  0.00    -0.082 A 
ATOM      9  C7  UNL d   1      -1.792  -0.858   2.410  0.00  0.00     0.045 A 
ENDROOT
TORSDOF 0
ENDMDL
