MODEL 1
REMARK minimizedAffinity 1.52348959
REMARK minimizedRMSD -1
REMARK  0 active torsions:
REMARK  status: ('A' for Active; 'I' for Inactive)
ROOT
ATOM      1  C   UNL d   1      -0.061   1.101   4.076  0.00  0.00    -0.002 A 
ATOM      2  C1  UNL d   1      -1.399   1.088   3.710  0.00  0.00     0.010 A 
ATOM      3  C2  UNL d   1      -1.776   0.777   2.402  0.00  0.00     0.041 A 
ATOM      4  C3  UNL d   1      -0.774   0.474   1.459  0.00  0.00    -0.075 A 
ATOM      5  S   UNL d   1      -1.000   0.062  -0.200  0.00  0.00     0.015 SA
ATOM      6  C4  UNL d   1       0.676  -0.107  -0.463  0.00  0.00     0.022 A 
ATOM      7  C5  UNL d   1       1.404   0.141   0.676  0.00  0.00     0.026 A 
ATOM      8  C6  UNL d   1       0.580   0.479   1.803  0.00  0.00    -0.082 A 
ATOM      9  C7  UNL d   1       0.930   0.800   3.137  0.00  0.00     0.045 A 
ENDROOT
TORSDOF 0
ENDMDL
