MODEL 1
REMARK minimizedAffinity 7.3185482
REMARK minimizedRMSD -1
REMARK  0 active torsions:
REMARK  status: ('A' for Active; 'I' for Inactive)
ROOT
ATOM      1  C   UNL d   1       1.467   0.770   2.678  0.00  0.00    -0.002 A 
ATOM      2  C1  UNL d   1       2.485   0.294   1.864  0.00  0.00     0.010 A 
ATOM      3  C2  UNL d   1       2.215  -0.121   0.559  0.00  0.00     0.041 A 
ATOM      4  C3  UNL d   1       0.893  -0.047   0.080  0.00  0.00    -0.075 A 
ATOM      5  S   UNL d   1       0.327  -0.498  -1.485  0.00  0.00     0.015 SA
ATOM      6  C4  UNL d   1      -1.279  -0.070  -1.110  0.00  0.00     0.022 A 
ATOM      7  C5  UNL d   1      -1.399   0.408   0.173  0.00  0.00     0.026 A 
ATOM      8  C6  UNL d   1      -0.149   0.430   0.880  0.00  0.00    -0.082 A 
ATOM      9  C7  UNL d   1       0.156   0.842   2.200  0.00  0.00     0.045 A 
ENDROOT
TORSDOF 0
ENDMDL
