MODEL 1
REMARK minimizedAffinity -0.713620603
REMARK minimizedRMSD -1
REMARK  0 active torsions:
REMARK  status: ('A' for Active; 'I' for Inactive)
ROOT
ATOM      1  C   UNL d   1      -0.500  -0.423   3.187  0.00  0.00    -0.002 A 
ATOM      2  C1  UNL d   1      -1.057  -1.608   2.727  0.00  0.00     0.010 A 
ATOM      3  C2  UNL d   1      -0.949  -1.969   1.383  0.00  0.00     0.041 A 
ATOM      4  C3  UNL d   1      -0.264  -1.112   0.500  0.00  0.00    -0.075 A 
ATOM      5  S   UNL d   1      -0.006  -1.349  -1.188  0.00  0.00     0.015 SA
ATOM      6  C4  UNL d   1       0.851   0.117  -1.339  0.00  0.00     0.022 A 
ATOM      7  C5  UNL d   1       0.946   0.784  -0.141  0.00  0.00     0.026 A 
ATOM      8  C6  UNL d   1       0.306   0.086   0.939  0.00  0.00    -0.082 A 
ATOM      9  C7  UNL d   1       0.179   0.425   2.308  0.00  0.00     0.045 A 
ENDROOT
TORSDOF 0
ENDMDL
