MODEL 1
REMARK minimizedAffinity 1.78278494
REMARK minimizedRMSD -1
REMARK  0 active torsions:
REMARK  status: ('A' for Active; 'I' for Inactive)
ROOT
ATOM      1  C   UNL d   1      -0.418  -0.379   3.845  0.00  0.00    -0.002 A 
ATOM      2  C1  UNL d   1      -1.105  -1.365   3.151  0.00  0.00     0.010 A 
ATOM      3  C2  UNL d   1      -1.032  -1.435   1.758  0.00  0.00     0.041 A 
ATOM      4  C3  UNL d   1      -0.249  -0.489   1.068  0.00  0.00    -0.075 A 
ATOM      5  S   UNL d   1      -0.012  -0.381  -0.636  0.00  0.00     0.015 SA
ATOM      6  C4  UNL d   1       1.007   0.976  -0.483  0.00  0.00     0.022 A 
ATOM      7  C5  UNL d   1       1.173   1.352   0.829  0.00  0.00     0.026 A 
ATOM      8  C6  UNL d   1       0.452   0.513   1.745  0.00  0.00    -0.082 A 
ATOM      9  C7  UNL d   1       0.358   0.558   3.157  0.00  0.00     0.045 A 
ENDROOT
TORSDOF 0
ENDMDL
