MODEL 1
REMARK minimizedAffinity -1.03142655
REMARK minimizedRMSD -1
REMARK  1 active torsions:
REMARK  status: ('A' for Active; 'I' for Inactive)
REMARK    1  A    between atoms: C3_4  and  O_7 
ROOT
ATOM      1  C   UNL d   1       1.049   0.379  -4.007  0.00  0.00    -0.033 A 
ATOM      2  C1  UNL d   1       0.063  -0.359  -3.350  0.00  0.00     0.039 A 
ATOM      3  C2  UNL d   1       0.271  -0.796  -2.041  0.00  0.00    -0.080 A 
ATOM      4  C3  UNL d   1       1.468  -0.489  -1.400  0.00  0.00     0.150 A 
ATOM      5  C4  UNL d   1       2.453   0.249  -2.046  0.00  0.00    -0.007 A 
ATOM      6  C5  UNL d   1       2.244   0.684  -3.354  0.00  0.00     0.039 A 
ENDROOT
BRANCH   4   7
ATOM      7  O   UNL d   1       1.718  -0.898  -0.124  0.00  0.00    -0.526 OA
ATOM      8  H5  UNL d   1       0.961  -1.422   0.186  0.00  0.00     0.418 HD
ENDBRANCH   4   7
TORSDOF 1
ENDMDL
