MODEL 1
REMARK minimizedAffinity -3.49091506
REMARK minimizedRMSD -1
REMARK  1 active torsions:
REMARK  status: ('A' for Active; 'I' for Inactive)
REMARK    1  A    between atoms: C3_4  and  O_7 
ROOT
ATOM      1  C   UNL d   1       0.221  -0.713  -0.801  0.00  0.00    -0.033 A 
ATOM      2  C1  UNL d   1       1.325  -0.356  -0.025  0.00  0.00     0.039 A 
ATOM      3  C2  UNL d   1       1.149   0.402   1.135  0.00  0.00    -0.080 A 
ATOM      4  C3  UNL d   1      -0.133   0.795   1.506  0.00  0.00     0.150 A 
ATOM      5  C4  UNL d   1      -1.238   0.440   0.739  0.00  0.00    -0.007 A 
ATOM      6  C5  UNL d   1      -1.061  -0.317  -0.418  0.00  0.00     0.039 A 
ENDROOT
BRANCH   4   7
ATOM      7  O   UNL d   1      -0.354   1.539   2.627  0.00  0.00    -0.526 OA
ATOM      8  H5  UNL d   1       0.504   1.734   3.041  0.00  0.00     0.418 HD
ENDBRANCH   4   7
TORSDOF 1
ENDMDL
