MODEL 1
REMARK minimizedAffinity -2.90667582
REMARK minimizedRMSD -1
REMARK  1 active torsions:
REMARK  status: ('A' for Active; 'I' for Inactive)
REMARK    1  A    between atoms: C3_4  and  O_7 
ROOT
ATOM      1  C   UNL d   1      -0.278  -0.276  -0.689  0.00  0.00    -0.033 A 
ATOM      2  C1  UNL d   1      -1.557   0.016  -0.212  0.00  0.00     0.039 A 
ATOM      3  C2  UNL d   1      -1.714   0.694   0.998  0.00  0.00    -0.080 A 
ATOM      4  C3  UNL d   1      -0.586   1.076   1.720  0.00  0.00     0.150 A 
ATOM      5  C4  UNL d   1       0.692   0.791   1.248  0.00  0.00    -0.007 A 
ATOM      6  C5  UNL d   1       0.847   0.113   0.040  0.00  0.00     0.039 A 
ENDROOT
BRANCH   4   7
ATOM      7  O   UNL d   1      -0.689   1.735   2.908  0.00  0.00    -0.526 OA
ATOM      8  H5  UNL d   1      -1.631   1.838   3.122  0.00  0.00     0.418 HD
ENDBRANCH   4   7
TORSDOF 1
ENDMDL
