MODEL 1
REMARK minimizedAffinity -4.21836233
REMARK minimizedRMSD -1
REMARK  1 active torsions:
REMARK  status: ('A' for Active; 'I' for Inactive)
REMARK    1  A    between atoms: C3_4  and  O_7 
ROOT
ATOM      1  C   UNL d   1      -2.274   0.665   1.872  0.00  0.00    -0.033 A 
ATOM      2  C1  UNL d   1      -0.915   0.570   2.176  0.00  0.00     0.039 A 
ATOM      3  C2  UNL d   1       0.006   0.254   1.176  0.00  0.00    -0.080 A 
ATOM      4  C3  UNL d   1      -0.444   0.036  -0.123  0.00  0.00     0.150 A 
ATOM      5  C4  UNL d   1      -1.796   0.133  -0.435  0.00  0.00    -0.007 A 
ATOM      6  C5  UNL d   1      -2.715   0.448   0.566  0.00  0.00     0.039 A 
ENDROOT
BRANCH   4   7
ATOM      7  O   UNL d   1       0.417  -0.280  -1.132  0.00  0.00    -0.526 OA
ATOM      8  H5  UNL d   1       1.314  -0.341  -0.764  0.00  0.00     0.418 HD
ENDBRANCH   4   7
TORSDOF 1
ENDMDL
