MODEL 1
REMARK minimizedAffinity -2.94960022
REMARK minimizedRMSD -1
REMARK  1 active torsions:
REMARK  status: ('A' for Active; 'I' for Inactive)
REMARK    1  A    between atoms: C3_4  and  O_7 
ROOT
ATOM      1  C   UNL d   1      -1.784   0.650   1.542  0.00  0.00    -0.033 A 
ATOM      2  C1  UNL d   1      -0.916   0.446   2.616  0.00  0.00     0.039 A 
ATOM      3  C2  UNL d   1       0.353  -0.095   2.398  0.00  0.00    -0.080 A 
ATOM      4  C3  UNL d   1       0.741  -0.426   1.103  0.00  0.00     0.150 A 
ATOM      5  C4  UNL d   1      -0.117  -0.222   0.027  0.00  0.00    -0.007 A 
ATOM      6  C5  UNL d   1      -1.384   0.317   0.247  0.00  0.00     0.039 A 
ENDROOT
BRANCH   4   7
ATOM      7  O   UNL d   1       1.967  -0.961   0.841  0.00  0.00    -0.526 OA
ATOM      8  H5  UNL d   1       2.441  -1.072   1.683  0.00  0.00     0.418 HD
ENDBRANCH   4   7
TORSDOF 1
ENDMDL
