MODEL 1
REMARK minimizedAffinity -3.38298774
REMARK minimizedRMSD -1
REMARK  1 active torsions:
REMARK  status: ('A' for Active; 'I' for Inactive)
REMARK    1  A    between atoms: C3_4  and  O_7 
ROOT
ATOM      1  C   UNL d   1       0.170   1.782   2.630  0.00  0.00    -0.033 A 
ATOM      2  C1  UNL d   1       0.538   1.871   1.286  0.00  0.00     0.039 A 
ATOM      3  C2  UNL d   1       0.116   0.898   0.378  0.00  0.00    -0.080 A 
ATOM      4  C3  UNL d   1      -0.672  -0.158   0.826  0.00  0.00     0.150 A 
ATOM      5  C4  UNL d   1      -1.046  -0.252   2.163  0.00  0.00    -0.007 A 
ATOM      6  C5  UNL d   1      -0.623   0.721   3.068  0.00  0.00     0.039 A 
ENDROOT
BRANCH   4   7
ATOM      7  O   UNL d   1      -1.104  -1.135  -0.021  0.00  0.00    -0.526 OA
ATOM      8  H5  UNL d   1      -0.745  -0.955  -0.906  0.00  0.00     0.418 HD
ENDBRANCH   4   7
TORSDOF 1
ENDMDL
