MODEL 1
REMARK minimizedAffinity -3.28067589
REMARK minimizedRMSD -1
REMARK  0 active torsions:
REMARK  status: ('A' for Active; 'I' for Inactive)
ROOT
ATOM      1  C   UNL d   1      -0.910  -0.235   0.441  0.00  0.00     0.020 A 
ATOM      2  C1  UNL d   1       0.158   0.620   0.712  0.00  0.00     0.020 A 
ATOM      3  C2  UNL d   1       1.135   0.847  -0.260  0.00  0.00     0.034 A 
ATOM      4  C3  UNL d   1       1.046   0.218  -1.507  0.00  0.00     0.017 A 
ATOM      5  C4  UNL d   1      -0.026  -0.640  -1.778  0.00  0.00     0.017 A 
ATOM      6  C5  UNL d   1      -1.001  -0.863  -0.802  0.00  0.00     0.034 A 
ATOM      7 Cl   UNL d   1      -0.203  -1.452  -3.294  0.00  0.00    -0.070 Cl
ATOM      8 Cl1  UNL d   1       2.290   0.544  -2.662  0.00  0.00    -0.070 Cl
ENDROOT
TORSDOF 0
ENDMDL
