MODEL 1
REMARK minimizedAffinity 1.56084776
REMARK minimizedRMSD -1
REMARK  0 active torsions:
REMARK  status: ('A' for Active; 'I' for Inactive)
ROOT
ATOM      1  C   UNL d   1       2.018   0.138   1.658  0.00  0.00     0.020 A 
ATOM      2  C1  UNL d   1       1.533   1.439   1.782  0.00  0.00     0.020 A 
ATOM      3  C2  UNL d   1       0.553   1.906   0.904  0.00  0.00     0.034 A 
ATOM      4  C3  UNL d   1       0.055   1.071  -0.103  0.00  0.00     0.017 A 
ATOM      5  C4  UNL d   1       0.543  -0.236  -0.227  0.00  0.00     0.017 A 
ATOM      6  C5  UNL d   1       1.524  -0.698   0.656  0.00  0.00     0.034 A 
ATOM      7 Cl   UNL d   1      -0.023  -1.325  -1.444  0.00  0.00    -0.070 Cl
ATOM      8 Cl1  UNL d   1      -1.156   1.713  -1.155  0.00  0.00    -0.070 Cl
ENDROOT
TORSDOF 0
ENDMDL
