MODEL 1
REMARK minimizedAffinity -1.36526263
REMARK minimizedRMSD -1
REMARK  0 active torsions:
REMARK  status: ('A' for Active; 'I' for Inactive)
ROOT
ATOM      1  C   UNL d   1      -1.599  -0.067  -0.544  0.00  0.00     0.020 A 
ATOM      2  C1  UNL d   1      -0.410  -0.625  -1.010  0.00  0.00     0.020 A 
ATOM      3  C2  UNL d   1       0.761  -0.502  -0.259  0.00  0.00     0.034 A 
ATOM      4  C3  UNL d   1       0.744   0.181   0.963  0.00  0.00     0.017 A 
ATOM      5  C4  UNL d   1      -0.451   0.741   1.430  0.00  0.00     0.017 A 
ATOM      6  C5  UNL d   1      -1.620   0.615   0.673  0.00  0.00     0.034 A 
ATOM      7 Cl   UNL d   1      -0.550   1.598   2.927  0.00  0.00    -0.070 Cl
ATOM      8 Cl1  UNL d   1       2.228   0.295   1.840  0.00  0.00    -0.070 Cl
ENDROOT
TORSDOF 0
ENDMDL
