MODEL 1
REMARK minimizedAffinity -5.59407568
REMARK minimizedRMSD -1
REMARK  0 active torsions:
REMARK  status: ('A' for Active; 'I' for Inactive)
ROOT
ATOM      1  C   UNL d   1      -1.008   0.912   2.899  0.00  0.00     0.020 A 
ATOM      2  C1  UNL d   1      -1.736   1.157   1.736  0.00  0.00     0.020 A 
ATOM      3  C2  UNL d   1      -1.258   0.705   0.504  0.00  0.00     0.034 A 
ATOM      4  C3  UNL d   1      -0.049   0.004   0.433  0.00  0.00     0.017 A 
ATOM      5  C4  UNL d   1       0.682  -0.242   1.601  0.00  0.00     0.017 A 
ATOM      6  C5  UNL d   1       0.198   0.214   2.832  0.00  0.00     0.034 A 
ATOM      7 Cl   UNL d   1       2.182  -1.099   1.593  0.00  0.00    -0.070 Cl
ATOM      8 Cl1  UNL d   1       0.482  -0.527  -1.123  0.00  0.00    -0.070 Cl
ENDROOT
TORSDOF 0
ENDMDL
