MODEL 1
REMARK minimizedAffinity -4.23110199
REMARK minimizedRMSD -1
REMARK  0 active torsions:
REMARK  status: ('A' for Active; 'I' for Inactive)
ROOT
ATOM      1  C   UNL d   1       0.142  -0.912  -1.151  0.00  0.00     0.020 A 
ATOM      2  C1  UNL d   1      -1.125  -0.370  -0.932  0.00  0.00     0.020 A 
ATOM      3  C2  UNL d   1      -1.378   0.367   0.226  0.00  0.00     0.034 A 
ATOM      4  C3  UNL d   1      -0.364   0.565   1.171  0.00  0.00     0.017 A 
ATOM      5  C4  UNL d   1       0.906   0.022   0.950  0.00  0.00     0.017 A 
ATOM      6  C5  UNL d   1       1.155  -0.716  -0.211  0.00  0.00     0.034 A 
ATOM      7 Cl   UNL d   1       2.208   0.224   2.070  0.00  0.00    -0.070 Cl
ATOM      8 Cl1  UNL d   1      -0.748   1.488   2.580  0.00  0.00    -0.070 Cl
ENDROOT
TORSDOF 0
ENDMDL
