MODEL 1
REMARK minimizedAffinity -4.39836168
REMARK minimizedRMSD -1
REMARK  0 active torsions:
REMARK  status: ('A' for Active; 'I' for Inactive)
ROOT
ATOM      1  C   UNL d   1      -1.278  -0.348  -0.423  0.00  0.00     0.020 A 
ATOM      2  C1  UNL d   1      -0.055  -0.928  -0.761  0.00  0.00     0.020 A 
ATOM      3  C2  UNL d   1       1.076  -0.676   0.018  0.00  0.00     0.034 A 
ATOM      4  C3  UNL d   1       0.987   0.158   1.139  0.00  0.00     0.017 A 
ATOM      5  C4  UNL d   1      -0.240   0.740   1.477  0.00  0.00     0.017 A 
ATOM      6  C5  UNL d   1      -1.370   0.484   0.693  0.00  0.00     0.034 A 
ATOM      7 Cl   UNL d   1      -0.428   1.780   2.844  0.00  0.00    -0.070 Cl
ATOM      8 Cl1  UNL d   1       2.426   0.426   2.057  0.00  0.00    -0.070 Cl
ENDROOT
TORSDOF 0
ENDMDL
