MODEL 1
REMARK minimizedAffinity -4.11868238
REMARK minimizedRMSD -1
REMARK  0 active torsions:
REMARK  status: ('A' for Active; 'I' for Inactive)
ROOT
ATOM      1  C   UNL d   1      -1.215   1.200   2.734  0.00  0.00     0.020 A 
ATOM      2  C1  UNL d   1      -1.939   1.015   1.556  0.00  0.00     0.020 A 
ATOM      3  C2  UNL d   1      -1.329   0.425   0.447  0.00  0.00     0.034 A 
ATOM      4  C3  UNL d   1       0.009   0.018   0.513  0.00  0.00     0.017 A 
ATOM      5  C4  UNL d   1       0.734   0.204   1.695  0.00  0.00     0.017 A 
ATOM      6  C5  UNL d   1       0.118   0.795   2.803  0.00  0.00     0.034 A 
ATOM      7 Cl   UNL d   1       2.388  -0.272   1.853  0.00  0.00    -0.070 Cl
ATOM      8 Cl1  UNL d   1       0.699  -0.705  -0.896  0.00  0.00    -0.070 Cl
ENDROOT
TORSDOF 0
ENDMDL
