MODEL 1
REMARK minimizedAffinity -4.52302742
REMARK minimizedRMSD -1
REMARK  0 active torsions:
REMARK  status: ('A' for Active; 'I' for Inactive)
ROOT
ATOM      1  C   UNL d   1       0.384   1.403   2.276  0.00  0.00     0.020 A 
ATOM      2  C1  UNL d   1      -0.969   1.376   2.611  0.00  0.00     0.020 A 
ATOM      3  C2  UNL d   1      -1.885   0.744   1.768  0.00  0.00     0.034 A 
ATOM      4  C3  UNL d   1      -1.449   0.135   0.585  0.00  0.00     0.017 A 
ATOM      5  C4  UNL d   1      -0.090   0.163   0.250  0.00  0.00     0.017 A 
ATOM      6  C5  UNL d   1       0.822   0.797   1.098  0.00  0.00     0.034 A 
ATOM      7 Cl   UNL d   1       0.523  -0.566  -1.193  0.00  0.00    -0.070 Cl
ATOM      8 Cl1  UNL d   1      -2.637  -0.629  -0.410  0.00  0.00    -0.070 Cl
ENDROOT
TORSDOF 0
ENDMDL
