MODEL 1
REMARK minimizedAffinity 1.45527947
REMARK minimizedRMSD -1
REMARK  0 active torsions:
REMARK  status: ('A' for Active; 'I' for Inactive)
ROOT
ATOM      1  C   UNL d   1      -1.164  -0.260  -0.458  0.00  0.00     0.020 A 
ATOM      2  C1  UNL d   1      -2.190   0.360   0.255  0.00  0.00     0.020 A 
ATOM      3  C2  UNL d   1      -1.914   0.986   1.472  0.00  0.00     0.034 A 
ATOM      4  C3  UNL d   1      -0.610   0.995   1.980  0.00  0.00     0.017 A 
ATOM      5  C4  UNL d   1       0.419   0.373   1.263  0.00  0.00     0.017 A 
ATOM      6  C5  UNL d   1       0.137  -0.253   0.045  0.00  0.00     0.034 A 
ATOM      7 Cl   UNL d   1       2.053   0.342   1.826  0.00  0.00    -0.070 Cl
ATOM      8 Cl1  UNL d   1      -0.342   1.789   3.491  0.00  0.00    -0.070 Cl
ENDROOT
TORSDOF 0
ENDMDL
