MODEL 1
REMARK minimizedAffinity -2.80728555
REMARK minimizedRMSD -1
REMARK  0 active torsions:
REMARK  status: ('A' for Active; 'I' for Inactive)
ROOT
ATOM      1  C   UNL d   1       0.372  -1.072  -0.618  0.00  0.00     0.020 A 
ATOM      2  C1  UNL d   1      -0.882  -0.497  -0.417  0.00  0.00     0.020 A 
ATOM      3  C2  UNL d   1      -1.121   0.278   0.720  0.00  0.00     0.034 A 
ATOM      4  C3  UNL d   1      -0.104   0.479   1.660  0.00  0.00     0.017 A 
ATOM      5  C4  UNL d   1       1.155  -0.098   1.457  0.00  0.00     0.017 A 
ATOM      6  C5  UNL d   1       1.388  -0.873   0.317  0.00  0.00     0.034 A 
ATOM      7 Cl   UNL d   1       2.459   0.106   2.573  0.00  0.00    -0.070 Cl
ATOM      8 Cl1  UNL d   1      -0.469   1.449   3.043  0.00  0.00    -0.070 Cl
ENDROOT
TORSDOF 0
ENDMDL
