MODEL 1
REMARK minimizedAffinity 5.59067154
REMARK minimizedRMSD -1
REMARK  0 active torsions:
REMARK  status: ('A' for Active; 'I' for Inactive)
ROOT
ATOM      1  C2' OXE d   1       2.132  -0.052  -3.891  0.00  0.00     0.078 C 
ATOM      2  C1' OXE d   1      -0.095  -0.642  -5.496  0.00  0.00     0.078 C 
ATOM      3  C1  OXE d   1      -0.127  -1.091  -4.056  0.00  0.00    -0.078 A 
ATOM      4  C2  OXE d   1       0.987  -0.839  -3.291  0.00  0.00    -0.078 A 
ATOM      5  C3  OXE d   1       0.988  -1.183  -1.942  0.00  0.00     0.003 A 
ATOM      6  C4  OXE d   1      -0.070  -1.920  -1.397  0.00  0.00    -0.002 A 
ATOM      7  C5  OXE d   1      -1.197  -2.222  -2.170  0.00  0.00    -0.002 A 
ATOM      8  C6  OXE d   1      -1.259  -1.778  -3.487  0.00  0.00     0.003 A 
ENDROOT
TORSDOF 0
ENDMDL
