MODEL 1
REMARK minimizedAffinity 12.9380121
REMARK minimizedRMSD -1
REMARK  0 active torsions:
REMARK  status: ('A' for Active; 'I' for Inactive)
ROOT
ATOM      1  C2' OXE d   1      -2.082  -4.109  -2.491  0.00  0.00     0.078 C 
ATOM      2  C1' OXE d   1      -1.958  -4.363  -5.284  0.00  0.00     0.078 C 
ATOM      3  C1  OXE d   1      -1.239  -3.198  -4.651  0.00  0.00    -0.078 A 
ATOM      4  C2  OXE d   1      -1.343  -3.055  -3.288  0.00  0.00    -0.078 A 
ATOM      5  C3  OXE d   1      -0.654  -2.030  -2.647  0.00  0.00     0.003 A 
ATOM      6  C4  OXE d   1       0.018  -1.054  -3.393  0.00  0.00    -0.002 A 
ATOM      7  C5  OXE d   1       0.104  -1.158  -4.785  0.00  0.00    -0.002 A 
ATOM      8  C6  OXE d   1      -0.482  -2.245  -5.425  0.00  0.00     0.003 A 
ENDROOT
TORSDOF 0
ENDMDL
