MODEL 1
REMARK minimizedAffinity 3.72317648
REMARK minimizedRMSD -1
REMARK  0 active torsions:
REMARK  status: ('A' for Active; 'I' for Inactive)
ROOT
ATOM      1  C2' OXE d   1      -0.244  -1.265  -4.498  0.00  0.00     0.078 C 
ATOM      2  C1' OXE d   1      -0.821  -2.727  -2.172  0.00  0.00     0.078 C 
ATOM      3  C1  OXE d   1      -1.153  -3.359  -3.500  0.00  0.00    -0.078 A 
ATOM      4  C2  OXE d   1      -0.911  -2.617  -4.631  0.00  0.00    -0.078 A 
ATOM      5  C3  OXE d   1      -1.148  -3.174  -5.885  0.00  0.00     0.003 A 
ATOM      6  C4  OXE d   1      -1.774  -4.421  -5.999  0.00  0.00    -0.002 A 
ATOM      7  C5  OXE d   1      -2.066  -5.177  -4.859  0.00  0.00    -0.002 A 
ATOM      8  C6  OXE d   1      -1.723  -4.679  -3.606  0.00  0.00     0.003 A 
ENDROOT
TORSDOF 0
ENDMDL
