MODEL 1
REMARK minimizedAffinity 11.1000996
REMARK minimizedRMSD -1
REMARK  0 active torsions:
REMARK  status: ('A' for Active; 'I' for Inactive)
ROOT
ATOM      1  C2' OXE d   1      -5.245   2.629  -0.305  0.00  0.00     0.078 C 
ATOM      2  C1' OXE d   1      -5.014   0.471  -2.085  0.00  0.00     0.078 C 
ATOM      3  C1  OXE d   1      -4.261   0.390  -0.780  0.00  0.00    -0.078 A 
ATOM      4  C2  OXE d   1      -4.343   1.471   0.064  0.00  0.00    -0.078 A 
ATOM      5  C3  OXE d   1      -3.713   1.426   1.305  0.00  0.00     0.003 A 
ATOM      6  C4  OXE d   1      -2.873   0.356   1.634  0.00  0.00    -0.002 A 
ATOM      7  C5  OXE d   1      -2.744  -0.738   0.771  0.00  0.00    -0.002 A 
ATOM      8  C6  OXE d   1      -3.464  -0.755  -0.418  0.00  0.00     0.003 A 
ENDROOT
TORSDOF 0
ENDMDL
