MODEL 1
REMARK minimizedAffinity 5.84292507
REMARK minimizedRMSD -1
REMARK  0 active torsions:
REMARK  status: ('A' for Active; 'I' for Inactive)
ROOT
ATOM      1  C2' OXE d   1      -0.381   1.949   3.118  0.00  0.00     0.078 C 
ATOM      2  C1' OXE d   1       0.739   1.433   5.640  0.00  0.00     0.078 C 
ATOM      3  C1  OXE d   1       0.910   0.387   4.567  0.00  0.00    -0.078 A 
ATOM      4  C2  OXE d   1       0.319   0.627   3.350  0.00  0.00    -0.078 A 
ATOM      5  C3  OXE d   1       0.492  -0.280   2.309  0.00  0.00     0.003 A 
ATOM      6  C4  OXE d   1       1.131  -1.505   2.534  0.00  0.00    -0.002 A 
ATOM      7  C5  OXE d   1       1.707  -1.787   3.778  0.00  0.00    -0.002 A 
ATOM      8  C6  OXE d   1       1.642  -0.835   4.790  0.00  0.00     0.003 A 
ENDROOT
TORSDOF 0
ENDMDL
