MODEL 1
REMARK minimizedAffinity 7.76393795
REMARK minimizedRMSD -1
REMARK  0 active torsions:
REMARK  status: ('A' for Active; 'I' for Inactive)
ROOT
ATOM      1  C2' OXE d   1      -2.378  -4.812  -2.405  0.00  0.00     0.078 C 
ATOM      2  C1' OXE d   1      -2.126  -2.451  -3.903  0.00  0.00     0.078 C 
ATOM      3  C1  OXE d   1      -1.413  -3.683  -4.405  0.00  0.00    -0.078 A 
ATOM      4  C2  OXE d   1      -1.504  -4.821  -3.640  0.00  0.00    -0.078 A 
ATOM      5  C3  OXE d   1      -0.911  -5.999  -4.085  0.00  0.00     0.003 A 
ATOM      6  C4  OXE d   1      -0.096  -5.996  -5.224  0.00  0.00    -0.002 A 
ATOM      7  C5  OXE d   1       0.042  -4.837  -5.995  0.00  0.00    -0.002 A 
ATOM      8  C6  OXE d   1      -0.643  -3.686  -5.624  0.00  0.00     0.003 A 
ENDROOT
TORSDOF 0
ENDMDL
