MODEL 1
REMARK minimizedAffinity 15.7467813
REMARK minimizedRMSD -1
REMARK  0 active torsions:
REMARK  status: ('A' for Active; 'I' for Inactive)
ROOT
ATOM      1  C2' OXE d   1      -1.299  -3.606  -6.000  0.00  0.00     0.078 C 
ATOM      2  C1' OXE d   1       1.451  -4.161  -5.886  0.00  0.00     0.078 C 
ATOM      3  C1  OXE d   1       0.966  -2.875  -5.264  0.00  0.00    -0.078 A 
ATOM      4  C2  OXE d   1      -0.374  -2.590  -5.365  0.00  0.00    -0.078 A 
ATOM      5  C3  OXE d   1      -0.883  -1.443  -4.761  0.00  0.00     0.003 A 
ATOM      6  C4  OXE d   1      -0.020  -0.503  -4.185  0.00  0.00    -0.002 A 
ATOM      7  C5  OXE d   1       1.354  -0.756  -4.106  0.00  0.00    -0.002 A 
ATOM      8  C6  OXE d   1       1.856  -1.954  -4.602  0.00  0.00     0.003 A 
ENDROOT
TORSDOF 0
ENDMDL
