MODEL 1
REMARK minimizedAffinity 10.2609415
REMARK minimizedRMSD -1
REMARK  0 active torsions:
REMARK  status: ('A' for Active; 'I' for Inactive)
ROOT
ATOM      1  C2' OXE d   1       1.931   0.556   3.255  0.00  0.00     0.078 C 
ATOM      2  C1' OXE d   1       0.746  -1.758   2.194  0.00  0.00     0.078 C 
ATOM      3  C1  OXE d   1      -0.085  -0.500   2.241  0.00  0.00    -0.078 A 
ATOM      4  C2  OXE d   1       0.487   0.615   2.805  0.00  0.00    -0.078 A 
ATOM      5  C3  OXE d   1      -0.217   1.816   2.824  0.00  0.00     0.003 A 
ATOM      6  C4  OXE d   1      -1.555   1.860   2.414  0.00  0.00    -0.002 A 
ATOM      7  C5  OXE d   1      -2.170   0.725   1.874  0.00  0.00    -0.002 A 
ATOM      8  C6  OXE d   1      -1.437  -0.449   1.741  0.00  0.00     0.003 A 
ENDROOT
TORSDOF 0
ENDMDL
