MODEL 1
REMARK minimizedAffinity 17.3465996
REMARK minimizedRMSD -1
REMARK  0 active torsions:
REMARK  status: ('A' for Active; 'I' for Inactive)
ROOT
ATOM      1  C2' OXE d   1       1.862  -2.024   2.824  0.00  0.00     0.078 C 
ATOM      2  C1' OXE d   1       3.471  -2.761   5.002  0.00  0.00     0.078 C 
ATOM      3  C1  OXE d   1       2.052  -3.270   4.972  0.00  0.00    -0.078 A 
ATOM      4  C2  OXE d   1       1.257  -2.866   3.927  0.00  0.00    -0.078 A 
ATOM      5  C3  OXE d   1      -0.044  -3.350   3.822  0.00  0.00     0.003 A 
ATOM      6  C4  OXE d   1      -0.598  -4.120   4.852  0.00  0.00    -0.002 A 
ATOM      7  C5  OXE d   1       0.182  -4.510   5.946  0.00  0.00    -0.002 A 
ATOM      8  C6  OXE d   1       1.518  -4.129   6.000  0.00  0.00     0.003 A 
ENDROOT
TORSDOF 0
ENDMDL
