MODEL 1
REMARK minimizedAffinity 9.47785568
REMARK minimizedRMSD -1
REMARK  0 active torsions:
REMARK  status: ('A' for Active; 'I' for Inactive)
ROOT
ATOM      1  C2' OXE d   1       5.582  -1.536   5.818  0.00  0.00     0.078 C 
ATOM      2  C1' OXE d   1       4.424   0.609   4.425  0.00  0.00     0.078 C 
ATOM      3  C1  OXE d   1       3.670  -0.696   4.460  0.00  0.00    -0.078 A 
ATOM      4  C2  OXE d   1       4.266  -1.754   5.104  0.00  0.00    -0.078 A 
ATOM      5  C3  OXE d   1       3.588  -2.965   5.213  0.00  0.00     0.003 A 
ATOM      6  C4  OXE d   1       2.376  -3.162   4.541  0.00  0.00    -0.002 A 
ATOM      7  C5  OXE d   1       1.770  -2.109   3.846  0.00  0.00    -0.002 A 
ATOM      8  C6  OXE d   1       2.382  -0.861   3.832  0.00  0.00     0.003 A 
ENDROOT
TORSDOF 0
ENDMDL
