MODEL 1
REMARK minimizedAffinity 20.7268581
REMARK minimizedRMSD -1
REMARK  0 active torsions:
REMARK  status: ('A' for Active; 'I' for Inactive)
ROOT
ATOM      1  C2' OXE d   1      -0.479  -0.923  -5.336  0.00  0.00     0.078 C 
ATOM      2  C1' OXE d   1       1.651  -0.446  -3.570  0.00  0.00     0.078 C 
ATOM      3  C1  OXE d   1       0.455  -1.199  -3.043  0.00  0.00    -0.078 A 
ATOM      4  C2  OXE d   1      -0.602  -1.387  -3.900  0.00  0.00    -0.078 A 
ATOM      5  C3  OXE d   1      -1.708  -2.122  -3.481  0.00  0.00     0.003 A 
ATOM      6  C4  OXE d   1      -1.818  -2.539  -2.149  0.00  0.00    -0.002 A 
ATOM      7  C5  OXE d   1      -0.769  -2.324  -1.249  0.00  0.00    -0.002 A 
ATOM      8  C6  OXE d   1       0.389  -1.694  -1.690  0.00  0.00     0.003 A 
ENDROOT
TORSDOF 0
ENDMDL
