MODEL 1
REMARK minimizedAffinity 18.767252
REMARK minimizedRMSD -1
REMARK  0 active torsions:
REMARK  status: ('A' for Active; 'I' for Inactive)
ROOT
ATOM      1  C2' OXE d   1      -0.576  -0.373  -6.000  0.00  0.00     0.078 C 
ATOM      2  C1' OXE d   1       1.364   0.378  -4.114  0.00  0.00     0.078 C 
ATOM      3  C1  OXE d   1       0.372  -0.686  -3.717  0.00  0.00    -0.078 A 
ATOM      4  C2  OXE d   1      -0.603  -1.014  -4.629  0.00  0.00    -0.078 A 
ATOM      5  C3  OXE d   1      -1.509  -2.029  -4.335  0.00  0.00     0.003 A 
ATOM      6  C4  OXE d   1      -1.533  -2.610  -3.061  0.00  0.00    -0.002 A 
ATOM      7  C5  OXE d   1      -0.575  -2.262  -2.103  0.00  0.00    -0.002 A 
ATOM      8  C6  OXE d   1       0.409  -1.334  -2.430  0.00  0.00     0.003 A 
ENDROOT
TORSDOF 0
ENDMDL
