MODEL 1
REMARK minimizedAffinity 10.7542677
REMARK minimizedRMSD -1
REMARK  0 active torsions:
REMARK  status: ('A' for Active; 'I' for Inactive)
ROOT
ATOM      1  C2' OXE d   1      -0.383  -1.270  -4.316  0.00  0.00     0.078 C 
ATOM      2  C1' OXE d   1      -1.463  -2.651  -2.123  0.00  0.00     0.078 C 
ATOM      3  C1  OXE d   1      -1.489  -3.334  -3.467  0.00  0.00    -0.078 A 
ATOM      4  C2  OXE d   1      -1.001  -2.633  -4.543  0.00  0.00    -0.078 A 
ATOM      5  C3  OXE d   1      -0.952  -3.238  -5.796  0.00  0.00     0.003 A 
ATOM      6  C4  OXE d   1      -1.535  -4.494  -6.000  0.00  0.00    -0.002 A 
ATOM      7  C5  OXE d   1      -2.073  -5.210  -4.925  0.00  0.00    -0.002 A 
ATOM      8  C6  OXE d   1      -2.020  -4.663  -3.648  0.00  0.00     0.003 A 
ENDROOT
TORSDOF 0
ENDMDL
