MODEL 1
REMARK minimizedAffinity 5.91793966
REMARK minimizedRMSD -1
REMARK  1 active torsions:
REMARK  status: ('A' for Active; 'I' for Inactive)
REMARK    1  A    between atoms: C1_2  and  C2_3 
ROOT
ATOM      1  C2  UNL d   1       0.177  -0.766   2.499  0.00  0.00    -0.073 A 
ATOM      2  C3  UNL d   1       1.109  -1.507   1.764  0.00  0.00    -0.002 A 
ATOM      3  C4  UNL d   1       2.218  -2.071   2.396  0.00  0.00     0.004 A 
ATOM      4  C5  UNL d   1       2.403  -1.905   3.769  0.00  0.00    -0.004 A 
ATOM      5  C6  UNL d   1       1.476  -1.178   4.523  0.00  0.00    -0.075 A 
ATOM      6  C7  UNL d   1       1.661  -0.989   6.000  0.00  0.00     0.076 C 
ATOM      7  C8  UNL d   1       0.366  -0.613   3.880  0.00  0.00     0.001 A 
ENDROOT
BRANCH   1   8
ATOM      8  C1  UNL d   1      -1.026  -0.162   1.822  0.00  0.00     0.053 C 
ATOM      9  C   UNL d   1      -2.226  -1.096   1.850  0.00  0.00     0.018 C 
ENDBRANCH   1   8
TORSDOF 1
ENDMDL
