MODEL 1
REMARK minimizedAffinity 0.316441715
REMARK minimizedRMSD -1
REMARK  1 active torsions:
REMARK  status: ('A' for Active; 'I' for Inactive)
REMARK    1  A    between atoms: C1_2  and  C2_3 
ROOT
ATOM      1  C2  UNL d   1       0.565  -0.997   2.885  0.00  0.00    -0.073 A 
ATOM      2  C3  UNL d   1       0.645   0.081   1.996  0.00  0.00    -0.002 A 
ATOM      3  C4  UNL d   1      -0.499   0.542   1.342  0.00  0.00     0.004 A 
ATOM      4  C5  UNL d   1      -1.733  -0.063   1.576  0.00  0.00    -0.004 A 
ATOM      5  C6  UNL d   1      -1.835  -1.134   2.470  0.00  0.00    -0.075 A 
ATOM      6  C7  UNL d   1      -3.155  -1.798   2.731  0.00  0.00     0.076 C 
ATOM      7  C8  UNL d   1      -0.682  -1.593   3.120  0.00  0.00     0.001 A 
ENDROOT
BRANCH   1   8
ATOM      8  C1  UNL d   1       1.796  -1.494   3.597  0.00  0.00     0.053 C 
ATOM      9  C   UNL d   1       1.803  -1.100   5.066  0.00  0.00     0.018 C 
ENDBRANCH   1   8
TORSDOF 1
ENDMDL
