MODEL 1
REMARK minimizedAffinity 8.90370083
REMARK minimizedRMSD -1
REMARK  1 active torsions:
REMARK  status: ('A' for Active; 'I' for Inactive)
REMARK    1  A    between atoms: C1_2  and  C2_3 
ROOT
ATOM      1  C2  UNL d   1       0.298  -1.293  -5.017  0.00  0.00    -0.073 A 
ATOM      2  C3  UNL d   1       1.221  -0.541  -5.753  0.00  0.00    -0.002 A 
ATOM      3  C4  UNL d   1       2.549  -0.449  -5.333  0.00  0.00     0.004 A 
ATOM      4  C5  UNL d   1       2.969  -1.112  -4.180  0.00  0.00    -0.004 A 
ATOM      5  C6  UNL d   1       2.064  -1.877  -3.438  0.00  0.00    -0.075 A 
ATOM      6  C7  UNL d   1       2.499  -2.595  -2.194  0.00  0.00     0.076 C 
ATOM      7  C8  UNL d   1       0.732  -1.963  -3.864  0.00  0.00     0.001 A 
ENDROOT
BRANCH   1   8
ATOM      8  C1  UNL d   1      -1.135  -1.400  -5.469  0.00  0.00     0.053 C 
ATOM      9  C   UNL d   1      -1.945  -0.168  -5.097  0.00  0.00     0.018 C 
ENDBRANCH   1   8
TORSDOF 1
ENDMDL
