MODEL 1
REMARK minimizedAffinity 7.18921232
REMARK minimizedRMSD -1
REMARK  1 active torsions:
REMARK  status: ('A' for Active; 'I' for Inactive)
REMARK    1  A    between atoms: C1_2  and  C2_3 
ROOT
ATOM      1  C2  UNL d   1       0.788  -0.451  -5.327  0.00  0.00    -0.073 A 
ATOM      2  C3  UNL d   1       0.768  -1.582  -4.503  0.00  0.00    -0.002 A 
ATOM      3  C4  UNL d   1      -0.446  -2.110  -4.061  0.00  0.00     0.004 A 
ATOM      4  C5  UNL d   1      -1.650  -1.520  -4.445  0.00  0.00    -0.004 A 
ATOM      5  C6  UNL d   1      -1.651  -0.396  -5.278  0.00  0.00    -0.075 A 
ATOM      6  C7  UNL d   1      -2.937   0.252  -5.698  0.00  0.00     0.076 C 
ATOM      7  C8  UNL d   1      -0.428   0.130  -5.715  0.00  0.00     0.001 A 
ENDROOT
BRANCH   1   8
ATOM      8  C1  UNL d   1       2.096   0.119  -5.812  0.00  0.00     0.053 C 
ATOM      9  C   UNL d   1       3.286  -0.486  -5.084  0.00  0.00     0.018 C 
ENDBRANCH   1   8
TORSDOF 1
ENDMDL
