MODEL 1
REMARK minimizedAffinity 6.8385129
REMARK minimizedRMSD -1
REMARK  1 active torsions:
REMARK  status: ('A' for Active; 'I' for Inactive)
REMARK    1  A    between atoms: C1_2  and  C2_3 
ROOT
ATOM      1  C2  UNL d   1       1.388  -1.541   3.091  0.00  0.00    -0.073 A 
ATOM      2  C3  UNL d   1       0.525  -2.593   2.764  0.00  0.00    -0.002 A 
ATOM      3  C4  UNL d   1      -0.657  -2.345   2.066  0.00  0.00     0.004 A 
ATOM      4  C5  UNL d   1      -0.986  -1.044   1.683  0.00  0.00    -0.004 A 
ATOM      5  C6  UNL d   1      -0.132   0.019   1.991  0.00  0.00    -0.075 A 
ATOM      6  C7  UNL d   1      -0.472   1.424   1.588  0.00  0.00     0.076 C 
ATOM      7  C8  UNL d   1       1.053  -0.238   2.694  0.00  0.00     0.001 A 
ENDROOT
BRANCH   1   8
ATOM      8  C1  UNL d   1       2.669  -1.805   3.839  0.00  0.00     0.053 C 
ATOM      9  C   UNL d   1       2.592  -1.338   5.284  0.00  0.00     0.018 C 
ENDBRANCH   1   8
TORSDOF 1
ENDMDL
