MODEL 1
REMARK minimizedAffinity -0.46787411
REMARK minimizedRMSD -1
REMARK  1 active torsions:
REMARK  status: ('A' for Active; 'I' for Inactive)
REMARK    1  A    between atoms: C1_2  and  C2_3 
ROOT
ATOM      1  C2  UNL d   1      -0.525  -1.064   2.718  0.00  0.00    -0.073 A 
ATOM      2  C3  UNL d   1       0.516  -1.027   1.783  0.00  0.00    -0.002 A 
ATOM      3  C4  UNL d   1       1.843  -0.958   2.208  0.00  0.00     0.004 A 
ATOM      4  C5  UNL d   1       2.144  -0.933   3.570  0.00  0.00    -0.004 A 
ATOM      5  C6  UNL d   1       1.118  -0.981   4.520  0.00  0.00    -0.075 A 
ATOM      6  C7  UNL d   1       1.424  -0.952   5.989  0.00  0.00     0.076 C 
ATOM      7  C8  UNL d   1      -0.213  -1.048   4.085  0.00  0.00     0.001 A 
ENDROOT
BRANCH   1   8
ATOM      8  C1  UNL d   1      -1.960  -1.145   2.264  0.00  0.00     0.053 C 
ATOM      9  C   UNL d   1      -2.321  -0.015   1.313  0.00  0.00     0.018 C 
ENDBRANCH   1   8
TORSDOF 1
ENDMDL
