MODEL 1
REMARK minimizedAffinity 2.916538
REMARK minimizedRMSD -1
REMARK  1 active torsions:
REMARK  status: ('A' for Active; 'I' for Inactive)
REMARK    1  A    between atoms: C1_2  and  C2_3 
ROOT
ATOM      1  C2  UNL d   1       2.277  -0.508  -5.258  0.00  0.00    -0.073 A 
ATOM      2  C3  UNL d   1       2.301  -0.778  -3.885  0.00  0.00    -0.002 A 
ATOM      3  C4  UNL d   1       3.516  -0.844  -3.200  0.00  0.00     0.004 A 
ATOM      4  C5  UNL d   1       4.716  -0.634  -3.879  0.00  0.00    -0.004 A 
ATOM      5  C6  UNL d   1       4.712  -0.351  -5.248  0.00  0.00    -0.075 A 
ATOM      6  C7  UNL d   1       5.995  -0.125  -5.993  0.00  0.00     0.076 C 
ATOM      7  C8  UNL d   1       3.489  -0.289  -5.929  0.00  0.00     0.001 A 
ENDROOT
BRANCH   1   8
ATOM      8  C1  UNL d   1       0.968  -0.430  -6.000  0.00  0.00     0.053 C 
ATOM      9  C   UNL d   1      -0.145  -1.166  -5.271  0.00  0.00     0.018 C 
ENDBRANCH   1   8
TORSDOF 1
ENDMDL
