MODEL 1
REMARK minimizedAffinity 2.73113465
REMARK minimizedRMSD -1
REMARK  1 active torsions:
REMARK  status: ('A' for Active; 'I' for Inactive)
REMARK    1  A    between atoms: C1_2  and  C2_3 
ROOT
ATOM      1  C2  UNL d   1      -0.192  -0.970   2.512  0.00  0.00    -0.073 A 
ATOM      2  C3  UNL d   1       0.856  -1.483   1.739  0.00  0.00    -0.002 A 
ATOM      3  C4  UNL d   1       2.054  -1.868   2.342  0.00  0.00     0.004 A 
ATOM      4  C5  UNL d   1       2.213  -1.751   3.723  0.00  0.00    -0.004 A 
ATOM      5  C6  UNL d   1       1.173  -1.253   4.514  0.00  0.00    -0.075 A 
ATOM      6  C7  UNL d   1       1.330  -1.119   6.000  0.00  0.00     0.076 C 
ATOM      7  C8  UNL d   1      -0.026  -0.866   3.900  0.00  0.00     0.001 A 
ENDROOT
BRANCH   1   8
ATOM      8  C1  UNL d   1      -1.490  -0.559   1.865  0.00  0.00     0.053 C 
ATOM      9  C   UNL d   1      -2.629  -1.501   2.223  0.00  0.00     0.018 C 
ENDBRANCH   1   8
TORSDOF 1
ENDMDL
