MODEL 1
REMARK minimizedAffinity 16.3633862
REMARK minimizedRMSD -1
REMARK  1 active torsions:
REMARK  status: ('A' for Active; 'I' for Inactive)
REMARK    1  A    between atoms: C1_2  and  C2_3 
ROOT
ATOM      1  C2  UNL d   1      -0.266  -1.738   1.593  0.00  0.00    -0.081 A 
ATOM      2  C3  UNL d   1      -0.443  -0.411   2.006  0.00  0.00     0.006 A 
ATOM      3  C4  UNL d   1      -1.639   0.260   1.741  0.00  0.00     0.002 A 
ATOM      4  C5  UNL d   1      -2.680  -0.385   1.066  0.00  0.00    -0.080 A 
ATOM      5  C6  UNL d   1      -3.980   0.314   0.801  0.00  0.00     0.076 C 
ATOM      6  C7  UNL d   1      -2.498  -1.705   0.637  0.00  0.00     0.002 A 
ATOM      7  C8  UNL d   1      -1.302  -2.376   0.902  0.00  0.00     0.006 A 
ENDROOT
BRANCH   1   8
ATOM      8  C1  UNL d   1       0.997  -2.485   1.934  0.00  0.00     0.054 C 
ATOM      9  C   UNL d   1       1.892  -1.668   2.856  0.00  0.00     0.018 C 
ENDBRANCH   1   8
TORSDOF 1
ENDMDL
