MODEL 1
REMARK minimizedAffinity 16.0575771
REMARK minimizedRMSD -1
REMARK  1 active torsions:
REMARK  status: ('A' for Active; 'I' for Inactive)
REMARK    1  A    between atoms: C1_2  and  C2_3 
ROOT
ATOM      1  C2  UNL d   1       4.734   3.741  -2.000  0.00  0.00    -0.081 A 
ATOM      2  C3  UNL d   1       4.069   3.954  -3.214  0.00  0.00     0.006 A 
ATOM      3  C4  UNL d   1       2.864   3.302  -3.485  0.00  0.00     0.002 A 
ATOM      4  C5  UNL d   1       2.300   2.433  -2.545  0.00  0.00    -0.080 A 
ATOM      5  C6  UNL d   1       0.991   1.750  -2.812  0.00  0.00     0.076 C 
ATOM      6  C7  UNL d   1       2.972   2.207  -1.339  0.00  0.00     0.002 A 
ATOM      7  C8  UNL d   1       4.178   2.858  -1.068  0.00  0.00     0.006 A 
ENDROOT
BRANCH   1   8
ATOM      8  C1  UNL d   1       6.000   4.493  -1.677  0.00  0.00     0.054 C 
ATOM      9  C   UNL d   1       5.811   5.994  -1.845  0.00  0.00     0.018 C 
ENDBRANCH   1   8
TORSDOF 1
ENDMDL
