MODEL 1
REMARK minimizedAffinity 18.246706
REMARK minimizedRMSD -1
REMARK  1 active torsions:
REMARK  status: ('A' for Active; 'I' for Inactive)
REMARK    1  A    between atoms: C1_2  and  C2_3 
ROOT
ATOM      1  C2  UNL d   1       0.115   3.893  -3.490  0.00  0.00    -0.081 A 
ATOM      2  C3  UNL d   1      -0.200   2.882  -2.573  0.00  0.00     0.006 A 
ATOM      3  C4  UNL d   1       0.811   2.120  -1.984  0.00  0.00     0.002 A 
ATOM      4  C5  UNL d   1       2.154   2.361  -2.294  0.00  0.00    -0.080 A 
ATOM      5  C6  UNL d   1       3.251   1.571  -1.646  0.00  0.00     0.076 C 
ATOM      6  C7  UNL d   1       2.468   3.360  -3.223  0.00  0.00     0.002 A 
ATOM      7  C8  UNL d   1       1.457   4.121  -3.813  0.00  0.00     0.006 A 
ENDROOT
BRANCH   1   8
ATOM      8  C1  UNL d   1      -0.969   4.760  -4.078  0.00  0.00     0.054 C 
ATOM      9  C   UNL d   1      -0.733   5.012  -5.560  0.00  0.00     0.018 C 
ENDBRANCH   1   8
TORSDOF 1
ENDMDL
