MODEL 1
REMARK minimizedAffinity 16.0714741
REMARK minimizedRMSD -1
REMARK  1 active torsions:
REMARK  status: ('A' for Active; 'I' for Inactive)
REMARK    1  A    between atoms: C1_2  and  C2_3 
ROOT
ATOM      1  C2  UNL d   1      -1.905  -0.372   2.549  0.00  0.00    -0.081 A 
ATOM      2  C3  UNL d   1      -3.009  -0.980   1.940  0.00  0.00     0.006 A 
ATOM      3  C4  UNL d   1      -2.849  -2.140   1.178  0.00  0.00     0.002 A 
ATOM      4  C5  UNL d   1      -1.583  -2.716   1.020  0.00  0.00    -0.080 A 
ATOM      5  C6  UNL d   1      -1.401  -3.978   0.231  0.00  0.00     0.076 C 
ATOM      6  C7  UNL d   1      -0.477  -2.099   1.615  0.00  0.00     0.002 A 
ATOM      7  C8  UNL d   1      -0.638  -0.939   2.376  0.00  0.00     0.006 A 
ENDROOT
BRANCH   1   8
ATOM      8  C1  UNL d   1      -2.085   0.842   3.424  0.00  0.00     0.054 C 
ATOM      9  C   UNL d   1      -1.964   0.484   4.899  0.00  0.00     0.018 C 
ENDBRANCH   1   8
TORSDOF 1
ENDMDL
