MODEL 1
REMARK minimizedAffinity 13.8365107
REMARK minimizedRMSD -1
REMARK  1 active torsions:
REMARK  status: ('A' for Active; 'I' for Inactive)
REMARK    1  A    between atoms: C1_2  and  C2_3 
ROOT
ATOM      1  C2  UNL d   1       0.296   3.595  -3.419  0.00  0.00    -0.081 A 
ATOM      2  C3  UNL d   1       1.533   3.885  -4.008  0.00  0.00     0.006 A 
ATOM      3  C4  UNL d   1       2.713   3.364  -3.470  0.00  0.00     0.002 A 
ATOM      4  C5  UNL d   1       2.675   2.540  -2.341  0.00  0.00    -0.080 A 
ATOM      5  C6  UNL d   1       3.931   1.951  -1.772  0.00  0.00     0.076 C 
ATOM      6  C7  UNL d   1       1.441   2.265  -1.741  0.00  0.00     0.002 A 
ATOM      7  C8  UNL d   1       0.261   2.785  -2.278  0.00  0.00     0.006 A 
ENDROOT
BRANCH   1   8
ATOM      8  C1  UNL d   1      -0.983   4.101  -4.034  0.00  0.00     0.054 C 
ATOM      9  C   UNL d   1      -0.710   4.902  -5.299  0.00  0.00     0.018 C 
ENDBRANCH   1   8
TORSDOF 1
ENDMDL
