MODEL 1
REMARK minimizedAffinity 10.0288153
REMARK minimizedRMSD -1
REMARK  1 active torsions:
REMARK  status: ('A' for Active; 'I' for Inactive)
REMARK    1  A    between atoms: C1_2  and  C2_3 
ROOT
ATOM      1  C2  UNL d   1      -0.265   4.852  -4.372  0.00  0.00    -0.081 A 
ATOM      2  C3  UNL d   1       0.747   5.463  -3.622  0.00  0.00     0.006 A 
ATOM      3  C4  UNL d   1       1.538   4.708  -2.752  0.00  0.00     0.002 A 
ATOM      4  C5  UNL d   1       1.335   3.330  -2.623  0.00  0.00    -0.080 A 
ATOM      5  C6  UNL d   1       2.196   2.504  -1.715  0.00  0.00     0.076 C 
ATOM      6  C7  UNL d   1       0.312   2.722  -3.359  0.00  0.00     0.002 A 
ATOM      7  C8  UNL d   1      -0.479   3.476  -4.229  0.00  0.00     0.006 A 
ENDROOT
BRANCH   1   8
ATOM      8  C1  UNL d   1      -1.077   5.651  -5.360  0.00  0.00     0.054 C 
ATOM      9  C   UNL d   1      -2.519   5.169  -5.409  0.00  0.00     0.018 C 
ENDBRANCH   1   8
TORSDOF 1
ENDMDL
