MODEL 1
REMARK minimizedAffinity 7.49957561
REMARK minimizedRMSD -1
REMARK  1 active torsions:
REMARK  status: ('A' for Active; 'I' for Inactive)
REMARK    1  A    between atoms: C1_2  and  C2_3 
ROOT
ATOM      1  C2  UNL d   1       4.752   2.135  -3.430  0.00  0.00    -0.081 A 
ATOM      2  C3  UNL d   1       4.714   0.745  -3.597  0.00  0.00     0.006 A 
ATOM      3  C4  UNL d   1       3.539   0.034  -3.344  0.00  0.00     0.002 A 
ATOM      4  C5  UNL d   1       2.381   0.700  -2.928  0.00  0.00    -0.080 A 
ATOM      5  C6  UNL d   1       1.105  -0.048  -2.682  0.00  0.00     0.076 C 
ATOM      6  C7  UNL d   1       2.424   2.087  -2.745  0.00  0.00     0.002 A 
ATOM      7  C8  UNL d   1       3.599   2.798  -2.997  0.00  0.00     0.006 A 
ENDROOT
BRANCH   1   8
ATOM      8  C1  UNL d   1       5.999   2.913  -3.765  0.00  0.00     0.054 C 
ATOM      9  C   UNL d   1       6.000   4.275  -3.086  0.00  0.00     0.018 C 
ENDBRANCH   1   8
TORSDOF 1
ENDMDL
