MODEL 1
REMARK minimizedAffinity 15.9497442
REMARK minimizedRMSD -1
REMARK  1 active torsions:
REMARK  status: ('A' for Active; 'I' for Inactive)
REMARK    1  A    between atoms: C1_2  and  C2_3 
ROOT
ATOM      1  C2  UNL d   1      -1.705  -3.048   1.673  0.00  0.00    -0.081 A 
ATOM      2  C3  UNL d   1      -0.637  -3.932   1.476  0.00  0.00     0.006 A 
ATOM      3  C4  UNL d   1       0.605  -3.684   2.065  0.00  0.00     0.002 A 
ATOM      4  C5  UNL d   1       0.798  -2.553   2.866  0.00  0.00    -0.080 A 
ATOM      5  C6  UNL d   1       2.118  -2.291   3.528  0.00  0.00     0.076 C 
ATOM      6  C7  UNL d   1      -0.264  -1.661   3.048  0.00  0.00     0.002 A 
ATOM      7  C8  UNL d   1      -1.506  -1.908   2.460  0.00  0.00     0.006 A 
ENDROOT
BRANCH   1   8
ATOM      8  C1  UNL d   1      -3.064  -3.347   1.093  0.00  0.00     0.054 C 
ATOM      9  C   UNL d   1      -3.863  -2.071   0.870  0.00  0.00     0.018 C 
ENDBRANCH   1   8
TORSDOF 1
ENDMDL
