MODEL 1
REMARK minimizedAffinity 12.2068529
REMARK minimizedRMSD -1
REMARK  0 active torsions:
REMARK  status: ('A' for Active; 'I' for Inactive)
ROOT
ATOM      1  C1  DEN d   1       3.038   1.772   0.744  0.00  0.00     0.130 A 
ATOM      2  C2  DEN d   1       2.465   0.890  -0.269  0.00  0.00    -0.031 A 
ATOM      3  C3  DEN d   1       1.044   0.672   0.067  0.00  0.00     0.027 A 
ATOM      4  C4  DEN d   1      -0.319   1.613   2.045  0.00  0.00     0.027 A 
ATOM      5  C5  DEN d   1      -0.262   2.398   3.175  0.00  0.00    -0.003 A 
ATOM      6  C6  DEN d   1       0.898   2.998   3.589  0.00  0.00     0.001 A 
ATOM      7  C7  DEN d   1       2.039   2.858   2.843  0.00  0.00     0.017 A 
ATOM      8  C8  DEN d   1       1.990   2.061   1.707  0.00  0.00    -0.094 A 
ATOM      9  C9  DEN d   1       0.805   1.474   1.298  0.00  0.00    -0.072 A 
ENDROOT
TORSDOF 0
ENDMDL
