MODEL 1
REMARK minimizedAffinity 2.70516586
REMARK minimizedRMSD -1
REMARK  0 active torsions:
REMARK  status: ('A' for Active; 'I' for Inactive)
ROOT
ATOM      1  C1  DEN d   1       2.981   2.383  -0.443  0.00  0.00     0.130 A 
ATOM      2  C2  DEN d   1       4.415   2.145  -0.586  0.00  0.00    -0.031 A 
ATOM      3  C3  DEN d   1       4.625   0.691  -0.729  0.00  0.00     0.027 A 
ATOM      4  C4  DEN d   1       2.878  -1.207  -0.749  0.00  0.00     0.027 A 
ATOM      5  C5  DEN d   1       1.536  -1.498  -0.649  0.00  0.00    -0.003 A 
ATOM      6  C6  DEN d   1       0.592  -0.527  -0.441  0.00  0.00     0.001 A 
ATOM      7  C7  DEN d   1       0.973   0.787  -0.371  0.00  0.00     0.017 A 
ATOM      8  C8  DEN d   1       2.326   1.087  -0.464  0.00  0.00    -0.094 A 
ATOM      9  C9  DEN d   1       3.264   0.093  -0.687  0.00  0.00    -0.072 A 
ENDROOT
TORSDOF 0
ENDMDL
