MODEL 1
REMARK minimizedAffinity 4.57801342
REMARK minimizedRMSD -1
REMARK  0 active torsions:
REMARK  status: ('A' for Active; 'I' for Inactive)
ROOT
ATOM      1  C1  DEN d   1       3.030  -0.637  -2.128  0.00  0.00     0.130 A 
ATOM      2  C2  DEN d   1       3.601  -1.868  -2.667  0.00  0.00    -0.031 A 
ATOM      3  C3  DEN d   1       2.720  -2.988  -2.278  0.00  0.00     0.027 A 
ATOM      4  C4  DEN d   1       0.538  -2.935  -0.905  0.00  0.00     0.027 A 
ATOM      5  C5  DEN d   1      -0.339  -2.121  -0.222  0.00  0.00    -0.003 A 
ATOM      6  C6  DEN d   1      -0.138  -0.772  -0.099  0.00  0.00     0.001 A 
ATOM      7  C7  DEN d   1       0.943  -0.188  -0.705  0.00  0.00     0.017 A 
ATOM      8  C8  DEN d   1       1.835  -1.003  -1.389  0.00  0.00    -0.094 A 
ATOM      9  C9  DEN d   1       1.608  -2.363  -1.513  0.00  0.00    -0.072 A 
ENDROOT
TORSDOF 0
ENDMDL
