MODEL 1
REMARK minimizedAffinity 3.24446344
REMARK minimizedRMSD -1
REMARK  0 active torsions:
REMARK  status: ('A' for Active; 'I' for Inactive)
ROOT
ATOM      1  C1  DEN d   1      -0.234   0.781  -1.333  0.00  0.00     0.130 A 
ATOM      2  C2  DEN d   1       1.050   1.261  -0.830  0.00  0.00    -0.031 A 
ATOM      3  C3  DEN d   1       1.821   0.094  -0.357  0.00  0.00     0.027 A 
ATOM      4  C4  DEN d   1       1.155  -2.398  -0.358  0.00  0.00     0.027 A 
ATOM      5  C5  DEN d   1       0.157  -3.293  -0.675  0.00  0.00    -0.003 A 
ATOM      6  C6  DEN d   1      -1.044  -2.893  -1.198  0.00  0.00     0.001 A 
ATOM      7  C7  DEN d   1      -1.261  -1.567  -1.461  0.00  0.00     0.017 A 
ATOM      8  C8  DEN d   1      -0.263  -0.657  -1.138  0.00  0.00    -0.094 A 
ATOM      9  C9  DEN d   1       0.949  -1.083  -0.621  0.00  0.00    -0.072 A 
ENDROOT
TORSDOF 0
ENDMDL
