MODEL 1
REMARK minimizedAffinity 9.97836208
REMARK minimizedRMSD -1
REMARK  0 active torsions:
REMARK  status: ('A' for Active; 'I' for Inactive)
ROOT
ATOM      1  C1  DEN d   1      -0.806  -0.306  -0.901  0.00  0.00     0.130 A 
ATOM      2  C2  DEN d   1      -1.409  -1.592  -1.239  0.00  0.00    -0.031 A 
ATOM      3  C3  DEN d   1      -0.319  -2.567  -1.446  0.00  0.00     0.027 A 
ATOM      4  C4  DEN d   1       2.229  -2.213  -1.271  0.00  0.00     0.027 A 
ATOM      5  C5  DEN d   1       3.220  -1.289  -1.022  0.00  0.00    -0.003 A 
ATOM      6  C6  DEN d   1       2.942   0.025  -0.751  0.00  0.00     0.001 A 
ATOM      7  C7  DEN d   1       1.639   0.441  -0.677  0.00  0.00     0.017 A 
ATOM      8  C8  DEN d   1       0.635  -0.483  -0.935  0.00  0.00    -0.094 A 
ATOM      9  C9  DEN d   1       0.936  -1.809  -1.196  0.00  0.00    -0.072 A 
ENDROOT
TORSDOF 0
ENDMDL
