MODEL 1
REMARK minimizedAffinity 0.473620087
REMARK minimizedRMSD -1
REMARK  1 active torsions:
REMARK  status: ('A' for Active; 'I' for Inactive)
REMARK    1  A    between atoms: C1_2  and  C2_3 
ROOT
ATOM      1  C2  UNL d   1      -1.488  -2.471   0.826  0.00  0.00    -0.073 A 
ATOM      2  C3  UNL d   1      -0.238  -2.975   1.204  0.00  0.00    -0.002 A 
ATOM      3  C4  UNL d   1       0.782  -2.108   1.597  0.00  0.00     0.004 A 
ATOM      4  C5  UNL d   1       0.562  -0.731   1.623  0.00  0.00    -0.004 A 
ATOM      5  C6  UNL d   1      -0.684  -0.209   1.259  0.00  0.00    -0.075 A 
ATOM      6  C7  UNL d   1      -0.937   1.270   1.279  0.00  0.00     0.076 C 
ATOM      7  C8  UNL d   1      -1.703  -1.086   0.864  0.00  0.00     0.001 A 
ENDROOT
BRANCH   1   8
ATOM      8  C1  UNL d   1      -2.594  -3.405   0.407  0.00  0.00     0.053 C 
ATOM      9  C   UNL d   1      -2.753  -3.459  -1.104  0.00  0.00     0.018 C 
ENDBRANCH   1   8
TORSDOF 1
ENDMDL
