MODEL 1
REMARK minimizedAffinity 9.70153904
REMARK minimizedRMSD -1
REMARK  1 active torsions:
REMARK  status: ('A' for Active; 'I' for Inactive)
REMARK    1  A    between atoms: C1_2  and  C2_3 
ROOT
ATOM      1  C2  UNL d   1      -2.865  -1.895  -2.926  0.00  0.00    -0.073 A 
ATOM      2  C3  UNL d   1      -2.464  -3.152  -3.393  0.00  0.00    -0.002 A 
ATOM      3  C4  UNL d   1      -1.895  -4.080  -2.520  0.00  0.00     0.004 A 
ATOM      4  C5  UNL d   1      -1.727  -3.764  -1.172  0.00  0.00    -0.004 A 
ATOM      5  C6  UNL d   1      -2.133  -2.517  -0.684  0.00  0.00    -0.075 A 
ATOM      6  C7  UNL d   1      -1.957  -2.161   0.763  0.00  0.00     0.076 C 
ATOM      7  C8  UNL d   1      -2.701  -1.590  -1.568  0.00  0.00     0.001 A 
ENDROOT
BRANCH   1   8
ATOM      8  C1  UNL d   1      -3.486  -0.893  -3.865  0.00  0.00     0.053 C 
ATOM      9  C   UNL d   1      -3.358   0.530  -3.344  0.00  0.00     0.018 C 
ENDBRANCH   1   8
TORSDOF 1
ENDMDL
