MODEL 1
REMARK minimizedAffinity 3.83643532
REMARK minimizedRMSD -1
REMARK  1 active torsions:
REMARK  status: ('A' for Active; 'I' for Inactive)
REMARK    1  A    between atoms: C1_2  and  C2_3 
ROOT
ATOM      1  C2  UNL d   1      -0.680  -4.530  -1.893  0.00  0.00    -0.073 A 
ATOM      2  C3  UNL d   1      -1.584  -5.586  -1.734  0.00  0.00    -0.002 A 
ATOM      3  C4  UNL d   1      -2.668  -5.461  -0.865  0.00  0.00     0.004 A 
ATOM      4  C5  UNL d   1      -2.864  -4.279  -0.152  0.00  0.00    -0.004 A 
ATOM      5  C6  UNL d   1      -1.978  -3.208  -0.306  0.00  0.00    -0.075 A 
ATOM      6  C7  UNL d   1      -2.173  -1.929   0.455  0.00  0.00     0.076 C 
ATOM      7  C8  UNL d   1      -0.890  -3.342  -1.179  0.00  0.00     0.001 A 
ENDROOT
BRANCH   1   8
ATOM      8  C1  UNL d   1       0.490  -4.658  -2.835  0.00  0.00     0.053 C 
ATOM      9  C   UNL d   1       1.686  -5.321  -2.172  0.00  0.00     0.018 C 
ENDBRANCH   1   8
TORSDOF 1
ENDMDL
