MODEL 1
REMARK minimizedAffinity 2.13902736
REMARK minimizedRMSD -1
REMARK  1 active torsions:
REMARK  status: ('A' for Active; 'I' for Inactive)
REMARK    1  A    between atoms: C1_2  and  C2_3 
ROOT
ATOM      1  C2  UNL d   1       0.156  -0.654   1.625  0.00  0.00    -0.073 A 
ATOM      2  C3  UNL d   1       0.843  -1.728   1.045  0.00  0.00    -0.002 A 
ATOM      3  C4  UNL d   1       1.747  -2.476   1.801  0.00  0.00     0.004 A 
ATOM      4  C5  UNL d   1       1.968  -2.165   3.142  0.00  0.00    -0.004 A 
ATOM      5  C6  UNL d   1       1.282  -1.103   3.742  0.00  0.00    -0.075 A 
ATOM      6  C7  UNL d   1       1.511  -0.754   5.183  0.00  0.00     0.076 C 
ATOM      7  C8  UNL d   1       0.379  -0.355   2.976  0.00  0.00     0.001 A 
ENDROOT
BRANCH   1   8
ATOM      8  C1  UNL d   1      -0.825   0.153   0.815  0.00  0.00     0.053 C 
ATOM      9  C   UNL d   1      -2.119  -0.606   0.566  0.00  0.00     0.018 C 
ENDBRANCH   1   8
TORSDOF 1
ENDMDL
