MODEL 1
REMARK minimizedAffinity -1.07624543
REMARK minimizedRMSD -1
REMARK  1 active torsions:
REMARK  status: ('A' for Active; 'I' for Inactive)
REMARK    1  A    between atoms: C1_2  and  C2_3 
ROOT
ATOM      1  C2  UNL d   1       5.266   3.009  -3.091  0.00  0.00    -0.073 A 
ATOM      2  C3  UNL d   1       3.907   2.749  -2.881  0.00  0.00    -0.002 A 
ATOM      3  C4  UNL d   1       3.232   3.346  -1.816  0.00  0.00     0.004 A 
ATOM      4  C5  UNL d   1       3.904   4.214  -0.956  0.00  0.00    -0.004 A 
ATOM      5  C6  UNL d   1       5.260   4.496  -1.157  0.00  0.00    -0.075 A 
ATOM      6  C7  UNL d   1       5.998   5.426  -0.239  0.00  0.00     0.076 C 
ATOM      7  C8  UNL d   1       5.932   3.890  -2.226  0.00  0.00     0.001 A 
ENDROOT
BRANCH   1   8
ATOM      8  C1  UNL d   1       5.999   2.371  -4.243  0.00  0.00     0.053 C 
ATOM      9  C   UNL d   1       5.999   0.853  -4.147  0.00  0.00     0.018 C 
ENDBRANCH   1   8
TORSDOF 1
ENDMDL
