MODEL 1
REMARK minimizedAffinity 3.46759725
REMARK minimizedRMSD -1
REMARK  1 active torsions:
REMARK  status: ('A' for Active; 'I' for Inactive)
REMARK    1  A    between atoms: C1_2  and  C2_3 
ROOT
ATOM      1  C2  UNL d   1       1.466  -0.319   1.874  0.00  0.00    -0.073 A 
ATOM      2  C3  UNL d   1       1.441  -1.358   2.811  0.00  0.00    -0.002 A 
ATOM      3  C4  UNL d   1       1.894  -1.143   4.113  0.00  0.00     0.004 A 
ATOM      4  C5  UNL d   1       2.370   0.111   4.493  0.00  0.00    -0.004 A 
ATOM      5  C6  UNL d   1       2.392   1.165   3.574  0.00  0.00    -0.075 A 
ATOM      6  C7  UNL d   1       2.903   2.520   3.967  0.00  0.00     0.076 C 
ATOM      7  C8  UNL d   1       1.938   0.942   2.268  0.00  0.00     0.001 A 
ENDROOT
BRANCH   1   8
ATOM      8  C1  UNL d   1       0.972  -0.544   0.468  0.00  0.00     0.053 C 
ATOM      9  C   UNL d   1       0.106   0.606  -0.023  0.00  0.00     0.018 C 
ENDBRANCH   1   8
TORSDOF 1
ENDMDL
