MODEL 1
REMARK minimizedAffinity -3.46713614
REMARK minimizedRMSD -1
REMARK  0 active torsions:
REMARK  status: ('A' for Active; 'I' for Inactive)
ROOT
ATOM      1  C   UNL d   1       1.821  -1.204   0.802  0.00  0.00     0.023 A 
ATOM      2  C1  UNL d   1       3.098  -1.100   1.353  0.00  0.00     0.003 A 
ATOM      3  C2  UNL d   1       3.443  -1.864   2.470  0.00  0.00     0.048 A 
ATOM      4  C3  UNL d   1       2.505  -2.731   3.030  0.00  0.00     0.023 A 
ATOM      5  C4  UNL d   1       1.227  -2.840   2.481  0.00  0.00     0.048 A 
ATOM      6  C5  UNL d   1       0.886  -2.074   1.365  0.00  0.00     0.003 A 
ATOM      7  I   UNL d   1       3.016  -3.870   4.692  0.00  0.00    -0.146 I 
ENDROOT
TORSDOF 0
ENDMDL
