MODEL 1
REMARK minimizedAffinity 2.25236511
REMARK minimizedRMSD -1
REMARK  0 active torsions:
REMARK  status: ('A' for Active; 'I' for Inactive)
ROOT
ATOM      1  C   UNL d   1       1.735  -2.606   2.239  0.00  0.00     0.023 A 
ATOM      2  C1  UNL d   1       2.973  -1.982   2.398  0.00  0.00     0.003 A 
ATOM      3  C2  UNL d   1       3.181  -0.701   1.882  0.00  0.00     0.048 A 
ATOM      4  C3  UNL d   1       2.148  -0.050   1.208  0.00  0.00     0.023 A 
ATOM      5  C4  UNL d   1       0.908  -0.671   1.048  0.00  0.00     0.048 A 
ATOM      6  C5  UNL d   1       0.704  -1.951   1.565  0.00  0.00     0.003 A 
ATOM      7  I   UNL d   1       2.457   1.856   0.439  0.00  0.00    -0.146 I 
ENDROOT
TORSDOF 0
ENDMDL
