MODEL 1
REMARK minimizedAffinity 3.77159214
REMARK minimizedRMSD -1
REMARK  0 active torsions:
REMARK  status: ('A' for Active; 'I' for Inactive)
ROOT
ATOM      1  C   UNL d   1       1.817  -1.850   2.972  0.00  0.00     0.023 A 
ATOM      2  C1  UNL d   1       0.514  -2.305   2.766  0.00  0.00     0.003 A 
ATOM      3  C2  UNL d   1       0.012  -2.427   1.469  0.00  0.00     0.048 A 
ATOM      4  C3  UNL d   1       0.819  -2.093   0.381  0.00  0.00     0.023 A 
ATOM      5  C4  UNL d   1       2.123  -1.638   0.582  0.00  0.00     0.048 A 
ATOM      6  C5  UNL d   1       2.620  -1.517   1.881  0.00  0.00     0.003 A 
ATOM      7  I   UNL d   1       0.074  -2.274  -1.551  0.00  0.00    -0.146 I 
ENDROOT
TORSDOF 0
ENDMDL
