MODEL 1
REMARK minimizedAffinity 3.62419796
REMARK minimizedRMSD -1
REMARK  0 active torsions:
REMARK  status: ('A' for Active; 'I' for Inactive)
ROOT
ATOM      1  C   UNL d   1       1.354  -2.545  -0.876  0.00  0.00     0.023 A 
ATOM      2  C1  UNL d   1       1.096  -2.190   0.448  0.00  0.00     0.003 A 
ATOM      3  C2  UNL d   1      -0.010  -1.395   0.756  0.00  0.00     0.048 A 
ATOM      4  C3  UNL d   1      -0.854  -0.959  -0.265  0.00  0.00     0.023 A 
ATOM      5  C4  UNL d   1      -0.600  -1.312  -1.591  0.00  0.00     0.048 A 
ATOM      6  C5  UNL d   1       0.508  -2.107  -1.895  0.00  0.00     0.003 A 
ATOM      7  I   UNL d   1      -2.500   0.225   0.191  0.00  0.00    -0.146 I 
ENDROOT
TORSDOF 0
ENDMDL
