MODEL 1
REMARK minimizedAffinity 2.38741302
REMARK minimizedRMSD -1
REMARK  0 active torsions:
REMARK  status: ('A' for Active; 'I' for Inactive)
ROOT
ATOM      1  C   UNL d   1       1.500  -0.731   0.765  0.00  0.00     0.023 A 
ATOM      2  C1  UNL d   1       2.495  -1.488   1.384  0.00  0.00     0.003 A 
ATOM      3  C2  UNL d   1       2.154  -2.429   2.357  0.00  0.00     0.048 A 
ATOM      4  C3  UNL d   1       0.816  -2.610   2.706  0.00  0.00     0.023 A 
ATOM      5  C4  UNL d   1      -0.183  -1.856   2.089  0.00  0.00     0.048 A 
ATOM      6  C5  UNL d   1       0.163  -0.915   1.117  0.00  0.00     0.003 A 
ATOM      7  I   UNL d   1       0.306  -4.011   4.154  0.00  0.00    -0.146 I 
ENDROOT
TORSDOF 0
ENDMDL
