MODEL 1
REMARK minimizedAffinity -2.55181456
REMARK minimizedRMSD -1
REMARK  0 active torsions:
REMARK  status: ('A' for Active; 'I' for Inactive)
ROOT
ATOM      1  C2' OXE d   1       2.612  -0.772  -3.751  0.00  0.00     0.078 C 
ATOM      2  C1' OXE d   1       3.884   0.420  -1.551  0.00  0.00     0.078 C 
ATOM      3  C1  OXE d   1       2.394   0.202  -1.469  0.00  0.00    -0.078 A 
ATOM      4  C2  OXE d   1       1.772  -0.338  -2.569  0.00  0.00    -0.078 A 
ATOM      5  C3  OXE d   1       0.408  -0.610  -2.525  0.00  0.00     0.003 A 
ATOM      6  C4  OXE d   1      -0.363  -0.197  -1.432  0.00  0.00    -0.002 A 
ATOM      7  C5  OXE d   1       0.244   0.392  -0.318  0.00  0.00    -0.002 A 
ATOM      8  C6  OXE d   1       1.625   0.559  -0.303  0.00  0.00     0.003 A 
ENDROOT
TORSDOF 0
ENDMDL
