MODEL 1
REMARK minimizedAffinity -1.14134407
REMARK minimizedRMSD -1
REMARK  0 active torsions:
REMARK  status: ('A' for Active; 'I' for Inactive)
ROOT
ATOM      1  C2' OXE d   1      -0.584  -0.357   0.868  0.00  0.00     0.078 C 
ATOM      2  C1' OXE d   1       0.249  -2.414  -0.851  0.00  0.00     0.078 C 
ATOM      3  C1  OXE d   1       0.640  -1.001  -1.204  0.00  0.00    -0.078 A 
ATOM      4  C2  OXE d   1       0.189   0.004  -0.382  0.00  0.00    -0.078 A 
ATOM      5  C3  OXE d   1       0.566   1.320  -0.631  0.00  0.00     0.003 A 
ATOM      6  C4  OXE d   1       1.273   1.647  -1.795  0.00  0.00    -0.002 A 
ATOM      7  C5  OXE d   1       1.709   0.643  -2.666  0.00  0.00    -0.002 A 
ATOM      8  C6  OXE d   1       1.438  -0.687  -2.363  0.00  0.00     0.003 A 
ENDROOT
TORSDOF 0
ENDMDL
