MODEL 1
REMARK minimizedAffinity -1.30006433
REMARK minimizedRMSD -1
REMARK  0 active torsions:
REMARK  status: ('A' for Active; 'I' for Inactive)
ROOT
ATOM      1  C2' OXE d   1      -0.974  -0.176   0.933  0.00  0.00     0.078 C 
ATOM      2  C1' OXE d   1       0.365  -2.523   0.171  0.00  0.00     0.078 C 
ATOM      3  C1  OXE d   1       0.844  -1.218  -0.414  0.00  0.00    -0.078 A 
ATOM      4  C2  OXE d   1       0.153  -0.080  -0.072  0.00  0.00    -0.078 A 
ATOM      5  C3  OXE d   1       0.587   1.156  -0.541  0.00  0.00     0.003 A 
ATOM      6  C4  OXE d   1       1.625   1.235  -1.478  0.00  0.00    -0.002 A 
ATOM      7  C5  OXE d   1       2.316   0.084  -1.871  0.00  0.00    -0.002 A 
ATOM      8  C6  OXE d   1       1.966  -1.143  -1.316  0.00  0.00     0.003 A 
ENDROOT
TORSDOF 0
ENDMDL
