MODEL 1
REMARK minimizedAffinity -4.17410946
REMARK minimizedRMSD -1
REMARK  0 active torsions:
REMARK  status: ('A' for Active; 'I' for Inactive)
ROOT
ATOM      1  C2' OXE d   1      -3.561  -0.394   0.932  0.00  0.00     0.078 C 
ATOM      2  C1' OXE d   1      -0.811  -0.034   1.362  0.00  0.00     0.078 C 
ATOM      3  C1  OXE d   1      -1.751   1.014   1.903  0.00  0.00    -0.078 A 
ATOM      4  C2  OXE d   1      -3.091   0.854   1.648  0.00  0.00    -0.078 A 
ATOM      5  C3  OXE d   1      -4.006   1.763   2.171  0.00  0.00     0.003 A 
ATOM      6  C4  OXE d   1      -3.563   2.920   2.823  0.00  0.00    -0.002 A 
ATOM      7  C5  OXE d   1      -2.199   3.123   3.059  0.00  0.00    -0.002 A 
ATOM      8  C6  OXE d   1      -1.285   2.160   2.644  0.00  0.00     0.003 A 
ENDROOT
TORSDOF 0
ENDMDL
