MODEL 1
REMARK minimizedAffinity -3.61603928
REMARK minimizedRMSD -1
REMARK  0 active torsions:
REMARK  status: ('A' for Active; 'I' for Inactive)
ROOT
ATOM      1  C2' OXE d   1      -0.921   0.028   1.272  0.00  0.00     0.078 C 
ATOM      2  C1' OXE d   1       1.765   0.843   1.236  0.00  0.00     0.078 C 
ATOM      3  C1  OXE d   1       1.094   0.573  -0.088  0.00  0.00    -0.078 A 
ATOM      4  C2  OXE d   1      -0.206   0.129  -0.058  0.00  0.00    -0.078 A 
ATOM      5  C3  OXE d   1      -0.889  -0.083  -1.253  0.00  0.00     0.003 A 
ATOM      6  C4  OXE d   1      -0.218   0.003  -2.478  0.00  0.00    -0.002 A 
ATOM      7  C5  OXE d   1       1.118   0.414  -2.528  0.00  0.00    -0.002 A 
ATOM      8  C6  OXE d   1       1.775   0.743  -1.348  0.00  0.00     0.003 A 
ENDROOT
TORSDOF 0
ENDMDL
