MODEL 1
REMARK minimizedAffinity -4.18456888
REMARK minimizedRMSD -1
REMARK  0 active torsions:
REMARK  status: ('A' for Active; 'I' for Inactive)
ROOT
ATOM      1  C2' OXE d   1      -0.536  -0.240   0.710  0.00  0.00     0.078 C 
ATOM      2  C1' OXE d   1       1.572   1.597   0.964  0.00  0.00     0.078 C 
ATOM      3  C1  OXE d   1       1.497   0.783  -0.303  0.00  0.00    -0.078 A 
ATOM      4  C2  OXE d   1       0.490  -0.146  -0.399  0.00  0.00    -0.078 A 
ATOM      5  C3  OXE d   1       0.342  -0.885  -1.570  0.00  0.00     0.003 A 
ATOM      6  C4  OXE d   1       1.301  -0.800  -2.587  0.00  0.00    -0.002 A 
ATOM      7  C5  OXE d   1       2.357   0.112  -2.492  0.00  0.00    -0.002 A 
ATOM      8  C6  OXE d   1       2.445   0.940  -1.378  0.00  0.00     0.003 A 
ENDROOT
TORSDOF 0
ENDMDL
