MODEL 1
REMARK minimizedAffinity -4.13719177
REMARK minimizedRMSD -1
REMARK  0 active torsions:
REMARK  status: ('A' for Active; 'I' for Inactive)
ROOT
ATOM      1  C2' OXE d   1      -1.146  -0.054   0.572  0.00  0.00     0.078 C 
ATOM      2  C1' OXE d   1       1.512   0.622   1.170  0.00  0.00     0.078 C 
ATOM      3  C1  OXE d   1       1.165   0.337  -0.270  0.00  0.00    -0.078 A 
ATOM      4  C2  OXE d   1      -0.127  -0.038  -0.547  0.00  0.00    -0.078 A 
ATOM      5  C3  OXE d   1      -0.513  -0.259  -1.866  0.00  0.00     0.003 A 
ATOM      6  C4  OXE d   1       0.438  -0.252  -2.893  0.00  0.00    -0.002 A 
ATOM      7  C5  OXE d   1       1.769   0.089  -2.627  0.00  0.00    -0.002 A 
ATOM      8  C6  OXE d   1       2.139   0.427  -1.330  0.00  0.00     0.003 A 
ENDROOT
TORSDOF 0
ENDMDL
