MODEL 1
REMARK minimizedAffinity -4.06223011
REMARK minimizedRMSD -1
REMARK  0 active torsions:
REMARK  status: ('A' for Active; 'I' for Inactive)
ROOT
ATOM      1  C2' OXE d   1       1.845  -0.334  -2.834  0.00  0.00     0.078 C 
ATOM      2  C1' OXE d   1       0.626  -2.605  -1.721  0.00  0.00     0.078 C 
ATOM      3  C1  OXE d   1       0.638  -1.339  -0.901  0.00  0.00    -0.078 A 
ATOM      4  C2  OXE d   1       1.277  -0.246  -1.434  0.00  0.00    -0.078 A 
ATOM      5  C3  OXE d   1       1.270   0.962  -0.742  0.00  0.00     0.003 A 
ATOM      6  C4  OXE d   1       0.752   1.032   0.557  0.00  0.00    -0.002 A 
ATOM      7  C5  OXE d   1       0.131  -0.081   1.135  0.00  0.00    -0.002 A 
ATOM      8  C6  OXE d   1       0.028  -1.260   0.404  0.00  0.00     0.003 A 
ENDROOT
TORSDOF 0
ENDMDL
