MODEL 1
REMARK minimizedAffinity -2.12276363
REMARK minimizedRMSD -1
REMARK  0 active torsions:
REMARK  status: ('A' for Active; 'I' for Inactive)
ROOT
ATOM      1  C2' OXE d   1      -1.270   0.149   0.568  0.00  0.00     0.078 C 
ATOM      2  C1' OXE d   1       1.462   0.496   1.111  0.00  0.00     0.078 C 
ATOM      3  C1  OXE d   1       1.050   0.300  -0.326  0.00  0.00    -0.078 A 
ATOM      4  C2  OXE d   1      -0.284   0.084  -0.578  0.00  0.00    -0.078 A 
ATOM      5  C3  OXE d   1      -0.725  -0.048  -1.891  0.00  0.00     0.003 A 
ATOM      6  C4  OXE d   1       0.195  -0.117  -2.944  0.00  0.00    -0.002 A 
ATOM      7  C5  OXE d   1       1.562   0.061  -2.706  0.00  0.00    -0.002 A 
ATOM      8  C6  OXE d   1       2.000   0.312  -1.410  0.00  0.00     0.003 A 
ENDROOT
TORSDOF 0
ENDMDL
