MODEL 1
REMARK minimizedAffinity -3.56018472
REMARK minimizedRMSD -1
REMARK  0 active torsions:
REMARK  status: ('A' for Active; 'I' for Inactive)
ROOT
ATOM      1  C2' OXE d   1       0.266  -2.098   1.196  0.00  0.00     0.078 C 
ATOM      2  C1' OXE d   1      -1.576   0.020   1.168  0.00  0.00     0.078 C 
ATOM      3  C1  OXE d   1      -0.541  -0.027   0.072  0.00  0.00    -0.078 A 
ATOM      4  C2  OXE d   1       0.386  -1.041   0.120  0.00  0.00    -0.078 A 
ATOM      5  C3  OXE d   1       1.329  -1.162  -0.897  0.00  0.00     0.003 A 
ATOM      6  C4  OXE d   1       1.438  -0.174  -1.883  0.00  0.00    -0.002 A 
ATOM      7  C5  OXE d   1       0.530   0.888  -1.928  0.00  0.00    -0.002 A 
ATOM      8  C6  OXE d   1      -0.490   0.953  -0.985  0.00  0.00     0.003 A 
ENDROOT
TORSDOF 0
ENDMDL
