MODEL 1
REMARK minimizedAffinity -3.65114474
REMARK minimizedRMSD -1
REMARK  0 active torsions:
REMARK  status: ('A' for Active; 'I' for Inactive)
ROOT
ATOM      1  C2' OXE d   1       1.160   0.094  -2.899  0.00  0.00     0.078 C 
ATOM      2  C1' OXE d   1       2.075   1.978  -1.029  0.00  0.00     0.078 C 
ATOM      3  C1  OXE d   1       1.245   0.826  -0.519  0.00  0.00    -0.078 A 
ATOM      4  C2  OXE d   1       0.762  -0.065  -1.447  0.00  0.00    -0.078 A 
ATOM      5  C3  OXE d   1       0.038  -1.176  -1.025  0.00  0.00     0.003 A 
ATOM      6  C4  OXE d   1      -0.334  -1.311   0.319  0.00  0.00    -0.002 A 
ATOM      7  C5  OXE d   1       0.114  -0.393   1.274  0.00  0.00    -0.002 A 
ATOM      8  C6  OXE d   1       0.937   0.655   0.879  0.00  0.00     0.003 A 
ENDROOT
TORSDOF 0
ENDMDL
