MODEL 1
REMARK minimizedAffinity -4.82487535
REMARK minimizedRMSD -1
REMARK  0 active torsions:
REMARK  status: ('A' for Active; 'I' for Inactive)
ROOT
ATOM      1  C2' OXE d   1      -0.278   0.046   0.864  0.00  0.00     0.078 C 
ATOM      2  C1' OXE d   1       0.375  -2.655   0.462  0.00  0.00     0.078 C 
ATOM      3  C1  OXE d   1       1.128  -1.622  -0.340  0.00  0.00    -0.078 A 
ATOM      4  C2  OXE d   1       0.769  -0.306  -0.171  0.00  0.00    -0.078 A 
ATOM      5  C3  OXE d   1       1.469   0.691  -0.845  0.00  0.00     0.003 A 
ATOM      6  C4  OXE d   1       2.429   0.356  -1.807  0.00  0.00    -0.002 A 
ATOM      7  C5  OXE d   1       2.781  -0.981  -2.024  0.00  0.00    -0.002 A 
ATOM      8  C6  OXE d   1       2.171  -1.977  -1.269  0.00  0.00     0.003 A 
ENDROOT
TORSDOF 0
ENDMDL
