MODEL 1
REMARK minimizedAffinity -4.46317816
REMARK minimizedRMSD -1
REMARK  0 active torsions:
REMARK  status: ('A' for Active; 'I' for Inactive)
ROOT
ATOM      1  C2' OXE d   1       1.372   1.750   0.553  0.00  0.00     0.078 C 
ATOM      2  C1' OXE d   1      -0.610  -0.236   0.628  0.00  0.00     0.078 C 
ATOM      3  C1  OXE d   1       0.352  -0.246  -0.534  0.00  0.00    -0.078 A 
ATOM      4  C2  OXE d   1       1.289   0.758  -0.587  0.00  0.00    -0.078 A 
ATOM      5  C3  OXE d   1       2.235   0.764  -1.608  0.00  0.00     0.003 A 
ATOM      6  C4  OXE d   1       2.145  -0.151  -2.664  0.00  0.00    -0.002 A 
ATOM      7  C5  OXE d   1       1.173  -1.157  -2.650  0.00  0.00    -0.002 A 
ATOM      8  C6  OXE d   1       0.297  -1.244  -1.573  0.00  0.00     0.003 A 
ENDROOT
TORSDOF 0
ENDMDL
