MODEL 1
REMARK minimizedAffinity -2.56323361
REMARK minimizedRMSD -1
REMARK  0 active torsions:
REMARK  status: ('A' for Active; 'I' for Inactive)
ROOT
ATOM      1  C2' OXE d   1      -1.931  -0.437  -0.953  0.00  0.00     0.078 C 
ATOM      2  C1' OXE d   1      -0.294  -0.044   1.293  0.00  0.00     0.078 C 
ATOM      3  C1  OXE d   1       0.308   0.204  -0.068  0.00  0.00    -0.078 A 
ATOM      4  C2  OXE d   1      -0.487  -0.036  -1.163  0.00  0.00    -0.078 A 
ATOM      5  C3  OXE d   1       0.001   0.228  -2.440  0.00  0.00     0.003 A 
ATOM      6  C4  OXE d   1       1.341   0.589  -2.626  0.00  0.00    -0.002 A 
ATOM      7  C5  OXE d   1       2.179   0.800  -1.526  0.00  0.00    -0.002 A 
ATOM      8  C6  OXE d   1       1.667   0.653  -0.241  0.00  0.00     0.003 A 
ENDROOT
TORSDOF 0
ENDMDL
