MODEL 1
REMARK minimizedAffinity -3.60558176
REMARK minimizedRMSD -1
REMARK  0 active torsions:
REMARK  status: ('A' for Active; 'I' for Inactive)
ROOT
ATOM      1  C2' OXE d   1       1.732  -0.615  -3.042  0.00  0.00     0.078 C 
ATOM      2  C1' OXE d   1       1.910   1.469  -1.169  0.00  0.00     0.078 C 
ATOM      3  C1  OXE d   1       1.192   0.209  -0.754  0.00  0.00    -0.078 A 
ATOM      4  C2  OXE d   1       1.069  -0.787  -1.692  0.00  0.00    -0.078 A 
ATOM      5  C3  OXE d   1       0.464  -1.991  -1.344  0.00  0.00     0.003 A 
ATOM      6  C4  OXE d   1      -0.155  -2.139  -0.097  0.00  0.00    -0.002 A 
ATOM      7  C5  OXE d   1      -0.076  -1.121   0.860  0.00  0.00    -0.002 A 
ATOM      8  C6  OXE d   1       0.629   0.040   0.563  0.00  0.00     0.003 A 
ENDROOT
TORSDOF 0
ENDMDL
