MODEL 1
REMARK minimizedAffinity -3.6990304
REMARK minimizedRMSD -1
REMARK  0 active torsions:
REMARK  status: ('A' for Active; 'I' for Inactive)
ROOT
ATOM      1  C2' OXE d   1       1.712  -0.494  -2.697  0.00  0.00     0.078 C 
ATOM      2  C1' OXE d   1       0.256  -2.632  -1.605  0.00  0.00     0.078 C 
ATOM      3  C1  OXE d   1       0.232  -1.316  -0.869  0.00  0.00    -0.078 A 
ATOM      4  C2  OXE d   1       0.985  -0.289  -1.385  0.00  0.00    -0.078 A 
ATOM      5  C3  OXE d   1       0.956   0.962  -0.775  0.00  0.00     0.003 A 
ATOM      6  C4  OXE d   1       0.289   1.141   0.443  0.00  0.00    -0.002 A 
ATOM      7  C5  OXE d   1      -0.451   0.097   1.007  0.00  0.00    -0.002 A 
ATOM      8  C6  OXE d   1      -0.525  -1.122   0.344  0.00  0.00     0.003 A 
ENDROOT
TORSDOF 0
ENDMDL
