MODEL 1
REMARK minimizedAffinity -3.86220193
REMARK minimizedRMSD -1
REMARK  0 active torsions:
REMARK  status: ('A' for Active; 'I' for Inactive)
ROOT
ATOM      1  C2' OXE d   1       0.231   0.790   0.380  0.00  0.00     0.078 C 
ATOM      2  C1' OXE d   1       2.554   1.497  -1.029  0.00  0.00     0.078 C 
ATOM      3  C1  OXE d   1       1.848   0.225  -1.430  0.00  0.00    -0.078 A 
ATOM      4  C2  OXE d   1       0.739  -0.137  -0.704  0.00  0.00    -0.078 A 
ATOM      5  C3  OXE d   1       0.018  -1.271  -1.066  0.00  0.00     0.003 A 
ATOM      6  C4  OXE d   1       0.500  -2.128  -2.064  0.00  0.00    -0.002 A 
ATOM      7  C5  OXE d   1       1.650  -1.798  -2.789  0.00  0.00    -0.002 A 
ATOM      8  C6  OXE d   1       2.310  -0.606  -2.513  0.00  0.00     0.003 A 
ENDROOT
TORSDOF 0
ENDMDL
