MODEL 1
REMARK minimizedAffinity -3.88443899
REMARK minimizedRMSD -1
REMARK  0 active torsions:
REMARK  status: ('A' for Active; 'I' for Inactive)
ROOT
ATOM      1  C2' OXE d   1      -0.533  -0.469   1.271  0.00  0.00     0.078 C 
ATOM      2  C1' OXE d   1       0.297  -2.694  -0.225  0.00  0.00     0.078 C 
ATOM      3  C1  OXE d   1       0.489  -1.327  -0.832  0.00  0.00    -0.078 A 
ATOM      4  C2  OXE d   1       0.038  -0.247  -0.113  0.00  0.00    -0.078 A 
ATOM      5  C3  OXE d   1       0.240   1.041  -0.602  0.00  0.00     0.003 A 
ATOM      6  C4  OXE d   1       0.760   1.237  -1.887  0.00  0.00    -0.002 A 
ATOM      7  C5  OXE d   1       1.190   0.148  -2.653  0.00  0.00    -0.002 A 
ATOM      8  C6  OXE d   1       1.101  -1.135  -2.124  0.00  0.00     0.003 A 
ENDROOT
TORSDOF 0
ENDMDL
