MODEL 1
REMARK minimizedAffinity -3.85096002
REMARK minimizedRMSD -1
REMARK  0 active torsions:
REMARK  status: ('A' for Active; 'I' for Inactive)
ROOT
ATOM      1  C2' OXE d   1       1.581  -0.711  -3.208  0.00  0.00     0.078 C 
ATOM      2  C1' OXE d   1       1.319  -3.251  -2.041  0.00  0.00     0.078 C 
ATOM      3  C1  OXE d   1       0.680  -2.082  -1.333  0.00  0.00    -0.078 A 
ATOM      4  C2  OXE d   1       0.853  -0.836  -1.887  0.00  0.00    -0.078 A 
ATOM      5  C3  OXE d   1       0.238   0.268  -1.305  0.00  0.00     0.003 A 
ATOM      6  C4  OXE d   1      -0.426   0.145  -0.078  0.00  0.00    -0.002 A 
ATOM      7  C5  OXE d   1      -0.580  -1.108   0.523  0.00  0.00    -0.002 A 
ATOM      8  C6  OXE d   1      -0.071  -2.236  -0.111  0.00  0.00     0.003 A 
ENDROOT
TORSDOF 0
ENDMDL
