MODEL 1
REMARK minimizedAffinity -4.25535727
REMARK minimizedRMSD -1
REMARK  0 active torsions:
REMARK  status: ('A' for Active; 'I' for Inactive)
ROOT
ATOM      1  C2' OXE d   1       2.254  -0.728  -2.899  0.00  0.00     0.078 C 
ATOM      2  C1' OXE d   1       3.462   1.219  -1.278  0.00  0.00     0.078 C 
ATOM      3  C1  OXE d   1       2.071   0.765  -0.913  0.00  0.00    -0.078 A 
ATOM      4  C2  OXE d   1       1.469  -0.154  -1.739  0.00  0.00    -0.078 A 
ATOM      5  C3  OXE d   1       0.208  -0.647  -1.419  0.00  0.00     0.003 A 
ATOM      6  C4  OXE d   1      -0.515  -0.104  -0.350  0.00  0.00    -0.002 A 
ATOM      7  C5  OXE d   1       0.063   0.862   0.481  0.00  0.00    -0.002 A 
ATOM      8  C6  OXE d   1       1.369   1.275   0.238  0.00  0.00     0.003 A 
ENDROOT
TORSDOF 0
ENDMDL
