MODEL 1
REMARK minimizedAffinity -2.97359896
REMARK minimizedRMSD -1
REMARK  1 active torsions:
REMARK  status: ('A' for Active; 'I' for Inactive)
REMARK    1  A    between atoms: C1_2  and  C2_3 
ROOT
ATOM      1  C2  UNL d   1      -0.672   0.792  -1.223  0.00  0.00    -0.073 A 
ATOM      2  C3  UNL d   1       0.118   0.242  -2.239  0.00  0.00    -0.002 A 
ATOM      3  C4  UNL d   1       0.211   0.875  -3.480  0.00  0.00     0.004 A 
ATOM      4  C5  UNL d   1      -0.477   2.065  -3.714  0.00  0.00    -0.004 A 
ATOM      5  C6  UNL d   1      -1.262   2.636  -2.707  0.00  0.00    -0.075 A 
ATOM      6  C7  UNL d   1      -2.011   3.915  -2.944  0.00  0.00     0.076 C 
ATOM      7  C8  UNL d   1      -1.353   1.993  -1.465  0.00  0.00     0.001 A 
ENDROOT
BRANCH   1   8
ATOM      8  C1  UNL d   1      -0.771   0.116   0.120  0.00  0.00     0.053 C 
ATOM      9  C   UNL d   1       0.593  -0.292   0.654  0.00  0.00     0.018 C 
ENDBRANCH   1   8
TORSDOF 1
ENDMDL
