MODEL 1
REMARK minimizedAffinity -4.35410357
REMARK minimizedRMSD -1
REMARK  1 active torsions:
REMARK  status: ('A' for Active; 'I' for Inactive)
REMARK    1  A    between atoms: C1_2  and  C2_3 
ROOT
ATOM      1  C2  UNL d   1       0.120  -0.307  -0.430  0.00  0.00    -0.073 A 
ATOM      2  C3  UNL d   1       1.190  -0.882   0.267  0.00  0.00    -0.002 A 
ATOM      3  C4  UNL d   1       1.134  -1.019   1.655  0.00  0.00     0.004 A 
ATOM      4  C5  UNL d   1       0.008  -0.592   2.358  0.00  0.00    -0.004 A 
ATOM      5  C6  UNL d   1      -1.076  -0.026   1.678  0.00  0.00    -0.075 A 
ATOM      6  C7  UNL d   1      -2.294   0.441   2.420  0.00  0.00     0.076 C 
ATOM      7  C8  UNL d   1      -1.011   0.111   0.285  0.00  0.00     0.001 A 
ENDROOT
BRANCH   1   8
ATOM      8  C1  UNL d   1       0.173  -0.163  -1.929  0.00  0.00     0.053 C 
ATOM      9  C   UNL d   1      -0.680   0.996  -2.420  0.00  0.00     0.018 C 
ENDBRANCH   1   8
TORSDOF 1
ENDMDL
