MODEL 1
REMARK minimizedAffinity -3.170223
REMARK minimizedRMSD -1
REMARK  1 active torsions:
REMARK  status: ('A' for Active; 'I' for Inactive)
REMARK    1  A    between atoms: C1_2  and  C2_3 
ROOT
ATOM      1  C2  UNL d   1      -0.102   1.162  -1.948  0.00  0.00    -0.073 A 
ATOM      2  C3  UNL d   1       0.714   2.116  -2.566  0.00  0.00    -0.002 A 
ATOM      3  C4  UNL d   1       0.167   3.307  -3.045  0.00  0.00     0.004 A 
ATOM      4  C5  UNL d   1      -1.198   3.560  -2.905  0.00  0.00    -0.004 A 
ATOM      5  C6  UNL d   1      -2.028   2.624  -2.279  0.00  0.00    -0.075 A 
ATOM      6  C7  UNL d   1      -3.498   2.879  -2.123  0.00  0.00     0.076 C 
ATOM      7  C8  UNL d   1      -1.472   1.429  -1.804  0.00  0.00     0.001 A 
ENDROOT
BRANCH   1   8
ATOM      8  C1  UNL d   1       0.484  -0.123  -1.424  0.00  0.00     0.053 C 
ATOM      9  C   UNL d   1       0.096  -0.378   0.024  0.00  0.00     0.018 C 
ENDBRANCH   1   8
TORSDOF 1
ENDMDL
