MODEL 1
REMARK minimizedAffinity 7.77225256
REMARK minimizedRMSD -1
REMARK  1 active torsions:
REMARK  status: ('A' for Active; 'I' for Inactive)
REMARK    1  A    between atoms: C1_2  and  C2_3 
ROOT
ATOM      1  C2  UNL d   1      -0.762   3.452  -3.575  0.00  0.00    -0.073 A 
ATOM      2  C3  UNL d   1       0.006   3.463  -4.745  0.00  0.00    -0.002 A 
ATOM      3  C4  UNL d   1       1.371   3.178  -4.695  0.00  0.00     0.004 A 
ATOM      4  C5  UNL d   1       1.980   2.872  -3.478  0.00  0.00    -0.004 A 
ATOM      5  C6  UNL d   1       1.227   2.844  -2.300  0.00  0.00    -0.075 A 
ATOM      6  C7  UNL d   1       1.868   2.519  -0.982  0.00  0.00     0.076 C 
ATOM      7  C8  UNL d   1      -0.142   3.135  -2.358  0.00  0.00     0.001 A 
ENDROOT
BRANCH   1   8
ATOM      8  C1  UNL d   1      -2.237   3.753  -3.625  0.00  0.00     0.053 C 
ATOM      9  C   UNL d   1      -3.066   2.649  -2.989  0.00  0.00     0.018 C 
ENDBRANCH   1   8
TORSDOF 1
ENDMDL
