MODEL 1
REMARK minimizedAffinity -5.18475199
REMARK minimizedRMSD -1
REMARK  1 active torsions:
REMARK  status: ('A' for Active; 'I' for Inactive)
REMARK    1  A    between atoms: C1_2  and  C2_3 
ROOT
ATOM      1  C2  UNL d   1      -1.090   1.069  -1.346  0.00  0.00    -0.073 A 
ATOM      2  C3  UNL d   1       0.079   0.518  -0.809  0.00  0.00    -0.002 A 
ATOM      3  C4  UNL d   1       0.046  -0.147   0.418  0.00  0.00     0.004 A 
ATOM      4  C5  UNL d   1      -1.155  -0.274   1.116  0.00  0.00    -0.004 A 
ATOM      5  C6  UNL d   1      -2.336   0.260   0.589  0.00  0.00    -0.075 A 
ATOM      6  C7  UNL d   1      -3.636   0.133   1.328  0.00  0.00     0.076 C 
ATOM      7  C8  UNL d   1      -2.294   0.928  -0.642  0.00  0.00     0.001 A 
ENDROOT
BRANCH   1   8
ATOM      8  C1  UNL d   1      -1.060   1.782  -2.673  0.00  0.00     0.053 C 
ATOM      9  C   UNL d   1       0.066   2.800  -2.748  0.00  0.00     0.018 C 
ENDBRANCH   1   8
TORSDOF 1
ENDMDL
