MODEL 1
REMARK minimizedAffinity 0.128834441
REMARK minimizedRMSD -1
REMARK  0 active torsions:
REMARK  status: ('A' for Active; 'I' for Inactive)
ROOT
ATOM      1  C   UNL d   1       1.917  -0.653   0.063  0.00  0.00     0.023 A 
ATOM      2  C1  UNL d   1       0.749  -1.286  -0.363  0.00  0.00     0.003 A 
ATOM      3  C2  UNL d   1       0.282  -1.091  -1.664  0.00  0.00     0.048 A 
ATOM      4  C3  UNL d   1       0.988  -0.262  -2.535  0.00  0.00     0.023 A 
ATOM      5  C4  UNL d   1       2.157   0.373  -2.114  0.00  0.00     0.048 A 
ATOM      6  C5  UNL d   1       2.620   0.176  -0.812  0.00  0.00     0.003 A 
ATOM      7  I   UNL d   1       0.294   0.030  -4.473  0.00  0.00    -0.146 I 
ENDROOT
TORSDOF 0
ENDMDL
