MODEL 1
REMARK minimizedAffinity 2.48204494
REMARK minimizedRMSD -1
REMARK  0 active torsions:
REMARK  status: ('A' for Active; 'I' for Inactive)
ROOT
ATOM      1  C   UNL d   1      -2.863   0.077   0.487  0.00  0.00     0.023 A 
ATOM      2  C1  UNL d   1      -2.175  -0.478  -0.593  0.00  0.00     0.003 A 
ATOM      3  C2  UNL d   1      -0.783  -0.394  -0.651  0.00  0.00     0.048 A 
ATOM      4  C3  UNL d   1      -0.084   0.244   0.373  0.00  0.00     0.023 A 
ATOM      5  C4  UNL d   1      -0.769   0.799   1.456  0.00  0.00     0.048 A 
ATOM      6  C5  UNL d   1      -2.161   0.714   1.510  0.00  0.00     0.003 A 
ATOM      7  I   UNL d   1       1.989   0.370   0.288  0.00  0.00    -0.146 I 
ENDROOT
TORSDOF 0
ENDMDL
