MODEL 1
REMARK minimizedAffinity -0.866218328
REMARK minimizedRMSD -1
REMARK  0 active torsions:
REMARK  status: ('A' for Active; 'I' for Inactive)
ROOT
ATOM      1  C   UNL d   1      -1.464   0.111   0.611  0.00  0.00     0.023 A 
ATOM      2  C1  UNL d   1      -0.143  -0.326   0.707  0.00  0.00     0.003 A 
ATOM      3  C2  UNL d   1       0.384  -0.695   1.946  0.00  0.00     0.048 A 
ATOM      4  C3  UNL d   1      -0.416  -0.626   3.086  0.00  0.00     0.023 A 
ATOM      5  C4  UNL d   1      -1.739  -0.190   2.995  0.00  0.00     0.048 A 
ATOM      6  C5  UNL d   1      -2.261   0.179   1.754  0.00  0.00     0.003 A 
ATOM      7  I   UNL d   1       0.366  -1.175   4.932  0.00  0.00    -0.146 I 
ENDROOT
TORSDOF 0
ENDMDL
