MODEL 1
REMARK minimizedAffinity 1.53583086
REMARK minimizedRMSD -1
REMARK  0 active torsions:
REMARK  status: ('A' for Active; 'I' for Inactive)
ROOT
ATOM      1  C   UNL d   1      -2.497  -0.068   1.122  0.00  0.00     0.023 A 
ATOM      2  C1  UNL d   1      -2.306   0.693  -0.031  0.00  0.00     0.003 A 
ATOM      3  C2  UNL d   1      -1.018   0.898  -0.529  0.00  0.00     0.048 A 
ATOM      4  C3  UNL d   1       0.075   0.338   0.130  0.00  0.00     0.023 A 
ATOM      5  C4  UNL d   1      -0.110  -0.425   1.284  0.00  0.00     0.048 A 
ATOM      6  C5  UNL d   1      -1.400  -0.626   1.779  0.00  0.00     0.003 A 
ATOM      7  I   UNL d   1       1.994   0.642  -0.609  0.00  0.00    -0.146 I 
ENDROOT
TORSDOF 0
ENDMDL
