MODEL 1
REMARK minimizedAffinity -1.7590996
REMARK minimizedRMSD -1
REMARK  0 active torsions:
REMARK  status: ('A' for Active; 'I' for Inactive)
ROOT
ATOM      1  C   UNL d   1      -2.974  -5.584  -0.569  0.00  0.00     0.023 A 
ATOM      2  C1  UNL d   1      -1.606  -5.402  -0.774  0.00  0.00     0.003 A 
ATOM      3  C2  UNL d   1      -1.070  -5.519  -2.058  0.00  0.00     0.048 A 
ATOM      4  C3  UNL d   1      -1.907  -5.818  -3.132  0.00  0.00     0.023 A 
ATOM      5  C4  UNL d   1      -3.277  -6.000  -2.932  0.00  0.00     0.048 A 
ATOM      6  C5  UNL d   1      -3.808  -5.882  -1.646  0.00  0.00     0.003 A 
ATOM      7  I   UNL d   1      -1.112  -5.993  -5.045  0.00  0.00    -0.146 I 
ENDROOT
TORSDOF 0
ENDMDL
