MODEL 1
REMARK minimizedAffinity -4.99183226
REMARK minimizedRMSD -1
REMARK  0 active torsions:
REMARK  status: ('A' for Active; 'I' for Inactive)
ROOT
ATOM      1  C   UNL d   1       0.631  -2.212   1.182  0.00  0.00     0.023 A 
ATOM      2  C1  UNL d   1       1.318  -1.565   2.209  0.00  0.00     0.003 A 
ATOM      3  C2  UNL d   1       1.691  -2.272   3.354  0.00  0.00     0.048 A 
ATOM      4  C3  UNL d   1       1.374  -3.625   3.466  0.00  0.00     0.023 A 
ATOM      5  C4  UNL d   1       0.687  -4.277   2.440  0.00  0.00     0.048 A 
ATOM      6  C5  UNL d   1       0.316  -3.566   1.297  0.00  0.00     0.003 A 
ATOM      7  I   UNL d   1       1.927  -4.679   5.169  0.00  0.00    -0.146 I 
ENDROOT
TORSDOF 0
ENDMDL
