MODEL 1
REMARK minimizedAffinity -3.02784133
REMARK minimizedRMSD -1
REMARK  0 active torsions:
REMARK  status: ('A' for Active; 'I' for Inactive)
ROOT
ATOM      1  C   UNL d   1       2.386  -5.243  -4.868  0.00  0.00     0.023 A 
ATOM      2  C1  UNL d   1       1.254  -5.074  -5.665  0.00  0.00     0.003 A 
ATOM      3  C2  UNL d   1      -0.018  -5.291  -5.130  0.00  0.00     0.048 A 
ATOM      4  C3  UNL d   1      -0.150  -5.676  -3.796  0.00  0.00     0.023 A 
ATOM      5  C4  UNL d   1       0.980  -5.846  -2.995  0.00  0.00     0.048 A 
ATOM      6  C5  UNL d   1       2.249  -5.629  -3.535  0.00  0.00     0.003 A 
ATOM      7  I   UNL d   1      -2.041  -5.999  -2.997  0.00  0.00    -0.146 I 
ENDROOT
TORSDOF 0
ENDMDL
