MODEL 1
REMARK minimizedAffinity -2.68210602
REMARK minimizedRMSD -1
REMARK  0 active torsions:
REMARK  status: ('A' for Active; 'I' for Inactive)
ROOT
ATOM      1  C   UNL d   1       2.372  -5.985   5.193  0.00  0.00     0.023 A 
ATOM      2  C1  UNL d   1       2.049  -4.837   5.918  0.00  0.00     0.003 A 
ATOM      3  C2  UNL d   1       1.888  -3.616   5.259  0.00  0.00     0.048 A 
ATOM      4  C3  UNL d   1       2.050  -3.550   3.876  0.00  0.00     0.023 A 
ATOM      5  C4  UNL d   1       2.373  -4.696   3.146  0.00  0.00     0.048 A 
ATOM      6  C5  UNL d   1       2.534  -5.914   3.809  0.00  0.00     0.003 A 
ATOM      7  I   UNL d   1       1.811  -1.735   2.893  0.00  0.00    -0.146 I 
ENDROOT
TORSDOF 0
ENDMDL
