MODEL 1
REMARK minimizedAffinity -3.02324605
REMARK minimizedRMSD -1
REMARK  0 active torsions:
REMARK  status: ('A' for Active; 'I' for Inactive)
ROOT
ATOM      1  C   UNL d   1      -2.794  -5.961  -1.810  0.00  0.00     0.023 A 
ATOM      2  C1  UNL d   1      -3.216  -5.992  -3.140  0.00  0.00     0.003 A 
ATOM      3  C2  UNL d   1      -2.276  -5.997  -4.172  0.00  0.00     0.048 A 
ATOM      4  C3  UNL d   1      -0.915  -5.971  -3.868  0.00  0.00     0.023 A 
ATOM      5  C4  UNL d   1      -0.488  -5.941  -2.540  0.00  0.00     0.048 A 
ATOM      6  C5  UNL d   1      -1.432  -5.935  -1.511  0.00  0.00     0.003 A 
ATOM      7  I   UNL d   1       0.486  -5.978  -5.404  0.00  0.00    -0.146 I 
ENDROOT
TORSDOF 0
ENDMDL
