MODEL 1
REMARK minimizedAffinity -2.07180166
REMARK minimizedRMSD -1
REMARK  0 active torsions:
REMARK  status: ('A' for Active; 'I' for Inactive)
ROOT
ATOM      1  C   UNL d   1      -0.244  -5.952  -5.442  0.00  0.00     0.023 A 
ATOM      2  C1  UNL d   1      -0.082  -5.978  -4.057  0.00  0.00     0.003 A 
ATOM      3  C2  UNL d   1      -1.201  -5.990  -3.222  0.00  0.00     0.048 A 
ATOM      4  C3  UNL d   1      -2.480  -5.977  -3.778  0.00  0.00     0.023 A 
ATOM      5  C4  UNL d   1      -2.647  -5.952  -5.164  0.00  0.00     0.048 A 
ATOM      6  C5  UNL d   1      -1.525  -5.939  -5.995  0.00  0.00     0.003 A 
ATOM      7  I   UNL d   1      -4.147  -5.996  -2.537  0.00  0.00    -0.146 I 
ENDROOT
TORSDOF 0
ENDMDL
