MODEL 1
REMARK minimizedAffinity -5.52636528
REMARK minimizedRMSD -1
REMARK  0 active torsions:
REMARK  status: ('A' for Active; 'I' for Inactive)
ROOT
ATOM      1  C   UNL d   1       1.400  -1.501   2.133  0.00  0.00     0.023 A 
ATOM      2  C1  UNL d   1       1.930  -1.741   3.401  0.00  0.00     0.003 A 
ATOM      3  C2  UNL d   1       1.905  -3.030   3.937  0.00  0.00     0.048 A 
ATOM      4  C3  UNL d   1       1.349  -4.075   3.200  0.00  0.00     0.023 A 
ATOM      5  C4  UNL d   1       0.818  -3.840   1.930  0.00  0.00     0.048 A 
ATOM      6  C5  UNL d   1       0.845  -2.549   1.399  0.00  0.00     0.003 A 
ATOM      7  I   UNL d   1       1.311  -5.995   3.996  0.00  0.00    -0.146 I 
ENDROOT
TORSDOF 0
ENDMDL
