MODEL 1
REMARK minimizedAffinity -4.06474876
REMARK minimizedRMSD -1
REMARK  0 active torsions:
REMARK  status: ('A' for Active; 'I' for Inactive)
ROOT
ATOM      1  C   UNL d   1      -4.087  -5.988  -0.977  0.00  0.00     0.023 A 
ATOM      2  C1  UNL d   1      -4.495  -6.000  -2.311  0.00  0.00     0.003 A 
ATOM      3  C2  UNL d   1      -3.544  -5.997  -3.333  0.00  0.00     0.048 A 
ATOM      4  C3  UNL d   1      -2.186  -5.983  -3.014  0.00  0.00     0.023 A 
ATOM      5  C4  UNL d   1      -1.773  -5.972  -1.681  0.00  0.00     0.048 A 
ATOM      6  C5  UNL d   1      -2.728  -5.974  -0.662  0.00  0.00     0.003 A 
ATOM      7  I   UNL d   1      -0.769  -5.978  -4.534  0.00  0.00    -0.146 I 
ENDROOT
TORSDOF 0
ENDMDL
