MODEL 1
REMARK minimizedAffinity -1.9107964
REMARK minimizedRMSD -1
REMARK  0 active torsions:
REMARK  status: ('A' for Active; 'I' for Inactive)
ROOT
ATOM      1  C   UNL d   1       0.835  -5.999  -5.368  0.00  0.00     0.023 A 
ATOM      2  C1  UNL d   1      -0.470  -5.997  -5.859  0.00  0.00     0.003 A 
ATOM      3  C2  UNL d   1      -1.550  -5.996  -4.973  0.00  0.00     0.048 A 
ATOM      4  C3  UNL d   1      -1.317  -5.997  -3.599  0.00  0.00     0.023 A 
ATOM      5  C4  UNL d   1      -0.012  -5.998  -3.103  0.00  0.00     0.048 A 
ATOM      6  C5  UNL d   1       1.064  -6.000  -3.992  0.00  0.00     0.003 A 
ATOM      7  I   UNL d   1      -2.922  -5.995  -2.279  0.00  0.00    -0.146 I 
ENDROOT
TORSDOF 0
ENDMDL
