MODEL 1
REMARK minimizedAffinity 3.54274178
REMARK minimizedRMSD -1
REMARK  0 active torsions:
REMARK  status: ('A' for Active; 'I' for Inactive)
ROOT
ATOM      1  C   UNL d   1      -0.471  -1.132  -0.863  0.00  0.00     0.023 A 
ATOM      2  C1  UNL d   1       0.249   0.012  -0.521  0.00  0.00     0.003 A 
ATOM      3  C2  UNL d   1       1.223  -0.047   0.477  0.00  0.00     0.048 A 
ATOM      4  C3  UNL d   1       1.473  -1.254   1.129  0.00  0.00     0.023 A 
ATOM      5  C4  UNL d   1       0.755  -2.402   0.790  0.00  0.00     0.048 A 
ATOM      6  C5  UNL d   1      -0.218  -2.338  -0.208  0.00  0.00     0.003 A 
ATOM      7  I   UNL d   1       2.923  -1.344   2.616  0.00  0.00    -0.146 I 
ENDROOT
TORSDOF 0
ENDMDL
