MODEL 1
REMARK minimizedAffinity -3.56779909
REMARK minimizedRMSD -1
REMARK  0 active torsions:
REMARK  status: ('A' for Active; 'I' for Inactive)
ROOT
ATOM      1  C   UNL d   1       1.816  -1.487   2.235  0.00  0.00     0.023 A 
ATOM      2  C1  UNL d   1       2.707  -1.598   3.302  0.00  0.00     0.003 A 
ATOM      3  C2  UNL d   1       2.660  -2.714   4.140  0.00  0.00     0.048 A 
ATOM      4  C3  UNL d   1       1.719  -3.716   3.905  0.00  0.00     0.023 A 
ATOM      5  C4  UNL d   1       0.826  -3.610   2.838  0.00  0.00     0.048 A 
ATOM      6  C5  UNL d   1       0.876  -2.492   2.003  0.00  0.00     0.003 A 
ATOM      7  I   UNL d   1       1.647  -5.378   5.150  0.00  0.00    -0.146 I 
ENDROOT
TORSDOF 0
ENDMDL
