MODEL 1
REMARK minimizedAffinity -1.81542587
REMARK minimizedRMSD -1
REMARK  0 active torsions:
REMARK  status: ('A' for Active; 'I' for Inactive)
ROOT
ATOM      1  C   UNL d   1       0.900  -5.734  -4.688  0.00  0.00     0.023 A 
ATOM      2  C1  UNL d   1      -0.353  -5.922  -5.273  0.00  0.00     0.003 A 
ATOM      3  C2  UNL d   1      -1.494  -5.999  -4.472  0.00  0.00     0.048 A 
ATOM      4  C3  UNL d   1      -1.376  -5.886  -3.087  0.00  0.00     0.023 A 
ATOM      5  C4  UNL d   1      -0.125  -5.697  -2.498  0.00  0.00     0.048 A 
ATOM      6  C5  UNL d   1       1.014  -5.621  -3.302  0.00  0.00     0.003 A 
ATOM      7  I   UNL d   1      -3.073  -6.000  -1.893  0.00  0.00    -0.146 I 
ENDROOT
TORSDOF 0
ENDMDL
