MODEL 1
REMARK minimizedAffinity 0.303733617
REMARK minimizedRMSD -1
REMARK  0 active torsions:
REMARK  status: ('A' for Active; 'I' for Inactive)
ROOT
ATOM      1  C   UNL d   1      -3.269  -4.268   2.392  0.00  0.00     0.023 A 
ATOM      2  C1  UNL d   1      -2.697  -4.156   1.125  0.00  0.00     0.003 A 
ATOM      3  C2  UNL d   1      -3.371  -4.653   0.007  0.00  0.00     0.048 A 
ATOM      4  C3  UNL d   1      -4.616  -5.260   0.163  0.00  0.00     0.023 A 
ATOM      5  C4  UNL d   1      -5.193  -5.373   1.429  0.00  0.00     0.048 A 
ATOM      6  C5  UNL d   1      -4.515  -4.876   2.544  0.00  0.00     0.003 A 
ATOM      7  I   UNL d   1      -5.621  -6.000  -1.499  0.00  0.00    -0.146 I 
ENDROOT
TORSDOF 0
ENDMDL
