MODEL 1
REMARK minimizedAffinity -3.86414099
REMARK minimizedRMSD -1
REMARK  0 active torsions:
REMARK  status: ('A' for Active; 'I' for Inactive)
ROOT
ATOM      1  C   UNL d   1      -2.874  -5.992  -1.278  0.00  0.00     0.023 A 
ATOM      2  C1  UNL d   1      -1.497  -5.919  -1.491  0.00  0.00     0.003 A 
ATOM      3  C2  UNL d   1      -0.993  -5.853  -2.791  0.00  0.00     0.048 A 
ATOM      4  C3  UNL d   1      -1.871  -5.859  -3.874  0.00  0.00     0.023 A 
ATOM      5  C4  UNL d   1      -3.249  -5.931  -3.666  0.00  0.00     0.048 A 
ATOM      6  C5  UNL d   1      -3.749  -5.998  -2.364  0.00  0.00     0.003 A 
ATOM      7  I   UNL d   1      -1.123  -5.760  -5.811  0.00  0.00    -0.146 I 
ENDROOT
TORSDOF 0
ENDMDL
