MODEL 1
REMARK minimizedAffinity 5.97447348
REMARK minimizedRMSD -1
REMARK  0 active torsions:
REMARK  status: ('A' for Active; 'I' for Inactive)
ROOT
ATOM      1  C   UNL d   1       5.120  -1.056   3.171  0.00  0.00     0.023 A 
ATOM      2  C1  UNL d   1       3.904  -1.462   3.721  0.00  0.00     0.003 A 
ATOM      3  C2  UNL d   1       2.742  -1.436   2.947  0.00  0.00     0.048 A 
ATOM      4  C3  UNL d   1       2.804  -1.005   1.622  0.00  0.00     0.023 A 
ATOM      5  C4  UNL d   1       4.018  -0.599   1.067  0.00  0.00     0.048 A 
ATOM      6  C5  UNL d   1       5.177  -0.625   1.845  0.00  0.00     0.003 A 
ATOM      7  I   UNL d   1       1.076  -0.966   0.467  0.00  0.00    -0.146 I 
ENDROOT
TORSDOF 0
ENDMDL
