MODEL 1
REMARK minimizedAffinity 9.6005125
REMARK minimizedRMSD -1
REMARK  0 active torsions:
REMARK  status: ('A' for Active; 'I' for Inactive)
ROOT
ATOM      1  C   UNL d   1      -5.643   0.733  -1.825  0.00  0.00     0.023 A 
ATOM      2  C1  UNL d   1      -5.193  -0.311  -2.633  0.00  0.00     0.003 A 
ATOM      3  C2  UNL d   1      -4.319  -1.269  -2.115  0.00  0.00     0.048 A 
ATOM      4  C3  UNL d   1      -3.900  -1.178  -0.788  0.00  0.00     0.023 A 
ATOM      5  C4  UNL d   1      -4.349  -0.135   0.024  0.00  0.00     0.048 A 
ATOM      6  C5  UNL d   1      -5.222   0.821  -0.498  0.00  0.00     0.003 A 
ATOM      7  I   UNL d   1      -2.599  -2.603  -0.016  0.00  0.00    -0.146 I 
ENDROOT
TORSDOF 0
ENDMDL
