MODEL 1
REMARK minimizedAffinity 6.74895811
REMARK minimizedRMSD -1
REMARK  0 active torsions:
REMARK  status: ('A' for Active; 'I' for Inactive)
ROOT
ATOM      1  C   UNL d   1       5.348  -1.013   3.647  0.00  0.00     0.023 A 
ATOM      2  C1  UNL d   1       5.403  -0.638   2.304  0.00  0.00     0.003 A 
ATOM      3  C2  UNL d   1       4.236  -0.612   1.537  0.00  0.00     0.048 A 
ATOM      4  C3  UNL d   1       3.018  -0.960   2.120  0.00  0.00     0.023 A 
ATOM      5  C4  UNL d   1       2.958  -1.334   3.463  0.00  0.00     0.048 A 
ATOM      6  C5  UNL d   1       4.128  -1.360   4.225  0.00  0.00     0.003 A 
ATOM      7  I   UNL d   1       1.280  -0.921   0.981  0.00  0.00    -0.146 I 
ENDROOT
TORSDOF 0
ENDMDL
