MODEL 1
REMARK minimizedAffinity 1.43276036
REMARK minimizedRMSD -1
REMARK  0 active torsions:
REMARK  status: ('A' for Active; 'I' for Inactive)
ROOT
ATOM      1  C   UNL d   1      -3.361   1.587  -3.470  0.00  0.00     0.023 A 
ATOM      2  C1  UNL d   1      -2.629   0.720  -2.659  0.00  0.00     0.003 A 
ATOM      3  C2  UNL d   1      -3.202   0.199  -1.497  0.00  0.00     0.048 A 
ATOM      4  C3  UNL d   1      -4.507   0.547  -1.153  0.00  0.00     0.023 A 
ATOM      5  C4  UNL d   1      -5.244   1.413  -1.962  0.00  0.00     0.048 A 
ATOM      6  C5  UNL d   1      -4.667   1.933  -3.123  0.00  0.00     0.003 A 
ATOM      7  I   UNL d   1      -5.362  -0.228   0.576  0.00  0.00    -0.146 I 
ENDROOT
TORSDOF 0
ENDMDL
