MODEL 1
REMARK minimizedAffinity 5.41989756
REMARK minimizedRMSD -1
REMARK  0 active torsions:
REMARK  status: ('A' for Active; 'I' for Inactive)
ROOT
ATOM      1  C2' OXE d   1       2.067  -1.583   4.131  0.00  0.00     0.078 C 
ATOM      2  C1' OXE d   1       2.883  -4.266   4.007  0.00  0.00     0.078 C 
ATOM      3  C1  OXE d   1       2.150  -3.698   2.818  0.00  0.00    -0.078 A 
ATOM      4  C2  OXE d   1       1.713  -2.398   2.906  0.00  0.00    -0.078 A 
ATOM      5  C3  OXE d   1       1.080  -1.808   1.816  0.00  0.00     0.003 A 
ATOM      6  C4  OXE d   1       0.748  -2.571   0.690  0.00  0.00    -0.002 A 
ATOM      7  C5  OXE d   1       1.148  -3.909   0.596  0.00  0.00    -0.002 A 
ATOM      8  C6  OXE d   1       1.885  -4.473   1.631  0.00  0.00     0.003 A 
ENDROOT
TORSDOF 0
ENDMDL
