MODEL 1
REMARK minimizedAffinity 4.26268435
REMARK minimizedRMSD -1
REMARK  0 active torsions:
REMARK  status: ('A' for Active; 'I' for Inactive)
ROOT
ATOM      1  C2' OXE d   1       5.201  -5.963  -5.974  0.00  0.00     0.078 C 
ATOM      2  C1' OXE d   1       2.394  -5.999  -5.981  0.00  0.00     0.078 C 
ATOM      3  C1  OXE d   1       3.094  -5.965  -4.645  0.00  0.00    -0.078 A 
ATOM      4  C2  OXE d   1       4.468  -5.995  -4.650  0.00  0.00    -0.078 A 
ATOM      5  C3  OXE d   1       5.164  -5.911  -3.448  0.00  0.00     0.003 A 
ATOM      6  C4  OXE d   1       4.478  -5.951  -2.228  0.00  0.00    -0.002 A 
ATOM      7  C5  OXE d   1       3.079  -5.961  -2.199  0.00  0.00    -0.002 A 
ATOM      8  C6  OXE d   1       2.373  -5.925  -3.397  0.00  0.00     0.003 A 
ENDROOT
TORSDOF 0
ENDMDL
