MODEL 1
REMARK minimizedAffinity 0.923294187
REMARK minimizedRMSD -1
REMARK  0 active torsions:
REMARK  status: ('A' for Active; 'I' for Inactive)
ROOT
ATOM      1  C2' OXE d   1       5.012  -2.137   3.722  0.00  0.00     0.078 C 
ATOM      2  C1' OXE d   1       2.782  -0.710   2.788  0.00  0.00     0.078 C 
ATOM      3  C1  OXE d   1       2.547  -2.084   3.365  0.00  0.00    -0.078 A 
ATOM      4  C2  OXE d   1       3.649  -2.794   3.777  0.00  0.00    -0.078 A 
ATOM      5  C3  OXE d   1       3.483  -4.043   4.367  0.00  0.00     0.003 A 
ATOM      6  C4  OXE d   1       2.221  -4.648   4.404  0.00  0.00    -0.002 A 
ATOM      7  C5  OXE d   1       1.090  -3.958   3.954  0.00  0.00    -0.002 A 
ATOM      8  C6  OXE d   1       1.230  -2.661   3.471  0.00  0.00     0.003 A 
ENDROOT
TORSDOF 0
ENDMDL
