MODEL 1
REMARK minimizedAffinity 10.0433702
REMARK minimizedRMSD -1
REMARK  0 active torsions:
REMARK  status: ('A' for Active; 'I' for Inactive)
ROOT
ATOM      1  C2' OXE d   1       1.606  -1.156   1.913  0.00  0.00     0.078 C 
ATOM      2  C1' OXE d   1       2.592  -0.602  -0.656  0.00  0.00     0.078 C 
ATOM      3  C1  OXE d   1       2.730   0.469   0.396  0.00  0.00    -0.078 A 
ATOM      4  C2  OXE d   1       2.203   0.208   1.638  0.00  0.00    -0.078 A 
ATOM      5  C3  OXE d   1       2.352   1.140   2.660  0.00  0.00     0.003 A 
ATOM      6  C4  OXE d   1       2.897   2.403   2.394  0.00  0.00    -0.002 A 
ATOM      7  C5  OXE d   1       3.403   2.704   1.126  0.00  0.00    -0.002 A 
ATOM      8  C6  OXE d   1       3.367   1.735   0.129  0.00  0.00     0.003 A 
ENDROOT
TORSDOF 0
ENDMDL
