MODEL 1
REMARK minimizedAffinity 6.2018981
REMARK minimizedRMSD -1
REMARK  0 active torsions:
REMARK  status: ('A' for Active; 'I' for Inactive)
ROOT
ATOM      1  C2' OXE d   1       2.678  -5.953   5.998  0.00  0.00     0.078 C 
ATOM      2  C1' OXE d   1       0.055  -5.757   5.017  0.00  0.00     0.078 C 
ATOM      3  C1  OXE d   1       1.069  -4.759   4.518  0.00  0.00    -0.078 A 
ATOM      4  C2  OXE d   1       2.339  -4.833   5.038  0.00  0.00    -0.078 A 
ATOM      5  C3  OXE d   1       3.327  -3.971   4.571  0.00  0.00     0.003 A 
ATOM      6  C4  OXE d   1       3.002  -2.932   3.691  0.00  0.00    -0.002 A 
ATOM      7  C5  OXE d   1       1.706  -2.814   3.179  0.00  0.00    -0.002 A 
ATOM      8  C6  OXE d   1       0.740  -3.743   3.548  0.00  0.00     0.003 A 
ENDROOT
TORSDOF 0
ENDMDL
