MODEL 1
REMARK minimizedAffinity 14.2425041
REMARK minimizedRMSD -1
REMARK  0 active torsions:
REMARK  status: ('A' for Active; 'I' for Inactive)
ROOT
ATOM      1  C2' OXE d   1      -5.612   2.917  -3.497  0.00  0.00     0.078 C 
ATOM      2  C1' OXE d   1      -5.527   2.591  -0.710  0.00  0.00     0.078 C 
ATOM      3  C1  OXE d   1      -4.477   1.887  -1.533  0.00  0.00    -0.078 A 
ATOM      4  C2  OXE d   1      -4.555   2.014  -2.899  0.00  0.00    -0.078 A 
ATOM      5  C3  OXE d   1      -3.579   1.430  -3.702  0.00  0.00     0.003 A 
ATOM      6  C4  OXE d   1      -2.611   0.588  -3.142  0.00  0.00    -0.002 A 
ATOM      7  C5  OXE d   1      -2.538   0.413  -1.756  0.00  0.00    -0.002 A 
ATOM      8  C6  OXE d   1      -3.436   1.088  -0.936  0.00  0.00     0.003 A 
ENDROOT
TORSDOF 0
ENDMDL
