MODEL 1
REMARK minimizedAffinity 5.38837862
REMARK minimizedRMSD -1
REMARK  0 active torsions:
REMARK  status: ('A' for Active; 'I' for Inactive)
ROOT
ATOM      1  C2' OXE d   1       0.450  -2.154   1.363  0.00  0.00     0.078 C 
ATOM      2  C1' OXE d   1       1.779  -0.669   3.340  0.00  0.00     0.078 C 
ATOM      3  C1  OXE d   1       2.033  -2.155   3.286  0.00  0.00    -0.078 A 
ATOM      4  C2  OXE d   1       1.342  -2.881   2.345  0.00  0.00    -0.078 A 
ATOM      5  C3  OXE d   1       1.581  -4.246   2.217  0.00  0.00     0.003 A 
ATOM      6  C4  OXE d   1       2.400  -4.912   3.136  0.00  0.00    -0.002 A 
ATOM      7  C5  OXE d   1       3.082  -4.198   4.127  0.00  0.00    -0.002 A 
ATOM      8  C6  OXE d   1       2.943  -2.816   4.189  0.00  0.00     0.003 A 
ENDROOT
TORSDOF 0
ENDMDL
