MODEL 1
REMARK minimizedAffinity -1.31475031
REMARK minimizedRMSD -1
REMARK  0 active torsions:
REMARK  status: ('A' for Active; 'I' for Inactive)
ROOT
ATOM      1  C2' OXE d   1       4.826  -5.947  -4.632  0.00  0.00     0.078 C 
ATOM      2  C1' OXE d   1       2.242  -5.982  -5.729  0.00  0.00     0.078 C 
ATOM      3  C1  OXE d   1       2.368  -5.968  -4.226  0.00  0.00    -0.078 A 
ATOM      4  C2  OXE d   1       3.636  -5.999  -3.697  0.00  0.00    -0.078 A 
ATOM      5  C3  OXE d   1       3.810  -5.932  -2.318  0.00  0.00     0.003 A 
ATOM      6  C4  OXE d   1       2.704  -5.990  -1.461  0.00  0.00    -0.002 A 
ATOM      7  C5  OXE d   1       1.405  -5.999  -1.978  0.00  0.00    -0.002 A 
ATOM      8  C6  OXE d   1       1.219  -5.946  -3.355  0.00  0.00     0.003 A 
ENDROOT
TORSDOF 0
ENDMDL
