MODEL 1
REMARK minimizedAffinity 8.89278316
REMARK minimizedRMSD -1
REMARK  0 active torsions:
REMARK  status: ('A' for Active; 'I' for Inactive)
ROOT
ATOM      1  C2' OXE d   1       3.103   2.320   0.402  0.00  0.00     0.078 C 
ATOM      2  C1' OXE d   1       2.694   2.979   3.100  0.00  0.00     0.078 C 
ATOM      3  C1  OXE d   1       2.408   1.561   2.671  0.00  0.00    -0.078 A 
ATOM      4  C2  OXE d   1       2.566   1.260   1.340  0.00  0.00    -0.078 A 
ATOM      5  C3  OXE d   1       2.369  -0.047   0.901  0.00  0.00     0.003 A 
ATOM      6  C4  OXE d   1       1.863  -1.019   1.773  0.00  0.00    -0.002 A 
ATOM      7  C5  OXE d   1       1.657  -0.722   3.124  0.00  0.00    -0.002 A 
ATOM      8  C6  OXE d   1       1.964   0.549   3.597  0.00  0.00     0.003 A 
ENDROOT
TORSDOF 0
ENDMDL
