MODEL 1
REMARK minimizedAffinity 7.70293617
REMARK minimizedRMSD -1
REMARK  0 active torsions:
REMARK  status: ('A' for Active; 'I' for Inactive)
ROOT
ATOM      1  C2' OXE d   1       3.134   2.746   2.981  0.00  0.00     0.078 C 
ATOM      2  C1' OXE d   1       2.491   2.108   0.324  0.00  0.00     0.078 C 
ATOM      3  C1  OXE d   1       2.307   1.037   1.369  0.00  0.00    -0.078 A 
ATOM      4  C2  OXE d   1       2.669   1.343   2.659  0.00  0.00    -0.078 A 
ATOM      5  C3  OXE d   1       2.468   0.408   3.671  0.00  0.00     0.003 A 
ATOM      6  C4  OXE d   1       2.046  -0.891   3.363  0.00  0.00    -0.002 A 
ATOM      7  C5  OXE d   1       1.710  -1.236   2.049  0.00  0.00    -0.002 A 
ATOM      8  C6  OXE d   1       1.795  -0.273   1.050  0.00  0.00     0.003 A 
ENDROOT
TORSDOF 0
ENDMDL
