MODEL 1
REMARK minimizedAffinity 7.2351923
REMARK minimizedRMSD -1
REMARK  0 active torsions:
REMARK  status: ('A' for Active; 'I' for Inactive)
ROOT
ATOM      1  C2' OXE d   1       0.136  -0.730   1.873  0.00  0.00     0.078 C 
ATOM      2  C1' OXE d   1       2.743   0.185   1.378  0.00  0.00     0.078 C 
ATOM      3  C1  OXE d   1       2.535  -0.749   2.544  0.00  0.00    -0.078 A 
ATOM      4  C2  OXE d   1       1.249  -1.155   2.807  0.00  0.00    -0.078 A 
ATOM      5  C3  OXE d   1       1.008  -2.059   3.837  0.00  0.00     0.003 A 
ATOM      6  C4  OXE d   1       2.042  -2.440   4.702  0.00  0.00    -0.002 A 
ATOM      7  C5  OXE d   1       3.353  -2.007   4.476  0.00  0.00    -0.002 A 
ATOM      8  C6  OXE d   1       3.623  -1.197   3.378  0.00  0.00     0.003 A 
ENDROOT
TORSDOF 0
ENDMDL
