MODEL 1
REMARK minimizedAffinity 13.6844101
REMARK minimizedRMSD -1
REMARK  0 active torsions:
REMARK  status: ('A' for Active; 'I' for Inactive)
ROOT
ATOM      1  C2' OXE d   1      -3.004   1.772  -2.758  0.00  0.00     0.078 C 
ATOM      2  C1' OXE d   1      -5.674   1.335  -2.008  0.00  0.00     0.078 C 
ATOM      3  C1  OXE d   1      -4.883   0.155  -2.513  0.00  0.00    -0.078 A 
ATOM      4  C2  OXE d   1      -3.591   0.387  -2.922  0.00  0.00    -0.078 A 
ATOM      5  C3  OXE d   1      -2.800  -0.677  -3.345  0.00  0.00     0.003 A 
ATOM      6  C4  OXE d   1      -3.354  -1.953  -3.504  0.00  0.00    -0.002 A 
ATOM      7  C5  OXE d   1      -4.679  -2.203  -3.131  0.00  0.00    -0.002 A 
ATOM      8  C6  OXE d   1      -5.443  -1.172  -2.595  0.00  0.00     0.003 A 
ENDROOT
TORSDOF 0
ENDMDL
