MODEL 1
REMARK minimizedAffinity 8.30373955
REMARK minimizedRMSD -1
REMARK  0 active torsions:
REMARK  status: ('A' for Active; 'I' for Inactive)
ROOT
ATOM      1  C2' OXE d   1       2.935  -5.199   2.631  0.00  0.00     0.078 C 
ATOM      2  C1' OXE d   1       2.293  -5.428   5.354  0.00  0.00     0.078 C 
ATOM      3  C1  OXE d   1       2.257  -4.052   4.736  0.00  0.00    -0.078 A 
ATOM      4  C2  OXE d   1       2.618  -3.944   3.414  0.00  0.00    -0.078 A 
ATOM      5  C3  OXE d   1       2.549  -2.706   2.780  0.00  0.00     0.003 A 
ATOM      6  C4  OXE d   1       2.265  -1.549   3.515  0.00  0.00    -0.002 A 
ATOM      7  C5  OXE d   1       1.933  -1.632   4.871  0.00  0.00    -0.002 A 
ATOM      8  C6  OXE d   1       1.884  -2.878   5.485  0.00  0.00     0.003 A 
ENDROOT
TORSDOF 0
ENDMDL
