MODEL 1
REMARK minimizedAffinity -4.9860878
REMARK minimizedRMSD -1
REMARK  1 active torsions:
REMARK  status: ('A' for Active; 'I' for Inactive)
REMARK    1  A    between atoms: C1_2  and  C2_3 
ROOT
ATOM      1  C2  UNL d   1       0.226  -0.674  -0.321  0.00  0.00    -0.081 A 
ATOM      2  C3  UNL d   1       1.118  -0.531   0.749  0.00  0.00     0.006 A 
ATOM      3  C4  UNL d   1       0.696   0.039   1.952  0.00  0.00     0.002 A 
ATOM      4  C5  UNL d   1      -0.626   0.468   2.109  0.00  0.00    -0.080 A 
ATOM      5  C6  UNL d   1      -1.100   1.053   3.406  0.00  0.00     0.076 C 
ATOM      6  C7  UNL d   1      -1.513   0.341   1.035  0.00  0.00     0.002 A 
ATOM      7  C8  UNL d   1      -1.092  -0.228  -0.169  0.00  0.00     0.006 A 
ENDROOT
BRANCH   1   8
ATOM      8  C1  UNL d   1       0.660  -1.347  -1.597  0.00  0.00     0.054 C 
ATOM      9  C   UNL d   1       1.012  -0.325  -2.669  0.00  0.00     0.018 C 
ENDBRANCH   1   8
TORSDOF 1
ENDMDL
