MODEL 1
REMARK minimizedAffinity 0.660230458
REMARK minimizedRMSD -1
REMARK  1 active torsions:
REMARK  status: ('A' for Active; 'I' for Inactive)
REMARK    1  A    between atoms: C1_2  and  C2_3 
ROOT
ATOM      1  C2  UNL d   1       0.034  -0.288  -1.362  0.00  0.00    -0.081 A 
ATOM      2  C3  UNL d   1      -1.304  -0.100  -0.997  0.00  0.00     0.006 A 
ATOM      3  C4  UNL d   1      -1.640   0.231   0.318  0.00  0.00     0.002 A 
ATOM      4  C5  UNL d   1      -0.644   0.386   1.288  0.00  0.00    -0.080 A 
ATOM      5  C6  UNL d   1      -0.989   0.770   2.696  0.00  0.00     0.076 C 
ATOM      6  C7  UNL d   1       0.692   0.180   0.928  0.00  0.00     0.002 A 
ATOM      7  C8  UNL d   1       1.029  -0.151  -0.387  0.00  0.00     0.006 A 
ENDROOT
BRANCH   1   8
ATOM      8  C1  UNL d   1       0.405  -0.581  -2.793  0.00  0.00     0.054 C 
ATOM      9  C   UNL d   1       0.743   0.696  -3.549  0.00  0.00     0.018 C 
ENDBRANCH   1   8
TORSDOF 1
ENDMDL
