MODEL 1
REMARK minimizedAffinity -4.84707737
REMARK minimizedRMSD -1
REMARK  1 active torsions:
REMARK  status: ('A' for Active; 'I' for Inactive)
REMARK    1  A    between atoms: C1_2  and  C2_3 
ROOT
ATOM      1  C2  UNL d   1      -0.064  -0.239  -0.580  0.00  0.00    -0.081 A 
ATOM      2  C3  UNL d   1      -1.346   0.225  -0.261  0.00  0.00     0.006 A 
ATOM      3  C4  UNL d   1      -1.598   0.807   0.983  0.00  0.00     0.002 A 
ATOM      4  C5  UNL d   1      -0.573   0.943   1.925  0.00  0.00    -0.080 A 
ATOM      5  C6  UNL d   1      -0.824   1.593   3.253  0.00  0.00     0.076 C 
ATOM      6  C7  UNL d   1       0.704   0.463   1.613  0.00  0.00     0.002 A 
ATOM      7  C8  UNL d   1       0.957  -0.120   0.369  0.00  0.00     0.006 A 
ENDROOT
BRANCH   1   8
ATOM      8  C1  UNL d   1       0.227  -0.809  -1.945  0.00  0.00     0.054 C 
ATOM      9  C   UNL d   1       1.157   0.099  -2.737  0.00  0.00     0.018 C 
ENDBRANCH   1   8
TORSDOF 1
ENDMDL
