MODEL 1
REMARK minimizedAffinity -5.53170824
REMARK minimizedRMSD -1
REMARK  1 active torsions:
REMARK  status: ('A' for Active; 'I' for Inactive)
REMARK    1  A    between atoms: C1_2  and  C2_3 
ROOT
ATOM      1  C2  UNL d   1       0.228   0.468   2.062  0.00  0.00    -0.081 A 
ATOM      2  C3  UNL d   1      -1.037   0.966   2.396  0.00  0.00     0.006 A 
ATOM      3  C4  UNL d   1      -2.078   0.937   1.464  0.00  0.00     0.002 A 
ATOM      4  C5  UNL d   1      -1.873   0.404   0.187  0.00  0.00    -0.080 A 
ATOM      5  C6  UNL d   1      -2.989   0.340  -0.813  0.00  0.00     0.076 C 
ATOM      6  C7  UNL d   1      -0.604  -0.077  -0.153  0.00  0.00     0.002 A 
ATOM      7  C8  UNL d   1       0.437  -0.048   0.778  0.00  0.00     0.006 A 
ENDROOT
BRANCH   1   8
ATOM      8  C1  UNL d   1       1.334   0.438   3.086  0.00  0.00     0.054 C 
ATOM      9  C   UNL d   1       2.526  -0.368   2.589  0.00  0.00     0.018 C 
ENDBRANCH   1   8
TORSDOF 1
ENDMDL
