MODEL 1
REMARK minimizedAffinity -4.94842863
REMARK minimizedRMSD -1
REMARK  1 active torsions:
REMARK  status: ('A' for Active; 'I' for Inactive)
REMARK    1  A    between atoms: C1_2  and  C2_3 
ROOT
ATOM      1  C2  UNL d   1      -0.812   0.371   2.016  0.00  0.00    -0.081 A 
ATOM      2  C3  UNL d   1      -1.490   0.054   0.833  0.00  0.00     0.006 A 
ATOM      3  C4  UNL d   1      -0.784  -0.150  -0.355  0.00  0.00     0.002 A 
ATOM      4  C5  UNL d   1       0.611  -0.049  -0.378  0.00  0.00    -0.080 A 
ATOM      5  C6  UNL d   1       1.384  -0.295  -1.639  0.00  0.00     0.076 C 
ATOM      6  C7  UNL d   1       1.287   0.284   0.801  0.00  0.00     0.002 A 
ATOM      7  C8  UNL d   1       0.582   0.489   1.989  0.00  0.00     0.006 A 
ENDROOT
BRANCH   1   8
ATOM      8  C1  UNL d   1      -1.565   0.528   3.313  0.00  0.00     0.054 C 
ATOM      9  C   UNL d   1      -2.473  -0.666   3.573  0.00  0.00     0.018 C 
ENDBRANCH   1   8
TORSDOF 1
ENDMDL
