MODEL 1
REMARK minimizedAffinity -5.97580528
REMARK minimizedRMSD -1
REMARK  1 active torsions:
REMARK  status: ('A' for Active; 'I' for Inactive)
REMARK    1  A    between atoms: C1_2  and  C2_3 
ROOT
ATOM      1  C2  UNL d   1       0.113  -0.445  -0.191  0.00  0.00    -0.081 A 
ATOM      2  C3  UNL d   1      -1.219  -0.164   0.139  0.00  0.00     0.006 A 
ATOM      3  C4  UNL d   1      -1.522   0.606   1.264  0.00  0.00     0.002 A 
ATOM      4  C5  UNL d   1      -0.500   1.115   2.073  0.00  0.00    -0.080 A 
ATOM      5  C6  UNL d   1      -0.811   1.968   3.266  0.00  0.00     0.076 C 
ATOM      6  C7  UNL d   1       0.830   0.820   1.753  0.00  0.00     0.002 A 
ATOM      7  C8  UNL d   1       1.134   0.050   0.628  0.00  0.00     0.006 A 
ENDROOT
BRANCH   1   8
ATOM      8  C1  UNL d   1       0.446  -1.221  -1.440  0.00  0.00     0.054 C 
ATOM      9  C   UNL d   1       0.937  -0.301  -2.548  0.00  0.00     0.018 C 
ENDBRANCH   1   8
TORSDOF 1
ENDMDL
