MODEL 1
REMARK minimizedAffinity -4.79423952
REMARK minimizedRMSD -1
REMARK  1 active torsions:
REMARK  status: ('A' for Active; 'I' for Inactive)
REMARK    1  A    between atoms: C1_2  and  C2_3 
ROOT
ATOM      1  C2  UNL d   1       0.640  -0.607  -0.151  0.00  0.00    -0.081 A 
ATOM      2  C3  UNL d   1       1.528  -0.382   0.908  0.00  0.00     0.006 A 
ATOM      3  C4  UNL d   1       1.126   0.353   2.025  0.00  0.00     0.002 A 
ATOM      4  C5  UNL d   1      -0.172   0.870   2.106  0.00  0.00    -0.080 A 
ATOM      5  C6  UNL d   1      -0.625   1.635   3.313  0.00  0.00     0.076 C 
ATOM      6  C7  UNL d   1      -1.054   0.660   1.040  0.00  0.00     0.002 A 
ATOM      7  C8  UNL d   1      -0.652  -0.075  -0.077  0.00  0.00     0.006 A 
ENDROOT
BRANCH   1   8
ATOM      8  C1  UNL d   1       1.050  -1.455  -1.328  0.00  0.00     0.054 C 
ATOM      9  C   UNL d   1       0.890  -0.697  -2.638  0.00  0.00     0.018 C 
ENDBRANCH   1   8
TORSDOF 1
ENDMDL
