MODEL 1
REMARK minimizedAffinity -3.94585037
REMARK minimizedRMSD -1
REMARK  1 active torsions:
REMARK  status: ('A' for Active; 'I' for Inactive)
REMARK    1  A    between atoms: C1_2  and  C2_3 
ROOT
ATOM      1  C2  UNL d   1       0.060  -0.132  -0.702  0.00  0.00    -0.081 A 
ATOM      2  C3  UNL d   1      -1.268   0.184  -0.390  0.00  0.00     0.006 A 
ATOM      3  C4  UNL d   1      -1.604   0.662   0.879  0.00  0.00     0.002 A 
ATOM      4  C5  UNL d   1      -0.617   0.840   1.854  0.00  0.00    -0.080 A 
ATOM      5  C6  UNL d   1      -0.959   1.382   3.210  0.00  0.00     0.076 C 
ATOM      6  C7  UNL d   1       0.708   0.508   1.549  0.00  0.00     0.002 A 
ATOM      7  C8  UNL d   1       1.044   0.030   0.280  0.00  0.00     0.006 A 
ENDROOT
BRANCH   1   8
ATOM      8  C1  UNL d   1       0.435  -0.586  -2.089  0.00  0.00     0.054 C 
ATOM      9  C   UNL d   1       1.041   0.551  -2.899  0.00  0.00     0.018 C 
ENDBRANCH   1   8
TORSDOF 1
ENDMDL
