MODEL 1
REMARK minimizedAffinity -4.77473068
REMARK minimizedRMSD -1
REMARK  1 active torsions:
REMARK  status: ('A' for Active; 'I' for Inactive)
REMARK    1  A    between atoms: C1_2  and  C2_3 
ROOT
ATOM      1  C2  UNL d   1       0.605   0.289   2.312  0.00  0.00    -0.081 A 
ATOM      2  C3  UNL d   1      -0.624   0.807   2.739  0.00  0.00     0.006 A 
ATOM      3  C4  UNL d   1      -1.732   0.793   1.889  0.00  0.00     0.002 A 
ATOM      4  C5  UNL d   1      -1.632   0.256   0.601  0.00  0.00    -0.080 A 
ATOM      5  C6  UNL d   1      -2.822   0.208  -0.311  0.00  0.00     0.076 C 
ATOM      6  C7  UNL d   1      -0.400  -0.245   0.168  0.00  0.00     0.002 A 
ATOM      7  C8  UNL d   1       0.709  -0.231   1.018  0.00  0.00     0.006 A 
ENDROOT
BRANCH   1   8
ATOM      8  C1  UNL d   1       1.785   0.243   3.249  0.00  0.00     0.054 C 
ATOM      9  C   UNL d   1       2.843  -0.735   2.759  0.00  0.00     0.018 C 
ENDBRANCH   1   8
TORSDOF 1
ENDMDL
