MODEL 1
REMARK minimizedAffinity 5.75106287
REMARK minimizedRMSD -1
REMARK  1 active torsions:
REMARK  status: ('A' for Active; 'I' for Inactive)
REMARK    1  A    between atoms: C3_4  and  O_7 
ROOT
ATOM      1  C   UNL d   1      -2.838   3.501   2.242  0.00  0.00    -0.033 A 
ATOM      2  C1  UNL d   1      -3.931   4.107   2.866  0.00  0.00     0.039 A 
ATOM      3  C2  UNL d   1      -5.005   4.568   2.103  0.00  0.00    -0.080 A 
ATOM      4  C3  UNL d   1      -4.975   4.418   0.719  0.00  0.00     0.150 A 
ATOM      5  C4  UNL d   1      -3.892   3.812   0.091  0.00  0.00    -0.007 A 
ATOM      6  C5  UNL d   1      -2.819   3.353   0.854  0.00  0.00     0.039 A 
ENDROOT
BRANCH   4   7
ATOM      7  O   UNL d   1      -5.998   4.857  -0.068  0.00  0.00    -0.526 OA
ATOM      8  H5  UNL d   1      -6.664   5.280   0.500  0.00  0.00     0.418 HD
ENDBRANCH   4   7
TORSDOF 1
ENDMDL
