MODEL 1
REMARK minimizedAffinity 7.32441187
REMARK minimizedRMSD -1
REMARK  1 active torsions:
REMARK  status: ('A' for Active; 'I' for Inactive)
REMARK    1  A    between atoms: C3_4  and  O_7 
ROOT
ATOM      1  C   UNL d   1      -5.998   5.255  -0.380  0.00  0.00    -0.033 A 
ATOM      2  C1  UNL d   1      -6.000   5.655   0.958  0.00  0.00     0.039 A 
ATOM      3  C2  UNL d   1      -5.999   4.697   1.974  0.00  0.00    -0.080 A 
ATOM      4  C3  UNL d   1      -5.996   3.346   1.640  0.00  0.00     0.150 A 
ATOM      5  C4  UNL d   1      -5.990   2.941   0.309  0.00  0.00    -0.007 A 
ATOM      6  C5  UNL d   1      -5.992   3.898  -0.704  0.00  0.00     0.039 A 
ENDROOT
BRANCH   4   7
ATOM      7  O   UNL d   1      -5.999   2.375   2.597  0.00  0.00    -0.526 OA
ATOM      8  H5  UNL d   1      -6.032   2.803   3.469  0.00  0.00     0.418 HD
ENDBRANCH   4   7
TORSDOF 1
ENDMDL
