MODEL 1
REMARK minimizedAffinity 5.23156214
REMARK minimizedRMSD -1
REMARK  1 active torsions:
REMARK  status: ('A' for Active; 'I' for Inactive)
REMARK    1  A    between atoms: C3_4  and  O_7 
ROOT
ATOM      1  C   UNL d   1      -5.703  -3.400  -6.000  0.00  0.00    -0.033 A 
ATOM      2  C1  UNL d   1      -4.700  -2.898  -5.168  0.00  0.00     0.039 A 
ATOM      3  C2  UNL d   1      -3.988  -3.760  -4.331  0.00  0.00    -0.080 A 
ATOM      4  C3  UNL d   1      -4.288  -5.119  -4.336  0.00  0.00     0.150 A 
ATOM      5  C4  UNL d   1      -5.284  -5.626  -5.165  0.00  0.00    -0.007 A 
ATOM      6  C5  UNL d   1      -5.993  -4.764  -5.999  0.00  0.00     0.039 A 
ENDROOT
BRANCH   4   7
ATOM      7  O   UNL d   1      -3.625  -5.998  -3.533  0.00  0.00    -0.526 OA
ATOM      8  H5  UNL d   1      -2.985  -5.502  -2.995  0.00  0.00     0.418 HD
ENDBRANCH   4   7
TORSDOF 1
ENDMDL
