MODEL 1
REMARK minimizedAffinity 7.26849461
REMARK minimizedRMSD -1
REMARK  1 active torsions:
REMARK  status: ('A' for Active; 'I' for Inactive)
REMARK    1  A    between atoms: C3_4  and  O_7 
ROOT
ATOM      1  C   UNL d   1      -5.316  -5.585  -5.876  0.00  0.00    -0.033 A 
ATOM      2  C1  UNL d   1      -5.999  -4.373  -5.998  0.00  0.00     0.039 A 
ATOM      3  C2  UNL d   1      -5.472  -3.212  -5.429  0.00  0.00    -0.080 A 
ATOM      4  C3  UNL d   1      -4.262  -3.276  -4.744  0.00  0.00     0.150 A 
ATOM      5  C4  UNL d   1      -3.574  -4.479  -4.622  0.00  0.00    -0.007 A 
ATOM      6  C5  UNL d   1      -4.103  -5.638  -5.189  0.00  0.00     0.039 A 
ENDROOT
BRANCH   4   7
ATOM      7  O   UNL d   1      -3.710  -2.171  -4.168  0.00  0.00    -0.526 OA
ATOM      8  H5  UNL d   1      -4.309  -1.419  -4.308  0.00  0.00     0.418 HD
ENDBRANCH   4   7
TORSDOF 1
ENDMDL
