MODEL 1
REMARK minimizedAffinity 8.08334446
REMARK minimizedRMSD -1
REMARK  1 active torsions:
REMARK  status: ('A' for Active; 'I' for Inactive)
REMARK    1  A    between atoms: C3_4  and  O_7 
ROOT
ATOM      1  C   UNL d   1      -3.160   2.897   0.262  0.00  0.00    -0.033 A 
ATOM      2  C1  UNL d   1      -3.995   3.093  -0.840  0.00  0.00     0.039 A 
ATOM      3  C2  UNL d   1      -3.784   2.370  -2.015  0.00  0.00    -0.080 A 
ATOM      4  C3  UNL d   1      -2.737   1.455  -2.076  0.00  0.00     0.150 A 
ATOM      5  C4  UNL d   1      -1.903   1.252  -0.981  0.00  0.00    -0.007 A 
ATOM      6  C5  UNL d   1      -2.115   1.976   0.192  0.00  0.00     0.039 A 
ENDROOT
BRANCH   4   7
ATOM      7  O   UNL d   1      -2.489   0.729  -3.203  0.00  0.00    -0.526 OA
ATOM      8  H5  UNL d   1      -3.126   0.995  -3.887  0.00  0.00     0.418 HD
ENDBRANCH   4   7
TORSDOF 1
ENDMDL
