MODEL 1
REMARK minimizedAffinity 8.21989918
REMARK minimizedRMSD -1
REMARK  1 active torsions:
REMARK  status: ('A' for Active; 'I' for Inactive)
REMARK    1  A    between atoms: C3_4  and  O_7 
ROOT
ATOM      1  C   UNL d   1       2.479  -1.831   2.348  0.00  0.00    -0.033 A 
ATOM      2  C1  UNL d   1       3.797  -2.179   2.044  0.00  0.00     0.039 A 
ATOM      3  C2  UNL d   1       4.516  -1.441   1.102  0.00  0.00    -0.080 A 
ATOM      4  C3  UNL d   1       3.908  -0.359   0.473  0.00  0.00     0.150 A 
ATOM      5  C4  UNL d   1       2.596  -0.004   0.773  0.00  0.00    -0.007 A 
ATOM      6  C5  UNL d   1       1.879  -0.743   1.713  0.00  0.00     0.039 A 
ENDROOT
BRANCH   4   7
ATOM      7  O   UNL d   1       4.568   0.388  -0.457  0.00  0.00    -0.526 OA
ATOM      8  H5  UNL d   1       5.454   0.010  -0.584  0.00  0.00     0.418 HD
ENDBRANCH   4   7
TORSDOF 1
ENDMDL
