MODEL 1
REMARK minimizedAffinity 8.3896656
REMARK minimizedRMSD -1
REMARK  1 active torsions:
REMARK  status: ('A' for Active; 'I' for Inactive)
REMARK    1  A    between atoms: C3_4  and  O_7 
ROOT
ATOM      1  C   UNL d   1       1.754  -1.402   1.966  0.00  0.00    -0.033 A 
ATOM      2  C1  UNL d   1       3.000  -1.357   1.338  0.00  0.00     0.039 A 
ATOM      3  C2  UNL d   1       3.575  -0.127   1.010  0.00  0.00    -0.080 A 
ATOM      4  C3  UNL d   1       2.895   1.048   1.317  0.00  0.00     0.150 A 
ATOM      5  C4  UNL d   1       1.655   1.011   1.947  0.00  0.00    -0.007 A 
ATOM      6  C5  UNL d   1       1.083  -0.218   2.272  0.00  0.00     0.039 A 
ENDROOT
BRANCH   4   7
ATOM      7  O   UNL d   1       3.414   2.272   1.013  0.00  0.00    -0.526 OA
ATOM      8  H5  UNL d   1       4.261   2.141   0.555  0.00  0.00     0.418 HD
ENDBRANCH   4   7
TORSDOF 1
ENDMDL
