MODEL 1
REMARK minimizedAffinity 2.6163044
REMARK minimizedRMSD -1
REMARK  1 active torsions:
REMARK  status: ('A' for Active; 'I' for Inactive)
REMARK    1  A    between atoms: C3_4  and  O_7 
ROOT
ATOM      1  C   UNL d   1       2.289  -1.626   1.473  0.00  0.00    -0.033 A 
ATOM      2  C1  UNL d   1       1.520  -0.590   2.007  0.00  0.00     0.039 A 
ATOM      3  C2  UNL d   1       0.643  -0.842   3.063  0.00  0.00    -0.080 A 
ATOM      4  C3  UNL d   1       0.543  -2.132   3.576  0.00  0.00     0.150 A 
ATOM      5  C4  UNL d   1       1.308  -3.169   3.051  0.00  0.00    -0.007 A 
ATOM      6  C5  UNL d   1       2.184  -2.915   1.996  0.00  0.00     0.039 A 
ENDROOT
BRANCH   4   7
ATOM      7  O   UNL d   1      -0.303  -2.428   4.603  0.00  0.00    -0.526 OA
ATOM      8  H5  UNL d   1      -0.788  -1.621   4.844  0.00  0.00     0.418 HD
ENDBRANCH   4   7
TORSDOF 1
ENDMDL
