MODEL 1
REMARK minimizedAffinity -2.96526003
REMARK minimizedRMSD -1
REMARK  0 active torsions:
REMARK  status: ('A' for Active; 'I' for Inactive)
ROOT
ATOM      1  C   UNL d   1      -1.679  -0.182   2.869  0.00  0.00     0.124 A 
ATOM      2  C1  UNL d   1      -0.504  -0.912   2.754  0.00  0.00     0.062 A 
ATOM      3  C2  UNL d   1       0.125  -1.036   1.518  0.00  0.00     0.162 A 
ATOM      4  C3  UNL d   1      -0.419  -0.427   0.387  0.00  0.00    -0.034 A 
ATOM      5  C4  UNL d   1      -1.601   0.305   0.510  0.00  0.00     0.162 A 
ATOM      6  C5  UNL d   1      -2.226   0.426   1.747  0.00  0.00     0.062 A 
ATOM      7  F   UNL d   1      -3.361   1.131   1.856  0.00  0.00    -0.097 F 
ATOM      8  F1  UNL d   1      -2.152   0.902  -0.557  0.00  0.00    -0.096 F 
ATOM      9  I   UNL d   1       0.519  -0.611  -1.462  0.00  0.00    -0.060 I 
ATOM     10  F2  UNL d   1       1.260  -1.747   1.437  0.00  0.00    -0.096 F 
ATOM     11  F3  UNL d   1       0.027  -1.500   3.835  0.00  0.00    -0.097 F 
ATOM     12  F4  UNL d   1      -2.282  -0.065   4.058  0.00  0.00    -0.092 F 
ENDROOT
TORSDOF 0
ENDMDL
