MODEL 1
REMARK minimizedAffinity -2.52565098
REMARK minimizedRMSD -1
REMARK  0 active torsions:
REMARK  status: ('A' for Active; 'I' for Inactive)
ROOT
ATOM      1  C   UNL d   1      -1.751   0.469   2.481  0.00  0.00     0.124 A 
ATOM      2  C1  UNL d   1      -2.464   0.571   1.294  0.00  0.00     0.062 A 
ATOM      3  C2  UNL d   1      -1.799   0.529   0.072  0.00  0.00     0.162 A 
ATOM      4  C3  UNL d   1      -0.412   0.383   0.030  0.00  0.00    -0.034 A 
ATOM      5  C4  UNL d   1       0.298   0.282   1.228  0.00  0.00     0.162 A 
ATOM      6  C5  UNL d   1      -0.371   0.324   2.446  0.00  0.00     0.062 A 
ATOM      7  F   UNL d   1       0.319   0.225   3.592  0.00  0.00    -0.097 F 
ATOM      8  F1  UNL d   1       1.632   0.140   1.224  0.00  0.00    -0.096 F 
ATOM      9  I   UNL d   1       0.586   0.320  -1.795  0.00  0.00    -0.060 I 
ATOM     10  F2  UNL d   1      -2.513   0.630  -1.059  0.00  0.00    -0.096 F 
ATOM     11  F3  UNL d   1      -3.797   0.711   1.324  0.00  0.00    -0.097 F 
ATOM     12  F4  UNL d   1      -2.394   0.510   3.655  0.00  0.00    -0.092 F 
ENDROOT
TORSDOF 0
ENDMDL
