MODEL 1
REMARK minimizedAffinity -4.50028849
REMARK minimizedRMSD -1
REMARK  0 active torsions:
REMARK  status: ('A' for Active; 'I' for Inactive)
ROOT
ATOM      1  C   UNL d   1      -0.889   0.038   3.043  0.00  0.00     0.124 A 
ATOM      2  C1  UNL d   1       0.383   0.432   2.652  0.00  0.00     0.062 A 
ATOM      3  C2  UNL d   1       0.774   0.317   1.321  0.00  0.00     0.162 A 
ATOM      4  C3  UNL d   1      -0.109  -0.193   0.370  0.00  0.00    -0.034 A 
ATOM      5  C4  UNL d   1      -1.387  -0.588   0.770  0.00  0.00     0.162 A 
ATOM      6  C5  UNL d   1      -1.773  -0.471   2.102  0.00  0.00     0.062 A 
ATOM      7  F   UNL d   1      -3.002  -0.853   2.477  0.00  0.00    -0.097 F 
ATOM      8  F1  UNL d   1      -2.261  -1.083  -0.118  0.00  0.00    -0.096 F 
ATOM      9  I   UNL d   1       0.471  -0.367  -1.621  0.00  0.00    -0.060 I 
ATOM     10  F2  UNL d   1       2.010   0.706   0.972  0.00  0.00    -0.096 F 
ATOM     11  F3  UNL d   1       1.239   0.924   3.559  0.00  0.00    -0.097 F 
ATOM     12  F4  UNL d   1      -1.262   0.149   4.324  0.00  0.00    -0.092 F 
ENDROOT
TORSDOF 0
ENDMDL
