MODEL 1
REMARK minimizedAffinity -2.93885279
REMARK minimizedRMSD -1
REMARK  0 active torsions:
REMARK  status: ('A' for Active; 'I' for Inactive)
ROOT
ATOM      1  C   UNL d   1       1.529   0.033   2.032  0.00  0.00     0.124 A 
ATOM      2  C1  UNL d   1       1.463   0.999   1.037  0.00  0.00     0.062 A 
ATOM      3  C2  UNL d   1       0.277   1.201   0.336  0.00  0.00     0.162 A 
ATOM      4  C3  UNL d   1      -0.853   0.438   0.629  0.00  0.00    -0.034 A 
ATOM      5  C4  UNL d   1      -0.778  -0.532   1.631  0.00  0.00     0.162 A 
ATOM      6  C5  UNL d   1       0.409  -0.731   2.328  0.00  0.00     0.062 A 
ATOM      7  F   UNL d   1       0.471  -1.664   3.289  0.00  0.00    -0.097 F 
ATOM      8  F1  UNL d   1      -1.846  -1.283   1.938  0.00  0.00    -0.096 F 
ATOM      9  I   UNL d   1      -2.628   0.738  -0.416  0.00  0.00    -0.060 I 
ATOM     10  F2  UNL d   1       0.242   2.141  -0.620  0.00  0.00    -0.096 F 
ATOM     11  F3  UNL d   1       2.544   1.738   0.748  0.00  0.00    -0.097 F 
ATOM     12  F4  UNL d   1       2.671  -0.160   2.704  0.00  0.00    -0.092 F 
ENDROOT
TORSDOF 0
ENDMDL
