MODEL 1
REMARK minimizedAffinity -3.87362123
REMARK minimizedRMSD -1
REMARK  0 active torsions:
REMARK  status: ('A' for Active; 'I' for Inactive)
ROOT
ATOM      1  C   UNL d   1      -2.435   1.071   0.980  0.00  0.00     0.124 A 
ATOM      2  C1  UNL d   1      -1.730   0.939   2.169  0.00  0.00     0.062 A 
ATOM      3  C2  UNL d   1      -0.349   0.769   2.148  0.00  0.00     0.162 A 
ATOM      4  C3  UNL d   1       0.338   0.730   0.935  0.00  0.00    -0.034 A 
ATOM      5  C4  UNL d   1      -0.378   0.863  -0.256  0.00  0.00     0.162 A 
ATOM      6  C5  UNL d   1      -1.758   1.033  -0.231  0.00  0.00     0.062 A 
ATOM      7  F   UNL d   1      -2.437   1.160  -1.380  0.00  0.00    -0.097 F 
ATOM      8  F1  UNL d   1       0.251   0.831  -1.441  0.00  0.00    -0.096 F 
ATOM      9  I   UNL d   1       2.403   0.476   0.901  0.00  0.00    -0.060 I 
ATOM     10  F2  UNL d   1       0.306   0.644   3.312  0.00  0.00    -0.096 F 
ATOM     11  F3  UNL d   1      -2.382   0.974   3.340  0.00  0.00    -0.097 F 
ATOM     12  F4  UNL d   1      -3.764   1.234   1.002  0.00  0.00    -0.092 F 
ENDROOT
TORSDOF 0
ENDMDL
