MODEL 1
REMARK minimizedAffinity 2.72150707
REMARK minimizedRMSD -1
REMARK  0 active torsions:
REMARK  status: ('A' for Active; 'I' for Inactive)
ROOT
ATOM      1  C   UNL d   1      -0.267   0.306   1.890  0.00  0.00     0.124 A 
ATOM      2  C1  UNL d   1      -0.996   0.047   0.738  0.00  0.00     0.062 A 
ATOM      3  C2  UNL d   1      -0.343  -0.146  -0.476  0.00  0.00     0.162 A 
ATOM      4  C3  UNL d   1       1.049  -0.082  -0.543  0.00  0.00    -0.034 A 
ATOM      5  C4  UNL d   1       1.776   0.180   0.620  0.00  0.00     0.162 A 
ATOM      6  C5  UNL d   1       1.118   0.372   1.830  0.00  0.00     0.062 A 
ATOM      7  F   UNL d   1       1.824   0.622   2.942  0.00  0.00    -0.097 F 
ATOM      8  F1  UNL d   1       3.115   0.248   0.591  0.00  0.00    -0.096 F 
ATOM      9  I   UNL d   1       2.031  -0.370  -2.356  0.00  0.00    -0.060 I 
ATOM     10  F2  UNL d   1      -1.073  -0.395  -1.573  0.00  0.00    -0.096 F 
ATOM     11  F3  UNL d   1      -2.335  -0.016   0.793  0.00  0.00    -0.097 F 
ATOM     12  F4  UNL d   1      -0.899   0.492   3.056  0.00  0.00    -0.092 F 
ENDROOT
TORSDOF 0
ENDMDL
