MODEL 1
REMARK minimizedAffinity -5.18723536
REMARK minimizedRMSD -1
REMARK  0 active torsions:
REMARK  status: ('A' for Active; 'I' for Inactive)
ROOT
ATOM      1  C   UNL d   1       1.033  -0.005   1.116  0.00  0.00     0.124 A 
ATOM      2  C1  UNL d   1       0.295  -0.192   2.276  0.00  0.00     0.062 A 
ATOM      3  C2  UNL d   1      -1.092  -0.073   2.251  0.00  0.00     0.162 A 
ATOM      4  C3  UNL d   1      -1.750   0.234   1.060  0.00  0.00    -0.034 A 
ATOM      5  C4  UNL d   1      -1.001   0.422  -0.103  0.00  0.00     0.162 A 
ATOM      6  C5  UNL d   1       0.385   0.302  -0.072  0.00  0.00     0.062 A 
ATOM      7  F   UNL d   1       1.096   0.484  -1.194  0.00  0.00    -0.097 F 
ATOM      8  F1  UNL d   1      -1.602   0.719  -1.265  0.00  0.00    -0.096 F 
ATOM      9  I   UNL d   1      -3.823   0.414   1.018  0.00  0.00    -0.060 I 
ATOM     10  F2  UNL d   1      -1.779  -0.260   3.387  0.00  0.00    -0.096 F 
ATOM     11  F3  UNL d   1       0.919  -0.488   3.425  0.00  0.00    -0.097 F 
ATOM     12  F4  UNL d   1       2.367  -0.119   1.143  0.00  0.00    -0.092 F 
ENDROOT
TORSDOF 0
ENDMDL
