MODEL 1
REMARK minimizedAffinity 0.403324515
REMARK minimizedRMSD -1
REMARK  0 active torsions:
REMARK  status: ('A' for Active; 'I' for Inactive)
ROOT
ATOM      1  C   UNL d   1      -0.985   0.556  -1.742  0.00  0.00     0.124 A 
ATOM      2  C1  UNL d   1      -2.129   0.734  -0.976  0.00  0.00     0.062 A 
ATOM      3  C2  UNL d   1      -2.075   0.590   0.408  0.00  0.00     0.162 A 
ATOM      4  C3  UNL d   1      -0.871   0.267   1.035  0.00  0.00    -0.034 A 
ATOM      5  C4  UNL d   1       0.275   0.089   0.258  0.00  0.00     0.162 A 
ATOM      6  C5  UNL d   1       0.215   0.234  -1.124  0.00  0.00     0.062 A 
ATOM      7  F   UNL d   1       1.321   0.061  -1.863  0.00  0.00    -0.097 F 
ATOM      8  F1  UNL d   1       1.448  -0.222   0.828  0.00  0.00    -0.096 F 
ATOM      9  I   UNL d   1      -0.786   0.051   3.103  0.00  0.00    -0.060 I 
ATOM     10  F2  UNL d   1      -3.195   0.768   1.123  0.00  0.00    -0.096 F 
ATOM     11  F3  UNL d   1      -3.290   1.045  -1.570  0.00  0.00    -0.097 F 
ATOM     12  F4  UNL d   1      -1.040   0.694  -3.073  0.00  0.00    -0.092 F 
ENDROOT
TORSDOF 0
ENDMDL
