MODEL 1
REMARK minimizedAffinity -5.34710503
REMARK minimizedRMSD -1
REMARK  0 active torsions:
REMARK  status: ('A' for Active; 'I' for Inactive)
ROOT
ATOM      1  C   UNL d   1      -1.674  -0.081   2.351  0.00  0.00     0.124 A 
ATOM      2  C1  UNL d   1      -0.378  -0.568   2.267  0.00  0.00     0.062 A 
ATOM      3  C2  UNL d   1       0.286  -0.585   1.043  0.00  0.00     0.162 A 
ATOM      4  C3  UNL d   1      -0.346  -0.112  -0.107  0.00  0.00    -0.034 A 
ATOM      5  C4  UNL d   1      -1.651   0.376  -0.014  0.00  0.00     0.162 A 
ATOM      6  C5  UNL d   1      -2.310   0.391   1.211  0.00  0.00     0.062 A 
ATOM      7  F   UNL d   1      -3.563   0.862   1.290  0.00  0.00    -0.097 F 
ATOM      8  F1  UNL d   1      -2.288   0.839  -1.100  0.00  0.00    -0.096 F 
ATOM      9  I   UNL d   1       0.642  -0.135  -1.938  0.00  0.00    -0.060 I 
ATOM     10  F2  UNL d   1       1.538  -1.062   0.991  0.00  0.00    -0.096 F 
ATOM     11  F3  UNL d   1       0.238  -1.026   3.367  0.00  0.00    -0.097 F 
ATOM     12  F4  UNL d   1      -2.311  -0.067   3.529  0.00  0.00    -0.092 F 
ENDROOT
TORSDOF 0
ENDMDL
