MODEL 1
REMARK minimizedAffinity -3.80673432
REMARK minimizedRMSD -1
REMARK  0 active torsions:
REMARK  status: ('A' for Active; 'I' for Inactive)
ROOT
ATOM      1  C   UNL d   1       1.398   0.306   1.132  0.00  0.00     0.124 A 
ATOM      2  C1  UNL d   1       0.771   0.609  -0.069  0.00  0.00     0.062 A 
ATOM      3  C2  UNL d   1      -0.618   0.628  -0.147  0.00  0.00     0.162 A 
ATOM      4  C3  UNL d   1      -1.391   0.343   0.979  0.00  0.00    -0.034 A 
ATOM      5  C4  UNL d   1      -0.753   0.039   2.182  0.00  0.00     0.162 A 
ATOM      6  C5  UNL d   1       0.636   0.021   2.256  0.00  0.00     0.062 A 
ATOM      7  F   UNL d   1       1.240  -0.271   3.417  0.00  0.00    -0.097 F 
ATOM      8  F1  UNL d   1      -1.466  -0.239   3.284  0.00  0.00    -0.096 F 
ATOM      9  I   UNL d   1      -3.469   0.370   0.865  0.00  0.00    -0.060 I 
ATOM     10  F2  UNL d   1      -1.197   0.923  -1.321  0.00  0.00    -0.096 F 
ATOM     11  F3  UNL d   1       1.506   0.883  -1.156  0.00  0.00    -0.097 F 
ATOM     12  F4  UNL d   1       2.735   0.288   1.205  0.00  0.00    -0.092 F 
ENDROOT
TORSDOF 0
ENDMDL
