MODEL 1
REMARK minimizedAffinity -2.90830803
REMARK minimizedRMSD -1
REMARK  0 active torsions:
REMARK  status: ('A' for Active; 'I' for Inactive)
ROOT
ATOM      1  C   UNL d   1       0.837   0.580  -0.572  0.00  0.00     0.124 A 
ATOM      2  C1  UNL d   1      -0.191  -0.347  -0.676  0.00  0.00     0.062 A 
ATOM      3  C2  UNL d   1      -0.812  -0.834   0.470  0.00  0.00     0.162 A 
ATOM      4  C3  UNL d   1      -0.407  -0.395   1.731  0.00  0.00    -0.034 A 
ATOM      5  C4  UNL d   1       0.628   0.536   1.828  0.00  0.00     0.162 A 
ATOM      6  C5  UNL d   1       1.246   1.020   0.679  0.00  0.00     0.062 A 
ATOM      7  F   UNL d   1       2.239   1.915   0.782  0.00  0.00    -0.097 F 
ATOM      8  F1  UNL d   1       1.042   0.979   3.024  0.00  0.00    -0.096 F 
ATOM      9  I   UNL d   1      -1.334  -1.122   3.447  0.00  0.00    -0.060 I 
ATOM     10  F2  UNL d   1      -1.803  -1.729   0.340  0.00  0.00    -0.096 F 
ATOM     11  F3  UNL d   1      -0.587  -0.774  -1.883  0.00  0.00    -0.097 F 
ATOM     12  F4  UNL d   1       1.434   1.047  -1.676  0.00  0.00    -0.092 F 
ENDROOT
TORSDOF 0
ENDMDL
