MODEL 1
REMARK minimizedAffinity 8.5986433
REMARK minimizedRMSD -1
REMARK  0 active torsions:
REMARK  status: ('A' for Active; 'I' for Inactive)
ROOT
ATOM      1  C   UNL d   1       0.741   1.268   2.867  0.00  0.00     0.124 A 
ATOM      2  C1  UNL d   1       2.034   0.958   2.471  0.00  0.00     0.062 A 
ATOM      3  C2  UNL d   1       2.291   0.572   1.159  0.00  0.00     0.162 A 
ATOM      4  C3  UNL d   1       1.252   0.495   0.231  0.00  0.00    -0.034 A 
ATOM      5  C4  UNL d   1      -0.047   0.808   0.637  0.00  0.00     0.162 A 
ATOM      6  C5  UNL d   1      -0.298   1.193   1.950  0.00  0.00     0.062 A 
ATOM      7  F   UNL d   1      -1.549   1.492   2.331  0.00  0.00    -0.097 F 
ATOM      8  F1  UNL d   1      -1.069   0.745  -0.228  0.00  0.00    -0.096 F 
ATOM      9  I   UNL d   1       1.632  -0.081  -1.732  0.00  0.00    -0.060 I 
ATOM     10  F2  UNL d   1       3.551   0.278   0.804  0.00  0.00    -0.096 F 
ATOM     11  F3  UNL d   1       3.040   1.029   3.355  0.00  0.00    -0.097 F 
ATOM     12  F4  UNL d   1       0.496   1.638   4.131  0.00  0.00    -0.092 F 
ENDROOT
TORSDOF 0
ENDMDL
