MODEL 1
REMARK minimizedAffinity 13.1555576
REMARK minimizedRMSD -1
REMARK  0 active torsions:
REMARK  status: ('A' for Active; 'I' for Inactive)
ROOT
ATOM      1  C   UNL d   1      -1.356   1.376   2.124  0.00  0.00     0.124 A 
ATOM      2  C1  UNL d   1      -1.963   0.962   0.947  0.00  0.00     0.062 A 
ATOM      3  C2  UNL d   1      -1.188   0.603  -0.152  0.00  0.00     0.162 A 
ATOM      4  C3  UNL d   1       0.204   0.656  -0.079  0.00  0.00    -0.034 A 
ATOM      5  C4  UNL d   1       0.808   1.074   1.108  0.00  0.00     0.162 A 
ATOM      6  C5  UNL d   1       0.029   1.432   2.204  0.00  0.00     0.062 A 
ATOM      7  F   UNL d   1       0.618   1.832   3.340  0.00  0.00    -0.097 F 
ATOM      8  F1  UNL d   1       2.143   1.137   1.212  0.00  0.00    -0.096 F 
ATOM      9  I   UNL d   1       1.366   0.120  -1.720  0.00  0.00    -0.060 I 
ATOM     10  F2  UNL d   1      -1.802   0.206  -1.277  0.00  0.00    -0.096 F 
ATOM     11  F3  UNL d   1      -3.301   0.908   0.868  0.00  0.00    -0.097 F 
ATOM     12  F4  UNL d   1      -2.104   1.722   3.180  0.00  0.00    -0.092 F 
ENDROOT
TORSDOF 0
ENDMDL
