MODEL 1
REMARK minimizedAffinity 13.3851709
REMARK minimizedRMSD -1
REMARK  0 active torsions:
REMARK  status: ('A' for Active; 'I' for Inactive)
ROOT
ATOM      1  C   UNL d   1       0.052   0.832   1.111  0.00  0.00     0.124 A 
ATOM      2  C1  UNL d   1       0.456   1.121   2.407  0.00  0.00     0.062 A 
ATOM      3  C2  UNL d   1       1.776   1.481   2.665  0.00  0.00     0.162 A 
ATOM      4  C3  UNL d   1       2.702   1.554   1.624  0.00  0.00    -0.034 A 
ATOM      5  C4  UNL d   1       2.288   1.261   0.324  0.00  0.00     0.162 A 
ATOM      6  C5  UNL d   1       0.968   0.902   0.071  0.00  0.00     0.062 A 
ATOM      7  F   UNL d   1       0.580   0.622  -1.181  0.00  0.00    -0.097 F 
ATOM      8  F1  UNL d   1       3.152   1.321  -0.700  0.00  0.00    -0.096 F 
ATOM      9  I   UNL d   1       4.676   2.092   2.006  0.00  0.00    -0.060 I 
ATOM     10  F2  UNL d   1       2.138   1.756   3.927  0.00  0.00    -0.096 F 
ATOM     11  F3  UNL d   1      -0.426   1.054   3.414  0.00  0.00    -0.097 F 
ATOM     12  F4  UNL d   1      -1.218   0.485   0.866  0.00  0.00    -0.092 F 
ENDROOT
TORSDOF 0
ENDMDL
