MODEL 1
REMARK minimizedAffinity -1.24516165
REMARK minimizedRMSD -1
REMARK  0 active torsions:
REMARK  status: ('A' for Active; 'I' for Inactive)
ROOT
ATOM      1  C   UNL d   1      -0.552   0.308   2.577  0.00  0.00     0.124 A 
ATOM      2  C1  UNL d   1      -1.180  -0.459   1.605  0.00  0.00     0.062 A 
ATOM      3  C2  UNL d   1      -0.613  -0.589   0.341  0.00  0.00     0.162 A 
ATOM      4  C3  UNL d   1       0.590   0.050   0.040  0.00  0.00    -0.034 A 
ATOM      5  C4  UNL d   1       1.216   0.820   1.022  0.00  0.00     0.162 A 
ATOM      6  C5  UNL d   1       0.645   0.947   2.284  0.00  0.00     0.062 A 
ATOM      7  F   UNL d   1       1.253   1.688   3.221  0.00  0.00    -0.097 F 
ATOM      8  F1  UNL d   1       2.373   1.448   0.767  0.00  0.00    -0.096 F 
ATOM      9  I   UNL d   1       1.441  -0.141  -1.850  0.00  0.00    -0.060 I 
ATOM     10  F2  UNL d   1      -1.242  -1.336  -0.578  0.00  0.00    -0.096 F 
ATOM     11  F3  UNL d   1      -2.337  -1.077   1.885  0.00  0.00    -0.097 F 
ATOM     12  F4  UNL d   1      -1.100   0.432   3.792  0.00  0.00    -0.092 F 
ENDROOT
TORSDOF 0
ENDMDL
