MODEL 1
REMARK minimizedAffinity -3.67675352
REMARK minimizedRMSD -1
REMARK  0 active torsions:
REMARK  status: ('A' for Active; 'I' for Inactive)
ROOT
ATOM      1  C   UNL d   1       0.565   0.543   1.562  0.00  0.00     0.124 A 
ATOM      2  C1  UNL d   1       1.162   1.201   0.496  0.00  0.00     0.062 A 
ATOM      3  C2  UNL d   1       1.182   0.615  -0.766  0.00  0.00     0.162 A 
ATOM      4  C3  UNL d   1       0.601  -0.637  -0.970  0.00  0.00    -0.034 A 
ATOM      5  C4  UNL d   1       0.004  -1.293   0.108  0.00  0.00     0.162 A 
ATOM      6  C5  UNL d   1      -0.014  -0.703   1.367  0.00  0.00     0.062 A 
ATOM      7  F   UNL d   1      -0.591  -1.341   2.396  0.00  0.00    -0.097 F 
ATOM      8  F1  UNL d   1      -0.564  -2.498  -0.053  0.00  0.00    -0.096 F 
ATOM      9  I   UNL d   1       0.629  -1.517  -2.855  0.00  0.00    -0.060 I 
ATOM     10  F2  UNL d   1       1.766   1.274  -1.778  0.00  0.00    -0.096 F 
ATOM     11  F3  UNL d   1       1.723   2.405   0.682  0.00  0.00    -0.097 F 
ATOM     12  F4  UNL d   1       0.548   1.109   2.776  0.00  0.00    -0.092 F 
ENDROOT
TORSDOF 0
ENDMDL
