MODEL 1
REMARK minimizedAffinity -2.66416836
REMARK minimizedRMSD -1
REMARK  0 active torsions:
REMARK  status: ('A' for Active; 'I' for Inactive)
ROOT
ATOM      1  C   UNL d   1      -0.692  -0.338   3.136  0.00  0.00     0.124 A 
ATOM      2  C1  UNL d   1       0.423   0.427   2.822  0.00  0.00     0.062 A 
ATOM      3  C2  UNL d   1       0.826   0.565   1.497  0.00  0.00     0.162 A 
ATOM      4  C3  UNL d   1       0.113  -0.062   0.475  0.00  0.00    -0.034 A 
ATOM      5  C4  UNL d   1      -1.007  -0.831   0.800  0.00  0.00     0.162 A 
ATOM      6  C5  UNL d   1      -1.405  -0.966   2.125  0.00  0.00     0.062 A 
ATOM      7  F   UNL d   1      -2.483  -1.705   2.427  0.00  0.00    -0.097 F 
ATOM      8  F1  UNL d   1      -1.715  -1.448  -0.158  0.00  0.00    -0.096 F 
ATOM      9  I   UNL d   1       0.712   0.142  -1.507  0.00  0.00    -0.060 I 
ATOM     10  F2  UNL d   1       1.907   1.310   1.222  0.00  0.00    -0.096 F 
ATOM     11  F3  UNL d   1       1.114   1.034   3.797  0.00  0.00    -0.097 F 
ATOM     12  F4  UNL d   1      -1.077  -0.469   4.412  0.00  0.00    -0.092 F 
ENDROOT
TORSDOF 0
ENDMDL
