MODEL 1
REMARK minimizedAffinity -0.948119104
REMARK minimizedRMSD -1
REMARK  1 active torsions:
REMARK  status: ('A' for Active; 'I' for Inactive)
REMARK    1  A    between atoms: N_2  and  C1_3 
ROOT
ATOM      1  C1  UNL d   1       1.773  -3.464   2.586  0.00  0.00     0.143 A 
ATOM      2  C2  UNL d   1       0.658  -4.205   2.990  0.00  0.00    -0.057 A 
ATOM      3  C3  UNL d   1      -0.539  -3.576   3.355  0.00  0.00     0.033 A 
ATOM      4  C4  UNL d   1      -0.632  -2.188   3.350  0.00  0.00    -0.042 A 
ATOM      5  C5  UNL d   1       0.472  -1.430   2.976  0.00  0.00     0.033 A 
ATOM      6  C6  UNL d   1       1.662  -2.064   2.606  0.00  0.00    -0.057 A 
ENDROOT
BRANCH   1   7
ATOM      7  N   UNL d   1       3.021  -4.026   2.306  0.00  0.00    -0.732 N 
ATOM      8  C   UNL d   1       3.827  -4.596   3.364  0.00  0.00     0.284 C 
ATOM      9  H3  UNL d   1       3.018  -4.570   1.446  0.00  0.00     0.395 HD
ENDBRANCH   1   7
TORSDOF 1
ENDMDL
