MODEL 1
REMARK minimizedAffinity 1.79848552
REMARK minimizedRMSD -1
REMARK  1 active torsions:
REMARK  status: ('A' for Active; 'I' for Inactive)
REMARK    1  A    between atoms: N_2  and  C1_3 
ROOT
ATOM      1  C1  UNL d   1       0.600  -2.118   2.424  0.00  0.00     0.143 A 
ATOM      2  C2  UNL d   1       1.861  -2.238   1.831  0.00  0.00    -0.057 A 
ATOM      3  C3  UNL d   1       2.360  -3.484   1.433  0.00  0.00     0.033 A 
ATOM      4  C4  UNL d   1       1.616  -4.639   1.648  0.00  0.00    -0.042 A 
ATOM      5  C5  UNL d   1       0.370  -4.546   2.258  0.00  0.00     0.033 A 
ATOM      6  C6  UNL d   1      -0.126  -3.298   2.648  0.00  0.00    -0.057 A 
ENDROOT
BRANCH   1   7
ATOM      7  N   UNL d   1       0.090  -0.920   2.931  0.00  0.00    -0.732 N 
ATOM      8  C   UNL d   1      -1.331  -0.760   3.155  0.00  0.00     0.284 C 
ATOM      9  H3  UNL d   1       0.674  -0.530   3.667  0.00  0.00     0.395 HD
ENDBRANCH   1   7
TORSDOF 1
ENDMDL
