MODEL 1
REMARK minimizedAffinity 1.97324121
REMARK minimizedRMSD -1
REMARK  1 active torsions:
REMARK  status: ('A' for Active; 'I' for Inactive)
REMARK    1  A    between atoms: N_2  and  C1_3 
ROOT
ATOM      1  C1  UNL d   1       3.032  -1.160   0.395  0.00  0.00     0.143 A 
ATOM      2  C2  UNL d   1       2.789   0.206   0.219  0.00  0.00    -0.057 A 
ATOM      3  C3  UNL d   1       3.835   1.137   0.230  0.00  0.00     0.033 A 
ATOM      4  C4  UNL d   1       5.144   0.718   0.447  0.00  0.00    -0.042 A 
ATOM      5  C5  UNL d   1       5.406  -0.632   0.649  0.00  0.00     0.033 A 
ATOM      6  C6  UNL d   1       4.357  -1.557   0.631  0.00  0.00    -0.057 A 
ENDROOT
BRANCH   1   7
ATOM      7  N   UNL d   1       2.024  -2.123   0.493  0.00  0.00    -0.732 N 
ATOM      8  C   UNL d   1       1.568  -2.583   1.787  0.00  0.00     0.284 C 
ATOM      9  H3  UNL d   1       1.277  -1.974  -0.182  0.00  0.00     0.395 HD
ENDBRANCH   1   7
TORSDOF 1
ENDMDL
