MODEL 1
REMARK minimizedAffinity 4.66467237
REMARK minimizedRMSD -1
REMARK  1 active torsions:
REMARK  status: ('A' for Active; 'I' for Inactive)
REMARK    1  A    between atoms: N_2  and  C1_3 
ROOT
ATOM      1  C1  UNL d   1      -2.684   2.845  -3.746  0.00  0.00     0.143 A 
ATOM      2  C2  UNL d   1      -3.534   3.951  -3.636  0.00  0.00    -0.057 A 
ATOM      3  C3  UNL d   1      -4.762   3.992  -4.306  0.00  0.00     0.033 A 
ATOM      4  C4  UNL d   1      -5.152   2.937  -5.124  0.00  0.00    -0.042 A 
ATOM      5  C5  UNL d   1      -4.312   1.838  -5.268  0.00  0.00     0.033 A 
ATOM      6  C6  UNL d   1      -3.089   1.799  -4.591  0.00  0.00    -0.057 A 
ENDROOT
BRANCH   1   7
ATOM      7  N   UNL d   1      -1.407   2.786  -3.184  0.00  0.00    -0.732 N 
ATOM      8  C   UNL d   1      -0.333   3.604  -3.706  0.00  0.00     0.284 C 
ATOM      9  H3  UNL d   1      -1.431   2.731  -2.169  0.00  0.00     0.395 HD
ENDBRANCH   1   7
TORSDOF 1
ENDMDL
