MODEL 1
REMARK minimizedAffinity 11.7098265
REMARK minimizedRMSD -1
REMARK  1 active torsions:
REMARK  status: ('A' for Active; 'I' for Inactive)
REMARK    1  A    between atoms: N_2  and  C1_3 
ROOT
ATOM      1  C1  UNL d   1      -1.154  -0.255   2.950  0.00  0.00     0.143 A 
ATOM      2  C2  UNL d   1      -1.488  -1.378   2.186  0.00  0.00    -0.057 A 
ATOM      3  C3  UNL d   1      -0.501  -2.159   1.572  0.00  0.00     0.033 A 
ATOM      4  C4  UNL d   1       0.841  -1.811   1.688  0.00  0.00    -0.042 A 
ATOM      5  C5  UNL d   1       1.194  -0.685   2.422  0.00  0.00     0.033 A 
ATOM      6  C6  UNL d   1       0.204   0.087   3.038  0.00  0.00    -0.057 A 
ENDROOT
BRANCH   1   7
ATOM      7  N   UNL d   1      -2.095   0.617   3.504  0.00  0.00    -0.732 N 
ATOM      8  C   UNL d   1      -3.230   1.067   2.726  0.00  0.00     0.284 C 
ATOM      9  H3  UNL d   1      -2.318   0.387   4.469  0.00  0.00     0.395 HD
ENDBRANCH   1   7
TORSDOF 1
ENDMDL
