MODEL 1
REMARK minimizedAffinity 0.0670937598
REMARK minimizedRMSD -1
REMARK  0 active torsions:
REMARK  status: ('A' for Active; 'I' for Inactive)
ROOT
ATOM      1  C   UNL d   1       0.498  -0.263   1.359  0.00  0.00     0.023 A 
ATOM      2  C1  UNL d   1       0.605   0.721   2.342  0.00  0.00     0.003 A 
ATOM      3  C2  UNL d   1       0.686   2.067   1.980  0.00  0.00     0.048 A 
ATOM      4  C3  UNL d   1       0.659   2.422   0.631  0.00  0.00     0.023 A 
ATOM      5  C4  UNL d   1       0.551   1.441  -0.356  0.00  0.00     0.048 A 
ATOM      6  C5  UNL d   1       0.471   0.097   0.012  0.00  0.00     0.003 A 
ATOM      7  I   UNL d   1       0.779   4.425   0.089  0.00  0.00    -0.146 I 
ENDROOT
TORSDOF 0
ENDMDL
