MODEL 1
REMARK minimizedAffinity 4.82348299
REMARK minimizedRMSD -1
REMARK  0 active torsions:
REMARK  status: ('A' for Active; 'I' for Inactive)
ROOT
ATOM      1  C   UNL d   1       1.105  -1.139   1.492  0.00  0.00     0.023 A 
ATOM      2  C1  UNL d   1       0.586  -0.394   0.433  0.00  0.00     0.003 A 
ATOM      3  C2  UNL d   1       0.583   1.001   0.495  0.00  0.00     0.048 A 
ATOM      4  C3  UNL d   1       1.101   1.644   1.618  0.00  0.00     0.023 A 
ATOM      5  C4  UNL d   1       1.622   0.903   2.680  0.00  0.00     0.048 A 
ATOM      6  C5  UNL d   1       1.622  -0.492   2.614  0.00  0.00     0.003 A 
ATOM      7  I   UNL d   1       1.098   3.720   1.712  0.00  0.00    -0.146 I 
ENDROOT
TORSDOF 0
ENDMDL
