MODEL 1
REMARK minimizedAffinity 0.966193914
REMARK minimizedRMSD -1
REMARK  0 active torsions:
REMARK  status: ('A' for Active; 'I' for Inactive)
ROOT
ATOM      1  C   UNL d   1       0.655   3.549   0.043  0.00  0.00     0.023 A 
ATOM      2  C1  UNL d   1       0.392   2.358  -0.633  0.00  0.00     0.003 A 
ATOM      3  C2  UNL d   1       0.422   1.142   0.054  0.00  0.00     0.048 A 
ATOM      4  C3  UNL d   1       0.714   1.126   1.418  0.00  0.00     0.023 A 
ATOM      5  C4  UNL d   1       0.977   2.316   2.098  0.00  0.00     0.048 A 
ATOM      6  C5  UNL d   1       0.948   3.529   1.406  0.00  0.00     0.003 A 
ATOM      7  I   UNL d   1       0.758  -0.681   2.443  0.00  0.00    -0.146 I 
ENDROOT
TORSDOF 0
ENDMDL
