MODEL 1
REMARK minimizedAffinity 0.722801089
REMARK minimizedRMSD -1
REMARK  0 active torsions:
REMARK  status: ('A' for Active; 'I' for Inactive)
ROOT
ATOM      1  C   UNL d   1       0.693   1.177   2.778  0.00  0.00     0.023 A 
ATOM      2  C1  UNL d   1      -0.092   2.000   1.971  0.00  0.00     0.003 A 
ATOM      3  C2  UNL d   1      -0.349   1.642   0.646  0.00  0.00     0.048 A 
ATOM      4  C3  UNL d   1       0.181   0.459   0.134  0.00  0.00     0.023 A 
ATOM      5  C4  UNL d   1       0.967  -0.369   0.938  0.00  0.00     0.048 A 
ATOM      6  C5  UNL d   1       1.222  -0.006   2.262  0.00  0.00     0.003 A 
ATOM      7  I   UNL d   1      -0.200  -0.076  -1.837  0.00  0.00    -0.146 I 
ENDROOT
TORSDOF 0
ENDMDL
