MODEL 1
REMARK minimizedAffinity 15.6135349
REMARK minimizedRMSD -1
REMARK  0 active torsions:
REMARK  status: ('A' for Active; 'I' for Inactive)
ROOT
ATOM      1  C   UNL d   1      -0.812   1.472   1.390  0.00  0.00    -0.002 A 
ATOM      2  C1  UNL d   1       0.125   0.778   2.142  0.00  0.00     0.010 A 
ATOM      3  C2  UNL d   1       0.104  -0.618   2.191  0.00  0.00     0.041 A 
ATOM      4  C3  UNL d   1      -0.883  -1.310   1.462  0.00  0.00    -0.075 A 
ATOM      5  S   UNL d   1      -1.101  -3.018   1.371  0.00  0.00     0.015 SA
ATOM      6  C4  UNL d   1      -2.443  -2.866   0.331  0.00  0.00     0.022 A 
ATOM      7  C5  UNL d   1      -2.731  -1.552   0.050  0.00  0.00     0.026 A 
ATOM      8  C6  UNL d   1      -1.837  -0.633   0.696  0.00  0.00    -0.082 A 
ATOM      9  C7  UNL d   1      -1.789   0.781   0.668  0.00  0.00     0.045 A 
ENDROOT
TORSDOF 0
ENDMDL
