MODEL 1
REMARK minimizedAffinity 6.99431515
REMARK minimizedRMSD -1
REMARK  0 active torsions:
REMARK  status: ('A' for Active; 'I' for Inactive)
ROOT
ATOM      1  C   UNL d   1      -2.709   1.105   1.127  0.00  0.00    -0.002 A 
ATOM      2  C1  UNL d   1      -2.666   1.920   2.250  0.00  0.00     0.010 A 
ATOM      3  C2  UNL d   1      -1.486   2.058   2.982  0.00  0.00     0.041 A 
ATOM      4  C3  UNL d   1      -0.337   1.358   2.563  0.00  0.00    -0.075 A 
ATOM      5  S   UNL d   1       1.219   1.375   3.304  0.00  0.00     0.015 SA
ATOM      6  C4  UNL d   1       1.864   0.302   2.147  0.00  0.00     0.022 A 
ATOM      7  C5  UNL d   1       0.928  -0.071   1.212  0.00  0.00     0.026 A 
ATOM      8  C6  UNL d   1      -0.356   0.532   1.435  0.00  0.00    -0.082 A 
ATOM      9  C7  UNL d   1      -1.568   0.412   0.714  0.00  0.00     0.045 A 
ENDROOT
TORSDOF 0
ENDMDL
