MODEL 1
REMARK minimizedAffinity 2.08707166
REMARK minimizedRMSD -1
REMARK  0 active torsions:
REMARK  status: ('A' for Active; 'I' for Inactive)
ROOT
ATOM      1  C   UNL d   1      -0.691   1.273   3.155  0.00  0.00    -0.002 A 
ATOM      2  C1  UNL d   1      -0.891   2.629   3.372  0.00  0.00     0.010 A 
ATOM      3  C2  UNL d   1      -1.936   3.071   4.186  0.00  0.00     0.041 A 
ATOM      4  C3  UNL d   1      -2.783   2.118   4.785  0.00  0.00    -0.075 A 
ATOM      5  S   UNL d   1      -4.127   2.427   5.820  0.00  0.00     0.015 SA
ATOM      6  C4  UNL d   1      -4.465   0.766   6.000  0.00  0.00     0.022 A 
ATOM      7  C5  UNL d   1      -3.585  -0.019   5.294  0.00  0.00     0.026 A 
ATOM      8  C6  UNL d   1      -2.601   0.747   4.582  0.00  0.00    -0.082 A 
ATOM      9  C7  UNL d   1      -1.533   0.331   3.751  0.00  0.00     0.045 A 
ENDROOT
TORSDOF 0
ENDMDL
