MODEL 1
REMARK minimizedAffinity 10.5887527
REMARK minimizedRMSD -1
REMARK  0 active torsions:
REMARK  status: ('A' for Active; 'I' for Inactive)
ROOT
ATOM      1  C   UNL d   1      -4.139   1.301   5.980  0.00  0.00    -0.002 A 
ATOM      2  C1  UNL d   1      -5.399   1.883   5.982  0.00  0.00     0.010 A 
ATOM      3  C2  UNL d   1      -5.541   3.272   5.988  0.00  0.00     0.041 A 
ATOM      4  C3  UNL d   1      -4.383   4.075   5.990  0.00  0.00    -0.075 A 
ATOM      5  S   UNL d   1      -4.313   5.797   5.997  0.00  0.00     0.015 SA
ATOM      6  C4  UNL d   1      -2.608   5.802   5.996  0.00  0.00     0.022 A 
ATOM      7  C5  UNL d   1      -2.089   4.529   5.992  0.00  0.00     0.026 A 
ATOM      8  C6  UNL d   1      -3.103   3.512   5.988  0.00  0.00    -0.082 A 
ATOM      9  C7  UNL d   1      -2.993   2.101   5.983  0.00  0.00     0.045 A 
ENDROOT
TORSDOF 0
ENDMDL
