MODEL 1
REMARK minimizedAffinity 14.2957258
REMARK minimizedRMSD -1
REMARK  0 active torsions:
REMARK  status: ('A' for Active; 'I' for Inactive)
ROOT
ATOM      1  C   UNL d   1       1.900  -0.138  -5.177  0.00  0.00    -0.002 A 
ATOM      2  C1  UNL d   1       2.490   1.057  -5.566  0.00  0.00     0.010 A 
ATOM      3  C2  UNL d   1       3.761   1.405  -5.103  0.00  0.00     0.041 A 
ATOM      4  C3  UNL d   1       4.436   0.524  -4.236  0.00  0.00    -0.075 A 
ATOM      5  S   UNL d   1       6.000   0.741  -3.544  0.00  0.00     0.015 SA
ATOM      6  C4  UNL d   1       5.922  -0.748  -2.717  0.00  0.00     0.022 A 
ATOM      7  C5  UNL d   1       4.739  -1.407  -2.952  0.00  0.00     0.026 A 
ATOM      8  C6  UNL d   1       3.863  -0.686  -3.831  0.00  0.00    -0.082 A 
ATOM      9  C7  UNL d   1       2.573  -1.010  -4.317  0.00  0.00     0.045 A 
ENDROOT
TORSDOF 0
ENDMDL
