MODEL 1
REMARK minimizedAffinity 3.5536139
REMARK minimizedRMSD -1
REMARK  0 active torsions:
REMARK  status: ('A' for Active; 'I' for Inactive)
ROOT
ATOM      1  C   UNL d   1       4.286   1.000   1.271  0.00  0.00    -0.002 A 
ATOM      2  C1  UNL d   1       5.153   0.226   2.029  0.00  0.00     0.010 A 
ATOM      3  C2  UNL d   1       4.729  -0.986   2.577  0.00  0.00     0.041 A 
ATOM      4  C3  UNL d   1       3.406  -1.413   2.346  0.00  0.00    -0.075 A 
ATOM      5  S   UNL d   1       2.667  -2.862   2.916  0.00  0.00     0.015 SA
ATOM      6  C4  UNL d   1       1.183  -2.488   2.167  0.00  0.00     0.022 A 
ATOM      7  C5  UNL d   1       1.232  -1.291   1.494  0.00  0.00     0.026 A 
ATOM      8  C6  UNL d   1       2.515  -0.651   1.586  0.00  0.00    -0.082 A 
ATOM      9  C7  UNL d   1       2.974   0.574   1.045  0.00  0.00     0.045 A 
ENDROOT
TORSDOF 0
ENDMDL
