MODEL 1
REMARK minimizedAffinity 4.00370407
REMARK minimizedRMSD -1
REMARK  0 active torsions:
REMARK  status: ('A' for Active; 'I' for Inactive)
ROOT
ATOM      1  C   UNL d   1      -3.478  -2.518   5.998  0.00  0.00    -0.002 A 
ATOM      2  C1  UNL d   1      -3.093  -1.486   5.154  0.00  0.00     0.010 A 
ATOM      3  C2  UNL d   1      -3.086  -1.666   3.769  0.00  0.00     0.041 A 
ATOM      4  C3  UNL d   1      -3.478  -2.913   3.242  0.00  0.00    -0.075 A 
ATOM      5  S   UNL d   1      -3.548  -3.362   1.580  0.00  0.00     0.015 SA
ATOM      6  C4  UNL d   1      -4.091  -4.935   1.951  0.00  0.00     0.022 A 
ATOM      7  C5  UNL d   1      -4.221  -5.129   3.306  0.00  0.00     0.026 A 
ATOM      8  C6  UNL d   1      -3.870  -3.967   4.072  0.00  0.00    -0.082 A 
ATOM      9  C7  UNL d   1      -3.865  -3.753   5.472  0.00  0.00     0.045 A 
ENDROOT
TORSDOF 0
ENDMDL
