MODEL 1
REMARK minimizedAffinity 13.9325562
REMARK minimizedRMSD -1
REMARK  0 active torsions:
REMARK  status: ('A' for Active; 'I' for Inactive)
ROOT
ATOM      1  C   UNL d   1      -1.632   4.949   5.952  0.00  0.00    -0.002 A 
ATOM      2  C1  UNL d   1      -2.558   5.982   5.954  0.00  0.00     0.010 A 
ATOM      3  C2  UNL d   1      -3.927   5.708   5.958  0.00  0.00     0.041 A 
ATOM      4  C3  UNL d   1      -4.354   4.365   5.960  0.00  0.00    -0.075 A 
ATOM      5  S   UNL d   1      -5.979   3.791   5.966  0.00  0.00     0.015 SA
ATOM      6  C4  UNL d   1      -5.482   2.161   5.966  0.00  0.00     0.022 A 
ATOM      7  C5  UNL d   1      -4.113   2.039   5.962  0.00  0.00     0.026 A 
ATOM      8  C6  UNL d   1      -3.440   3.308   5.959  0.00  0.00    -0.082 A 
ATOM      9  C7  UNL d   1      -2.059   3.618   5.955  0.00  0.00     0.045 A 
ENDROOT
TORSDOF 0
ENDMDL
