MODEL 1
REMARK minimizedAffinity 6.35166979
REMARK minimizedRMSD -1
REMARK  0 active torsions:
REMARK  status: ('A' for Active; 'I' for Inactive)
ROOT
ATOM      1  C   UNL d   1       5.346  -0.145   2.999  0.00  0.00    -0.002 A 
ATOM      2  C1  UNL d   1       6.000   0.620   2.043  0.00  0.00     0.010 A 
ATOM      3  C2  UNL d   1       5.294   1.181   0.977  0.00  0.00     0.041 A 
ATOM      4  C3  UNL d   1       3.905   0.959   0.888  0.00  0.00    -0.075 A 
ATOM      5  S   UNL d   1       2.835   1.547  -0.329  0.00  0.00     0.015 SA
ATOM      6  C4  UNL d   1       1.484   0.797   0.391  0.00  0.00     0.022 A 
ATOM      7  C5  UNL d   1       1.824   0.111   1.533  0.00  0.00     0.026 A 
ATOM      8  C6  UNL d   1       3.224   0.193   1.839  0.00  0.00    -0.082 A 
ATOM      9  C7  UNL d   1       3.969  -0.362   2.907  0.00  0.00     0.045 A 
ENDROOT
TORSDOF 0
ENDMDL
