MODEL 1
REMARK minimizedAffinity 14.9365826
REMARK minimizedRMSD -1
REMARK  0 active torsions:
REMARK  status: ('A' for Active; 'I' for Inactive)
ROOT
ATOM      1  C   UNL d   1       1.540  -1.131   1.728  0.00  0.00    -0.002 A 
ATOM      2  C1  UNL d   1       1.719  -0.162   0.751  0.00  0.00     0.010 A 
ATOM      3  C2  UNL d   1       2.927   0.530   0.650  0.00  0.00     0.041 A 
ATOM      4  C3  UNL d   1       3.964   0.227   1.555  0.00  0.00    -0.075 A 
ATOM      5  S   UNL d   1       5.530   0.945   1.620  0.00  0.00     0.015 SA
ATOM      6  C4  UNL d   1       5.998  -0.018   2.946  0.00  0.00     0.022 A 
ATOM      7  C5  UNL d   1       4.997  -0.872   3.342  0.00  0.00     0.026 A 
ATOM      8  C6  UNL d   1       3.808  -0.745   2.547  0.00  0.00    -0.082 A 
ATOM      9  C7  UNL d   1       2.570  -1.429   2.624  0.00  0.00     0.045 A 
ENDROOT
TORSDOF 0
ENDMDL
