MODEL 1
REMARK minimizedAffinity 6.82924223
REMARK minimizedRMSD -1
REMARK  0 active torsions:
REMARK  status: ('A' for Active; 'I' for Inactive)
ROOT
ATOM      1  C   UNL d   1      -3.980   5.929   5.944  0.00  0.00    -0.002 A 
ATOM      2  C1  UNL d   1      -2.688   5.423   5.973  0.00  0.00     0.010 A 
ATOM      3  C2  UNL d   1      -2.465   4.044   5.993  0.00  0.00     0.041 A 
ATOM      4  C3  UNL d   1      -3.573   3.175   5.979  0.00  0.00    -0.075 A 
ATOM      5  S   UNL d   1      -3.542   1.451   5.998  0.00  0.00     0.015 SA
ATOM      6  C4  UNL d   1      -5.243   1.346   5.966  0.00  0.00     0.022 A 
ATOM      7  C5  UNL d   1      -5.836   2.586   5.942  0.00  0.00     0.026 A 
ATOM      8  C6  UNL d   1      -4.884   3.660   5.949  0.00  0.00    -0.082 A 
ATOM      9  C7  UNL d   1      -5.076   5.063   5.931  0.00  0.00     0.045 A 
ENDROOT
TORSDOF 0
ENDMDL
