MODEL 1
REMARK minimizedAffinity -2.96073771
REMARK minimizedRMSD -1
REMARK  0 active torsions:
REMARK  status: ('A' for Active; 'I' for Inactive)
ROOT
ATOM      1  N1  IND d   1       1.590  -1.487   3.385  0.00  0.00    -0.196 N 
ATOM      2  C2  IND d   1       1.574  -1.297   4.739  0.00  0.00     0.054 A 
ATOM      3  C3  IND d   1       0.653  -0.365   5.072  0.00  0.00    -0.031 A 
ATOM      4  C4  IND d   1      -1.010   0.901   3.568  0.00  0.00     0.051 A 
ATOM      5  C5  IND d   1      -1.349   1.090   2.258  0.00  0.00    -0.031 A 
ATOM      6  C6  IND d   1      -0.715   0.414   1.236  0.00  0.00     0.015 A 
ATOM      7  C7  IND d   1       0.279  -0.489   1.488  0.00  0.00    -0.016 A 
ATOM      8  C8  IND d   1       0.631  -0.678   2.817  0.00  0.00    -0.047 A 
ATOM      9  C9  IND d   1       0.020   0.037   3.855  0.00  0.00    -0.096 A 
ATOM     10  HN1 IND d   1       2.112  -2.022   2.960  0.00  0.00     0.298 HD
ENDROOT
TORSDOF 0
ENDMDL
