MODEL 1
REMARK minimizedAffinity 2.79758787
REMARK minimizedRMSD -1
REMARK  0 active torsions:
REMARK  status: ('A' for Active; 'I' for Inactive)
ROOT
ATOM      1  N1  IND d   1      -0.565  -0.774  -0.381  0.00  0.00    -0.196 N 
ATOM      2  C2  IND d   1      -1.893  -0.692  -0.692  0.00  0.00     0.054 A 
ATOM      3  C3  IND d   1      -2.555   0.013   0.253  0.00  0.00    -0.031 A 
ATOM      4  C4  IND d   1      -1.640   1.209   2.341  0.00  0.00     0.051 A 
ATOM      5  C5  IND d   1      -0.495   1.388   3.065  0.00  0.00    -0.031 A 
ATOM      6  C6  IND d   1       0.711   0.846   2.668  0.00  0.00     0.015 A 
ATOM      7  C7  IND d   1       0.818   0.112   1.521  0.00  0.00    -0.016 A 
ATOM      8  C8  IND d   1      -0.344  -0.077   0.787  0.00  0.00    -0.047 A 
ATOM      9  C9  IND d   1      -1.579   0.434   1.207  0.00  0.00    -0.096 A 
ATOM     10  HN1 IND d   1       0.033  -1.191  -0.838  0.00  0.00     0.298 HD
ENDROOT
TORSDOF 0
ENDMDL
