MODEL 1
REMARK minimizedAffinity 11.3266373
REMARK minimizedRMSD -1
REMARK  0 active torsions:
REMARK  status: ('A' for Active; 'I' for Inactive)
ROOT
ATOM      1  N1  IND d   1       1.275  -1.237   0.735  0.00  0.00    -0.196 N 
ATOM      2  C2  IND d   1       1.873  -0.231   1.441  0.00  0.00     0.054 A 
ATOM      3  C3  IND d   1       0.995   0.773   1.666  0.00  0.00    -0.031 A 
ATOM      4  C4  IND d   1      -1.500   0.930   1.054  0.00  0.00     0.051 A 
ATOM      5  C5  IND d   1      -2.486   0.272   0.373  0.00  0.00    -0.031 A 
ATOM      6  C6  IND d   1      -2.265  -0.948  -0.232  0.00  0.00     0.015 A 
ATOM      7  C7  IND d   1      -1.047  -1.564  -0.169  0.00  0.00    -0.016 A 
ATOM      8  C8  IND d   1      -0.042  -0.896   0.516  0.00  0.00    -0.047 A 
ATOM      9  C9  IND d   1      -0.249   0.363   1.095  0.00  0.00    -0.096 A 
ATOM     10  HN1 IND d   1       1.657  -1.961   0.472  0.00  0.00     0.298 HD
ENDROOT
TORSDOF 0
ENDMDL
