MODEL 1
REMARK minimizedAffinity 8.72219086
REMARK minimizedRMSD -1
REMARK  0 active torsions:
REMARK  status: ('A' for Active; 'I' for Inactive)
ROOT
ATOM      1  N1  IND d   1      -1.784  -0.819  -4.715  0.00  0.00    -0.196 N 
ATOM      2  C2  IND d   1      -1.639  -1.810  -5.645  0.00  0.00     0.054 A 
ATOM      3  C3  IND d   1      -0.340  -1.943  -5.993  0.00  0.00    -0.031 A 
ATOM      4  C4  IND d   1       1.731  -0.710  -5.087  0.00  0.00     0.051 A 
ATOM      5  C5  IND d   1       2.099   0.307  -4.252  0.00  0.00    -0.031 A 
ATOM      6  C6  IND d   1       1.173   1.014  -3.511  0.00  0.00     0.015 A 
ATOM      7  C7  IND d   1      -0.160   0.720  -3.570  0.00  0.00    -0.016 A 
ATOM      8  C8  IND d   1      -0.538  -0.307  -4.422  0.00  0.00    -0.047 A 
ATOM      9  C9  IND d   1       0.392  -1.000  -5.208  0.00  0.00    -0.096 A 
ATOM     10  HN1 IND d   1      -2.527  -0.558  -4.370  0.00  0.00     0.298 HD
ENDROOT
TORSDOF 0
ENDMDL
