MODEL 1
REMARK minimizedAffinity 8.62945461
REMARK minimizedRMSD -1
REMARK  0 active torsions:
REMARK  status: ('A' for Active; 'I' for Inactive)
ROOT
ATOM      1  N1  IND d   1      -2.038   5.930  -0.604  0.00  0.00    -0.196 N 
ATOM      2  C2  IND d   1      -2.587   5.877   0.647  0.00  0.00     0.054 A 
ATOM      3  C3  IND d   1      -1.616   5.846   1.587  0.00  0.00    -0.031 A 
ATOM      4  C4  IND d   1       0.939   5.975   1.303  0.00  0.00     0.051 A 
ATOM      5  C5  IND d   1       1.917   5.996   0.348  0.00  0.00    -0.031 A 
ATOM      6  C6  IND d   1       1.621   6.000  -1.000  0.00  0.00     0.015 A 
ATOM      7  C7  IND d   1       0.329   5.993  -1.445  0.00  0.00    -0.016 A 
ATOM      8  C8  IND d   1      -0.666   5.964  -0.479  0.00  0.00    -0.047 A 
ATOM      9  C9  IND d   1      -0.371   5.918   0.890  0.00  0.00    -0.096 A 
ATOM     10  HN1 IND d   1      -2.475   5.940  -1.344  0.00  0.00     0.298 HD
ENDROOT
TORSDOF 0
ENDMDL
