MODEL 1
REMARK minimizedAffinity 5.53192425
REMARK minimizedRMSD -1
REMARK  0 active torsions:
REMARK  status: ('A' for Active; 'I' for Inactive)
ROOT
ATOM      1  N1  IND d   1       0.815  -1.588   0.078  0.00  0.00    -0.196 N 
ATOM      2  C2  IND d   1      -0.146  -1.474  -0.888  0.00  0.00     0.054 A 
ATOM      3  C3  IND d   1      -1.077  -0.566  -0.520  0.00  0.00    -0.031 A 
ATOM      4  C4  IND d   1      -1.169   0.925   1.577  0.00  0.00     0.051 A 
ATOM      5  C5  IND d   1      -0.532   1.155   2.764  0.00  0.00    -0.031 A 
ATOM      6  C6  IND d   1       0.611   0.469   3.123  0.00  0.00     0.015 A 
ATOM      7  C7  IND d   1       1.169  -0.467   2.298  0.00  0.00    -0.016 A 
ATOM      8  C8  IND d   1       0.521  -0.707   1.095  0.00  0.00    -0.047 A 
ATOM      9  C9  IND d   1      -0.663  -0.046   0.744  0.00  0.00    -0.096 A 
ATOM     10  HN1 IND d   1       1.490  -2.121   0.054  0.00  0.00     0.298 HD
ENDROOT
TORSDOF 0
ENDMDL
