MODEL 1
REMARK minimizedAffinity 9.26217937
REMARK minimizedRMSD -1
REMARK  1 active torsions:
REMARK  status: ('A' for Active; 'I' for Inactive)
REMARK    1  A    between atoms: C1_2  and  C2_3 
ROOT
ATOM      1  C2  UNL d   1       1.233  -3.193  -1.781  0.00  0.00    -0.076 A 
ATOM      2  C3  UNL d   1       0.856  -1.872  -2.080  0.00  0.00     0.004 A 
ATOM      3  C4  UNL d   1       1.522  -0.789  -1.508  0.00  0.00    -0.003 A 
ATOM      4  C5  UNL d   1       2.577  -1.010  -0.629  0.00  0.00     0.000 A 
ATOM      5  C6  UNL d   1       2.975  -2.313  -0.335  0.00  0.00     0.000 A 
ATOM      6  C7  UNL d   1       2.325  -3.416  -0.915  0.00  0.00    -0.073 A 
ATOM      7  C8  UNL d   1       2.792  -4.800  -0.558  0.00  0.00     0.078 C 
ENDROOT
BRANCH   1   8
ATOM      8  C1  UNL d   1       0.456  -4.327  -2.410  0.00  0.00     0.053 C 
ATOM      9  C   UNL d   1      -1.012  -3.985  -2.616  0.00  0.00     0.018 C 
ENDBRANCH   1   8
TORSDOF 1
ENDMDL
