MODEL 1
REMARK minimizedAffinity 6.97045422
REMARK minimizedRMSD -1
REMARK  1 active torsions:
REMARK  status: ('A' for Active; 'I' for Inactive)
REMARK    1  A    between atoms: C1_2  and  C2_3 
ROOT
ATOM      1  C2  UNL d   1       2.819  -2.327  -0.807  0.00  0.00    -0.076 A 
ATOM      2  C3  UNL d   1       1.628  -2.455  -1.543  0.00  0.00     0.004 A 
ATOM      3  C4  UNL d   1       0.969  -1.334  -2.043  0.00  0.00    -0.003 A 
ATOM      4  C5  UNL d   1       1.492  -0.065  -1.816  0.00  0.00     0.000 A 
ATOM      5  C6  UNL d   1       2.681   0.080  -1.104  0.00  0.00     0.000 A 
ATOM      6  C7  UNL d   1       3.367  -1.042  -0.606  0.00  0.00    -0.073 A 
ATOM      7  C8  UNL d   1       4.642  -0.827   0.161  0.00  0.00     0.078 C 
ENDROOT
BRANCH   1   8
ATOM      8  C1  UNL d   1       3.474  -3.578  -0.266  0.00  0.00     0.053 C 
ATOM      9  C   UNL d   1       2.462  -4.641   0.130  0.00  0.00     0.018 C 
ENDBRANCH   1   8
TORSDOF 1
ENDMDL
