MODEL 1
REMARK minimizedAffinity 12.587328
REMARK minimizedRMSD -1
REMARK  1 active torsions:
REMARK  status: ('A' for Active; 'I' for Inactive)
REMARK    1  A    between atoms: C1_2  and  C2_3 
ROOT
ATOM      1  C2  UNL d   1       2.507  -2.907  -3.333  0.00  0.00    -0.076 A 
ATOM      2  C3  UNL d   1       3.297  -3.696  -4.187  0.00  0.00     0.004 A 
ATOM      3  C4  UNL d   1       3.523  -3.317  -5.509  0.00  0.00    -0.003 A 
ATOM      4  C5  UNL d   1       2.962  -2.143  -5.999  0.00  0.00     0.000 A 
ATOM      5  C6  UNL d   1       2.190  -1.339  -5.161  0.00  0.00     0.000 A 
ATOM      6  C7  UNL d   1       1.966  -1.698  -3.821  0.00  0.00    -0.073 A 
ATOM      7  C8  UNL d   1       1.120  -0.796  -2.964  0.00  0.00     0.078 C 
ENDROOT
BRANCH   1   8
ATOM      8  C1  UNL d   1       2.274  -3.382  -1.916  0.00  0.00     0.053 C 
ATOM      9  C   UNL d   1       3.022  -2.543  -0.891  0.00  0.00     0.018 C 
ENDBRANCH   1   8
TORSDOF 1
ENDMDL
