MODEL 1
REMARK minimizedAffinity 13.5440493
REMARK minimizedRMSD -1
REMARK  1 active torsions:
REMARK  status: ('A' for Active; 'I' for Inactive)
REMARK    1  A    between atoms: C1_2  and  C2_3 
ROOT
ATOM      1  C2  UNL d   1       0.666  -3.150  -1.608  0.00  0.00    -0.076 A 
ATOM      2  C3  UNL d   1       0.551  -1.769  -1.840  0.00  0.00     0.004 A 
ATOM      3  C4  UNL d   1       1.567  -0.891  -1.466  0.00  0.00    -0.003 A 
ATOM      4  C5  UNL d   1       2.716  -1.381  -0.854  0.00  0.00     0.000 A 
ATOM      5  C6  UNL d   1       2.854  -2.751  -0.633  0.00  0.00     0.000 A 
ATOM      6  C7  UNL d   1       1.846  -3.651  -1.019  0.00  0.00    -0.073 A 
ATOM      7  C8  UNL d   1       2.046  -5.117  -0.750  0.00  0.00     0.078 C 
ENDROOT
BRANCH   1   8
ATOM      8  C1  UNL d   1      -0.480  -4.050  -2.011  0.00  0.00     0.053 C 
ATOM      9  C   UNL d   1      -1.728  -3.269  -2.395  0.00  0.00     0.018 C 
ENDBRANCH   1   8
TORSDOF 1
ENDMDL
