MODEL 1
REMARK minimizedAffinity 13.9345779
REMARK minimizedRMSD -1
REMARK  1 active torsions:
REMARK  status: ('A' for Active; 'I' for Inactive)
REMARK    1  A    between atoms: C1_2  and  C2_3 
ROOT
ATOM      1  C2  UNL d   1       2.521  -0.922  -1.188  0.00  0.00    -0.076 A 
ATOM      2  C3  UNL d   1       1.752  -1.222  -2.326  0.00  0.00     0.004 A 
ATOM      3  C4  UNL d   1       1.222  -0.208  -3.122  0.00  0.00    -0.003 A 
ATOM      4  C5  UNL d   1       1.453   1.123  -2.793  0.00  0.00     0.000 A 
ATOM      5  C6  UNL d   1       2.229   1.439  -1.678  0.00  0.00     0.000 A 
ATOM      6  C7  UNL d   1       2.784   0.428  -0.874  0.00  0.00    -0.073 A 
ATOM      7  C8  UNL d   1       3.607   0.826   0.320  0.00  0.00     0.078 C 
ENDROOT
BRANCH   1   8
ATOM      8  C1  UNL d   1       3.046  -2.064  -0.347  0.00  0.00     0.053 C 
ATOM      9  C   UNL d   1       2.176  -3.308  -0.444  0.00  0.00     0.018 C 
ENDBRANCH   1   8
TORSDOF 1
ENDMDL
