MODEL 1
REMARK minimizedAffinity 2.45179534
REMARK minimizedRMSD -1
REMARK  1 active torsions:
REMARK  status: ('A' for Active; 'I' for Inactive)
REMARK    1  A    between atoms: C1_2  and  C2_3 
ROOT
ATOM      1  C2  UNL d   1      -3.002   0.185   2.370  0.00  0.00    -0.076 A 
ATOM      2  C3  UNL d   1      -2.019  -0.597   1.740  0.00  0.00     0.004 A 
ATOM      3  C4  UNL d   1      -0.668  -0.271   1.842  0.00  0.00    -0.003 A 
ATOM      4  C5  UNL d   1      -0.278   0.844   2.576  0.00  0.00     0.000 A 
ATOM      5  C6  UNL d   1      -1.238   1.621   3.222  0.00  0.00     0.000 A 
ATOM      6  C7  UNL d   1      -2.603   1.297   3.143  0.00  0.00    -0.073 A 
ATOM      7  C8  UNL d   1      -3.597   2.174   3.855  0.00  0.00     0.078 C 
ENDROOT
BRANCH   1   8
ATOM      8  C1  UNL d   1      -4.454  -0.202   2.201  0.00  0.00     0.053 C 
ATOM      9  C   UNL d   1      -4.653  -1.709   2.148  0.00  0.00     0.018 C 
ENDBRANCH   1   8
TORSDOF 1
ENDMDL
