MODEL 1
REMARK minimizedAffinity 6.683815
REMARK minimizedRMSD -1
REMARK  1 active torsions:
REMARK  status: ('A' for Active; 'I' for Inactive)
REMARK    1  A    between atoms: C1_2  and  C2_3 
ROOT
ATOM      1  C2  UNL d   1       1.568  -3.544  -0.156  0.00  0.00    -0.076 A 
ATOM      2  C3  UNL d   1       0.780  -3.424   1.002  0.00  0.00     0.004 A 
ATOM      3  C4  UNL d   1      -0.234  -2.472   1.085  0.00  0.00    -0.003 A 
ATOM      4  C5  UNL d   1      -0.478  -1.623   0.010  0.00  0.00     0.000 A 
ATOM      5  C6  UNL d   1       0.282  -1.740  -1.153  0.00  0.00     0.000 A 
ATOM      6  C7  UNL d   1       1.298  -2.705  -1.259  0.00  0.00    -0.073 A 
ATOM      7  C8  UNL d   1       2.091  -2.783  -2.535  0.00  0.00     0.078 C 
ENDROOT
BRANCH   1   8
ATOM      8  C1  UNL d   1       2.671  -4.577  -0.178  0.00  0.00     0.053 C 
ATOM      9  C   UNL d   1       4.008  -4.011   0.276  0.00  0.00     0.018 C 
ENDBRANCH   1   8
TORSDOF 1
ENDMDL
