MODEL 1
REMARK minimizedAffinity 11.3313198
REMARK minimizedRMSD -1
REMARK  1 active torsions:
REMARK  status: ('A' for Active; 'I' for Inactive)
REMARK    1  A    between atoms: C1_2  and  C2_3 
ROOT
ATOM      1  C2  UNL d   1       1.986  -0.638  -2.667  0.00  0.00    -0.076 A 
ATOM      2  C3  UNL d   1       1.429   0.590  -3.065  0.00  0.00     0.004 A 
ATOM      3  C4  UNL d   1       1.399   1.680  -2.197  0.00  0.00    -0.003 A 
ATOM      4  C5  UNL d   1       1.927   1.560  -0.916  0.00  0.00     0.000 A 
ATOM      5  C6  UNL d   1       2.500   0.355  -0.510  0.00  0.00     0.000 A 
ATOM      6  C7  UNL d   1       2.552  -0.748  -1.379  0.00  0.00    -0.073 A 
ATOM      7  C8  UNL d   1       3.176  -2.025  -0.886  0.00  0.00     0.078 C 
ENDROOT
BRANCH   1   8
ATOM      8  C1  UNL d   1       1.966  -1.793  -3.642  0.00  0.00     0.053 C 
ATOM      9  C   UNL d   1       2.762  -1.502  -4.906  0.00  0.00     0.018 C 
ENDBRANCH   1   8
TORSDOF 1
ENDMDL
