MODEL 1
REMARK minimizedAffinity 10.8698149
REMARK minimizedRMSD -1
REMARK  1 active torsions:
REMARK  status: ('A' for Active; 'I' for Inactive)
REMARK    1  A    between atoms: C1_2  and  C2_3 
ROOT
ATOM      1  C2  UNL d   1      -2.669   1.387   3.343  0.00  0.00    -0.076 A 
ATOM      2  C3  UNL d   1      -1.366   1.861   3.573  0.00  0.00     0.004 A 
ATOM      3  C4  UNL d   1      -0.256   1.177   3.079  0.00  0.00    -0.003 A 
ATOM      4  C5  UNL d   1      -0.432   0.008   2.346  0.00  0.00     0.000 A 
ATOM      5  C6  UNL d   1      -1.719  -0.467   2.094  0.00  0.00     0.000 A 
ATOM      6  C7  UNL d   1      -2.849   0.219   2.571  0.00  0.00    -0.073 A 
ATOM      7  C8  UNL d   1      -4.212  -0.341   2.274  0.00  0.00     0.078 C 
ENDROOT
BRANCH   1   8
ATOM      8  C1  UNL d   1      -3.833   2.156   3.927  0.00  0.00     0.053 C 
ATOM      9  C   UNL d   1      -3.720   2.327   5.434  0.00  0.00     0.018 C 
ENDBRANCH   1   8
TORSDOF 1
ENDMDL
