MODEL 1
REMARK minimizedAffinity 5.97043419
REMARK minimizedRMSD -1
REMARK  1 active torsions:
REMARK  status: ('A' for Active; 'I' for Inactive)
REMARK    1  A    between atoms: C1_2  and  C2_3 
ROOT
ATOM      1  C2  UNL d   1      -2.998  -4.493  -5.174  0.00  0.00    -0.076 A 
ATOM      2  C3  UNL d   1      -3.909  -5.480  -5.591  0.00  0.00     0.004 A 
ATOM      3  C4  UNL d   1      -5.198  -5.140  -5.998  0.00  0.00    -0.003 A 
ATOM      4  C5  UNL d   1      -5.596  -3.808  -5.996  0.00  0.00     0.000 A 
ATOM      5  C6  UNL d   1      -4.700  -2.814  -5.602  0.00  0.00     0.000 A 
ATOM      6  C7  UNL d   1      -3.392  -3.139  -5.204  0.00  0.00    -0.073 A 
ATOM      7  C8  UNL d   1      -2.469  -2.028  -4.784  0.00  0.00     0.078 C 
ENDROOT
BRANCH   1   8
ATOM      8  C1  UNL d   1      -1.622  -4.924  -4.717  0.00  0.00     0.053 C 
ATOM      9  C   UNL d   1      -1.676  -5.957  -3.602  0.00  0.00     0.018 C 
ENDBRANCH   1   8
TORSDOF 1
ENDMDL
