MODEL 1
REMARK minimizedAffinity 9.63534451
REMARK minimizedRMSD -1
REMARK  1 active torsions:
REMARK  status: ('A' for Active; 'I' for Inactive)
REMARK    1  A    between atoms: C1_2  and  C2_3 
ROOT
ATOM      1  C2  UNL d   1       1.976  -0.893  -1.301  0.00  0.00    -0.076 A 
ATOM      2  C3  UNL d   1       2.400   0.442  -1.418  0.00  0.00     0.004 A 
ATOM      3  C4  UNL d   1       3.413   0.947  -0.605  0.00  0.00    -0.003 A 
ATOM      4  C5  UNL d   1       4.020   0.125   0.338  0.00  0.00     0.000 A 
ATOM      5  C6  UNL d   1       3.625  -1.208   0.455  0.00  0.00     0.000 A 
ATOM      6  C7  UNL d   1       2.616  -1.737  -0.368  0.00  0.00    -0.073 A 
ATOM      7  C8  UNL d   1       2.225  -3.179  -0.194  0.00  0.00     0.078 C 
ENDROOT
BRANCH   1   8
ATOM      8  C1  UNL d   1       0.854  -1.377  -2.191  0.00  0.00     0.053 C 
ATOM      9  C   UNL d   1       1.294  -1.562  -3.635  0.00  0.00     0.018 C 
ENDBRANCH   1   8
TORSDOF 1
ENDMDL
