MODEL 1
REMARK minimizedAffinity 7.35412169
REMARK minimizedRMSD -1
REMARK  1 active torsions:
REMARK  status: ('A' for Active; 'I' for Inactive)
REMARK    1  A    between atoms: C1_2  and  C2_3 
ROOT
ATOM      1  C2  UNL d   1       1.891  -3.920  -0.675  0.00  0.00    -0.076 A 
ATOM      2  C3  UNL d   1       0.568  -3.705  -1.097  0.00  0.00     0.004 A 
ATOM      3  C4  UNL d   1       0.176  -2.478  -1.632  0.00  0.00    -0.003 A 
ATOM      4  C5  UNL d   1       1.102  -1.448  -1.753  0.00  0.00     0.000 A 
ATOM      5  C6  UNL d   1       2.423  -1.650  -1.356  0.00  0.00     0.000 A 
ATOM      6  C7  UNL d   1       2.838  -2.885  -0.830  0.00  0.00    -0.073 A 
ATOM      7  C8  UNL d   1       4.274  -3.046  -0.412  0.00  0.00     0.078 C 
ENDROOT
BRANCH   1   8
ATOM      8  C1  UNL d   1       2.252  -5.262  -0.079  0.00  0.00     0.053 C 
ATOM      9  C   UNL d   1       3.305  -5.998  -0.893  0.00  0.00     0.018 C 
ENDBRANCH   1   8
TORSDOF 1
ENDMDL
