MODEL 1
REMARK minimizedAffinity -1.33529484
REMARK minimizedRMSD -1
REMARK  0 active torsions:
REMARK  status: ('A' for Active; 'I' for Inactive)
ROOT
ATOM      1  C2' OXE d   1      -1.630  -0.082   1.520  0.00  0.00     0.078 C 
ATOM      2  C1' OXE d   1      -0.549  -2.446   0.459  0.00  0.00     0.078 C 
ATOM      3  C1  OXE d   1      -0.150  -1.140  -0.182  0.00  0.00    -0.078 A 
ATOM      4  C2  OXE d   1      -0.721   0.008   0.314  0.00  0.00    -0.078 A 
ATOM      5  C3  OXE d   1      -0.346   1.244  -0.206  0.00  0.00     0.003 A 
ATOM      6  C4  OXE d   1       0.489   1.317  -1.328  0.00  0.00    -0.002 A 
ATOM      7  C5  OXE d   1       1.049   0.157  -1.873  0.00  0.00    -0.002 A 
ATOM      8  C6  OXE d   1       0.774  -1.073  -1.287  0.00  0.00     0.003 A 
ENDROOT
TORSDOF 0
ENDMDL
