MODEL 1
REMARK minimizedAffinity -1.79976094
REMARK minimizedRMSD -1
REMARK  0 active torsions:
REMARK  status: ('A' for Active; 'I' for Inactive)
ROOT
ATOM      1  C2' OXE d   1       2.162  -1.124  -1.385  0.00  0.00     0.078 C 
ATOM      2  C1' OXE d   1       0.240  -2.449   0.173  0.00  0.00     0.078 C 
ATOM      3  C1  OXE d   1       0.076  -0.964  -0.032  0.00  0.00    -0.078 A 
ATOM      4  C2  OXE d   1       1.047  -0.316  -0.757  0.00  0.00    -0.078 A 
ATOM      5  C3  OXE d   1       0.916   1.045  -1.023  0.00  0.00     0.003 A 
ATOM      6  C4  OXE d   1      -0.113   1.786  -0.430  0.00  0.00    -0.002 A 
ATOM      7  C5  OXE d   1      -1.090   1.152   0.344  0.00  0.00    -0.002 A 
ATOM      8  C6  OXE d   1      -1.034  -0.226   0.517  0.00  0.00     0.003 A 
ENDROOT
TORSDOF 0
ENDMDL
