MODEL 1
REMARK minimizedAffinity -5.9015274
REMARK minimizedRMSD -1
REMARK  0 active torsions:
REMARK  status: ('A' for Active; 'I' for Inactive)
ROOT
ATOM      1  C2' OXE d   1      -1.113   0.437   0.072  0.00  0.00     0.078 C 
ATOM      2  C1' OXE d   1       0.417  -1.907   0.284  0.00  0.00     0.078 C 
ATOM      3  C1  OXE d   1       0.868  -0.859  -0.703  0.00  0.00    -0.078 A 
ATOM      4  C2  OXE d   1       0.087   0.264  -0.834  0.00  0.00    -0.078 A 
ATOM      5  C3  OXE d   1       0.487   1.285  -1.690  0.00  0.00     0.003 A 
ATOM      6  C4  OXE d   1       1.593   1.113  -2.532  0.00  0.00    -0.002 A 
ATOM      7  C5  OXE d   1       2.379  -0.041  -2.443  0.00  0.00    -0.002 A 
ATOM      8  C6  OXE d   1       2.056  -1.016  -1.506  0.00  0.00     0.003 A 
ENDROOT
TORSDOF 0
ENDMDL
