MODEL 1
REMARK minimizedAffinity -4.93881798
REMARK minimizedRMSD -1
REMARK  0 active torsions:
REMARK  status: ('A' for Active; 'I' for Inactive)
ROOT
ATOM      1  C2' OXE d   1      -0.830   0.097  -0.375  0.00  0.00     0.078 C 
ATOM      2  C1' OXE d   1       0.452  -1.901   1.122  0.00  0.00     0.078 C 
ATOM      3  C1  OXE d   1      -0.329  -0.852   1.873  0.00  0.00    -0.078 A 
ATOM      4  C2  OXE d   1      -0.915   0.149   1.135  0.00  0.00    -0.078 A 
ATOM      5  C3  OXE d   1      -1.693   1.111   1.773  0.00  0.00     0.003 A 
ATOM      6  C4  OXE d   1      -1.758   1.157   3.171  0.00  0.00    -0.002 A 
ATOM      7  C5  OXE d   1      -1.136   0.170   3.943  0.00  0.00    -0.002 A 
ATOM      8  C6  OXE d   1      -0.455  -0.863   3.309  0.00  0.00     0.003 A 
ENDROOT
TORSDOF 0
ENDMDL
