MODEL 1
REMARK minimizedAffinity -1.59519875
REMARK minimizedRMSD -1
REMARK  0 active torsions:
REMARK  status: ('A' for Active; 'I' for Inactive)
ROOT
ATOM      1  C2' OXE d   1      -0.257   1.893  -1.269  0.00  0.00     0.078 C 
ATOM      2  C1' OXE d   1      -1.176   0.464   0.966  0.00  0.00     0.078 C 
ATOM      3  C1  OXE d   1      -0.084  -0.160   0.133  0.00  0.00    -0.078 A 
ATOM      4  C2  OXE d   1       0.327   0.525  -0.986  0.00  0.00    -0.078 A 
ATOM      5  C3  OXE d   1       1.368   0.021  -1.759  0.00  0.00     0.003 A 
ATOM      6  C4  OXE d   1       1.896  -1.249  -1.496  0.00  0.00    -0.002 A 
ATOM      7  C5  OXE d   1       1.464  -1.981  -0.385  0.00  0.00    -0.002 A 
ATOM      8  C6  OXE d   1       0.507  -1.433   0.462  0.00  0.00     0.003 A 
ENDROOT
TORSDOF 0
ENDMDL
