MODEL 1
REMARK minimizedAffinity -0.877953768
REMARK minimizedRMSD -1
REMARK  0 active torsions:
REMARK  status: ('A' for Active; 'I' for Inactive)
ROOT
ATOM      1  C2' OXE d   1       1.931  -1.146  -1.495  0.00  0.00     0.078 C 
ATOM      2  C1' OXE d   1       0.965   1.425  -2.079  0.00  0.00     0.078 C 
ATOM      3  C1  OXE d   1       0.323   0.674  -0.939  0.00  0.00    -0.078 A 
ATOM      4  C2  OXE d   1       0.770  -0.602  -0.691  0.00  0.00    -0.078 A 
ATOM      5  C3  OXE d   1       0.249  -1.317   0.384  0.00  0.00     0.003 A 
ATOM      6  C4  OXE d   1      -0.831  -0.811   1.116  0.00  0.00    -0.002 A 
ATOM      7  C5  OXE d   1      -1.328   0.470   0.854  0.00  0.00    -0.002 A 
ATOM      8  C6  OXE d   1      -0.736   1.241  -0.140  0.00  0.00     0.003 A 
ENDROOT
TORSDOF 0
ENDMDL
