MODEL 1
REMARK minimizedAffinity -4.71592331
REMARK minimizedRMSD -1
REMARK  0 active torsions:
REMARK  status: ('A' for Active; 'I' for Inactive)
ROOT
ATOM      1  C2' OXE d   1       1.130   1.396  -2.334  0.00  0.00     0.078 C 
ATOM      2  C1' OXE d   1       2.124  -1.155  -1.711  0.00  0.00     0.078 C 
ATOM      3  C1  OXE d   1       0.911  -0.669  -0.957  0.00  0.00    -0.078 A 
ATOM      4  C2  OXE d   1       0.460   0.599  -1.235  0.00  0.00    -0.078 A 
ATOM      5  C3  OXE d   1      -0.688   1.075  -0.607  0.00  0.00     0.003 A 
ATOM      6  C4  OXE d   1      -1.295   0.336   0.415  0.00  0.00    -0.002 A 
ATOM      7  C5  OXE d   1      -0.828  -0.942   0.741  0.00  0.00    -0.002 A 
ATOM      8  C6  OXE d   1       0.246  -1.475   0.037  0.00  0.00     0.003 A 
ENDROOT
TORSDOF 0
ENDMDL
