MODEL 1
REMARK minimizedAffinity -1.87562418
REMARK minimizedRMSD -1
REMARK  0 active torsions:
REMARK  status: ('A' for Active; 'I' for Inactive)
ROOT
ATOM      1  C2' OXE d   1       2.234  -1.170  -1.493  0.00  0.00     0.078 C 
ATOM      2  C1' OXE d   1       1.039   1.315  -2.016  0.00  0.00     0.078 C 
ATOM      3  C1  OXE d   1       0.415   0.444  -0.954  0.00  0.00    -0.078 A 
ATOM      4  C2  OXE d   1       0.979  -0.790  -0.738  0.00  0.00    -0.078 A 
ATOM      5  C3  OXE d   1       0.475  -1.611   0.267  0.00  0.00     0.003 A 
ATOM      6  C4  OXE d   1      -0.692  -1.256   0.954  0.00  0.00    -0.002 A 
ATOM      7  C5  OXE d   1      -1.305  -0.021   0.721  0.00  0.00    -0.002 A 
ATOM      8  C6  OXE d   1      -0.741   0.857  -0.198  0.00  0.00     0.003 A 
ENDROOT
TORSDOF 0
ENDMDL
