MODEL 1
REMARK minimizedAffinity -1.96523845
REMARK minimizedRMSD -1
REMARK  0 active torsions:
REMARK  status: ('A' for Active; 'I' for Inactive)
ROOT
ATOM      1  C2' OXE d   1      -1.132  -0.108   0.628  0.00  0.00     0.078 C 
ATOM      2  C1' OXE d   1       0.280  -2.534   0.685  0.00  0.00     0.078 C 
ATOM      3  C1  OXE d   1       0.792  -1.443  -0.223  0.00  0.00    -0.078 A 
ATOM      4  C2  OXE d   1       0.068  -0.276  -0.279  0.00  0.00    -0.078 A 
ATOM      5  C3  OXE d   1       0.526   0.782  -1.058  0.00  0.00     0.003 A 
ATOM      6  C4  OXE d   1       1.631   0.615  -1.901  0.00  0.00    -0.002 A 
ATOM      7  C5  OXE d   1       2.360  -0.579  -1.889  0.00  0.00    -0.002 A 
ATOM      8  C6  OXE d   1       1.979  -1.601  -1.026  0.00  0.00     0.003 A 
ENDROOT
TORSDOF 0
ENDMDL
