MODEL 1
REMARK minimizedAffinity 0.695540607
REMARK minimizedRMSD -1
REMARK  0 active torsions:
REMARK  status: ('A' for Active; 'I' for Inactive)
ROOT
ATOM      1  C2' OXE d   1       0.043  -2.544   1.035  0.00  0.00     0.078 C 
ATOM      2  C1' OXE d   1      -0.757   0.143   0.890  0.00  0.00     0.078 C 
ATOM      3  C1  OXE d   1       0.188  -0.368  -0.169  0.00  0.00    -0.078 A 
ATOM      4  C2  OXE d   1       0.611  -1.671  -0.063  0.00  0.00    -0.078 A 
ATOM      5  C3  OXE d   1       1.439  -2.209  -1.045  0.00  0.00     0.003 A 
ATOM      6  C4  OXE d   1       1.967  -1.392  -2.052  0.00  0.00    -0.002 A 
ATOM      7  C5  OXE d   1       1.580  -0.051  -2.155  0.00  0.00    -0.002 A 
ATOM      8  C6  OXE d   1       0.660   0.464  -1.248  0.00  0.00     0.003 A 
ENDROOT
TORSDOF 0
ENDMDL
