MODEL 1
REMARK minimizedAffinity 0.0125978123
REMARK minimizedRMSD -1
REMARK  0 active torsions:
REMARK  status: ('A' for Active; 'I' for Inactive)
ROOT
ATOM      1  C2' OXE d   1      -0.860   0.600   0.779  0.00  0.00     0.078 C 
ATOM      2  C1' OXE d   1       0.294  -1.958   0.851  0.00  0.00     0.078 C 
ATOM      3  C1  OXE d   1       0.735  -1.017  -0.243  0.00  0.00    -0.078 A 
ATOM      4  C2  OXE d   1       0.131   0.216  -0.298  0.00  0.00    -0.078 A 
ATOM      5  C3  OXE d   1       0.539   1.141  -1.254  0.00  0.00     0.003 A 
ATOM      6  C4  OXE d   1       1.449   0.774  -2.254  0.00  0.00    -0.002 A 
ATOM      7  C5  OXE d   1       2.046  -0.491  -2.239  0.00  0.00    -0.002 A 
ATOM      8  C6  OXE d   1       1.733  -1.381  -1.218  0.00  0.00     0.003 A 
ENDROOT
TORSDOF 0
ENDMDL
