MODEL 1
REMARK minimizedAffinity -3.19767642
REMARK minimizedRMSD -1
REMARK  0 active torsions:
REMARK  status: ('A' for Active; 'I' for Inactive)
ROOT
ATOM      1  C2' OXE d   1      -1.060   0.464   0.602  0.00  0.00     0.078 C 
ATOM      2  C1' OXE d   1       0.437  -1.909   0.545  0.00  0.00     0.078 C 
ATOM      3  C1  OXE d   1       0.753  -0.853  -0.485  0.00  0.00    -0.078 A 
ATOM      4  C2  OXE d   1      -0.016   0.286  -0.479  0.00  0.00    -0.078 A 
ATOM      5  C3  OXE d   1       0.269   1.314  -1.372  0.00  0.00     0.003 A 
ATOM      6  C4  OXE d   1       1.230   1.137  -2.375  0.00  0.00    -0.002 A 
ATOM      7  C5  OXE d   1       1.998  -0.032  -2.424  0.00  0.00    -0.002 A 
ATOM      8  C6  OXE d   1       1.801  -1.017  -1.462  0.00  0.00     0.003 A 
ENDROOT
TORSDOF 0
ENDMDL
