MODEL 1
REMARK minimizedAffinity -3.7421658
REMARK minimizedRMSD -1
REMARK  0 active torsions:
REMARK  status: ('A' for Active; 'I' for Inactive)
ROOT
ATOM      1  C2' OXE d   1       0.361  -2.112   0.553  0.00  0.00     0.078 C 
ATOM      2  C1' OXE d   1      -1.208   0.212   0.437  0.00  0.00     0.078 C 
ATOM      3  C1  OXE d   1      -0.035   0.108  -0.505  0.00  0.00    -0.078 A 
ATOM      4  C2  OXE d   1       0.755  -1.012  -0.410  0.00  0.00    -0.078 A 
ATOM      5  C3  OXE d   1       1.817  -1.184  -1.292  0.00  0.00     0.003 A 
ATOM      6  C4  OXE d   1       2.181  -0.157  -2.173  0.00  0.00    -0.002 A 
ATOM      7  C5  OXE d   1       1.413   1.009  -2.258  0.00  0.00    -0.002 A 
ATOM      8  C6  OXE d   1       0.279   1.139  -1.464  0.00  0.00     0.003 A 
ENDROOT
TORSDOF 0
ENDMDL
