MODEL 1
REMARK minimizedAffinity -2.94347715
REMARK minimizedRMSD -1
REMARK  0 active torsions:
REMARK  status: ('A' for Active; 'I' for Inactive)
ROOT
ATOM      1  C2' OXE d   1      -2.942   1.868   2.417  0.00  0.00     0.078 C 
ATOM      2  C1' OXE d   1      -0.882   0.611   3.850  0.00  0.00     0.078 C 
ATOM      3  C1  OXE d   1      -0.918   0.417   2.355  0.00  0.00    -0.078 A 
ATOM      4  C2  OXE d   1      -1.957   0.998   1.667  0.00  0.00    -0.078 A 
ATOM      5  C3  OXE d   1      -2.007   0.896   0.280  0.00  0.00     0.003 A 
ATOM      6  C4  OXE d   1      -1.097   0.081  -0.405  0.00  0.00    -0.002 A 
ATOM      7  C5  OXE d   1      -0.055  -0.552   0.282  0.00  0.00    -0.002 A 
ATOM      8  C6  OXE d   1       0.073  -0.360   1.653  0.00  0.00     0.003 A 
ENDROOT
TORSDOF 0
ENDMDL
