MODEL 1
REMARK minimizedAffinity -3.46515918
REMARK minimizedRMSD -1
REMARK  0 active torsions:
REMARK  status: ('A' for Active; 'I' for Inactive)
ROOT
ATOM      1  C2' OXE d   1       1.879  -1.445  -2.043  0.00  0.00     0.078 C 
ATOM      2  C1' OXE d   1       1.756   1.055  -3.314  0.00  0.00     0.078 C 
ATOM      3  C1  OXE d   1       0.924   0.856  -2.072  0.00  0.00    -0.078 A 
ATOM      4  C2  OXE d   1       0.954  -0.385  -1.483  0.00  0.00    -0.078 A 
ATOM      5  C3  OXE d   1       0.248  -0.606  -0.304  0.00  0.00     0.003 A 
ATOM      6  C4  OXE d   1      -0.613   0.376   0.201  0.00  0.00    -0.002 A 
ATOM      7  C5  OXE d   1      -0.689   1.634  -0.406  0.00  0.00    -0.002 A 
ATOM      8  C6  OXE d   1       0.104   1.903  -1.516  0.00  0.00     0.003 A 
ENDROOT
TORSDOF 0
ENDMDL
