MODEL 1
REMARK minimizedAffinity -2.78916216
REMARK minimizedRMSD -1
REMARK  0 active torsions:
REMARK  status: ('A' for Active; 'I' for Inactive)
ROOT
ATOM      1  C2' OXE d   1       1.304  -2.237   0.042  0.00  0.00     0.078 C 
ATOM      2  C1' OXE d   1      -0.152   0.038   0.807  0.00  0.00     0.078 C 
ATOM      3  C1  OXE d   1       0.506   0.047  -0.550  0.00  0.00    -0.078 A 
ATOM      4  C2  OXE d   1       1.256  -1.051  -0.897  0.00  0.00    -0.078 A 
ATOM      5  C3  OXE d   1       1.839  -1.117  -2.159  0.00  0.00     0.003 A 
ATOM      6  C4  OXE d   1       1.798  -0.011  -3.018  0.00  0.00    -0.002 A 
ATOM      7  C5  OXE d   1       1.073   1.133  -2.667  0.00  0.00    -0.002 A 
ATOM      8  C6  OXE d   1       0.388   1.162  -1.458  0.00  0.00     0.003 A 
ENDROOT
TORSDOF 0
ENDMDL
