MODEL 1
REMARK minimizedAffinity -3.47078323
REMARK minimizedRMSD -1
REMARK  0 active torsions:
REMARK  status: ('A' for Active; 'I' for Inactive)
ROOT
ATOM      1  C2' OXE d   1      -1.390  -0.304   1.094  0.00  0.00     0.078 C 
ATOM      2  C1' OXE d   1      -0.047  -2.723   0.618  0.00  0.00     0.078 C 
ATOM      3  C1  OXE d   1       0.296  -1.543  -0.257  0.00  0.00    -0.078 A 
ATOM      4  C2  OXE d   1      -0.399  -0.377  -0.048  0.00  0.00    -0.078 A 
ATOM      5  C3  OXE d   1      -0.083   0.757  -0.790  0.00  0.00     0.003 A 
ATOM      6  C4  OXE d   1       0.827   0.679  -1.851  0.00  0.00    -0.002 A 
ATOM      7  C5  OXE d   1       1.518  -0.511  -2.108  0.00  0.00    -0.002 A 
ATOM      8  C6  OXE d   1       1.295  -1.616  -1.294  0.00  0.00     0.003 A 
ENDROOT
TORSDOF 0
ENDMDL
