MODEL 1
REMARK minimizedAffinity 0.925533772
REMARK minimizedRMSD -1
REMARK  0 active torsions:
REMARK  status: ('A' for Active; 'I' for Inactive)
ROOT
ATOM      1  C2' OXE d   1      -2.550  -0.397   3.596  0.00  0.00     0.078 C 
ATOM      2  C1' OXE d   1      -1.557   2.226   3.493  0.00  0.00     0.078 C 
ATOM      3  C1  OXE d   1      -1.573   1.429   2.213  0.00  0.00    -0.078 A 
ATOM      4  C2  OXE d   1      -2.017   0.130   2.282  0.00  0.00    -0.078 A 
ATOM      5  C3  OXE d   1      -2.103  -0.632   1.120  0.00  0.00     0.003 A 
ATOM      6  C4  OXE d   1      -1.598  -0.140  -0.090  0.00  0.00    -0.002 A 
ATOM      7  C5  OXE d   1      -1.105   1.167  -0.174  0.00  0.00    -0.002 A 
ATOM      8  C6  OXE d   1      -1.124   1.977   0.956  0.00  0.00     0.003 A 
ENDROOT
TORSDOF 0
ENDMDL
