MODEL 1
REMARK minimizedAffinity -2.37538671
REMARK minimizedRMSD -1
REMARK  0 active torsions:
REMARK  status: ('A' for Active; 'I' for Inactive)
ROOT
ATOM      1  C2' OXE d   1      -1.223   0.725  -0.207  0.00  0.00     0.078 C 
ATOM      2  C1' OXE d   1       0.738   1.513  -2.055  0.00  0.00     0.078 C 
ATOM      3  C1  OXE d   1       0.949   0.216  -1.315  0.00  0.00    -0.078 A 
ATOM      4  C2  OXE d   1       0.008  -0.138  -0.378  0.00  0.00    -0.078 A 
ATOM      5  C3  OXE d   1       0.127  -1.352   0.294  0.00  0.00     0.003 A 
ATOM      6  C4  OXE d   1       1.274  -2.140   0.137  0.00  0.00    -0.002 A 
ATOM      7  C5  OXE d   1       2.264  -1.777  -0.783  0.00  0.00    -0.002 A 
ATOM      8  C6  OXE d   1       2.097  -0.627  -1.546  0.00  0.00     0.003 A 
ENDROOT
TORSDOF 0
ENDMDL
