MODEL 1
REMARK minimizedAffinity -4.30907154
REMARK minimizedRMSD -1
REMARK  1 active torsions:
REMARK  status: ('A' for Active; 'I' for Inactive)
REMARK    1  A    between atoms: C1_2  and  C2_3 
ROOT
ATOM      1  C2  UNL d   1      -0.427   0.901   0.508  0.00  0.00    -0.073 A 
ATOM      2  C3  UNL d   1      -0.994   2.180   0.530  0.00  0.00    -0.002 A 
ATOM      3  C4  UNL d   1      -0.186   3.311   0.409  0.00  0.00     0.004 A 
ATOM      4  C5  UNL d   1       1.194   3.175   0.260  0.00  0.00    -0.004 A 
ATOM      5  C6  UNL d   1       1.778   1.905   0.224  0.00  0.00    -0.075 A 
ATOM      6  C7  UNL d   1       3.261   1.741   0.066  0.00  0.00     0.076 C 
ATOM      7  C8  UNL d   1       0.960   0.774   0.348  0.00  0.00     0.001 A 
ENDROOT
BRANCH   1   8
ATOM      8  C1  UNL d   1      -1.297  -0.324   0.632  0.00  0.00     0.053 C 
ATOM      9  C   UNL d   1      -0.554  -1.592   0.242  0.00  0.00     0.018 C 
ENDBRANCH   1   8
TORSDOF 1
ENDMDL
