MODEL 1
REMARK minimizedAffinity -5.51758671
REMARK minimizedRMSD -1
REMARK  1 active torsions:
REMARK  status: ('A' for Active; 'I' for Inactive)
REMARK    1  A    between atoms: C1_2  and  C2_3 
ROOT
ATOM      1  C2  UNL d   1       0.020   0.721  -0.020  0.00  0.00    -0.073 A 
ATOM      2  C3  UNL d   1      -0.645   1.950  -0.090  0.00  0.00    -0.002 A 
ATOM      3  C4  UNL d   1       0.068   3.144   0.031  0.00  0.00     0.004 A 
ATOM      4  C5  UNL d   1       1.450   3.122   0.215  0.00  0.00    -0.004 A 
ATOM      5  C6  UNL d   1       2.134   1.903   0.275  0.00  0.00    -0.075 A 
ATOM      6  C7  UNL d   1       3.620   1.862   0.476  0.00  0.00     0.076 C 
ATOM      7  C8  UNL d   1       1.411   0.708   0.156  0.00  0.00     0.001 A 
ENDROOT
BRANCH   1   8
ATOM      8  C1  UNL d   1      -0.744  -0.571  -0.157  0.00  0.00     0.053 C 
ATOM      9  C   UNL d   1       0.182  -1.775  -0.236  0.00  0.00     0.018 C 
ENDBRANCH   1   8
TORSDOF 1
ENDMDL
