MODEL 1
REMARK minimizedAffinity -4.58548117
REMARK minimizedRMSD -1
REMARK  1 active torsions:
REMARK  status: ('A' for Active; 'I' for Inactive)
REMARK    1  A    between atoms: C1_2  and  C2_3 
ROOT
ATOM      1  C2  UNL d   1       0.236   0.086   0.256  0.00  0.00    -0.073 A 
ATOM      2  C3  UNL d   1      -0.904   0.125   1.066  0.00  0.00    -0.002 A 
ATOM      3  C4  UNL d   1      -1.549   1.336   1.317  0.00  0.00     0.004 A 
ATOM      4  C5  UNL d   1      -1.067   2.519   0.756  0.00  0.00    -0.004 A 
ATOM      5  C6  UNL d   1       0.065   2.499  -0.066  0.00  0.00    -0.075 A 
ATOM      6  C7  UNL d   1       0.598   3.762  -0.676  0.00  0.00     0.076 C 
ATOM      7  C8  UNL d   1       0.709   1.278  -0.311  0.00  0.00     0.001 A 
ENDROOT
BRANCH   1   8
ATOM      8  C1  UNL d   1       0.933  -1.221  -0.023  0.00  0.00     0.053 C 
ATOM      9  C   UNL d   1      -0.021  -2.269  -0.573  0.00  0.00     0.018 C 
ENDBRANCH   1   8
TORSDOF 1
ENDMDL
