MODEL 1
REMARK minimizedAffinity -4.32430887
REMARK minimizedRMSD -1
REMARK  1 active torsions:
REMARK  status: ('A' for Active; 'I' for Inactive)
REMARK    1  A    between atoms: C1_2  and  C2_3 
ROOT
ATOM      1  C2  UNL d   1      -0.215  -0.033   0.336  0.00  0.00    -0.073 A 
ATOM      2  C3  UNL d   1      -1.514  -0.014   0.858  0.00  0.00    -0.002 A 
ATOM      3  C4  UNL d   1      -2.161   1.199   1.096  0.00  0.00     0.004 A 
ATOM      4  C5  UNL d   1      -1.521   2.404   0.808  0.00  0.00    -0.004 A 
ATOM      5  C6  UNL d   1      -0.228   2.406   0.275  0.00  0.00    -0.075 A 
ATOM      6  C7  UNL d   1       0.476   3.694  -0.038  0.00  0.00     0.076 C 
ATOM      7  C8  UNL d   1       0.417   1.184   0.042  0.00  0.00     0.001 A 
ENDROOT
BRANCH   1   8
ATOM      8  C1  UNL d   1       0.485  -1.341   0.072  0.00  0.00     0.053 C 
ATOM      9  C   UNL d   1      -0.418  -2.338  -0.635  0.00  0.00     0.018 C 
ENDBRANCH   1   8
TORSDOF 1
ENDMDL
