MODEL 1
REMARK minimizedAffinity -6.288661
REMARK minimizedRMSD -1
REMARK  1 active torsions:
REMARK  status: ('A' for Active; 'I' for Inactive)
REMARK    1  A    between atoms: C1_2  and  C2_3 
ROOT
ATOM      1  C2  UNL d   1       0.879   2.297   0.588  0.00  0.00    -0.073 A 
ATOM      2  C3  UNL d   1      -0.342   2.980   0.561  0.00  0.00    -0.002 A 
ATOM      3  C4  UNL d   1      -1.515   2.313   0.205  0.00  0.00     0.004 A 
ATOM      4  C5  UNL d   1      -1.480   0.957  -0.120  0.00  0.00    -0.004 A 
ATOM      5  C6  UNL d   1      -0.272   0.255  -0.087  0.00  0.00    -0.075 A 
ATOM      6  C7  UNL d   1      -0.217  -1.204  -0.436  0.00  0.00     0.076 C 
ATOM      7  C8  UNL d   1       0.902   0.932   0.269  0.00  0.00     0.001 A 
ENDROOT
BRANCH   1   8
ATOM      8  C1  UNL d   1       2.147   3.012   0.978  0.00  0.00     0.053 C 
ATOM      9  C   UNL d   1       3.320   2.055   1.119  0.00  0.00     0.018 C 
ENDBRANCH   1   8
TORSDOF 1
ENDMDL
