MODEL 1
REMARK minimizedAffinity -3.67526484
REMARK minimizedRMSD -1
REMARK  1 active torsions:
REMARK  status: ('A' for Active; 'I' for Inactive)
REMARK    1  A    between atoms: C1_2  and  C2_3 
ROOT
ATOM      1  C2  UNL d   1       0.189   0.917  -0.061  0.00  0.00    -0.073 A 
ATOM      2  C3  UNL d   1       0.705  -0.367  -0.270  0.00  0.00    -0.002 A 
ATOM      3  C4  UNL d   1      -0.053  -1.493   0.056  0.00  0.00     0.004 A 
ATOM      4  C5  UNL d   1      -1.334  -1.346   0.588  0.00  0.00    -0.004 A 
ATOM      5  C6  UNL d   1      -1.872  -0.071   0.793  0.00  0.00    -0.075 A 
ATOM      6  C7  UNL d   1      -3.247   0.103   1.366  0.00  0.00     0.076 C 
ATOM      7  C8  UNL d   1      -1.103   1.054   0.465  0.00  0.00     0.001 A 
ENDROOT
BRANCH   1   8
ATOM      8  C1  UNL d   1       1.001   2.135  -0.418  0.00  0.00     0.053 C 
ATOM      9  C   UNL d   1       0.273   3.426  -0.077  0.00  0.00     0.018 C 
ENDBRANCH   1   8
TORSDOF 1
ENDMDL
