MODEL 1
REMARK minimizedAffinity -5.14212847
REMARK minimizedRMSD -1
REMARK  1 active torsions:
REMARK  status: ('A' for Active; 'I' for Inactive)
REMARK    1  A    between atoms: C1_2  and  C2_3 
ROOT
ATOM      1  C2  UNL d   1       0.307   0.262  -0.115  0.00  0.00    -0.073 A 
ATOM      2  C3  UNL d   1       1.671  -0.046  -0.045  0.00  0.00    -0.002 A 
ATOM      3  C4  UNL d   1       2.611   0.963   0.167  0.00  0.00     0.004 A 
ATOM      4  C5  UNL d   1       2.198   2.287   0.319  0.00  0.00    -0.004 A 
ATOM      5  C6  UNL d   1       0.839   2.612   0.264  0.00  0.00    -0.075 A 
ATOM      6  C7  UNL d   1       0.378   4.032   0.424  0.00  0.00     0.076 C 
ATOM      7  C8  UNL d   1      -0.099   1.594   0.048  0.00  0.00     0.001 A 
ENDROOT
BRANCH   1   8
ATOM      8  C1  UNL d   1      -0.712  -0.826  -0.337  0.00  0.00     0.053 C 
ATOM      9  C   UNL d   1      -0.062  -2.153  -0.694  0.00  0.00     0.018 C 
ENDBRANCH   1   8
TORSDOF 1
ENDMDL
