MODEL 1
REMARK minimizedAffinity -3.14225388
REMARK minimizedRMSD -1
REMARK  1 active torsions:
REMARK  status: ('A' for Active; 'I' for Inactive)
REMARK    1  A    between atoms: C1_2  and  C2_3 
ROOT
ATOM      1  C2  UNL d   1       0.162  -0.975   0.151  0.00  0.00    -0.073 A 
ATOM      2  C3  UNL d   1       1.546  -0.949   0.355  0.00  0.00    -0.002 A 
ATOM      3  C4  UNL d   1       2.203   0.261   0.582  0.00  0.00     0.004 A 
ATOM      4  C5  UNL d   1       1.482   1.455   0.615  0.00  0.00    -0.004 A 
ATOM      5  C6  UNL d   1       0.096   1.448   0.425  0.00  0.00    -0.075 A 
ATOM      6  C7  UNL d   1      -0.693   2.724   0.456  0.00  0.00     0.076 C 
ATOM      7  C8  UNL d   1      -0.555   0.229   0.195  0.00  0.00     0.001 A 
ENDROOT
BRANCH   1   8
ATOM      8  C1  UNL d   1      -0.552  -2.280  -0.088  0.00  0.00     0.053 C 
ATOM      9  C   UNL d   1      -0.217  -2.873  -1.448  0.00  0.00     0.018 C 
ENDBRANCH   1   8
TORSDOF 1
ENDMDL
