MODEL 1
REMARK minimizedAffinity -6.77729702
REMARK minimizedRMSD -1
REMARK  1 active torsions:
REMARK  status: ('A' for Active; 'I' for Inactive)
REMARK    1  A    between atoms: C1_2  and  C2_3 
ROOT
ATOM      1  C2  UNL d   1       0.003   0.139   0.301  0.00  0.00    -0.073 A 
ATOM      2  C3  UNL d   1      -1.084   1.000   0.110  0.00  0.00    -0.002 A 
ATOM      3  C4  UNL d   1      -0.884   2.379   0.028  0.00  0.00     0.004 A 
ATOM      4  C5  UNL d   1       0.402   2.909   0.130  0.00  0.00    -0.004 A 
ATOM      5  C6  UNL d   1       1.502   2.063   0.309  0.00  0.00    -0.075 A 
ATOM      6  C7  UNL d   1       2.891   2.618   0.423  0.00  0.00     0.076 C 
ATOM      7  C8  UNL d   1       1.293   0.680   0.393  0.00  0.00     0.001 A 
ENDROOT
BRANCH   1   8
ATOM      8  C1  UNL d   1      -0.207  -1.351   0.383  0.00  0.00     0.053 C 
ATOM      9  C   UNL d   1      -0.234  -2.000  -0.992  0.00  0.00     0.018 C 
ENDBRANCH   1   8
TORSDOF 1
ENDMDL
