MODEL 1
REMARK minimizedAffinity -4.07326412
REMARK minimizedRMSD -1
REMARK  1 active torsions:
REMARK  status: ('A' for Active; 'I' for Inactive)
REMARK    1  A    between atoms: C1_2  and  C2_3 
ROOT
ATOM      1  C2  UNL d   1       0.391   1.779  -0.195  0.00  0.00    -0.073 A 
ATOM      2  C3  UNL d   1      -0.856   2.174   0.301  0.00  0.00    -0.002 A 
ATOM      3  C4  UNL d   1      -1.845   1.223   0.559  0.00  0.00     0.004 A 
ATOM      4  C5  UNL d   1      -1.595  -0.130   0.331  0.00  0.00    -0.004 A 
ATOM      5  C6  UNL d   1      -0.351  -0.545  -0.153  0.00  0.00    -0.075 A 
ATOM      6  C7  UNL d   1      -0.067  -1.997  -0.405  0.00  0.00     0.076 C 
ATOM      7  C8  UNL d   1       0.636   0.415  -0.412  0.00  0.00     0.001 A 
ENDROOT
BRANCH   1   8
ATOM      8  C1  UNL d   1       1.464   2.800  -0.469  0.00  0.00     0.053 C 
ATOM      9  C   UNL d   1       0.997   4.214  -0.163  0.00  0.00     0.018 C 
ENDBRANCH   1   8
TORSDOF 1
ENDMDL
