MODEL 1
REMARK minimizedAffinity -3.90425324
REMARK minimizedRMSD -1
REMARK  1 active torsions:
REMARK  status: ('A' for Active; 'I' for Inactive)
REMARK    1  A    between atoms: C1_2  and  C2_3 
ROOT
ATOM      1  C2  UNL d   1       0.263  -2.432  -0.644  0.00  0.00    -0.073 A 
ATOM      2  C3  UNL d   1       0.333  -2.687  -2.019  0.00  0.00    -0.002 A 
ATOM      3  C4  UNL d   1      -0.637  -3.476  -2.639  0.00  0.00     0.004 A 
ATOM      4  C5  UNL d   1      -1.687  -4.013  -1.895  0.00  0.00    -0.004 A 
ATOM      5  C6  UNL d   1      -1.780  -3.759  -0.522  0.00  0.00    -0.075 A 
ATOM      6  C7  UNL d   1      -2.903  -4.330   0.293  0.00  0.00     0.076 C 
ATOM      7  C8  UNL d   1      -0.802  -2.968   0.094  0.00  0.00     0.001 A 
ENDROOT
BRANCH   1   8
ATOM      8  C1  UNL d   1       1.304  -1.575   0.029  0.00  0.00     0.053 C 
ATOM      9  C   UNL d   1       1.013  -0.092  -0.134  0.00  0.00     0.018 C 
ENDBRANCH   1   8
TORSDOF 1
ENDMDL
