MODEL 1
REMARK minimizedAffinity -4.17279291
REMARK minimizedRMSD -1
REMARK  2 active torsions:
REMARK  status: ('A' for Active; 'I' for Inactive)
REMARK    1  A    between atoms: C1_2  and  C2_3 
REMARK    2  A    between atoms: C2_3  and  C3_4 
ROOT
ATOM      1  C3  UNL d   1       0.633  -0.358  -1.026  0.00  0.00    -0.075 A 
ATOM      2  C4  UNL d   1       0.888   0.128  -2.316  0.00  0.00     0.002 A 
ATOM      3  C5  UNL d   1       1.240  -0.745  -3.345  0.00  0.00     0.002 A 
ATOM      4  C6  UNL d   1       1.352  -2.111  -3.096  0.00  0.00    -0.004 A 
ATOM      5  C7  UNL d   1       1.117  -2.603  -1.814  0.00  0.00     0.002 A 
ATOM      6  C8  UNL d   1       0.760  -1.732  -0.783  0.00  0.00     0.002 A 
ENDROOT
BRANCH   1   7
ATOM      7  C2  UNL d   1       0.223   0.579   0.086  0.00  0.00     0.056 C 
BRANCH   7   8
ATOM      8  C1  UNL d   1       0.687   0.136   1.477  0.00  0.00     0.007 C 
ATOM      9  C   UNL d   1      -0.378   0.316   2.551  0.00  0.00     0.009 C 
ENDBRANCH   7   8
ENDBRANCH   1   7
TORSDOF 2
ENDMDL
