MODEL 1
REMARK minimizedAffinity -3.84629345
REMARK minimizedRMSD -1
REMARK  2 active torsions:
REMARK  status: ('A' for Active; 'I' for Inactive)
REMARK    1  A    between atoms: C1_2  and  C2_3 
REMARK    2  A    between atoms: C2_3  and  C3_4 
ROOT
ATOM      1  C3  UNL d   1       0.380  -0.140  -1.605  0.00  0.00    -0.075 A 
ATOM      2  C4  UNL d   1      -0.464  -1.195  -1.980  0.00  0.00     0.002 A 
ATOM      3  C5  UNL d   1      -0.105  -2.055  -3.019  0.00  0.00     0.002 A 
ATOM      4  C6  UNL d   1       1.095  -1.866  -3.700  0.00  0.00    -0.004 A 
ATOM      5  C7  UNL d   1       1.934  -0.811  -3.346  0.00  0.00     0.002 A 
ATOM      6  C8  UNL d   1       1.579   0.048  -2.305  0.00  0.00     0.002 A 
ENDROOT
BRANCH   1   7
ATOM      7  C2  UNL d   1       0.011   0.776  -0.462  0.00  0.00     0.056 C 
BRANCH   7   8
ATOM      8  C1  UNL d   1      -0.110   0.067   0.891  0.00  0.00     0.007 C 
ATOM      9  C   UNL d   1       1.093   0.293   1.797  0.00  0.00     0.009 C 
ENDBRANCH   7   8
ENDBRANCH   1   7
TORSDOF 2
ENDMDL
