MODEL 1
REMARK minimizedAffinity -0.329730213
REMARK minimizedRMSD -1
REMARK  2 active torsions:
REMARK  status: ('A' for Active; 'I' for Inactive)
REMARK    1  A    between atoms: C1_2  and  C2_3 
REMARK    2  A    between atoms: C2_3  and  C3_4 
ROOT
ATOM      1  C3  UNL d   1       0.289   0.141  -0.954  0.00  0.00    -0.075 A 
ATOM      2  C4  UNL d   1       1.356   0.194  -0.045  0.00  0.00     0.002 A 
ATOM      3  C5  UNL d   1       1.120   0.404   1.314  0.00  0.00     0.002 A 
ATOM      4  C6  UNL d   1      -0.182   0.573   1.779  0.00  0.00    -0.004 A 
ATOM      5  C7  UNL d   1      -1.248   0.539   0.884  0.00  0.00     0.002 A 
ATOM      6  C8  UNL d   1      -1.015   0.324  -0.476  0.00  0.00     0.002 A 
ENDROOT
BRANCH   1   7
ATOM      7  C2  UNL d   1       0.536  -0.116  -2.421  0.00  0.00     0.056 C 
BRANCH   7   8
ATOM      8  C1  UNL d   1       2.009  -0.347  -2.775  0.00  0.00     0.007 C 
ATOM      9  C   UNL d   1       2.218  -1.497  -3.751  0.00  0.00     0.009 C 
ENDBRANCH   7   8
ENDBRANCH   1   7
TORSDOF 2
ENDMDL
