MODEL 1
REMARK minimizedAffinity -1.60042346
REMARK minimizedRMSD -1
REMARK  2 active torsions:
REMARK  status: ('A' for Active; 'I' for Inactive)
REMARK    1  A    between atoms: C1_2  and  C2_3 
REMARK    2  A    between atoms: C2_3  and  C3_4 
ROOT
ATOM      1  C3  UNL d   1       0.106   0.413  -0.627  0.00  0.00    -0.075 A 
ATOM      2  C4  UNL d   1       1.384   0.236  -0.077  0.00  0.00     0.002 A 
ATOM      3  C5  UNL d   1       1.552   0.128   1.304  0.00  0.00     0.002 A 
ATOM      4  C6  UNL d   1       0.449   0.207   2.151  0.00  0.00    -0.004 A 
ATOM      5  C7  UNL d   1      -0.823   0.400   1.616  0.00  0.00     0.002 A 
ATOM      6  C8  UNL d   1      -0.995   0.504   0.235  0.00  0.00     0.002 A 
ENDROOT
BRANCH   1   7
ATOM      7  C2  UNL d   1      -0.085   0.501  -2.122  0.00  0.00     0.056 C 
BRANCH   7   8
ATOM      8  C1  UNL d   1       0.923  -0.324  -2.930  0.00  0.00     0.007 C 
ATOM      9  C   UNL d   1       0.356  -1.648  -3.423  0.00  0.00     0.009 C 
ENDBRANCH   7   8
ENDBRANCH   1   7
TORSDOF 2
ENDMDL
