MODEL 1
REMARK minimizedAffinity -3.96264052
REMARK minimizedRMSD -1
REMARK  2 active torsions:
REMARK  status: ('A' for Active; 'I' for Inactive)
REMARK    1  A    between atoms: C1_2  and  C2_3 
REMARK    2  A    between atoms: C2_3  and  C3_4 
ROOT
ATOM      1  C3  UNL d   1       0.310   0.078  -0.783  0.00  0.00    -0.075 A 
ATOM      2  C4  UNL d   1       1.206   0.414   0.242  0.00  0.00     0.002 A 
ATOM      3  C5  UNL d   1       0.801   0.381   1.576  0.00  0.00     0.002 A 
ATOM      4  C6  UNL d   1      -0.505   0.024   1.902  0.00  0.00    -0.004 A 
ATOM      5  C7  UNL d   1      -1.409  -0.295   0.891  0.00  0.00     0.002 A 
ATOM      6  C8  UNL d   1      -1.005  -0.268  -0.445  0.00  0.00     0.002 A 
ENDROOT
BRANCH   1   7
ATOM      7  C2  UNL d   1       0.750   0.083  -2.228  0.00  0.00     0.056 C 
BRANCH   7   8
ATOM      8  C1  UNL d   1       0.448  -1.219  -2.976  0.00  0.00     0.007 C 
ATOM      9  C   UNL d   1       1.660  -2.130  -3.110  0.00  0.00     0.009 C 
ENDBRANCH   7   8
ENDBRANCH   1   7
TORSDOF 2
ENDMDL
