MODEL 1
REMARK minimizedAffinity -3.71643496
REMARK minimizedRMSD -1
REMARK  2 active torsions:
REMARK  status: ('A' for Active; 'I' for Inactive)
REMARK    1  A    between atoms: C1_2  and  C2_3 
REMARK    2  A    between atoms: C2_3  and  C3_4 
ROOT
ATOM      1  C3  UNL d   1       0.217   0.287  -0.294  0.00  0.00    -0.075 A 
ATOM      2  C4  UNL d   1       1.111   0.350   0.785  0.00  0.00     0.002 A 
ATOM      3  C5  UNL d   1       0.647   0.246   2.097  0.00  0.00     0.002 A 
ATOM      4  C6  UNL d   1      -0.715   0.089   2.347  0.00  0.00    -0.004 A 
ATOM      5  C7  UNL d   1      -1.614   0.042   1.284  0.00  0.00     0.002 A 
ATOM      6  C8  UNL d   1      -1.152   0.141  -0.030  0.00  0.00     0.002 A 
ENDROOT
BRANCH   1   7
ATOM      7  C2  UNL d   1       0.716   0.369  -1.717  0.00  0.00     0.056 C 
BRANCH   7   8
ATOM      8  C1  UNL d   1       0.436  -0.887  -2.549  0.00  0.00     0.007 C 
ATOM      9  C   UNL d   1       1.566  -1.235  -3.508  0.00  0.00     0.009 C 
ENDBRANCH   7   8
ENDBRANCH   1   7
TORSDOF 2
ENDMDL
