MODEL 1
REMARK minimizedAffinity -2.47357917
REMARK minimizedRMSD -1
REMARK  2 active torsions:
REMARK  status: ('A' for Active; 'I' for Inactive)
REMARK    1  A    between atoms: C1_2  and  C2_3 
REMARK    2  A    between atoms: C2_3  and  C3_4 
ROOT
ATOM      1  C3  UNL d   1       4.500  -4.085   3.778  0.00  0.00    -0.075 A 
ATOM      2  C4  UNL d   1       3.536  -5.052   3.457  0.00  0.00     0.002 A 
ATOM      3  C5  UNL d   1       3.141  -5.999   4.403  0.00  0.00     0.002 A 
ATOM      4  C6  UNL d   1       3.710  -5.997   5.674  0.00  0.00    -0.004 A 
ATOM      5  C7  UNL d   1       4.680  -5.051   5.998  0.00  0.00     0.002 A 
ATOM      6  C8  UNL d   1       5.074  -4.100   5.056  0.00  0.00     0.002 A 
ENDROOT
BRANCH   1   7
ATOM      7  C2  UNL d   1       4.910  -3.039   2.768  0.00  0.00     0.056 C 
BRANCH   7   8
ATOM      8  C1  UNL d   1       4.506  -1.611   3.150  0.00  0.00     0.007 C 
ATOM      9  C   UNL d   1       5.649  -0.803   3.749  0.00  0.00     0.009 C 
ENDBRANCH   7   8
ENDBRANCH   1   7
TORSDOF 2
ENDMDL
