MODEL 1
REMARK minimizedAffinity -0.756216347
REMARK minimizedRMSD -1
REMARK  2 active torsions:
REMARK  status: ('A' for Active; 'I' for Inactive)
REMARK    1  A    between atoms: C1_2  and  C2_3 
REMARK    2  A    between atoms: C2_3  and  C3_4 
ROOT
ATOM      1  C3  UNL d   1       0.843   0.474  -0.845  0.00  0.00    -0.075 A 
ATOM      2  C4  UNL d   1      -0.551   0.349  -0.756  0.00  0.00     0.002 A 
ATOM      3  C5  UNL d   1      -1.185   0.343   0.487  0.00  0.00     0.002 A 
ATOM      4  C6  UNL d   1      -0.433   0.451   1.655  0.00  0.00    -0.004 A 
ATOM      5  C7  UNL d   1       0.954   0.558   1.580  0.00  0.00     0.002 A 
ATOM      6  C8  UNL d   1       1.590   0.569   0.337  0.00  0.00     0.002 A 
ENDROOT
BRANCH   1   7
ATOM      7  C2  UNL d   1       1.531   0.511  -2.188  0.00  0.00     0.056 C 
BRANCH   7   8
ATOM      8  C1  UNL d   1       1.902  -0.871  -2.737  0.00  0.00     0.007 C 
ATOM      9  C   UNL d   1       3.275  -0.908  -3.394  0.00  0.00     0.009 C 
ENDBRANCH   7   8
ENDBRANCH   1   7
TORSDOF 2
ENDMDL
