MODEL 1
REMARK minimizedAffinity -4.64339256
REMARK minimizedRMSD -1
REMARK  2 active torsions:
REMARK  status: ('A' for Active; 'I' for Inactive)
REMARK    1  A    between atoms: C1_2  and  C2_3 
REMARK    2  A    between atoms: C2_3  and  C3_4 
ROOT
ATOM      1  C3  UNL d   1       0.097   0.041   0.130  0.00  0.00    -0.075 A 
ATOM      2  C4  UNL d   1       0.707  -0.231   1.363  0.00  0.00     0.002 A 
ATOM      3  C5  UNL d   1      -0.025  -0.152   2.548  0.00  0.00     0.002 A 
ATOM      4  C6  UNL d   1      -1.371   0.208   2.517  0.00  0.00    -0.004 A 
ATOM      5  C7  UNL d   1      -1.983   0.497   1.299  0.00  0.00     0.002 A 
ATOM      6  C8  UNL d   1      -1.254   0.415   0.112  0.00  0.00     0.002 A 
ENDROOT
BRANCH   1   7
ATOM      7  C2  UNL d   1       0.876  -0.071  -1.159  0.00  0.00     0.056 C 
BRANCH   7   8
ATOM      8  C1  UNL d   1       0.010  -0.369  -2.387  0.00  0.00     0.007 C 
ATOM      9  C   UNL d   1       0.800  -0.946  -3.554  0.00  0.00     0.009 C 
ENDBRANCH   7   8
ENDBRANCH   1   7
TORSDOF 2
ENDMDL
