MODEL 1
REMARK minimizedAffinity -6.1055336
REMARK minimizedRMSD -1
REMARK  2 active torsions:
REMARK  status: ('A' for Active; 'I' for Inactive)
REMARK    1  A    between atoms: C1_2  and  C2_3 
REMARK    2  A    between atoms: C2_3  and  C3_4 
ROOT
ATOM      1  C3  UNL d   1      -0.177   0.259   0.017  0.00  0.00    -0.075 A 
ATOM      2  C4  UNL d   1      -1.300  -0.257   0.678  0.00  0.00     0.002 A 
ATOM      3  C5  UNL d   1      -1.212  -0.670   2.008  0.00  0.00     0.002 A 
ATOM      4  C6  UNL d   1       0.000  -0.581   2.689  0.00  0.00    -0.004 A 
ATOM      5  C7  UNL d   1       1.127  -0.085   2.036  0.00  0.00     0.002 A 
ATOM      6  C8  UNL d   1       1.040   0.333   0.707  0.00  0.00     0.002 A 
ENDROOT
BRANCH   1   7
ATOM      7  C2  UNL d   1      -0.273   0.735  -1.413  0.00  0.00     0.056 C 
BRANCH   7   8
ATOM      8  C1  UNL d   1       0.331  -0.234  -2.435  0.00  0.00     0.007 C 
ATOM      9  C   UNL d   1       1.415   0.400  -3.296  0.00  0.00     0.009 C 
ENDBRANCH   7   8
ENDBRANCH   1   7
TORSDOF 2
ENDMDL
