MODEL 1
REMARK minimizedAffinity -2.71969318
REMARK minimizedRMSD -1
REMARK  2 active torsions:
REMARK  status: ('A' for Active; 'I' for Inactive)
REMARK    1  A    between atoms: C1_2  and  C2_3 
REMARK    2  A    between atoms: C2_3  and  C3_4 
ROOT
ATOM      1  C3  UNL d   1       0.576  -0.001  -0.624  0.00  0.00    -0.075 A 
ATOM      2  C4  UNL d   1       1.543   0.328   0.338  0.00  0.00     0.002 A 
ATOM      3  C5  UNL d   1       1.208   0.377   1.691  0.00  0.00     0.002 A 
ATOM      4  C6  UNL d   1      -0.097   0.109   2.099  0.00  0.00    -0.004 A 
ATOM      5  C7  UNL d   1      -1.070  -0.202   1.151  0.00  0.00     0.002 A 
ATOM      6  C8  UNL d   1      -0.736  -0.256  -0.203  0.00  0.00     0.002 A 
ENDROOT
BRANCH   1   7
ATOM      7  C2  UNL d   1       0.939  -0.084  -2.087  0.00  0.00     0.056 C 
BRANCH   7   8
ATOM      8  C1  UNL d   1       0.727  -1.470  -2.704  0.00  0.00     0.007 C 
ATOM      9  C   UNL d   1       1.987  -2.046  -3.335  0.00  0.00     0.009 C 
ENDBRANCH   7   8
ENDBRANCH   1   7
TORSDOF 2
ENDMDL
