MODEL 1
REMARK minimizedAffinity -2.25918436
REMARK minimizedRMSD -1
REMARK  2 active torsions:
REMARK  status: ('A' for Active; 'I' for Inactive)
REMARK    1  A    between atoms: C1_2  and  C2_3 
REMARK    2  A    between atoms: C2_3  and  C3_4 
ROOT
ATOM      1  C3  UNL d   1       0.143   0.305  -0.395  0.00  0.00    -0.075 A 
ATOM      2  C4  UNL d   1      -0.927  -0.060   0.436  0.00  0.00     0.002 A 
ATOM      3  C5  UNL d   1      -0.804   0.015   1.823  0.00  0.00     0.002 A 
ATOM      4  C6  UNL d   1       0.391   0.445   2.397  0.00  0.00    -0.004 A 
ATOM      5  C7  UNL d   1       1.465   0.794   1.582  0.00  0.00     0.002 A 
ATOM      6  C8  UNL d   1       1.343   0.724   0.194  0.00  0.00     0.002 A 
ENDROOT
BRANCH   1   7
ATOM      7  C2  UNL d   1       0.006   0.254  -1.898  0.00  0.00     0.056 C 
BRANCH   7   8
ATOM      8  C1  UNL d   1       1.330   0.033  -2.637  0.00  0.00     0.007 C 
ATOM      9  C   UNL d   1       1.302  -1.169  -3.572  0.00  0.00     0.009 C 
ENDBRANCH   7   8
ENDBRANCH   1   7
TORSDOF 2
ENDMDL
