MODEL 1
REMARK minimizedAffinity -3.12492228
REMARK minimizedRMSD -1
REMARK  2 active torsions:
REMARK  status: ('A' for Active; 'I' for Inactive)
REMARK    1  A    between atoms: C1_2  and  C2_3 
REMARK    2  A    between atoms: C2_3  and  C3_4 
ROOT
ATOM      1  C3  UNL d   1       0.193  -0.029  -0.439  0.00  0.00    -0.075 A 
ATOM      2  C4  UNL d   1      -0.825   0.646   0.249  0.00  0.00     0.002 A 
ATOM      3  C5  UNL d   1      -0.707   0.901   1.616  0.00  0.00     0.002 A 
ATOM      4  C6  UNL d   1       0.422   0.476   2.312  0.00  0.00    -0.004 A 
ATOM      5  C7  UNL d   1       1.432  -0.211   1.642  0.00  0.00     0.002 A 
ATOM      6  C8  UNL d   1       1.319  -0.463   0.273  0.00  0.00     0.002 A 
ENDROOT
BRANCH   1   7
ATOM      7  C2  UNL d   1       0.086  -0.282  -1.924  0.00  0.00     0.056 C 
BRANCH   7   8
ATOM      8  C1  UNL d   1       1.431  -0.531  -2.614  0.00  0.00     0.007 C 
ATOM      9  C   UNL d   1       1.398  -1.699  -3.590  0.00  0.00     0.009 C 
ENDBRANCH   7   8
ENDBRANCH   1   7
TORSDOF 2
ENDMDL
