MODEL 1
REMARK minimizedAffinity -2.02673912
REMARK minimizedRMSD -1
REMARK  0 active torsions:
REMARK  status: ('A' for Active; 'I' for Inactive)
ROOT
ATOM      1  C   UNL d   1       0.495  -0.424   0.851  0.00  0.00    -0.002 A 
ATOM      2  C1  UNL d   1      -0.864  -0.703   0.894  0.00  0.00     0.010 A 
ATOM      3  C2  UNL d   1      -1.453  -1.517  -0.075  0.00  0.00     0.041 A 
ATOM      4  C3  UNL d   1      -0.645  -2.053  -1.097  0.00  0.00    -0.075 A 
ATOM      5  S   UNL d   1      -1.149  -3.077  -2.390  0.00  0.00     0.015 SA
ATOM      6  C4  UNL d   1       0.429  -3.169  -3.030  0.00  0.00     0.022 A 
ATOM      7  C5  UNL d   1       1.329  -2.443  -2.288  0.00  0.00     0.026 A 
ATOM      8  C6  UNL d   1       0.726  -1.788  -1.161  0.00  0.00    -0.082 A 
ATOM      9  C7  UNL d   1       1.293  -0.958  -0.164  0.00  0.00     0.045 A 
ENDROOT
TORSDOF 0
ENDMDL
