MODEL 1
REMARK minimizedAffinity -3.09607697
REMARK minimizedRMSD -1
REMARK  0 active torsions:
REMARK  status: ('A' for Active; 'I' for Inactive)
ROOT
ATOM      1  C   UNL d   1      -1.366   2.867   1.564  0.00  0.00    -0.002 A 
ATOM      2  C1  UNL d   1      -0.786   3.348   0.399  0.00  0.00     0.010 A 
ATOM      3  C2  UNL d   1      -0.065   2.496  -0.441  0.00  0.00     0.041 A 
ATOM      4  C3  UNL d   1       0.062   1.139  -0.087  0.00  0.00    -0.075 A 
ATOM      5  S   UNL d   1       0.898  -0.089  -0.962  0.00  0.00     0.015 SA
ATOM      6  C4  UNL d   1       0.503  -1.283   0.189  0.00  0.00     0.022 A 
ATOM      7  C5  UNL d   1      -0.247  -0.774   1.223  0.00  0.00     0.026 A 
ATOM      8  C6  UNL d   1      -0.514   0.630   1.080  0.00  0.00    -0.082 A 
ATOM      9  C7  UNL d   1      -1.238   1.519   1.911  0.00  0.00     0.045 A 
ENDROOT
TORSDOF 0
ENDMDL
