MODEL 1
REMARK minimizedAffinity -3.47044182
REMARK minimizedRMSD -1
REMARK  0 active torsions:
REMARK  status: ('A' for Active; 'I' for Inactive)
ROOT
ATOM      1  C   UNL d   1      -1.675   2.725   1.536  0.00  0.00    -0.002 A 
ATOM      2  C1  UNL d   1      -1.229   3.140   0.289  0.00  0.00     0.010 A 
ATOM      3  C2  UNL d   1      -0.450   2.294  -0.504  0.00  0.00     0.041 A 
ATOM      4  C3  UNL d   1      -0.127   1.012  -0.019  0.00  0.00    -0.075 A 
ATOM      5  S   UNL d   1       0.812  -0.195  -0.816  0.00  0.00     0.015 SA
ATOM      6  C4  UNL d   1       0.642  -1.289   0.479  0.00  0.00     0.022 A 
ATOM      7  C5  UNL d   1      -0.110  -0.764   1.503  0.00  0.00     0.026 A 
ATOM      8  C6  UNL d   1      -0.566   0.571   1.233  0.00  0.00    -0.082 A 
ATOM      9  C7  UNL d   1      -1.352   1.452   2.013  0.00  0.00     0.045 A 
ENDROOT
TORSDOF 0
ENDMDL
