MODEL 1
REMARK minimizedAffinity -1.69316304
REMARK minimizedRMSD -1
REMARK  0 active torsions:
REMARK  status: ('A' for Active; 'I' for Inactive)
ROOT
ATOM      1  C   UNL d   1      -1.124   3.030   1.929  0.00  0.00    -0.002 A 
ATOM      2  C1  UNL d   1      -0.427   3.720   0.947  0.00  0.00     0.010 A 
ATOM      3  C2  UNL d   1       0.269   3.029  -0.047  0.00  0.00     0.041 A 
ATOM      4  C3  UNL d   1       0.251   1.621  -0.039  0.00  0.00    -0.075 A 
ATOM      5  S   UNL d   1       1.030   0.564  -1.157  0.00  0.00     0.015 SA
ATOM      6  C4  UNL d   1       0.455  -0.827  -0.358  0.00  0.00     0.022 A 
ATOM      7  C5  UNL d   1      -0.314  -0.512   0.738  0.00  0.00     0.026 A 
ATOM      8  C6  UNL d   1      -0.445   0.904   0.939  0.00  0.00    -0.082 A 
ATOM      9  C7  UNL d   1      -1.139   1.633   1.934  0.00  0.00     0.045 A 
ENDROOT
TORSDOF 0
ENDMDL
