MODEL 1
REMARK minimizedAffinity -2.98440075
REMARK minimizedRMSD -1
REMARK  0 active torsions:
REMARK  status: ('A' for Active; 'I' for Inactive)
ROOT
ATOM      1  C   UNL d   1       0.465   3.749  -0.330  0.00  0.00    -0.002 A 
ATOM      2  C1  UNL d   1      -0.184   3.716   0.896  0.00  0.00     0.010 A 
ATOM      3  C2  UNL d   1      -0.429   2.501   1.539  0.00  0.00     0.041 A 
ATOM      4  C3  UNL d   1      -0.004   1.307   0.923  0.00  0.00    -0.075 A 
ATOM      5  S   UNL d   1      -0.194  -0.297   1.525  0.00  0.00     0.015 SA
ATOM      6  C4  UNL d   1       0.582  -0.978   0.169  0.00  0.00     0.022 A 
ATOM      7  C5  UNL d   1       0.983  -0.019  -0.731  0.00  0.00     0.026 A 
ATOM      8  C6  UNL d   1       0.652   1.314  -0.311  0.00  0.00    -0.082 A 
ATOM      9  C7  UNL d   1       0.885   2.562  -0.937  0.00  0.00     0.045 A 
ENDROOT
TORSDOF 0
ENDMDL
