MODEL 1
REMARK minimizedAffinity 0.0907765925
REMARK minimizedRMSD -1
REMARK  0 active torsions:
REMARK  status: ('A' for Active; 'I' for Inactive)
ROOT
ATOM      1  C   UNL d   1      -0.883   1.350   1.757  0.00  0.00    -0.002 A 
ATOM      2  C1  UNL d   1      -1.033   0.123   2.388  0.00  0.00     0.010 A 
ATOM      3  C2  UNL d   1      -0.610  -1.052   1.764  0.00  0.00     0.041 A 
ATOM      4  C3  UNL d   1      -0.026  -0.972   0.484  0.00  0.00    -0.075 A 
ATOM      5  S   UNL d   1       0.566  -2.280  -0.471  0.00  0.00     0.015 SA
ATOM      6  C4  UNL d   1       1.033  -1.240  -1.739  0.00  0.00     0.022 A 
ATOM      7  C5  UNL d   1       0.751   0.076  -1.457  0.00  0.00     0.026 A 
ATOM      8  C6  UNL d   1       0.136   0.252  -0.171  0.00  0.00    -0.082 A 
ATOM      9  C7  UNL d   1      -0.304   1.425   0.487  0.00  0.00     0.045 A 
ENDROOT
TORSDOF 0
ENDMDL
