MODEL 1
REMARK minimizedAffinity 1.13148439
REMARK minimizedRMSD -1
REMARK  0 active torsions:
REMARK  status: ('A' for Active; 'I' for Inactive)
ROOT
ATOM      1  C   UNL d   1      -1.038   0.074   2.709  0.00  0.00    -0.002 A 
ATOM      2  C1  UNL d   1      -1.009   1.256   1.982  0.00  0.00     0.010 A 
ATOM      3  C2  UNL d   1      -0.473   1.284   0.694  0.00  0.00     0.041 A 
ATOM      4  C3  UNL d   1       0.037   0.093   0.142  0.00  0.00    -0.075 A 
ATOM      5  S   UNL d   1       0.742  -0.112  -1.419  0.00  0.00     0.015 SA
ATOM      6  C4  UNL d   1       1.020  -1.773  -1.158  0.00  0.00     0.022 A 
ATOM      7  C5  UNL d   1       0.592  -2.178   0.085  0.00  0.00     0.026 A 
ATOM      8  C6  UNL d   1       0.018  -1.110   0.854  0.00  0.00    -0.082 A 
ATOM      9  C7  UNL d   1      -0.531  -1.106   2.158  0.00  0.00     0.045 A 
ENDROOT
TORSDOF 0
ENDMDL
