MODEL 1
REMARK minimizedAffinity -3.60775828
REMARK minimizedRMSD -1
REMARK  0 active torsions:
REMARK  status: ('A' for Active; 'I' for Inactive)
ROOT
ATOM      1  C   UNL d   1      -0.508   3.308   0.975  0.00  0.00    -0.002 A 
ATOM      2  C1  UNL d   1       0.055   3.261  -0.293  0.00  0.00     0.010 A 
ATOM      3  C2  UNL d   1       0.422   2.040  -0.863  0.00  0.00     0.041 A 
ATOM      4  C3  UNL d   1       0.210   0.855  -0.130  0.00  0.00    -0.075 A 
ATOM      5  S   UNL d   1       0.580  -0.754  -0.627  0.00  0.00     0.015 SA
ATOM      6  C4  UNL d   1      -0.000  -1.417   0.832  0.00  0.00     0.022 A 
ATOM      7  C5  UNL d   1      -0.469  -0.449   1.688  0.00  0.00     0.026 A 
ATOM      8  C6  UNL d   1      -0.356   0.877   1.148  0.00  0.00    -0.082 A 
ATOM      9  C7  UNL d   1      -0.716   2.130   1.698  0.00  0.00     0.045 A 
ENDROOT
TORSDOF 0
ENDMDL
