MODEL 1
REMARK minimizedAffinity -2.13893437
REMARK minimizedRMSD -1
REMARK  0 active torsions:
REMARK  status: ('A' for Active; 'I' for Inactive)
ROOT
ATOM      1  C   UNL d   1      -0.298   3.665   0.302  0.00  0.00    -0.002 A 
ATOM      2  C1  UNL d   1       0.507   3.246  -0.747  0.00  0.00     0.010 A 
ATOM      3  C2  UNL d   1       0.778   1.889  -0.937  0.00  0.00     0.041 A 
ATOM      4  C3  UNL d   1       0.218   0.952  -0.047  0.00  0.00    -0.075 A 
ATOM      5  S   UNL d   1       0.410  -0.761  -0.086  0.00  0.00     0.015 SA
ATOM      6  C4  UNL d   1      -0.573  -0.977   1.290  0.00  0.00     0.022 A 
ATOM      7  C5  UNL d   1      -1.044   0.218   1.779  0.00  0.00     0.026 A 
ATOM      8  C6  UNL d   1      -0.597   1.349   1.016  0.00  0.00    -0.082 A 
ATOM      9  C7  UNL d   1      -0.851   2.732   1.183  0.00  0.00     0.045 A 
ENDROOT
TORSDOF 0
ENDMDL
