MODEL 1
REMARK minimizedAffinity -1.1566714
REMARK minimizedRMSD -1
REMARK  0 active torsions:
REMARK  status: ('A' for Active; 'I' for Inactive)
ROOT
ATOM      1  C   UNL d   1       1.141   0.453   0.219  0.00  0.00    -0.002 A 
ATOM      2  C1  UNL d   1      -0.115   0.041   0.642  0.00  0.00     0.010 A 
ATOM      3  C2  UNL d   1      -0.707  -1.102   0.100  0.00  0.00     0.041 A 
ATOM      4  C3  UNL d   1      -0.008  -1.831  -0.882  0.00  0.00    -0.075 A 
ATOM      5  S   UNL d   1      -0.536  -3.262  -1.686  0.00  0.00     0.015 SA
ATOM      6  C4  UNL d   1       0.893  -3.360  -2.609  0.00  0.00     0.022 A 
ATOM      7  C5  UNL d   1       1.763  -2.334  -2.324  0.00  0.00     0.026 A 
ATOM      8  C6  UNL d   1       1.258  -1.436  -1.324  0.00  0.00    -0.082 A 
ATOM      9  C7  UNL d   1       1.831  -0.273  -0.755  0.00  0.00     0.045 A 
ENDROOT
TORSDOF 0
ENDMDL
