MODEL 1
REMARK minimizedAffinity 8.99334526
REMARK minimizedRMSD -1
REMARK  0 active torsions:
REMARK  status: ('A' for Active; 'I' for Inactive)
ROOT
ATOM      1  C   UNL d   1       1.889   2.433  -3.751  0.00  0.00     0.078 C 
ATOM      2  C1  UNL d   1       2.590   3.678  -3.298  0.00  0.00    -0.077 A 
ATOM      3  C2  UNL d   1       1.872   4.844  -3.004  0.00  0.00    -0.001 A 
ATOM      4  C3  UNL d   1       2.539   5.999  -2.592  0.00  0.00     0.003 A 
ATOM      5  C4  UNL d   1       3.927   6.000  -2.472  0.00  0.00    -0.005 A 
ATOM      6  C5  UNL d   1       4.651   4.846  -2.764  0.00  0.00     0.003 A 
ATOM      7  C6  UNL d   1       3.986   3.690  -3.176  0.00  0.00    -0.001 A 
ENDROOT
TORSDOF 0
ENDMDL
