MODEL 1
REMARK minimizedAffinity 4.12911654
REMARK minimizedRMSD -1
REMARK  0 active torsions:
REMARK  status: ('A' for Active; 'I' for Inactive)
ROOT
ATOM      1  C   UNL d   1      -6.000  -5.995   6.000  0.00  0.00     0.078 C 
ATOM      2  C1  UNL d   1      -5.453  -5.214   4.842  0.00  0.00    -0.077 A 
ATOM      3  C2  UNL d   1      -4.980  -3.907   5.013  0.00  0.00    -0.001 A 
ATOM      4  C3  UNL d   1      -4.483  -3.188   3.925  0.00  0.00     0.003 A 
ATOM      5  C4  UNL d   1      -4.456  -3.767   2.657  0.00  0.00    -0.005 A 
ATOM      6  C5  UNL d   1      -4.926  -5.066   2.477  0.00  0.00     0.003 A 
ATOM      7  C6  UNL d   1      -5.424  -5.787   3.565  0.00  0.00    -0.001 A 
ENDROOT
TORSDOF 0
ENDMDL
