MODEL 1
REMARK minimizedAffinity 7.71622992
REMARK minimizedRMSD -1
REMARK  0 active torsions:
REMARK  status: ('A' for Active; 'I' for Inactive)
ROOT
ATOM      1  C   UNL d   1      -4.166  -3.279   2.199  0.00  0.00     0.078 C 
ATOM      2  C1  UNL d   1      -3.089  -2.258   1.990  0.00  0.00    -0.077 A 
ATOM      3  C2  UNL d   1      -3.222  -0.956   2.489  0.00  0.00    -0.001 A 
ATOM      4  C3  UNL d   1      -2.215  -0.013   2.279  0.00  0.00     0.003 A 
ATOM      5  C4  UNL d   1      -1.068  -0.360   1.568  0.00  0.00    -0.005 A 
ATOM      6  C5  UNL d   1      -0.928  -1.652   1.065  0.00  0.00     0.003 A 
ATOM      7  C6  UNL d   1      -1.934  -2.597   1.274  0.00  0.00    -0.001 A 
ENDROOT
TORSDOF 0
ENDMDL
