MODEL 1
REMARK minimizedAffinity 10.6711521
REMARK minimizedRMSD -1
REMARK  0 active torsions:
REMARK  status: ('A' for Active; 'I' for Inactive)
ROOT
ATOM      1  C   UNL d   1      -2.623   0.746   4.842  0.00  0.00     0.078 C 
ATOM      2  C1  UNL d   1      -2.204   0.218   3.503  0.00  0.00    -0.077 A 
ATOM      3  C2  UNL d   1      -3.038   0.342   2.385  0.00  0.00    -0.001 A 
ATOM      4  C3  UNL d   1      -2.639  -0.164   1.147  0.00  0.00     0.003 A 
ATOM      5  C4  UNL d   1      -1.405  -0.797   1.014  0.00  0.00    -0.005 A 
ATOM      6  C5  UNL d   1      -0.569  -0.927   2.121  0.00  0.00     0.003 A 
ATOM      7  C6  UNL d   1      -0.966  -0.423   3.360  0.00  0.00    -0.001 A 
ENDROOT
TORSDOF 0
ENDMDL
