MODEL 1
REMARK minimizedAffinity 5.46156311
REMARK minimizedRMSD -1
REMARK  0 active torsions:
REMARK  status: ('A' for Active; 'I' for Inactive)
ROOT
ATOM      1  C   UNL d   1       5.674   5.700  -1.452  0.00  0.00     0.078 C 
ATOM      2  C1  UNL d   1       5.227   4.896  -2.636  0.00  0.00    -0.077 A 
ATOM      3  C2  UNL d   1       4.048   4.142  -2.592  0.00  0.00    -0.001 A 
ATOM      4  C3  UNL d   1       3.648   3.391  -3.698  0.00  0.00     0.003 A 
ATOM      5  C4  UNL d   1       4.423   3.385  -4.856  0.00  0.00    -0.005 A 
ATOM      6  C5  UNL d   1       5.599   4.131  -4.909  0.00  0.00     0.003 A 
ATOM      7  C6  UNL d   1       6.000   4.883  -3.803  0.00  0.00    -0.001 A 
ENDROOT
TORSDOF 0
ENDMDL
