MODEL 1
REMARK minimizedAffinity 8.86458874
REMARK minimizedRMSD -1
REMARK  0 active torsions:
REMARK  status: ('A' for Active; 'I' for Inactive)
ROOT
ATOM      1  C   UNL d   1       5.927   4.901  -1.030  0.00  0.00     0.078 C 
ATOM      2  C1  UNL d   1       5.348   4.486  -2.349  0.00  0.00    -0.077 A 
ATOM      3  C2  UNL d   1       5.920   4.912  -3.554  0.00  0.00    -0.001 A 
ATOM      4  C3  UNL d   1       5.365   4.526  -4.775  0.00  0.00     0.003 A 
ATOM      5  C4  UNL d   1       4.233   3.712  -4.803  0.00  0.00    -0.005 A 
ATOM      6  C5  UNL d   1       3.656   3.285  -3.609  0.00  0.00     0.003 A 
ATOM      7  C6  UNL d   1       4.210   3.671  -2.388  0.00  0.00    -0.001 A 
ENDROOT
TORSDOF 0
ENDMDL
