MODEL 1
REMARK minimizedAffinity 12.7515383
REMARK minimizedRMSD -1
REMARK  0 active torsions:
REMARK  status: ('A' for Active; 'I' for Inactive)
ROOT
ATOM      1  C   UNL d   1       2.683   0.893  -0.390  0.00  0.00     0.078 C 
ATOM      2  C1  UNL d   1       1.935  -0.036   0.519  0.00  0.00    -0.077 A 
ATOM      3  C2  UNL d   1       2.602  -1.043   1.228  0.00  0.00    -0.001 A 
ATOM      4  C3  UNL d   1       1.892  -1.907   2.063  0.00  0.00     0.003 A 
ATOM      5  C4  UNL d   1       0.511  -1.773   2.198  0.00  0.00    -0.005 A 
ATOM      6  C5  UNL d   1      -0.161  -0.775   1.495  0.00  0.00     0.003 A 
ATOM      7  C6  UNL d   1       0.547   0.089   0.659  0.00  0.00    -0.001 A 
ENDROOT
TORSDOF 0
ENDMDL
