MODEL 1
REMARK minimizedAffinity 7.39947176
REMARK minimizedRMSD -1
REMARK  0 active torsions:
REMARK  status: ('A' for Active; 'I' for Inactive)
ROOT
ATOM      1  C   UNL d   1       1.180  -2.217   2.961  0.00  0.00     0.078 C 
ATOM      2  C1  UNL d   1      -0.078  -1.501   2.567  0.00  0.00    -0.077 A 
ATOM      3  C2  UNL d   1      -0.615  -0.491   3.374  0.00  0.00    -0.001 A 
ATOM      4  C3  UNL d   1      -1.792   0.160   3.000  0.00  0.00     0.003 A 
ATOM      5  C4  UNL d   1      -2.441  -0.193   1.818  0.00  0.00    -0.005 A 
ATOM      6  C5  UNL d   1      -1.915  -1.199   1.010  0.00  0.00     0.003 A 
ATOM      7  C6  UNL d   1      -0.739  -1.851   1.383  0.00  0.00    -0.001 A 
ENDROOT
TORSDOF 0
ENDMDL
