MODEL 1
REMARK minimizedAffinity 7.60937786
REMARK minimizedRMSD -1
REMARK  0 active torsions:
REMARK  status: ('A' for Active; 'I' for Inactive)
ROOT
ATOM      1  C   UNL d   1       2.632   0.415   0.770  0.00  0.00     0.078 C 
ATOM      2  C1  UNL d   1       3.803   1.351   0.760  0.00  0.00    -0.077 A 
ATOM      3  C2  UNL d   1       4.634   1.454  -0.363  0.00  0.00    -0.001 A 
ATOM      4  C3  UNL d   1       5.727   2.322  -0.355  0.00  0.00     0.003 A 
ATOM      5  C4  UNL d   1       6.000   3.093   0.773  0.00  0.00    -0.005 A 
ATOM      6  C5  UNL d   1       5.180   2.996   1.896  0.00  0.00     0.003 A 
ATOM      7  C6  UNL d   1       4.087   2.128   1.890  0.00  0.00    -0.001 A 
ENDROOT
TORSDOF 0
ENDMDL
