MODEL 1
REMARK minimizedAffinity 7.79623699
REMARK minimizedRMSD -1
REMARK  0 active torsions:
REMARK  status: ('A' for Active; 'I' for Inactive)
ROOT
ATOM      1  C   UNL d   1      -3.558   2.328   4.260  0.00  0.00     0.078 C 
ATOM      2  C1  UNL d   1      -3.039   1.194   3.428  0.00  0.00    -0.077 A 
ATOM      3  C2  UNL d   1      -1.855   0.530   3.771  0.00  0.00    -0.001 A 
ATOM      4  C3  UNL d   1      -1.378  -0.518   2.981  0.00  0.00     0.003 A 
ATOM      5  C4  UNL d   1      -2.079  -0.910   1.842  0.00  0.00    -0.005 A 
ATOM      6  C5  UNL d   1      -3.257  -0.253   1.491  0.00  0.00     0.003 A 
ATOM      7  C6  UNL d   1      -3.735   0.794   2.280  0.00  0.00    -0.001 A 
ENDROOT
TORSDOF 0
ENDMDL
