MODEL 1
REMARK minimizedAffinity 3.84867096
REMARK minimizedRMSD -1
REMARK  0 active torsions:
REMARK  status: ('A' for Active; 'I' for Inactive)
ROOT
ATOM      1  C   UNL d   1      -5.998   0.818   0.697  0.00  0.00     0.078 C 
ATOM      2  C1  UNL d   1      -5.288   1.318   1.919  0.00  0.00    -0.077 A 
ATOM      3  C2  UNL d   1      -6.000   1.862   2.995  0.00  0.00    -0.001 A 
ATOM      4  C3  UNL d   1      -5.325   2.333   4.122  0.00  0.00     0.003 A 
ATOM      5  C4  UNL d   1      -3.934   2.266   4.184  0.00  0.00    -0.005 A 
ATOM      6  C5  UNL d   1      -3.217   1.728   3.118  0.00  0.00     0.003 A 
ATOM      7  C6  UNL d   1      -3.890   1.257   1.989  0.00  0.00    -0.001 A 
ENDROOT
TORSDOF 0
ENDMDL
