MODEL 1
REMARK minimizedAffinity 6.06061411
REMARK minimizedRMSD -1
REMARK  0 active torsions:
REMARK  status: ('A' for Active; 'I' for Inactive)
ROOT
ATOM      1  C   UNL d   1      -1.111  -3.757  -1.976  0.00  0.00     0.078 C 
ATOM      2  C1  UNL d   1      -1.134  -4.536  -3.258  0.00  0.00    -0.077 A 
ATOM      3  C2  UNL d   1      -2.265  -5.269  -3.635  0.00  0.00    -0.001 A 
ATOM      4  C3  UNL d   1      -2.270  -5.997  -4.826  0.00  0.00     0.003 A 
ATOM      5  C4  UNL d   1      -1.145  -6.000  -5.649  0.00  0.00    -0.005 A 
ATOM      6  C5  UNL d   1      -0.013  -5.275  -5.280  0.00  0.00     0.003 A 
ATOM      7  C6  UNL d   1      -0.007  -4.546  -4.089  0.00  0.00    -0.001 A 
ENDROOT
TORSDOF 0
ENDMDL
