MODEL 1
REMARK minimizedAffinity 2.95708442
REMARK minimizedRMSD -1
REMARK  0 active torsions:
REMARK  status: ('A' for Active; 'I' for Inactive)
ROOT
ATOM      1  C   UNL d   1       4.561   2.673   1.584  0.00  0.00     0.078 C 
ATOM      2  C1  UNL d   1       3.564   2.249   0.547  0.00  0.00    -0.077 A 
ATOM      3  C2  UNL d   1       3.839   2.394  -0.819  0.00  0.00    -0.001 A 
ATOM      4  C3  UNL d   1       2.898   2.004  -1.773  0.00  0.00     0.003 A 
ATOM      5  C4  UNL d   1       1.675   1.469  -1.372  0.00  0.00    -0.005 A 
ATOM      6  C5  UNL d   1       1.392   1.323  -0.016  0.00  0.00     0.003 A 
ATOM      7  C6  UNL d   1       2.332   1.713   0.940  0.00  0.00    -0.001 A 
ENDROOT
TORSDOF 0
ENDMDL
