MODEL 1
REMARK minimizedAffinity 9.45202255
REMARK minimizedRMSD -1
REMARK  0 active torsions:
REMARK  status: ('A' for Active; 'I' for Inactive)
ROOT
ATOM      1  C   UNL d   1      -2.501   1.092   3.601  0.00  0.00     0.078 C 
ATOM      2  C1  UNL d   1      -2.120  -0.073   2.738  0.00  0.00    -0.077 A 
ATOM      3  C2  UNL d   1      -0.812  -0.218   2.258  0.00  0.00    -0.001 A 
ATOM      4  C3  UNL d   1      -0.474  -1.303   1.448  0.00  0.00     0.003 A 
ATOM      5  C4  UNL d   1      -1.437  -2.251   1.110  0.00  0.00    -0.005 A 
ATOM      6  C5  UNL d   1      -2.741  -2.114   1.581  0.00  0.00     0.003 A 
ATOM      7  C6  UNL d   1      -3.082  -1.030   2.391  0.00  0.00    -0.001 A 
ENDROOT
TORSDOF 0
ENDMDL
