MODEL 1
REMARK minimizedAffinity 0.27401036
REMARK minimizedRMSD -1
REMARK  0 active torsions:
REMARK  status: ('A' for Active; 'I' for Inactive)
ROOT
ATOM      1  C   UNL d   1      -0.012  -3.290   0.521  0.00  0.00     0.078 C 
ATOM      2  C1  UNL d   1       1.457  -3.051   0.336  0.00  0.00    -0.077 A 
ATOM      3  C2  UNL d   1       2.316  -4.094  -0.032  0.00  0.00    -0.001 A 
ATOM      4  C3  UNL d   1       3.683  -3.859  -0.191  0.00  0.00     0.003 A 
ATOM      5  C4  UNL d   1       4.203  -2.583   0.018  0.00  0.00    -0.005 A 
ATOM      6  C5  UNL d   1       3.356  -1.540   0.387  0.00  0.00     0.003 A 
ATOM      7  C6  UNL d   1       1.989  -1.773   0.546  0.00  0.00    -0.001 A 
ENDROOT
TORSDOF 0
ENDMDL
