MODEL 1
REMARK minimizedAffinity 2.99511909
REMARK minimizedRMSD -1
REMARK  0 active torsions:
REMARK  status: ('A' for Active; 'I' for Inactive)
ROOT
ATOM      1  C   UNL d   1       1.885  -3.735   0.364  0.00  0.00     0.078 C 
ATOM      2  C1  UNL d   1       3.298  -4.236   0.329  0.00  0.00    -0.077 A 
ATOM      3  C2  UNL d   1       3.607  -5.551   0.698  0.00  0.00    -0.001 A 
ATOM      4  C3  UNL d   1       4.928  -6.000   0.670  0.00  0.00     0.003 A 
ATOM      5  C4  UNL d   1       5.951  -5.140   0.275  0.00  0.00    -0.005 A 
ATOM      6  C5  UNL d   1       5.654  -3.829  -0.092  0.00  0.00     0.003 A 
ATOM      7  C6  UNL d   1       4.333  -3.378  -0.065  0.00  0.00    -0.001 A 
ENDROOT
TORSDOF 0
ENDMDL
