MODEL 1
REMARK minimizedAffinity 0.675551057
REMARK minimizedRMSD -1
REMARK  0 active torsions:
REMARK  status: ('A' for Active; 'I' for Inactive)
ROOT
ATOM      1  C   UNL d   1      -0.036  -3.351   0.909  0.00  0.00     0.078 C 
ATOM      2  C1  UNL d   1       1.430  -3.453   0.611  0.00  0.00    -0.077 A 
ATOM      3  C2  UNL d   1       2.020  -4.686   0.307  0.00  0.00    -0.001 A 
ATOM      4  C3  UNL d   1       3.388  -4.768   0.041  0.00  0.00     0.003 A 
ATOM      5  C4  UNL d   1       4.177  -3.621   0.077  0.00  0.00    -0.005 A 
ATOM      6  C5  UNL d   1       3.600  -2.390   0.381  0.00  0.00     0.003 A 
ATOM      7  C6  UNL d   1       2.232  -2.306   0.647  0.00  0.00    -0.001 A 
ENDROOT
TORSDOF 0
ENDMDL
