MODEL 1
REMARK minimizedAffinity -2.15017581
REMARK minimizedRMSD -1
REMARK  2 active torsions:
REMARK  status: ('A' for Active; 'I' for Inactive)
REMARK    1  A    between atoms: C2'_3  and  C1'_4 
REMARK    2  A    between atoms: C1'_4  and  C1_5 
ROOT
ATOM      1  C1  I4B d   1       0.076  -0.594  -1.669  0.00  0.00    -0.075 A 
ATOM      2  C2  I4B d   1      -1.180  -0.151  -1.336  0.00  0.00     0.003 A 
ATOM      3  C3  I4B d   1      -1.491   0.167   0.009  0.00  0.00     0.002 A 
ATOM      4  C4  I4B d   1      -0.538  -0.021   0.989  0.00  0.00    -0.004 A 
ATOM      5  C5  I4B d   1       0.742  -0.449   0.647  0.00  0.00     0.002 A 
ATOM      6  C6  I4B d   1       1.055  -0.725  -0.692  0.00  0.00     0.003 A 
ENDROOT
BRANCH   1   7
ATOM      7  C1' I4B d   1       0.360  -0.951  -3.093  0.00  0.00     0.060 C 
BRANCH   7   8
ATOM      8  C2' I4B d   1       0.506   0.337  -3.877  0.00  0.00    -0.013 C 
ATOM      9  C4' I4B d   1       1.955   0.687  -4.086  0.00  0.00     0.013 C 
ATOM     10  C3' I4B d   1      -0.204   0.165  -5.187  0.00  0.00     0.013 C 
ENDBRANCH   7   8
ENDBRANCH   1   7
TORSDOF 2
ENDMDL
