MODEL 1
REMARK minimizedAffinity -4.82019472
REMARK minimizedRMSD -1
REMARK  2 active torsions:
REMARK  status: ('A' for Active; 'I' for Inactive)
REMARK    1  A    between atoms: C2'_3  and  C1'_4 
REMARK    2  A    between atoms: C1'_4  and  C1_5 
ROOT
ATOM      1  C1  I4B d   1       0.853  -0.335  -2.156  0.00  0.00    -0.075 A 
ATOM      2  C2  I4B d   1      -0.137   0.455  -2.685  0.00  0.00     0.003 A 
ATOM      3  C3  I4B d   1       0.035   1.057  -3.955  0.00  0.00     0.002 A 
ATOM      4  C4  I4B d   1       1.224   0.886  -4.634  0.00  0.00    -0.004 A 
ATOM      5  C5  I4B d   1       2.218   0.067  -4.106  0.00  0.00     0.002 A 
ATOM      6  C6  I4B d   1       2.027  -0.558  -2.864  0.00  0.00     0.003 A 
ENDROOT
BRANCH   1   7
ATOM      7  C1' I4B d   1       0.652  -0.929  -0.798  0.00  0.00     0.060 C 
BRANCH   7   8
ATOM      8  C2' I4B d   1      -0.360  -0.076  -0.061  0.00  0.00    -0.013 C 
ATOM      9  C4' I4B d   1      -1.545  -0.895   0.379  0.00  0.00     0.013 C 
ATOM     10  C3' I4B d   1       0.330   0.552   1.113  0.00  0.00     0.013 C 
ENDBRANCH   7   8
ENDBRANCH   1   7
TORSDOF 2
ENDMDL
