MODEL 1
REMARK minimizedAffinity -4.72243166
REMARK minimizedRMSD -1
REMARK  2 active torsions:
REMARK  status: ('A' for Active; 'I' for Inactive)
REMARK    1  A    between atoms: C2'_3  and  C1'_4 
REMARK    2  A    between atoms: C1'_4  and  C1_5 
ROOT
ATOM      1  C1  I4B d   1       0.022   0.058  -0.195  0.00  0.00    -0.075 A 
ATOM      2  C2  I4B d   1      -1.341   0.057  -0.033  0.00  0.00     0.003 A 
ATOM      3  C3  I4B d   1      -1.929   0.727   1.067  0.00  0.00     0.002 A 
ATOM      4  C4  I4B d   1      -1.119   1.337   2.003  0.00  0.00    -0.004 A 
ATOM      5  C5  I4B d   1       0.262   1.356   1.825  0.00  0.00     0.002 A 
ATOM      6  C6  I4B d   1       0.835   0.723   0.713  0.00  0.00     0.003 A 
ENDROOT
BRANCH   1   7
ATOM      7  C1' I4B d   1       0.611  -0.688  -1.350  0.00  0.00     0.060 C 
BRANCH   7   8
ATOM      8  C2' I4B d   1       0.303   0.091  -2.613  0.00  0.00    -0.013 C 
ATOM      9  C4' I4B d   1       1.481   0.928  -3.038  0.00  0.00     0.013 C 
ATOM     10  C3' I4B d   1      -0.076  -0.891  -3.681  0.00  0.00     0.013 C 
ENDBRANCH   7   8
ENDBRANCH   1   7
TORSDOF 2
ENDMDL
