MODEL 1
REMARK minimizedAffinity -2.93426514
REMARK minimizedRMSD -1
REMARK  2 active torsions:
REMARK  status: ('A' for Active; 'I' for Inactive)
REMARK    1  A    between atoms: C2'_3  and  C1'_4 
REMARK    2  A    between atoms: C1'_4  and  C1_5 
ROOT
ATOM      1  C1  I4B d   1       0.366  -0.409  -0.839  0.00  0.00    -0.075 A 
ATOM      2  C2  I4B d   1       1.341  -0.234   0.112  0.00  0.00     0.003 A 
ATOM      3  C3  I4B d   1       1.003   0.255   1.397  0.00  0.00     0.002 A 
ATOM      4  C4  I4B d   1      -0.304   0.602   1.671  0.00  0.00    -0.004 A 
ATOM      5  C5  I4B d   1      -1.295   0.401   0.713  0.00  0.00     0.002 A 
ATOM      6  C6  I4B d   1      -0.960  -0.119  -0.545  0.00  0.00     0.003 A 
ENDROOT
BRANCH   1   7
ATOM      7  C1' I4B d   1       0.763  -0.897  -2.196  0.00  0.00     0.060 C 
BRANCH   7   8
ATOM      8  C2' I4B d   1       0.918   0.310  -3.098  0.00  0.00    -0.013 C 
ATOM      9  C4' I4B d   1       2.355   0.506  -3.506  0.00  0.00     0.013 C 
ATOM     10  C3' I4B d   1       0.039   0.109  -4.296  0.00  0.00     0.013 C 
ENDBRANCH   7   8
ENDBRANCH   1   7
TORSDOF 2
ENDMDL
