MODEL 1
REMARK minimizedAffinity -3.94250655
REMARK minimizedRMSD -1
REMARK  2 active torsions:
REMARK  status: ('A' for Active; 'I' for Inactive)
REMARK    1  A    between atoms: C2'_3  and  C1'_4 
REMARK    2  A    between atoms: C1'_4  and  C1_5 
ROOT
ATOM      1  C1  I4B d   1       0.087  -0.287   0.048  0.00  0.00    -0.075 A 
ATOM      2  C2  I4B d   1      -1.276  -0.296   0.213  0.00  0.00     0.003 A 
ATOM      3  C3  I4B d   1      -1.857   0.273   1.372  0.00  0.00     0.002 A 
ATOM      4  C4  I4B d   1      -1.041   0.791   2.357  0.00  0.00    -0.004 A 
ATOM      5  C5  I4B d   1       0.339   0.820   2.178  0.00  0.00     0.002 A 
ATOM      6  C6  I4B d   1       0.906   0.289   1.011  0.00  0.00     0.003 A 
ENDROOT
BRANCH   1   7
ATOM      7  C1' I4B d   1       0.670  -0.926  -1.173  0.00  0.00     0.060 C 
BRANCH   7   8
ATOM      8  C2' I4B d   1       0.597   0.079  -2.305  0.00  0.00    -0.013 C 
ATOM      9  C4' I4B d   1       1.923   0.762  -2.513  0.00  0.00     0.013 C 
ATOM     10  C3' I4B d   1       0.163  -0.649  -3.542  0.00  0.00     0.013 C 
ENDBRANCH   7   8
ENDBRANCH   1   7
TORSDOF 2
ENDMDL
