MODEL 1
REMARK minimizedAffinity -4.40148544
REMARK minimizedRMSD -1
REMARK  2 active torsions:
REMARK  status: ('A' for Active; 'I' for Inactive)
REMARK    1  A    between atoms: C2'_3  and  C1'_4 
REMARK    2  A    between atoms: C1'_4  and  C1_5 
ROOT
ATOM      1  C1  I4B d   1       0.577  -0.285  -2.481  0.00  0.00    -0.075 A 
ATOM      2  C2  I4B d   1       1.511   0.690  -2.724  0.00  0.00     0.003 A 
ATOM      3  C3  I4B d   1       1.777   1.108  -4.051  0.00  0.00     0.002 A 
ATOM      4  C4  I4B d   1       1.127   0.492  -5.101  0.00  0.00    -0.004 A 
ATOM      5  C5  I4B d   1       0.164  -0.481  -4.851  0.00  0.00     0.002 A 
ATOM      6  C6  I4B d   1      -0.122  -0.864  -3.532  0.00  0.00     0.003 A 
ENDROOT
BRANCH   1   7
ATOM      7  C1' I4B d   1       0.345  -0.725  -1.071  0.00  0.00     0.060 C 
BRANCH   7   8
ATOM      8  C2' I4B d   1      -0.452   0.356  -0.370  0.00  0.00    -0.013 C 
ATOM      9  C4' I4B d   1      -1.838  -0.124  -0.026  0.00  0.00     0.013 C 
ATOM     10  C3' I4B d   1       0.301   0.762   0.861  0.00  0.00     0.013 C 
ENDBRANCH   7   8
ENDBRANCH   1   7
TORSDOF 2
ENDMDL
