MODEL 1
REMARK minimizedAffinity -5.19986868
REMARK minimizedRMSD -1
REMARK  2 active torsions:
REMARK  status: ('A' for Active; 'I' for Inactive)
REMARK    1  A    between atoms: C2'_3  and  C1'_4 
REMARK    2  A    between atoms: C1'_4  and  C1_5 
ROOT
ATOM      1  C1  I4B d   1       0.541   0.522   1.350  0.00  0.00    -0.075 A 
ATOM      2  C2  I4B d   1       1.416  -0.325   1.983  0.00  0.00     0.003 A 
ATOM      3  C3  I4B d   1       1.484  -0.352   3.397  0.00  0.00     0.002 A 
ATOM      4  C4  I4B d   1       0.702   0.515   4.132  0.00  0.00    -0.004 A 
ATOM      5  C5  I4B d   1      -0.200   1.358   3.489  0.00  0.00     0.002 A 
ATOM      6  C6  I4B d   1      -0.291   1.353   2.090  0.00  0.00     0.003 A 
ENDROOT
BRANCH   1   7
ATOM      7  C1' I4B d   1       0.518   0.548  -0.146  0.00  0.00     0.060 C 
BRANCH   7   8
ATOM      8  C2' I4B d   1      -0.190  -0.703  -0.623  0.00  0.00    -0.013 C 
ATOM      9  C4' I4B d   1      -1.672  -0.622  -0.369  0.00  0.00     0.013 C 
ATOM     10  C3' I4B d   1       0.100  -0.870  -2.085  0.00  0.00     0.013 C 
ENDBRANCH   7   8
ENDBRANCH   1   7
TORSDOF 2
ENDMDL
