MODEL 1
REMARK minimizedAffinity -4.12314081
REMARK minimizedRMSD -1
REMARK  2 active torsions:
REMARK  status: ('A' for Active; 'I' for Inactive)
REMARK    1  A    between atoms: C2'_3  and  C1'_4 
REMARK    2  A    between atoms: C1'_4  and  C1_5 
ROOT
ATOM      1  C1  I4B d   1      -0.824   0.741   0.159  0.00  0.00    -0.075 A 
ATOM      2  C2  I4B d   1      -1.836   0.374   1.011  0.00  0.00     0.003 A 
ATOM      3  C3  I4B d   1      -1.733   0.642   2.397  0.00  0.00     0.002 A 
ATOM      4  C4  I4B d   1      -0.587   1.229   2.893  0.00  0.00    -0.004 A 
ATOM      5  C5  I4B d   1       0.428   1.621   2.025  0.00  0.00     0.002 A 
ATOM      6  C6  I4B d   1       0.304   1.386   0.648  0.00  0.00     0.003 A 
ENDROOT
BRANCH   1   7
ATOM      7  C1' I4B d   1      -0.951   0.413  -1.295  0.00  0.00     0.060 C 
BRANCH   7   8
ATOM      8  C2' I4B d   1       0.371  -0.162  -1.761  0.00  0.00    -0.013 C 
ATOM      9  C4' I4B d   1       0.734  -1.398  -0.980  0.00  0.00     0.013 C 
ATOM     10  C3' I4B d   1       0.254  -0.462  -3.226  0.00  0.00     0.013 C 
ENDBRANCH   7   8
ENDBRANCH   1   7
TORSDOF 2
ENDMDL
