MODEL 1
REMARK minimizedAffinity 0.340106785
REMARK minimizedRMSD -1
REMARK  0 active torsions:
REMARK  status: ('A' for Active; 'I' for Inactive)
ROOT
ATOM      1  C   UNL d   1       1.076  -0.038   0.837  0.00  0.00     0.124 A 
ATOM      2  C1  UNL d   1       1.546  -1.282   0.440  0.00  0.00     0.062 A 
ATOM      3  C2  UNL d   1       2.553  -1.377  -0.516  0.00  0.00     0.162 A 
ATOM      4  C3  UNL d   1       3.097  -0.224  -1.082  0.00  0.00    -0.034 A 
ATOM      5  C4  UNL d   1       2.618   1.024  -0.679  0.00  0.00     0.162 A 
ATOM      6  C5  UNL d   1       1.611   1.113   0.277  0.00  0.00     0.062 A 
ATOM      7  F   UNL d   1       1.158   2.316   0.659  0.00  0.00    -0.097 F 
ATOM      8  F1  UNL d   1       3.119   2.152  -1.203  0.00  0.00    -0.096 F 
ATOM      9  I   UNL d   1       4.603  -0.362  -2.512  0.00  0.00    -0.060 I 
ATOM     10  F2  UNL d   1       2.989  -2.592  -0.880  0.00  0.00    -0.096 F 
ATOM     11  F3  UNL d   1       1.029  -2.396   0.979  0.00  0.00    -0.097 F 
ATOM     12  F4  UNL d   1       0.106   0.051   1.757  0.00  0.00    -0.092 F 
ENDROOT
TORSDOF 0
ENDMDL
