MODEL 1
REMARK minimizedAffinity 1.30773664
REMARK minimizedRMSD -1
REMARK  0 active torsions:
REMARK  status: ('A' for Active; 'I' for Inactive)
ROOT
ATOM      1  C   UNL d   1       1.274   0.359   0.385  0.00  0.00     0.124 A 
ATOM      2  C1  UNL d   1       1.890  -0.868   0.183  0.00  0.00     0.062 A 
ATOM      3  C2  UNL d   1       2.911  -0.993  -0.755  0.00  0.00     0.162 A 
ATOM      4  C3  UNL d   1       3.325   0.114  -1.497  0.00  0.00    -0.034 A 
ATOM      5  C4  UNL d   1       2.700   1.345  -1.288  0.00  0.00     0.162 A 
ATOM      6  C5  UNL d   1       1.680   1.464  -0.350  0.00  0.00     0.062 A 
ATOM      7  F   UNL d   1       1.087   2.651  -0.156  0.00  0.00    -0.097 F 
ATOM      8  F1  UNL d   1       3.073   2.429  -1.984  0.00  0.00    -0.096 F 
ATOM      9  I   UNL d   1       4.851  -0.069  -2.899  0.00  0.00    -0.060 I 
ATOM     10  F2  UNL d   1       3.488  -2.191  -0.930  0.00  0.00    -0.096 F 
ATOM     11  F3  UNL d   1       1.499  -1.937   0.891  0.00  0.00    -0.097 F 
ATOM     12  F4  UNL d   1       0.291   0.477   1.287  0.00  0.00    -0.092 F 
ENDROOT
TORSDOF 0
ENDMDL
