MODEL 1
REMARK minimizedAffinity 0.236103177
REMARK minimizedRMSD -1
REMARK  0 active torsions:
REMARK  status: ('A' for Active; 'I' for Inactive)
ROOT
ATOM      1  C   UNL d   1       1.403   0.060   0.249  0.00  0.00     0.124 A 
ATOM      2  C1  UNL d   1       1.925  -1.212   0.059  0.00  0.00     0.062 A 
ATOM      3  C2  UNL d   1       3.057  -1.393  -0.731  0.00  0.00     0.162 A 
ATOM      4  C3  UNL d   1       3.675  -0.299  -1.336  0.00  0.00    -0.034 A 
ATOM      5  C4  UNL d   1       3.144   0.977  -1.141  0.00  0.00     0.162 A 
ATOM      6  C5  UNL d   1       2.013   1.153  -0.351  0.00  0.00     0.062 A 
ATOM      7  F   UNL d   1       1.510   2.383  -0.169  0.00  0.00    -0.097 F 
ATOM      8  F1  UNL d   1       3.713   2.051  -1.709  0.00  0.00    -0.096 F 
ATOM      9  I   UNL d   1       5.368  -0.566  -2.518  0.00  0.00    -0.060 I 
ATOM     10  F2  UNL d   1       3.540  -2.633  -0.897  0.00  0.00    -0.096 F 
ATOM     11  F3  UNL d   1       1.337  -2.269   0.636  0.00  0.00    -0.097 F 
ATOM     12  F4  UNL d   1       0.313   0.232   1.008  0.00  0.00    -0.092 F 
ENDROOT
TORSDOF 0
ENDMDL
