MODEL 1
REMARK minimizedAffinity 1.06010854
REMARK minimizedRMSD -1
REMARK  0 active torsions:
REMARK  status: ('A' for Active; 'I' for Inactive)
ROOT
ATOM      1  C   UNL d   1       0.976  -0.006   0.704  0.00  0.00     0.124 A 
ATOM      2  C1  UNL d   1       1.361  -1.267   0.271  0.00  0.00     0.062 A 
ATOM      3  C2  UNL d   1       2.443  -1.410  -0.593  0.00  0.00     0.162 A 
ATOM      4  C3  UNL d   1       3.149  -0.288  -1.029  0.00  0.00    -0.034 A 
ATOM      5  C4  UNL d   1       2.755   0.977  -0.589  0.00  0.00     0.162 A 
ATOM      6  C5  UNL d   1       1.673   1.115   0.274  0.00  0.00     0.062 A 
ATOM      7  F   UNL d   1       1.302   2.334   0.692  0.00  0.00    -0.097 F 
ATOM      8  F1  UNL d   1       3.412   2.076  -0.988  0.00  0.00    -0.096 F 
ATOM      9  I   UNL d   1       4.768  -0.498  -2.320  0.00  0.00    -0.060 I 
ATOM     10  F2  UNL d   1       2.793  -2.640  -0.996  0.00  0.00    -0.096 F 
ATOM     11  F3  UNL d   1       0.689  -2.351   0.684  0.00  0.00    -0.097 F 
ATOM     12  F4  UNL d   1      -0.066   0.129   1.535  0.00  0.00    -0.092 F 
ENDROOT
TORSDOF 0
ENDMDL
