MODEL 1
REMARK minimizedAffinity 0.00147156324
REMARK minimizedRMSD -1
REMARK  0 active torsions:
REMARK  status: ('A' for Active; 'I' for Inactive)
ROOT
ATOM      1  C   UNL d   1       3.123  -0.782  -1.088  0.00  0.00     0.124 A 
ATOM      2  C1  UNL d   1       2.558  -1.845  -0.396  0.00  0.00     0.062 A 
ATOM      3  C2  UNL d   1       1.634  -1.608   0.617  0.00  0.00     0.162 A 
ATOM      4  C3  UNL d   1       1.266  -0.303   0.944  0.00  0.00    -0.034 A 
ATOM      5  C4  UNL d   1       1.839   0.761   0.244  0.00  0.00     0.162 A 
ATOM      6  C5  UNL d   1       2.763   0.519  -0.768  0.00  0.00     0.062 A 
ATOM      7  F   UNL d   1       3.307   1.547  -1.435  0.00  0.00    -0.097 F 
ATOM      8  F1  UNL d   1       1.509   2.028   0.533  0.00  0.00    -0.096 F 
ATOM      9  I   UNL d   1      -0.116   0.055   2.458  0.00  0.00    -0.060 I 
ATOM     10  F2  UNL d   1       1.104  -2.654   1.269  0.00  0.00    -0.096 F 
ATOM     11  F3  UNL d   1       2.905  -3.103  -0.704  0.00  0.00    -0.097 F 
ATOM     12  F4  UNL d   1       4.013  -1.013  -2.062  0.00  0.00    -0.092 F 
ENDROOT
TORSDOF 0
ENDMDL
