MODEL 1
REMARK minimizedAffinity 1.44080317
REMARK minimizedRMSD -1
REMARK  0 active torsions:
REMARK  status: ('A' for Active; 'I' for Inactive)
ROOT
ATOM      1  C   UNL d   1       3.907   0.189  -1.595  0.00  0.00     0.124 A 
ATOM      2  C1  UNL d   1       3.682  -1.094  -1.115  0.00  0.00     0.062 A 
ATOM      3  C2  UNL d   1       2.576  -1.358  -0.312  0.00  0.00     0.162 A 
ATOM      4  C3  UNL d   1       1.685  -0.336   0.015  0.00  0.00    -0.034 A 
ATOM      5  C4  UNL d   1       1.919   0.952  -0.470  0.00  0.00     0.162 A 
ATOM      6  C5  UNL d   1       3.026   1.210  -1.272  0.00  0.00     0.062 A 
ATOM      7  F   UNL d   1       3.241   2.451  -1.734  0.00  0.00    -0.097 F 
ATOM      8  F1  UNL d   1       1.082   1.958  -0.174  0.00  0.00    -0.096 F 
ATOM      9  I   UNL d   1       0.030  -0.725   1.215  0.00  0.00    -0.060 I 
ATOM     10  F2  UNL d   1       2.384  -2.607   0.137  0.00  0.00    -0.096 F 
ATOM     11  F3  UNL d   1       4.533  -2.083  -1.425  0.00  0.00    -0.097 F 
ATOM     12  F4  UNL d   1       4.973   0.439  -2.366  0.00  0.00    -0.092 F 
ENDROOT
TORSDOF 0
ENDMDL
