MODEL 1
REMARK minimizedAffinity 4.24077034
REMARK minimizedRMSD -1
REMARK  0 active torsions:
REMARK  status: ('A' for Active; 'I' for Inactive)
ROOT
ATOM      1  C   UNL d   1       1.373  -0.101   0.551  0.00  0.00     0.124 A 
ATOM      2  C1  UNL d   1       1.657  -1.373   0.072  0.00  0.00     0.062 A 
ATOM      3  C2  UNL d   1       2.629  -1.550  -0.908  0.00  0.00     0.162 A 
ATOM      4  C3  UNL d   1       3.327  -0.454  -1.414  0.00  0.00    -0.034 A 
ATOM      5  C4  UNL d   1       3.035   0.822  -0.928  0.00  0.00     0.162 A 
ATOM      6  C5  UNL d   1       2.063   0.994   0.051  0.00  0.00     0.062 A 
ATOM      7  F   UNL d   1       1.790   2.223   0.514  0.00  0.00    -0.097 F 
ATOM      8  F1  UNL d   1       3.687   1.898  -1.393  0.00  0.00    -0.096 F 
ATOM      9  I   UNL d   1       4.782  -0.715  -2.880  0.00  0.00    -0.060 I 
ATOM     10  F2  UNL d   1       2.883  -2.790  -1.353  0.00  0.00    -0.096 F 
ATOM     11  F3  UNL d   1       0.992  -2.433   0.553  0.00  0.00    -0.097 F 
ATOM     12  F4  UNL d   1       0.436   0.067   1.494  0.00  0.00    -0.092 F 
ENDROOT
TORSDOF 0
ENDMDL
