MODEL 1
REMARK minimizedAffinity -2.74506378
REMARK minimizedRMSD -1
REMARK  0 active torsions:
REMARK  status: ('A' for Active; 'I' for Inactive)
ROOT
ATOM      1  C   UNL d   1       3.061  -0.726  -1.221  0.00  0.00     0.124 A 
ATOM      2  C1  UNL d   1       2.528   0.521  -0.925  0.00  0.00     0.062 A 
ATOM      3  C2  UNL d   1       1.586   0.658   0.090  0.00  0.00     0.162 A 
ATOM      4  C3  UNL d   1       1.171  -0.457   0.819  0.00  0.00    -0.034 A 
ATOM      5  C4  UNL d   1       1.710  -1.708   0.515  0.00  0.00     0.162 A 
ATOM      6  C5  UNL d   1       2.651  -1.839  -0.500  0.00  0.00     0.062 A 
ATOM      7  F   UNL d   1       3.165  -3.045  -0.784  0.00  0.00    -0.097 F 
ATOM      8  F1  UNL d   1       1.333  -2.801   1.196  0.00  0.00    -0.096 F 
ATOM      9  I   UNL d   1      -0.238  -0.257   2.338  0.00  0.00    -0.060 I 
ATOM     10  F2  UNL d   1       1.089   1.875   0.354  0.00  0.00    -0.096 F 
ATOM     11  F3  UNL d   1       2.922   1.598  -1.620  0.00  0.00    -0.097 F 
ATOM     12  F4  UNL d   1       3.967  -0.854  -2.199  0.00  0.00    -0.092 F 
ENDROOT
TORSDOF 0
ENDMDL
