MODEL 1
REMARK minimizedAffinity 7.40012932
REMARK minimizedRMSD -1
REMARK  0 active torsions:
REMARK  status: ('A' for Active; 'I' for Inactive)
ROOT
ATOM      1  C   UNL d   1       1.490  -1.361   0.058  0.00  0.00     0.124 A 
ATOM      2  C1  UNL d   1       1.175  -0.099   0.541  0.00  0.00     0.062 A 
ATOM      3  C2  UNL d   1       1.871   1.018   0.087  0.00  0.00     0.162 A 
ATOM      4  C3  UNL d   1       2.889   0.878  -0.856  0.00  0.00    -0.034 A 
ATOM      5  C4  UNL d   1       3.201  -0.395  -1.336  0.00  0.00     0.162 A 
ATOM      6  C5  UNL d   1       2.503  -1.508  -0.880  0.00  0.00     0.062 A 
ATOM      7  F   UNL d   1       2.809  -2.727  -1.348  0.00  0.00    -0.097 F 
ATOM      8  F1  UNL d   1       4.174  -0.566  -2.244  0.00  0.00    -0.096 F 
ATOM      9  I   UNL d   1       3.932   2.546  -1.536  0.00  0.00    -0.060 I 
ATOM     10  F2  UNL d   1       1.545   2.226   0.571  0.00  0.00    -0.096 F 
ATOM     11  F3  UNL d   1       0.198   0.045   1.447  0.00  0.00    -0.097 F 
ATOM     12  F4  UNL d   1       0.820  -2.435   0.496  0.00  0.00    -0.092 F 
ENDROOT
TORSDOF 0
ENDMDL
