MODEL 1
REMARK minimizedAffinity -1.79191303
REMARK minimizedRMSD -1
REMARK  0 active torsions:
REMARK  status: ('A' for Active; 'I' for Inactive)
ROOT
ATOM      1  C   UNL d   1       0.880  -0.039   0.231  0.00  0.00     0.124 A 
ATOM      2  C1  UNL d   1       1.423  -1.285  -0.051  0.00  0.00     0.062 A 
ATOM      3  C2  UNL d   1       2.606  -1.385  -0.777  0.00  0.00     0.162 A 
ATOM      4  C3  UNL d   1       3.255  -0.235  -1.226  0.00  0.00    -0.034 A 
ATOM      5  C4  UNL d   1       2.703   1.015  -0.939  0.00  0.00     0.162 A 
ATOM      6  C5  UNL d   1       1.520   1.109  -0.213  0.00  0.00     0.062 A 
ATOM      7  F   UNL d   1       0.996   2.314   0.058  0.00  0.00    -0.097 F 
ATOM      8  F1  UNL d   1       3.301   2.141  -1.356  0.00  0.00    -0.096 F 
ATOM      9  I   UNL d   1       5.025  -0.380  -2.312  0.00  0.00    -0.060 I 
ATOM     10  F2  UNL d   1       3.108  -2.601  -1.034  0.00  0.00    -0.096 F 
ATOM     11  F3  UNL d   1       0.806  -2.396   0.377  0.00  0.00    -0.097 F 
ATOM     12  F4  UNL d   1      -0.260   0.054   0.929  0.00  0.00    -0.092 F 
ENDROOT
TORSDOF 0
ENDMDL
