MODEL 1
REMARK minimizedAffinity 0.296414852
REMARK minimizedRMSD -1
REMARK  0 active torsions:
REMARK  status: ('A' for Active; 'I' for Inactive)
ROOT
ATOM      1  C   UNL d   1       2.829  -1.052  -1.307  0.00  0.00     0.124 A 
ATOM      2  C1  UNL d   1       2.449  -2.065  -0.437  0.00  0.00     0.062 A 
ATOM      3  C2  UNL d   1       1.820  -1.756   0.765  0.00  0.00     0.162 A 
ATOM      4  C3  UNL d   1       1.567  -0.427   1.106  0.00  0.00    -0.034 A 
ATOM      5  C4  UNL d   1       1.954   0.587   0.227  0.00  0.00     0.162 A 
ATOM      6  C5  UNL d   1       2.581   0.272  -0.974  0.00  0.00     0.062 A 
ATOM      7  F   UNL d   1       2.948   1.253  -1.812  0.00  0.00    -0.097 F 
ATOM      8  F1  UNL d   1       1.725   1.875   0.523  0.00  0.00    -0.096 F 
ATOM      9  I   UNL d   1       0.628   0.039   2.904  0.00  0.00    -0.060 I 
ATOM     10  F2  UNL d   1       1.464  -2.755   1.586  0.00  0.00    -0.096 F 
ATOM     11  F3  UNL d   1       2.688  -3.345  -0.756  0.00  0.00    -0.097 F 
ATOM     12  F4  UNL d   1       3.435  -1.352  -2.463  0.00  0.00    -0.092 F 
ENDROOT
TORSDOF 0
ENDMDL
