MODEL 1
REMARK minimizedAffinity -2.35101533
REMARK minimizedRMSD -1
REMARK  0 active torsions:
REMARK  status: ('A' for Active; 'I' for Inactive)
ROOT
ATOM      1  C   UNL d   1       1.139   0.135   0.317  0.00  0.00     0.124 A 
ATOM      2  C1  UNL d   1       1.663  -1.132   0.098  0.00  0.00     0.062 A 
ATOM      3  C2  UNL d   1       2.768  -1.298  -0.731  0.00  0.00     0.162 A 
ATOM      4  C3  UNL d   1       3.359  -0.195  -1.347  0.00  0.00    -0.034 A 
ATOM      5  C4  UNL d   1       2.826   1.076  -1.122  0.00  0.00     0.162 A 
ATOM      6  C5  UNL d   1       1.721   1.237  -0.293  0.00  0.00     0.062 A 
ATOM      7  F   UNL d   1       1.216   2.462  -0.082  0.00  0.00    -0.097 F 
ATOM      8  F1  UNL d   1       3.369   2.159  -1.698  0.00  0.00    -0.096 F 
ATOM      9  I   UNL d   1       5.012  -0.439  -2.587  0.00  0.00    -0.060 I 
ATOM     10  F2  UNL d   1       3.253  -2.534  -0.925  0.00  0.00    -0.096 F 
ATOM     11  F3  UNL d   1       1.102  -2.199   0.686  0.00  0.00    -0.097 F 
ATOM     12  F4  UNL d   1       0.075   0.292   1.115  0.00  0.00    -0.092 F 
ENDROOT
TORSDOF 0
ENDMDL
