MODEL 1
REMARK minimizedAffinity 2.5496459
REMARK minimizedRMSD -1
REMARK  0 active torsions:
REMARK  status: ('A' for Active; 'I' for Inactive)
ROOT
ATOM      1  C   UNL d   1       1.843  -0.173   0.494  0.00  0.00     0.124 A 
ATOM      2  C1  UNL d   1       2.273  -1.391  -0.014  0.00  0.00     0.062 A 
ATOM      3  C2  UNL d   1       3.236  -1.429  -1.018  0.00  0.00     0.162 A 
ATOM      4  C3  UNL d   1       3.777  -0.246  -1.521  0.00  0.00    -0.034 A 
ATOM      5  C4  UNL d   1       3.338   0.975  -1.006  0.00  0.00     0.162 A 
ATOM      6  C5  UNL d   1       2.375   1.009  -0.003  0.00  0.00     0.062 A 
ATOM      7  F   UNL d   1       1.960   2.187   0.486  0.00  0.00    -0.097 F 
ATOM      8  F1  UNL d   1       3.836   2.132  -1.467  0.00  0.00    -0.096 F 
ATOM      9  I   UNL d   1       5.217  -0.299  -3.023  0.00  0.00    -0.060 I 
ATOM     10  F2  UNL d   1       3.634  -2.620  -1.490  0.00  0.00    -0.096 F 
ATOM     11  F3  UNL d   1       1.760  -2.534   0.463  0.00  0.00    -0.097 F 
ATOM     12  F4  UNL d   1       0.915  -0.138   1.459  0.00  0.00    -0.092 F 
ENDROOT
TORSDOF 0
ENDMDL
