MODEL 1
REMARK minimizedAffinity -3.45022154
REMARK minimizedRMSD -1
REMARK  0 active torsions:
REMARK  status: ('A' for Active; 'I' for Inactive)
ROOT
ATOM      1  C   UNL d   1       1.232   0.126   0.160  0.00  0.00     0.124 A 
ATOM      2  C1  UNL d   1       1.845  -1.113   0.040  0.00  0.00     0.062 A 
ATOM      3  C2  UNL d   1       2.991  -1.255  -0.738  0.00  0.00     0.162 A 
ATOM      4  C3  UNL d   1       3.532  -0.153  -1.401  0.00  0.00    -0.034 A 
ATOM      5  C4  UNL d   1       2.909   1.090  -1.276  0.00  0.00     0.162 A 
ATOM      6  C5  UNL d   1       1.764   1.226  -0.498  0.00  0.00     0.062 A 
ATOM      7  F   UNL d   1       1.173   2.424  -0.383  0.00  0.00    -0.097 F 
ATOM      8  F1  UNL d   1       3.403   2.169  -1.900  0.00  0.00    -0.096 F 
ATOM      9  I   UNL d   1       5.245  -0.361  -2.565  0.00  0.00    -0.060 I 
ATOM     10  F2  UNL d   1       3.563  -2.464  -0.836  0.00  0.00    -0.096 F 
ATOM     11  F3  UNL d   1       1.333  -2.177   0.674  0.00  0.00    -0.097 F 
ATOM     12  F4  UNL d   1       0.129   0.260   0.908  0.00  0.00    -0.092 F 
ENDROOT
TORSDOF 0
ENDMDL
