MODEL 1
REMARK minimizedAffinity -3.38459682
REMARK minimizedRMSD -1
REMARK  0 active torsions:
REMARK  status: ('A' for Active; 'I' for Inactive)
ROOT
ATOM      1  C   UNL d   1       1.008   0.059   0.424  0.00  0.00     0.124 A 
ATOM      2  C1  UNL d   1       1.560   1.173  -0.193  0.00  0.00     0.062 A 
ATOM      3  C2  UNL d   1       2.642   1.030  -1.056  0.00  0.00     0.162 A 
ATOM      4  C3  UNL d   1       3.180  -0.232  -1.307  0.00  0.00    -0.034 A 
ATOM      5  C4  UNL d   1       2.621  -1.348  -0.682  0.00  0.00     0.162 A 
ATOM      6  C5  UNL d   1       1.539  -1.200   0.180  0.00  0.00     0.062 A 
ATOM      7  F   UNL d   1       1.007  -2.277   0.776  0.00  0.00    -0.097 F 
ATOM      8  F1  UNL d   1       3.113  -2.576  -0.901  0.00  0.00    -0.096 F 
ATOM      9  I   UNL d   1       4.800  -0.450  -2.597  0.00  0.00    -0.060 I 
ATOM     10  F2  UNL d   1       3.155   2.123  -1.639  0.00  0.00    -0.096 F 
ATOM     11  F3  UNL d   1       1.049   2.390   0.042  0.00  0.00    -0.097 F 
ATOM     12  F4  UNL d   1      -0.034   0.199   1.255  0.00  0.00    -0.092 F 
ENDROOT
TORSDOF 0
ENDMDL
