MODEL 1
REMARK minimizedAffinity 7.52580786
REMARK minimizedRMSD -1
REMARK  0 active torsions:
REMARK  status: ('A' for Active; 'I' for Inactive)
ROOT
ATOM      1  C4' PXY d   1       4.492   2.325   2.853  0.00  0.00     0.077 C 
ATOM      2  C1' PXY d   1       2.834  -0.839  -1.692  0.00  0.00     0.077 C 
ATOM      3  C1  PXY d   1       3.256  -0.005  -0.499  0.00  0.00    -0.082 A 
ATOM      4  C2  PXY d   1       4.525   0.345  -0.362  0.00  0.00     0.003 A 
ATOM      5  C3  PXY d   1       4.931   1.072   0.728  0.00  0.00     0.003 A 
ATOM      6  C4  PXY d   1       4.019   1.491   1.659  0.00  0.00    -0.082 A 
ATOM      7  C5  PXY d   1       2.720   1.148   1.521  0.00  0.00     0.003 A 
ATOM      8  C6  PXY d   1       2.336   0.375   0.429  0.00  0.00     0.003 A 
ENDROOT
TORSDOF 0
ENDMDL
