MODEL 1
REMARK minimizedAffinity 2.67755842
REMARK minimizedRMSD -1
REMARK  0 active torsions:
REMARK  status: ('A' for Active; 'I' for Inactive)
ROOT
ATOM      1  C4' PXY d   1       5.261   3.505  -0.613  0.00  0.00     0.077 C 
ATOM      2  C1' PXY d   1       3.417  -1.973  -0.577  0.00  0.00     0.077 C 
ATOM      3  C1  PXY d   1       3.913  -0.541  -0.584  0.00  0.00    -0.082 A 
ATOM      4  C2  PXY d   1       3.073   0.444  -0.307  0.00  0.00     0.003 A 
ATOM      5  C3  PXY d   1       3.497   1.747  -0.341  0.00  0.00     0.003 A 
ATOM      6  C4  PXY d   1       4.806   2.043  -0.608  0.00  0.00    -0.082 A 
ATOM      7  C5  PXY d   1       5.672   1.044  -0.881  0.00  0.00     0.003 A 
ATOM      8  C6  PXY d   1       5.213  -0.270  -0.882  0.00  0.00     0.003 A 
ENDROOT
TORSDOF 0
ENDMDL
