MODEL 1
REMARK minimizedAffinity 11.5144176
REMARK minimizedRMSD -1
REMARK  0 active torsions:
REMARK  status: ('A' for Active; 'I' for Inactive)
ROOT
ATOM      1  C4' PXY d   1       0.220   0.948  -1.127  0.00  0.00     0.077 C 
ATOM      2  C1' PXY d   1      -3.799   3.397   2.229  0.00  0.00     0.077 C 
ATOM      3  C1  PXY d   1      -2.751   2.743   1.351  0.00  0.00    -0.082 A 
ATOM      4  C2  PXY d   1      -1.568   3.318   1.205  0.00  0.00     0.003 A 
ATOM      5  C3  PXY d   1      -0.619   2.757   0.389  0.00  0.00     0.003 A 
ATOM      6  C4  PXY d   1      -0.865   1.568  -0.243  0.00  0.00    -0.082 A 
ATOM      7  C5  PXY d   1      -2.066   0.970  -0.091  0.00  0.00     0.003 A 
ATOM      8  C6  PXY d   1      -3.030   1.577   0.709  0.00  0.00     0.003 A 
ENDROOT
TORSDOF 0
ENDMDL
