MODEL 1
REMARK minimizedAffinity 4.41232681
REMARK minimizedRMSD -1
REMARK  0 active torsions:
REMARK  status: ('A' for Active; 'I' for Inactive)
ROOT
ATOM      1  C4' PXY d   1      -4.922   0.933  -0.203  0.00  0.00     0.077 C 
ATOM      2  C1' PXY d   1      -3.181   1.546  -5.681  0.00  0.00     0.077 C 
ATOM      3  C1  PXY d   1      -3.644   1.397  -4.245  0.00  0.00    -0.082 A 
ATOM      4  C2  PXY d   1      -2.936   0.662  -3.402  0.00  0.00     0.003 A 
ATOM      5  C3  PXY d   1      -3.358   0.491  -2.109  0.00  0.00     0.003 A 
ATOM      6  C4  PXY d   1      -4.487   1.120  -1.659  0.00  0.00    -0.082 A 
ATOM      7  C5  PXY d   1      -5.210   1.879  -2.510  0.00  0.00     0.003 A 
ATOM      8  C6  PXY d   1      -4.787   2.007  -3.830  0.00  0.00     0.003 A 
ENDROOT
TORSDOF 0
ENDMDL
