MODEL 1
REMARK minimizedAffinity 12.5589485
REMARK minimizedRMSD -1
REMARK  0 active torsions:
REMARK  status: ('A' for Active; 'I' for Inactive)
ROOT
ATOM      1  C4' PXY d   1      -5.539   1.483  -3.751  0.00  0.00     0.077 C 
ATOM      2  C1' PXY d   1      -0.894  -1.883  -4.469  0.00  0.00     0.077 C 
ATOM      3  C1  PXY d   1      -2.109  -0.994  -4.292  0.00  0.00    -0.082 A 
ATOM      4  C2  PXY d   1      -2.618  -0.814  -3.084  0.00  0.00     0.003 A 
ATOM      5  C3  PXY d   1      -3.736  -0.039  -2.910  0.00  0.00     0.003 A 
ATOM      6  C4  PXY d   1      -4.307   0.602  -3.976  0.00  0.00    -0.082 A 
ATOM      7  C5  PXY d   1      -3.788   0.432  -5.211  0.00  0.00     0.003 A 
ATOM      8  C6  PXY d   1      -2.678  -0.391  -5.372  0.00  0.00     0.003 A 
ENDROOT
TORSDOF 0
ENDMDL
