MODEL 1
REMARK minimizedAffinity 6.31020832
REMARK minimizedRMSD -1
REMARK  0 active torsions:
REMARK  status: ('A' for Active; 'I' for Inactive)
ROOT
ATOM      1  C4' PXY d   1       6.000   2.718  -0.435  0.00  0.00     0.077 C 
ATOM      2  C1' PXY d   1       3.312  -2.399  -0.459  0.00  0.00     0.077 C 
ATOM      3  C1  PXY d   1       4.026  -1.062  -0.444  0.00  0.00    -0.082 A 
ATOM      4  C2  PXY d   1       3.361   0.038  -0.761  0.00  0.00     0.003 A 
ATOM      5  C3  PXY d   1       3.999   1.251  -0.784  0.00  0.00     0.003 A 
ATOM      6  C4  PXY d   1       5.318   1.348  -0.427  0.00  0.00    -0.082 A 
ATOM      7  C5  PXY d   1       6.000   0.232  -0.092  0.00  0.00     0.003 A 
ATOM      8  C6  PXY d   1       5.344  -0.996  -0.115  0.00  0.00     0.003 A 
ENDROOT
TORSDOF 0
ENDMDL
