MODEL 1
REMARK minimizedAffinity 14.7460079
REMARK minimizedRMSD -1
REMARK  0 active torsions:
REMARK  status: ('A' for Active; 'I' for Inactive)
ROOT
ATOM      1  C4' PXY d   1      -5.996  -0.770  -5.269  0.00  0.00     0.077 C 
ATOM      2  C1' PXY d   1      -3.602   4.246  -3.681  0.00  0.00     0.077 C 
ATOM      3  C1  PXY d   1      -4.222   2.930  -4.108  0.00  0.00    -0.082 A 
ATOM      4  C2  PXY d   1      -5.434   2.611  -3.685  0.00  0.00     0.003 A 
ATOM      5  C3  PXY d   1      -5.997   1.410  -4.035  0.00  0.00     0.003 A 
ATOM      6  C4  PXY d   1      -5.334   0.552  -4.871  0.00  0.00    -0.082 A 
ATOM      7  C5  PXY d   1      -4.102   0.875  -5.315  0.00  0.00     0.003 A 
ATOM      8  C6  PXY d   1      -3.531   2.080  -4.914  0.00  0.00     0.003 A 
ENDROOT
TORSDOF 0
ENDMDL
