MODEL 1
REMARK minimizedAffinity 8.5176878
REMARK minimizedRMSD -1
REMARK  0 active torsions:
REMARK  status: ('A' for Active; 'I' for Inactive)
ROOT
ATOM      1  C4' PXY d   1      -2.835  -0.890  -2.861  0.00  0.00     0.077 C 
ATOM      2  C1' PXY d   1      -5.901   3.820  -4.216  0.00  0.00     0.077 C 
ATOM      3  C1  PXY d   1      -5.095   2.582  -3.873  0.00  0.00    -0.082 A 
ATOM      4  C2  PXY d   1      -5.297   1.969  -2.718  0.00  0.00     0.003 A 
ATOM      5  C3  PXY d   1      -4.554   0.868  -2.378  0.00  0.00     0.003 A 
ATOM      6  C4  PXY d   1      -3.632   0.357  -3.253  0.00  0.00    -0.082 A 
ATOM      7  C5  PXY d   1      -3.429   0.971  -4.438  0.00  0.00     0.003 A 
ATOM      8  C6  PXY d   1      -4.164   2.112  -4.746  0.00  0.00     0.003 A 
ENDROOT
TORSDOF 0
ENDMDL
