MODEL 1
REMARK minimizedAffinity 12.8286409
REMARK minimizedRMSD -1
REMARK  1 active torsions:
REMARK  status: ('A' for Active; 'I' for Inactive)
REMARK    1  A    between atoms: C1_2  and  C2_3 
ROOT
ATOM      1  C2  UNL d   1       0.252   3.286  -0.000  0.00  0.00    -0.076 A 
ATOM      2  C3  UNL d   1      -0.641   4.200  -0.585  0.00  0.00     0.004 A 
ATOM      3  C4  UNL d   1      -0.632   5.545  -0.220  0.00  0.00    -0.003 A 
ATOM      4  C5  UNL d   1       0.270   5.998   0.737  0.00  0.00     0.000 A 
ATOM      5  C6  UNL d   1       1.175   5.108   1.314  0.00  0.00     0.000 A 
ATOM      6  C7  UNL d   1       1.191   3.752   0.945  0.00  0.00    -0.073 A 
ATOM      7  C8  UNL d   1       2.184   2.835   1.605  0.00  0.00     0.078 C 
ENDROOT
BRANCH   1   8
ATOM      8  C1  UNL d   1       0.178   1.834  -0.416  0.00  0.00     0.053 C 
ATOM      9  C   UNL d   1       0.724   1.601  -1.817  0.00  0.00     0.018 C 
ENDBRANCH   1   8
TORSDOF 1
ENDMDL
