MODEL 1
REMARK minimizedAffinity 6.24340677
REMARK minimizedRMSD -1
REMARK  1 active torsions:
REMARK  status: ('A' for Active; 'I' for Inactive)
REMARK    1  A    between atoms: C1_2  and  C2_3 
ROOT
ATOM      1  C2  UNL d   1       0.869   0.884  -1.404  0.00  0.00    -0.076 A 
ATOM      2  C3  UNL d   1       1.948   1.728  -1.088  0.00  0.00     0.004 A 
ATOM      3  C4  UNL d   1       1.916   2.541   0.043  0.00  0.00    -0.003 A 
ATOM      4  C5  UNL d   1       0.805   2.522   0.879  0.00  0.00     0.000 A 
ATOM      5  C6  UNL d   1      -0.267   1.678   0.591  0.00  0.00     0.000 A 
ATOM      6  C7  UNL d   1      -0.244   0.840  -0.537  0.00  0.00    -0.073 A 
ATOM      7  C8  UNL d   1      -1.430  -0.046  -0.802  0.00  0.00     0.078 C 
ENDROOT
BRANCH   1   8
ATOM      8  C1  UNL d   1       0.949   0.045  -2.659  0.00  0.00     0.053 C 
ATOM      9  C   UNL d   1       1.485   0.826  -3.849  0.00  0.00     0.018 C 
ENDBRANCH   1   8
TORSDOF 1
ENDMDL
