MODEL 1
REMARK minimizedAffinity -0.83565104
REMARK minimizedRMSD -1
REMARK  1 active torsions:
REMARK  status: ('A' for Active; 'I' for Inactive)
REMARK    1  A    between atoms: C1_2  and  C2_3 
ROOT
ATOM      1  C2  UNL d   1       3.290   2.604  -4.094  0.00  0.00    -0.076 A 
ATOM      2  C3  UNL d   1       4.066   1.433  -4.044  0.00  0.00     0.004 A 
ATOM      3  C4  UNL d   1       5.410   1.477  -3.676  0.00  0.00    -0.003 A 
ATOM      4  C5  UNL d   1       6.000   2.694  -3.352  0.00  0.00     0.000 A 
ATOM      5  C6  UNL d   1       5.241   3.863  -3.379  0.00  0.00     0.000 A 
ATOM      6  C7  UNL d   1       3.881   3.834  -3.732  0.00  0.00    -0.073 A 
ATOM      7  C8  UNL d   1       3.112   5.127  -3.750  0.00  0.00     0.078 C 
ENDROOT
BRANCH   1   8
ATOM      8  C1  UNL d   1       1.845   2.499  -4.526  0.00  0.00     0.053 C 
ATOM      9  C   UNL d   1       1.024   1.615  -3.600  0.00  0.00     0.018 C 
ENDBRANCH   1   8
TORSDOF 1
ENDMDL
