MODEL 1
REMARK minimizedAffinity -2.9817028
REMARK minimizedRMSD -1
REMARK  1 active torsions:
REMARK  status: ('A' for Active; 'I' for Inactive)
REMARK    1  A    between atoms: C1_2  and  C2_3 
ROOT
ATOM      1  C2  UNL d   1      -0.078   0.248  -0.773  0.00  0.00    -0.076 A 
ATOM      2  C3  UNL d   1       1.073  -0.046  -1.526  0.00  0.00     0.004 A 
ATOM      3  C4  UNL d   1       1.600  -1.336  -1.555  0.00  0.00    -0.003 A 
ATOM      4  C5  UNL d   1       0.985  -2.353  -0.834  0.00  0.00     0.000 A 
ATOM      5  C6  UNL d   1      -0.167  -2.084  -0.096  0.00  0.00     0.000 A 
ATOM      6  C7  UNL d   1      -0.721  -0.792  -0.069  0.00  0.00    -0.073 A 
ATOM      7  C8  UNL d   1      -1.962  -0.557   0.748  0.00  0.00     0.078 C 
ENDROOT
BRANCH   1   8
ATOM      8  C1  UNL d   1      -0.589   1.671  -0.757  0.00  0.00     0.053 C 
ATOM      9  C   UNL d   1       0.006   2.490   0.377  0.00  0.00     0.018 C 
ENDBRANCH   1   8
TORSDOF 1
ENDMDL
