MODEL 1
REMARK minimizedAffinity 0.0311344098
REMARK minimizedRMSD -1
REMARK  1 active torsions:
REMARK  status: ('A' for Active; 'I' for Inactive)
REMARK    1  A    between atoms: C1_2  and  C2_3 
ROOT
ATOM      1  C2  UNL d   1       0.456   0.020  -1.463  0.00  0.00    -0.076 A 
ATOM      2  C3  UNL d   1      -0.788   0.130  -0.818  0.00  0.00     0.004 A 
ATOM      3  C4  UNL d   1      -1.248  -0.875   0.031  0.00  0.00    -0.003 A 
ATOM      4  C5  UNL d   1      -0.470  -2.007   0.250  0.00  0.00     0.000 A 
ATOM      5  C6  UNL d   1       0.775  -2.125  -0.368  0.00  0.00     0.000 A 
ATOM      6  C7  UNL d   1       1.260  -1.113  -1.214  0.00  0.00    -0.073 A 
ATOM      7  C8  UNL d   1       2.607  -1.294  -1.858  0.00  0.00     0.078 C 
ENDROOT
BRANCH   1   8
ATOM      8  C1  UNL d   1       0.890   1.130  -2.394  0.00  0.00     0.053 C 
ATOM      9  C   UNL d   1       1.179   0.630  -3.801  0.00  0.00     0.018 C 
ENDBRANCH   1   8
TORSDOF 1
ENDMDL
