MODEL 1
REMARK minimizedAffinity -3.42524815
REMARK minimizedRMSD -1
REMARK  1 active torsions:
REMARK  status: ('A' for Active; 'I' for Inactive)
REMARK    1  A    between atoms: C1_2  and  C2_3 
ROOT
ATOM      1  C2  UNL d   1       0.808  -0.477  -1.429  0.00  0.00    -0.076 A 
ATOM      2  C3  UNL d   1      -0.034  -1.327  -0.692  0.00  0.00     0.004 A 
ATOM      3  C4  UNL d   1      -1.224  -0.856  -0.139  0.00  0.00    -0.003 A 
ATOM      4  C5  UNL d   1      -1.591   0.474  -0.316  0.00  0.00     0.000 A 
ATOM      5  C6  UNL d   1      -0.776   1.327  -1.060  0.00  0.00     0.000 A 
ATOM      6  C7  UNL d   1       0.419   0.863  -1.637  0.00  0.00    -0.073 A 
ATOM      7  C8  UNL d   1       1.262   1.828  -2.424  0.00  0.00     0.078 C 
ENDROOT
BRANCH   1   8
ATOM      8  C1  UNL d   1       2.099  -1.038  -1.981  0.00  0.00     0.053 C 
ATOM      9  C   UNL d   1       2.031  -2.540  -2.209  0.00  0.00     0.018 C 
ENDBRANCH   1   8
TORSDOF 1
ENDMDL
