MODEL 1
REMARK minimizedAffinity 0.566903353
REMARK minimizedRMSD -1
REMARK  1 active torsions:
REMARK  status: ('A' for Active; 'I' for Inactive)
REMARK    1  A    between atoms: C1_2  and  C2_3 
ROOT
ATOM      1  C2  UNL d   1       1.499  -0.839  -2.434  0.00  0.00    -0.076 A 
ATOM      2  C3  UNL d   1       1.729  -2.156  -2.001  0.00  0.00     0.004 A 
ATOM      3  C4  UNL d   1       1.155  -2.635  -0.825  0.00  0.00    -0.003 A 
ATOM      4  C5  UNL d   1       0.340  -1.804  -0.063  0.00  0.00     0.000 A 
ATOM      5  C6  UNL d   1       0.086  -0.500  -0.487  0.00  0.00     0.000 A 
ATOM      6  C7  UNL d   1       0.644  -0.007  -1.679  0.00  0.00    -0.073 A 
ATOM      7  C8  UNL d   1       0.342   1.409  -2.085  0.00  0.00     0.078 C 
ENDROOT
BRANCH   1   8
ATOM      8  C1  UNL d   1       2.170  -0.366  -3.704  0.00  0.00     0.053 C 
ATOM      9  C   UNL d   1       1.241   0.457  -4.583  0.00  0.00     0.018 C 
ENDBRANCH   1   8
TORSDOF 1
ENDMDL
