MODEL 1
REMARK minimizedAffinity -3.59273529
REMARK minimizedRMSD -1
REMARK  1 active torsions:
REMARK  status: ('A' for Active; 'I' for Inactive)
REMARK    1  A    between atoms: C1_2  and  C2_3 
ROOT
ATOM      1  C2  UNL d   1      -0.897   0.040  -0.402  0.00  0.00    -0.076 A 
ATOM      2  C3  UNL d   1      -0.513  -1.242   0.026  0.00  0.00     0.004 A 
ATOM      3  C4  UNL d   1       0.567  -1.900  -0.559  0.00  0.00    -0.003 A 
ATOM      4  C5  UNL d   1       1.281  -1.286  -1.582  0.00  0.00     0.000 A 
ATOM      5  C6  UNL d   1       0.925  -0.007  -2.007  0.00  0.00     0.000 A 
ATOM      6  C7  UNL d   1      -0.151   0.677  -1.417  0.00  0.00    -0.073 A 
ATOM      7  C8  UNL d   1      -0.495   2.053  -1.919  0.00  0.00     0.078 C 
ENDROOT
BRANCH   1   8
ATOM      8  C1  UNL d   1      -2.094   0.694   0.251  0.00  0.00     0.053 C 
ATOM      9  C   UNL d   1      -2.160   0.426   1.747  0.00  0.00     0.018 C 
ENDBRANCH   1   8
TORSDOF 1
ENDMDL
