MODEL 1
REMARK minimizedAffinity -2.52033758
REMARK minimizedRMSD -1
REMARK  1 active torsions:
REMARK  status: ('A' for Active; 'I' for Inactive)
REMARK    1  A    between atoms: C1_2  and  C2_3 
ROOT
ATOM      1  C2  UNL d   1      -0.571  -0.549   1.107  0.00  0.00    -0.076 A 
ATOM      2  C3  UNL d   1      -0.729  -1.911   0.795  0.00  0.00     0.004 A 
ATOM      3  C4  UNL d   1      -0.157  -2.454  -0.354  0.00  0.00    -0.003 A 
ATOM      4  C5  UNL d   1       0.582  -1.645  -1.210  0.00  0.00     0.000 A 
ATOM      5  C6  UNL d   1       0.764  -0.296  -0.907  0.00  0.00     0.000 A 
ATOM      6  C7  UNL d   1       0.208   0.264   0.256  0.00  0.00    -0.073 A 
ATOM      7  C8  UNL d   1       0.431   1.726   0.531  0.00  0.00     0.078 C 
ENDROOT
BRANCH   1   8
ATOM      8  C1  UNL d   1      -1.236  -0.010   2.353  0.00  0.00     0.053 C 
ATOM      9  C   UNL d   1      -2.750  -0.149   2.311  0.00  0.00     0.018 C 
ENDBRANCH   1   8
TORSDOF 1
ENDMDL
