MODEL 1
REMARK minimizedAffinity -3.1696198
REMARK minimizedRMSD -1
REMARK  1 active torsions:
REMARK  status: ('A' for Active; 'I' for Inactive)
REMARK    1  A    between atoms: C1_2  and  C2_3 
ROOT
ATOM      1  C2  UNL d   1       0.045  -0.064  -0.840  0.00  0.00    -0.076 A 
ATOM      2  C3  UNL d   1       1.150  -0.699  -1.432  0.00  0.00     0.004 A 
ATOM      3  C4  UNL d   1       1.353  -2.071  -1.284  0.00  0.00    -0.003 A 
ATOM      4  C5  UNL d   1       0.454  -2.828  -0.542  0.00  0.00     0.000 A 
ATOM      5  C6  UNL d   1      -0.658  -2.217   0.037  0.00  0.00     0.000 A 
ATOM      6  C7  UNL d   1      -0.886  -0.839  -0.115  0.00  0.00    -0.073 A 
ATOM      7  C8  UNL d   1      -2.098  -0.231   0.537  0.00  0.00     0.078 C 
ENDROOT
BRANCH   1   8
ATOM      8  C1  UNL d   1      -0.109   1.431  -1.011  0.00  0.00     0.053 C 
ATOM      9  C   UNL d   1       0.580   2.218   0.093  0.00  0.00     0.018 C 
ENDBRANCH   1   8
TORSDOF 1
ENDMDL
