MODEL 1
REMARK minimizedAffinity -4.42506552
REMARK minimizedRMSD -1
REMARK  0 active torsions:
REMARK  status: ('A' for Active; 'I' for Inactive)
ROOT
ATOM      1  C   UNL d   1      -2.872  -0.225  -0.714  0.00  0.00    -0.002 A 
ATOM      2  C1  UNL d   1      -1.864   0.285  -1.519  0.00  0.00     0.010 A 
ATOM      3  C2  UNL d   1      -0.524  -0.000  -1.247  0.00  0.00     0.041 A 
ATOM      4  C3  UNL d   1      -0.212  -0.817  -0.142  0.00  0.00    -0.075 A 
ATOM      5  S   UNL d   1       1.357  -1.301   0.382  0.00  0.00     0.015 SA
ATOM      6  C4  UNL d   1       0.726  -2.197   1.687  0.00  0.00     0.022 A 
ATOM      7  C5  UNL d   1      -0.646  -2.139   1.737  0.00  0.00     0.026 A 
ATOM      8  C6  UNL d   1      -1.210  -1.343   0.683  0.00  0.00    -0.082 A 
ATOM      9  C7  UNL d   1      -2.558  -1.035   0.381  0.00  0.00     0.045 A 
ENDROOT
TORSDOF 0
ENDMDL
