MODEL 1
REMARK minimizedAffinity -3.26392746
REMARK minimizedRMSD -1
REMARK  0 active torsions:
REMARK  status: ('A' for Active; 'I' for Inactive)
ROOT
ATOM      1  C   UNL d   1      -2.677  -0.740  -0.630  0.00  0.00    -0.002 A 
ATOM      2  C1  UNL d   1      -2.020  -0.015  -1.613  0.00  0.00     0.010 A 
ATOM      3  C2  UNL d   1      -0.627   0.091  -1.607  0.00  0.00     0.041 A 
ATOM      4  C3  UNL d   1       0.100  -0.552  -0.586  0.00  0.00    -0.075 A 
ATOM      5  S   UNL d   1       1.811  -0.561  -0.377  0.00  0.00     0.015 SA
ATOM      6  C4  UNL d   1       1.710  -1.528   1.023  0.00  0.00     0.022 A 
ATOM      7  C5  UNL d   1       0.410  -1.846   1.337  0.00  0.00     0.026 A 
ATOM      8  C6  UNL d   1      -0.539  -1.289   0.415  0.00  0.00    -0.082 A 
ATOM      9  C7  UNL d   1      -1.952  -1.376   0.381  0.00  0.00     0.045 A 
ENDROOT
TORSDOF 0
ENDMDL
