MODEL 1
REMARK minimizedAffinity 0.0122264614
REMARK minimizedRMSD -1
REMARK  0 active torsions:
REMARK  status: ('A' for Active; 'I' for Inactive)
ROOT
ATOM      1  C   UNL d   1      -3.022  -0.736  -0.679  0.00  0.00    -0.002 A 
ATOM      2  C1  UNL d   1      -2.805  -1.063   0.652  0.00  0.00     0.010 A 
ATOM      3  C2  UNL d   1      -1.536  -0.929   1.218  0.00  0.00     0.041 A 
ATOM      4  C3  UNL d   1      -0.479  -0.454   0.418  0.00  0.00    -0.075 A 
ATOM      5  S   UNL d   1       1.159  -0.208   0.897  0.00  0.00     0.015 SA
ATOM      6  C4  UNL d   1       1.609   0.339  -0.653  0.00  0.00     0.022 A 
ATOM      7  C5  UNL d   1       0.548   0.340  -1.528  0.00  0.00     0.026 A 
ATOM      8  C6  UNL d   1      -0.673  -0.116  -0.925  0.00  0.00    -0.082 A 
ATOM      9  C7  UNL d   1      -1.971  -0.264  -1.470  0.00  0.00     0.045 A 
ENDROOT
TORSDOF 0
ENDMDL
