MODEL 1
REMARK minimizedAffinity -5.26513243
REMARK minimizedRMSD -1
REMARK  0 active torsions:
REMARK  status: ('A' for Active; 'I' for Inactive)
ROOT
ATOM      1  C   UNL d   1       1.235  -1.830   1.162  0.00  0.00    -0.002 A 
ATOM      2  C1  UNL d   1       1.628  -0.784   0.339  0.00  0.00     0.010 A 
ATOM      3  C2  UNL d   1       0.677  -0.020  -0.340  0.00  0.00     0.041 A 
ATOM      4  C3  UNL d   1      -0.688  -0.326  -0.176  0.00  0.00    -0.075 A 
ATOM      5  S   UNL d   1      -2.028   0.474  -0.908  0.00  0.00     0.015 SA
ATOM      6  C4  UNL d   1      -3.154  -0.553  -0.145  0.00  0.00     0.022 A 
ATOM      7  C5  UNL d   1      -2.540  -1.489   0.652  0.00  0.00     0.026 A 
ATOM      8  C6  UNL d   1      -1.108  -1.374   0.648  0.00  0.00    -0.082 A 
ATOM      9  C7  UNL d   1      -0.121  -2.131   1.323  0.00  0.00     0.045 A 
ENDROOT
TORSDOF 0
ENDMDL
