MODEL 1
REMARK minimizedAffinity -1.06110168
REMARK minimizedRMSD -1
REMARK  0 active torsions:
REMARK  status: ('A' for Active; 'I' for Inactive)
ROOT
ATOM      1  C   UNL d   1      -2.430  -0.437  -1.793  0.00  0.00    -0.002 A 
ATOM      2  C1  UNL d   1      -2.870  -0.615  -0.489  0.00  0.00     0.010 A 
ATOM      3  C2  UNL d   1      -1.984  -0.490   0.583  0.00  0.00     0.041 A 
ATOM      4  C3  UNL d   1      -0.636  -0.176   0.321  0.00  0.00    -0.075 A 
ATOM      5  S   UNL d   1       0.628   0.028   1.476  0.00  0.00     0.015 SA
ATOM      6  C4  UNL d   1       1.781   0.359   0.266  0.00  0.00     0.022 A 
ATOM      7  C5  UNL d   1       1.233   0.318  -0.995  0.00  0.00     0.026 A 
ATOM      8  C6  UNL d   1      -0.169   0.009  -0.984  0.00  0.00    -0.082 A 
ATOM      9  C7  UNL d   1      -1.091  -0.126  -2.049  0.00  0.00     0.045 A 
ENDROOT
TORSDOF 0
ENDMDL
