MODEL 1
REMARK minimizedAffinity -2.93914008
REMARK minimizedRMSD -1
REMARK  0 active torsions:
REMARK  status: ('A' for Active; 'I' for Inactive)
ROOT
ATOM      1  C   UNL d   1      -3.401  -0.675  -0.192  0.00  0.00    -0.002 A 
ATOM      2  C1  UNL d   1      -2.747  -0.891   1.013  0.00  0.00     0.010 A 
ATOM      3  C2  UNL d   1      -1.390  -0.590   1.148  0.00  0.00     0.041 A 
ATOM      4  C3  UNL d   1      -0.696  -0.060   0.042  0.00  0.00    -0.075 A 
ATOM      5  S   UNL d   1       0.968   0.385  -0.024  0.00  0.00     0.015 SA
ATOM      6  C4  UNL d   1       0.849   0.873  -1.653  0.00  0.00     0.022 A 
ATOM      7  C5  UNL d   1      -0.422   0.707  -2.150  0.00  0.00     0.026 A 
ATOM      8  C6  UNL d   1      -1.334   0.167  -1.181  0.00  0.00    -0.082 A 
ATOM      9  C7  UNL d   1      -2.709  -0.150  -1.286  0.00  0.00     0.045 A 
ENDROOT
TORSDOF 0
ENDMDL
