MODEL 1
REMARK minimizedAffinity -1.17134523
REMARK minimizedRMSD -1
REMARK  0 active torsions:
REMARK  status: ('A' for Active; 'I' for Inactive)
ROOT
ATOM      1  C   UNL d   1       0.452  -0.596  -0.577  0.00  0.00    -0.002 A 
ATOM      2  C1  UNL d   1      -0.319   0.501  -0.937  0.00  0.00     0.010 A 
ATOM      3  C2  UNL d   1       0.086   1.794  -0.603  0.00  0.00     0.041 A 
ATOM      4  C3  UNL d   1       1.293   1.970   0.103  0.00  0.00    -0.075 A 
ATOM      5  S   UNL d   1       1.988   3.461   0.618  0.00  0.00     0.015 SA
ATOM      6  C4  UNL d   1       3.326   2.678   1.327  0.00  0.00     0.022 A 
ATOM      7  C5  UNL d   1       3.260   1.312   1.184  0.00  0.00     0.026 A 
ATOM      8  C6  UNL d   1       2.087   0.881   0.476  0.00  0.00    -0.082 A 
ATOM      9  C7  UNL d   1       1.648  -0.418   0.123  0.00  0.00     0.045 A 
ENDROOT
TORSDOF 0
ENDMDL
