MODEL 1
REMARK minimizedAffinity -1.99658191
REMARK minimizedRMSD -1
REMARK  0 active torsions:
REMARK  status: ('A' for Active; 'I' for Inactive)
ROOT
ATOM      1  C   UNL d   1      -2.094   0.392  -1.512  0.00  0.00    -0.002 A 
ATOM      2  C1  UNL d   1      -2.199  -0.708  -0.673  0.00  0.00     0.010 A 
ATOM      3  C2  UNL d   1      -1.127  -1.087   0.138  0.00  0.00     0.041 A 
ATOM      4  C3  UNL d   1       0.062  -0.333   0.093  0.00  0.00    -0.075 A 
ATOM      5  S   UNL d   1       1.503  -0.609   0.997  0.00  0.00     0.015 SA
ATOM      6  C4  UNL d   1       2.291   0.727   0.291  0.00  0.00     0.022 A 
ATOM      7  C5  UNL d   1       1.489   1.379  -0.615  0.00  0.00     0.026 A 
ATOM      8  C6  UNL d   1       0.191   0.779  -0.744  0.00  0.00    -0.082 A 
ATOM      9  C7  UNL d   1      -0.913   1.137  -1.555  0.00  0.00     0.045 A 
ENDROOT
TORSDOF 0
ENDMDL
