MODEL 1
REMARK minimizedAffinity -0.921181917
REMARK minimizedRMSD -1
REMARK  0 active torsions:
REMARK  status: ('A' for Active; 'I' for Inactive)
ROOT
ATOM      1  C   UNL d   1      -2.197  -0.537  -1.703  0.00  0.00    -0.002 A 
ATOM      2  C1  UNL d   1      -2.600  -0.670  -0.382  0.00  0.00     0.010 A 
ATOM      3  C2  UNL d   1      -1.721  -0.376   0.662  0.00  0.00     0.041 A 
ATOM      4  C3  UNL d   1      -0.418   0.061   0.353  0.00  0.00    -0.075 A 
ATOM      5  S   UNL d   1       0.830   0.480   1.467  0.00  0.00     0.015 SA
ATOM      6  C4  UNL d   1       1.927   0.846   0.216  0.00  0.00     0.022 A 
ATOM      7  C5  UNL d   1       1.372   0.658  -1.028  0.00  0.00     0.026 A 
ATOM      8  C6  UNL d   1       0.012   0.203  -0.969  0.00  0.00    -0.082 A 
ATOM      9  C7  UNL d   1      -0.903  -0.104  -2.005  0.00  0.00     0.045 A 
ENDROOT
TORSDOF 0
ENDMDL
