MODEL 1
REMARK minimizedAffinity -1.40692806
REMARK minimizedRMSD -1
REMARK  0 active torsions:
REMARK  status: ('A' for Active; 'I' for Inactive)
ROOT
ATOM      1  C   UNL d   1      -2.255  -0.443  -1.243  0.00  0.00    -0.002 A 
ATOM      2  C1  UNL d   1      -2.581  -0.683   0.085  0.00  0.00     0.010 A 
ATOM      3  C2  UNL d   1      -1.669  -0.399   1.103  0.00  0.00     0.041 A 
ATOM      4  C3  UNL d   1      -0.412   0.137   0.761  0.00  0.00    -0.075 A 
ATOM      5  S   UNL d   1       0.865   0.564   1.839  0.00  0.00     0.015 SA
ATOM      6  C4  UNL d   1       1.872   1.076   0.563  0.00  0.00     0.022 A 
ATOM      7  C5  UNL d   1       1.265   0.932  -0.662  0.00  0.00     0.026 A 
ATOM      8  C6  UNL d   1      -0.061   0.389  -0.568  0.00  0.00    -0.082 A 
ATOM      9  C7  UNL d   1      -1.007   0.090  -1.578  0.00  0.00     0.045 A 
ENDROOT
TORSDOF 0
ENDMDL
