MODEL 1
REMARK minimizedAffinity -2.4144485
REMARK minimizedRMSD -1
REMARK  0 active torsions:
REMARK  status: ('A' for Active; 'I' for Inactive)
ROOT
ATOM      1  C   UNL d   1      -1.289  -0.175  -1.491  0.00  0.00    -0.002 A 
ATOM      2  C1  UNL d   1      -1.570  -0.835  -0.303  0.00  0.00     0.010 A 
ATOM      3  C2  UNL d   1      -0.694  -0.749   0.781  0.00  0.00     0.041 A 
ATOM      4  C3  UNL d   1       0.480   0.020   0.650  0.00  0.00    -0.075 A 
ATOM      5  S   UNL d   1       1.698   0.269   1.844  0.00  0.00     0.015 SA
ATOM      6  C4  UNL d   1       2.619   1.258   0.806  0.00  0.00     0.022 A 
ATOM      7  C5  UNL d   1       2.026   1.405  -0.426  0.00  0.00     0.026 A 
ATOM      8  C6  UNL d   1       0.783   0.694  -0.536  0.00  0.00    -0.082 A 
ATOM      9  C7  UNL d   1      -0.124   0.587  -1.617  0.00  0.00     0.045 A 
ENDROOT
TORSDOF 0
ENDMDL
