MODEL 1
REMARK minimizedAffinity -0.39621383
REMARK minimizedRMSD -1
REMARK  0 active torsions:
REMARK  status: ('A' for Active; 'I' for Inactive)
ROOT
ATOM      1  C   UNL d   1      -3.279  -0.717  -0.720  0.00  0.00    -0.002 A 
ATOM      2  C1  UNL d   1      -3.030  -0.553   0.636  0.00  0.00     0.010 A 
ATOM      3  C2  UNL d   1      -1.737  -0.290   1.094  0.00  0.00     0.041 A 
ATOM      4  C3  UNL d   1      -0.689  -0.193   0.158  0.00  0.00    -0.075 A 
ATOM      5  S   UNL d   1       0.973   0.123   0.488  0.00  0.00     0.015 SA
ATOM      6  C4  UNL d   1       1.392   0.048  -1.162  0.00  0.00     0.022 A 
ATOM      7  C5  UNL d   1       0.303  -0.211  -1.960  0.00  0.00     0.026 A 
ATOM      8  C6  UNL d   1      -0.915  -0.353  -1.212  0.00  0.00    -0.082 A 
ATOM      9  C7  UNL d   1      -2.236  -0.620  -1.645  0.00  0.00     0.045 A 
ENDROOT
TORSDOF 0
ENDMDL
