MODEL 1
REMARK minimizedAffinity -3.50010371
REMARK minimizedRMSD -1
REMARK  3 active torsions:
REMARK  status: ('A' for Active; 'I' for Inactive)
REMARK    1  A    between atoms: C3'_2  and  C2'_3 
REMARK    2  A    between atoms: C2'_3  and  C1'_4 
REMARK    3  A    between atoms: C1'_4  and  C1_5 
ROOT
ATOM      1  C1  N4B d   1       0.647   0.478  -0.002  0.00  0.00    -0.075 A 
ATOM      2  C2  N4B d   1       1.387   1.647   0.280  0.00  0.00     0.002 A 
ATOM      3  C3  N4B d   1       2.606   1.554   0.906  0.00  0.00     0.002 A 
ATOM      4  C4  N4B d   1       3.093   0.309   1.277  0.00  0.00    -0.004 A 
ATOM      5  C5  N4B d   1       2.383  -0.817   0.978  0.00  0.00     0.002 A 
ATOM      6  C6  N4B d   1       1.159  -0.738   0.345  0.00  0.00     0.002 A 
ENDROOT
BRANCH   1   7
ATOM      7  C1' N4B d   1      -0.729   0.536  -0.608  0.00  0.00     0.057 C 
BRANCH   7   8
ATOM      8  C2' N4B d   1      -1.766   0.267   0.478  0.00  0.00     0.009 C 
BRANCH   8   9
ATOM      9  C3' N4B d   1      -3.153   0.729   0.066  0.00  0.00     0.004 C 
ATOM     10  C4' N4B d   1      -3.978   1.198   1.227  0.00  0.00     0.003 C 
ENDBRANCH   8   9
ENDBRANCH   7   8
ENDBRANCH   1   7
TORSDOF 3
ENDMDL
