MODEL 1
REMARK minimizedAffinity 0.26408726
REMARK minimizedRMSD -1
REMARK  3 active torsions:
REMARK  status: ('A' for Active; 'I' for Inactive)
REMARK    1  A    between atoms: C3'_2  and  C2'_3 
REMARK    2  A    between atoms: C2'_3  and  C1'_4 
REMARK    3  A    between atoms: C1'_4  and  C1_5 
ROOT
ATOM      1  C1  N4B d   1       0.307  -1.347  -0.653  0.00  0.00    -0.075 A 
ATOM      2  C2  N4B d   1       1.401  -1.509  -1.532  0.00  0.00     0.002 A 
ATOM      3  C3  N4B d   1       2.602  -1.974  -1.055  0.00  0.00     0.002 A 
ATOM      4  C4  N4B d   1       2.738  -2.265   0.294  0.00  0.00    -0.004 A 
ATOM      5  C5  N4B d   1       1.670  -2.129   1.132  0.00  0.00     0.002 A 
ATOM      6  C6  N4B d   1       0.456  -1.666   0.666  0.00  0.00     0.002 A 
ENDROOT
BRANCH   1   7
ATOM      7  C1' N4B d   1      -1.000  -0.760  -1.111  0.00  0.00     0.057 C 
BRANCH   7   8
ATOM      8  C2' N4B d   1      -1.075   0.699  -0.671  0.00  0.00     0.009 C 
BRANCH   8   9
ATOM      9  C3' N4B d   1      -2.321   0.981   0.151  0.00  0.00     0.004 C 
ATOM     10  C4' N4B d   1      -3.583   0.573  -0.548  0.00  0.00     0.003 C 
ENDBRANCH   8   9
ENDBRANCH   7   8
ENDBRANCH   1   7
TORSDOF 3
ENDMDL
