MODEL 1
REMARK minimizedAffinity -5.22811699
REMARK minimizedRMSD -1
REMARK  3 active torsions:
REMARK  status: ('A' for Active; 'I' for Inactive)
REMARK    1  A    between atoms: C3'_2  and  C2'_3 
REMARK    2  A    between atoms: C2'_3  and  C1'_4 
REMARK    3  A    between atoms: C1'_4  and  C1_5 
ROOT
ATOM      1  C1  N4B d   1      -0.175   0.185  -0.204  0.00  0.00    -0.075 A 
ATOM      2  C2  N4B d   1       1.057   0.537   0.390  0.00  0.00     0.002 A 
ATOM      3  C3  N4B d   1       2.013  -0.425   0.608  0.00  0.00     0.002 A 
ATOM      4  C4  N4B d   1       1.754  -1.742   0.259  0.00  0.00    -0.004 A 
ATOM      5  C5  N4B d   1       0.571  -2.068  -0.338  0.00  0.00     0.002 A 
ATOM      6  C6  N4B d   1      -0.397  -1.112  -0.566  0.00  0.00     0.002 A 
ENDROOT
BRANCH   1   7
ATOM      7  C1' N4B d   1      -1.284   1.186  -0.384  0.00  0.00     0.057 C 
BRANCH   7   8
ATOM      8  C2' N4B d   1      -2.240   1.091   0.801  0.00  0.00     0.009 C 
BRANCH   8   9
ATOM      9  C3' N4B d   1      -3.692   1.045   0.357  0.00  0.00     0.004 C 
ATOM     10  C4' N4B d   1      -4.556   0.237   1.279  0.00  0.00     0.003 C 
ENDBRANCH   8   9
ENDBRANCH   7   8
ENDBRANCH   1   7
TORSDOF 3
ENDMDL
