MODEL 1
REMARK minimizedAffinity 6.59766674
REMARK minimizedRMSD -1
REMARK  3 active torsions:
REMARK  status: ('A' for Active; 'I' for Inactive)
REMARK    1  A    between atoms: C3'_2  and  C2'_3 
REMARK    2  A    between atoms: C2'_3  and  C1'_4 
REMARK    3  A    between atoms: C1'_4  and  C1_5 
ROOT
ATOM      1  C1  N4B d   1      -3.637   3.051  -1.757  0.00  0.00    -0.075 A 
ATOM      2  C2  N4B d   1      -2.388   3.405  -2.313  0.00  0.00     0.002 A 
ATOM      3  C3  N4B d   1      -2.325   3.938  -3.577  0.00  0.00     0.002 A 
ATOM      4  C4  N4B d   1      -3.491   4.109  -4.308  0.00  0.00    -0.004 A 
ATOM      5  C5  N4B d   1      -4.696   3.788  -3.753  0.00  0.00     0.002 A 
ATOM      6  C6  N4B d   1      -4.774   3.255  -2.483  0.00  0.00     0.002 A 
ENDROOT
BRANCH   1   7
ATOM      7  C1' N4B d   1      -3.748   2.385  -0.412  0.00  0.00     0.057 C 
BRANCH   7   8
ATOM      8  C2' N4B d   1      -3.725   0.871  -0.600  0.00  0.00     0.009 C 
BRANCH   8   9
ATOM      9  C3' N4B d   1      -4.189   0.137   0.646  0.00  0.00     0.004 C 
ATOM     10  C4' N4B d   1      -4.284   1.032   1.846  0.00  0.00     0.003 C 
ENDBRANCH   8   9
ENDBRANCH   7   8
ENDBRANCH   1   7
TORSDOF 3
ENDMDL
