MODEL 1
REMARK minimizedAffinity -0.753028154
REMARK minimizedRMSD -1
REMARK  0 active torsions:
REMARK  status: ('A' for Active; 'I' for Inactive)
ROOT
ATOM      1  C   UNL d   1       3.041  -5.998  -4.768  0.00  0.00     0.077 C 
ATOM      2  C1  UNL d   1       3.244  -4.571  -4.352  0.00  0.00    -0.074 A 
ATOM      3  C2  UNL d   1       3.149  -4.193  -3.009  0.00  0.00    -0.005 A 
ATOM      4  C3  UNL d   1       3.349  -2.864  -2.637  0.00  0.00     0.006 A 
ATOM      5  C4  UNL d   1       3.645  -1.901  -3.603  0.00  0.00    -0.005 A 
ATOM      6  C5  UNL d   1       3.745  -2.260  -4.950  0.00  0.00    -0.074 A 
ATOM      7  C6  UNL d   1       4.073  -1.240  -5.999  0.00  0.00     0.077 C 
ATOM      8  C7  UNL d   1       3.550  -3.599  -5.316  0.00  0.00    -0.001 A 
ENDROOT
TORSDOF 0
ENDMDL
