MODEL 1
REMARK minimizedAffinity 0.555767953
REMARK minimizedRMSD -1
REMARK  0 active torsions:
REMARK  status: ('A' for Active; 'I' for Inactive)
ROOT
ATOM      1  C   UNL d   1      -0.037  -1.525  -0.521  0.00  0.00     0.077 C 
ATOM      2  C1  UNL d   1       0.479  -0.232   0.038  0.00  0.00    -0.074 A 
ATOM      3  C2  UNL d   1       1.678  -0.187   0.757  0.00  0.00    -0.005 A 
ATOM      4  C3  UNL d   1       2.150   1.024   1.263  0.00  0.00     0.006 A 
ATOM      5  C4  UNL d   1       1.429   2.201   1.055  0.00  0.00    -0.005 A 
ATOM      6  C5  UNL d   1       0.229   2.175   0.338  0.00  0.00    -0.074 A 
ATOM      7  C6  UNL d   1      -0.552   3.433   0.096  0.00  0.00     0.077 C 
ATOM      8  C7  UNL d   1      -0.235   0.956  -0.173  0.00  0.00    -0.001 A 
ENDROOT
TORSDOF 0
ENDMDL
