MODEL 1
REMARK minimizedAffinity 2.48886871
REMARK minimizedRMSD -1
REMARK  0 active torsions:
REMARK  status: ('A' for Active; 'I' for Inactive)
ROOT
ATOM      1  C   UNL d   1       1.820   2.877   0.010  0.00  0.00     0.077 C 
ATOM      2  C1  UNL d   1       1.342   1.588   0.610  0.00  0.00    -0.074 A 
ATOM      3  C2  UNL d   1       0.289   0.873   0.032  0.00  0.00    -0.005 A 
ATOM      4  C3  UNL d   1      -0.138  -0.330   0.596  0.00  0.00     0.006 A 
ATOM      5  C4  UNL d   1       0.484  -0.829   1.741  0.00  0.00    -0.005 A 
ATOM      6  C5  UNL d   1       1.540  -0.128   2.333  0.00  0.00    -0.074 A 
ATOM      7  C6  UNL d   1       2.225  -0.655   3.558  0.00  0.00     0.077 C 
ATOM      8  C7  UNL d   1       1.967   1.076   1.756  0.00  0.00    -0.001 A 
ENDROOT
TORSDOF 0
ENDMDL
