MODEL 1
REMARK minimizedAffinity 1.29395401
REMARK minimizedRMSD -1
REMARK  0 active torsions:
REMARK  status: ('A' for Active; 'I' for Inactive)
ROOT
ATOM      1  C   UNL d   1      -1.618  -1.759   0.246  0.00  0.00     0.077 C 
ATOM      2  C1  UNL d   1      -2.118  -1.569  -1.156  0.00  0.00    -0.074 A 
ATOM      3  C2  UNL d   1      -2.178  -2.643  -2.049  0.00  0.00    -0.005 A 
ATOM      4  C3  UNL d   1      -2.655  -2.453  -3.346  0.00  0.00     0.006 A 
ATOM      5  C4  UNL d   1      -3.075  -1.189  -3.762  0.00  0.00    -0.005 A 
ATOM      6  C5  UNL d   1      -3.023  -0.103  -2.883  0.00  0.00    -0.074 A 
ATOM      7  C6  UNL d   1      -3.480   1.259  -3.311  0.00  0.00     0.077 C 
ATOM      8  C7  UNL d   1      -2.549  -0.304  -1.579  0.00  0.00    -0.001 A 
ENDROOT
TORSDOF 0
ENDMDL
