MODEL 1
REMARK minimizedAffinity 7.47214413
REMARK minimizedRMSD -1
REMARK  0 active torsions:
REMARK  status: ('A' for Active; 'I' for Inactive)
ROOT
ATOM      1  C   UNL d   1      -1.844   2.035  -0.553  0.00  0.00     0.077 C 
ATOM      2  C1  UNL d   1      -0.478   1.567  -0.145  0.00  0.00    -0.074 A 
ATOM      3  C2  UNL d   1       0.631   2.414  -0.242  0.00  0.00    -0.005 A 
ATOM      4  C3  UNL d   1       1.893   1.967   0.150  0.00  0.00     0.006 A 
ATOM      5  C4  UNL d   1       2.058   0.672   0.643  0.00  0.00    -0.005 A 
ATOM      6  C5  UNL d   1       0.961  -0.188   0.748  0.00  0.00    -0.074 A 
ATOM      7  C6  UNL d   1       1.120  -1.580   1.285  0.00  0.00     0.077 C 
ATOM      8  C7  UNL d   1      -0.305   0.270   0.359  0.00  0.00    -0.001 A 
ENDROOT
TORSDOF 0
ENDMDL
