MODEL 1
REMARK minimizedAffinity -1.78902435
REMARK minimizedRMSD -1
REMARK  0 active torsions:
REMARK  status: ('A' for Active; 'I' for Inactive)
ROOT
ATOM      1  C   UNL d   1      -0.468  -0.602   0.145  0.00  0.00     0.077 C 
ATOM      2  C1  UNL d   1       0.657  -0.058   0.974  0.00  0.00    -0.074 A 
ATOM      3  C2  UNL d   1       1.378   1.066   0.559  0.00  0.00    -0.005 A 
ATOM      4  C3  UNL d   1       2.416   1.567   1.345  0.00  0.00     0.006 A 
ATOM      5  C4  UNL d   1       2.743   0.949   2.553  0.00  0.00    -0.005 A 
ATOM      6  C5  UNL d   1       2.033  -0.175   2.985  0.00  0.00    -0.074 A 
ATOM      7  C6  UNL d   1       2.365  -0.845   4.285  0.00  0.00     0.077 C 
ATOM      8  C7  UNL d   1       0.987  -0.668   2.193  0.00  0.00    -0.001 A 
ENDROOT
TORSDOF 0
ENDMDL
