MODEL 1
REMARK minimizedAffinity -0.409304172
REMARK minimizedRMSD -1
REMARK  0 active torsions:
REMARK  status: ('A' for Active; 'I' for Inactive)
ROOT
ATOM      1  C   UNL d   1       3.197   1.137   1.893  0.00  0.00     0.077 C 
ATOM      2  C1  UNL d   1       1.769   1.001   1.455  0.00  0.00    -0.074 A 
ATOM      3  C2  UNL d   1       1.019   2.124   1.091  0.00  0.00    -0.005 A 
ATOM      4  C3  UNL d   1      -0.305   1.980   0.677  0.00  0.00     0.006 A 
ATOM      5  C4  UNL d   1      -0.892   0.715   0.622  0.00  0.00    -0.005 A 
ATOM      6  C5  UNL d   1      -0.157  -0.419   0.982  0.00  0.00    -0.074 A 
ATOM      7  C6  UNL d   1      -0.769  -1.787   0.920  0.00  0.00     0.077 C 
ATOM      8  C7  UNL d   1       1.176  -0.268   1.390  0.00  0.00    -0.001 A 
ENDROOT
TORSDOF 0
ENDMDL
