MODEL 1
REMARK minimizedAffinity -4.89136982
REMARK minimizedRMSD -1
REMARK  0 active torsions:
REMARK  status: ('A' for Active; 'I' for Inactive)
ROOT
ATOM      1  C2' OXE d   1      -0.988   0.847  -0.243  0.00  0.00     0.078 C 
ATOM      2  C1' OXE d   1       0.509   3.222  -0.275  0.00  0.00     0.078 C 
ATOM      3  C1  OXE d   1      -0.226   2.837  -1.534  0.00  0.00    -0.078 A 
ATOM      4  C2  OXE d   1      -0.918   1.650  -1.524  0.00  0.00    -0.078 A 
ATOM      5  C3  OXE d   1      -1.658   1.274  -2.642  0.00  0.00     0.003 A 
ATOM      6  C4  OXE d   1      -1.581   2.017  -3.826  0.00  0.00    -0.002 A 
ATOM      7  C5  OXE d   1      -0.849   3.209  -3.870  0.00  0.00    -0.002 A 
ATOM      8  C6  OXE d   1      -0.203   3.654  -2.722  0.00  0.00     0.003 A 
ENDROOT
TORSDOF 0
ENDMDL
