MODEL 1
REMARK minimizedAffinity -2.40937495
REMARK minimizedRMSD -1
REMARK  0 active torsions:
REMARK  status: ('A' for Active; 'I' for Inactive)
ROOT
ATOM      1  C2' OXE d   1      -0.040  -1.276   0.990  0.00  0.00     0.078 C 
ATOM      2  C1' OXE d   1      -1.880   0.833   1.213  0.00  0.00     0.078 C 
ATOM      3  C1  OXE d   1      -1.349   0.504  -0.160  0.00  0.00    -0.078 A 
ATOM      4  C2  OXE d   1      -0.414  -0.498  -0.253  0.00  0.00    -0.078 A 
ATOM      5  C3  OXE d   1       0.067  -0.878  -1.503  0.00  0.00     0.003 A 
ATOM      6  C4  OXE d   1      -0.276  -0.147  -2.647  0.00  0.00    -0.002 A 
ATOM      7  C5  OXE d   1      -1.196   0.903  -2.568  0.00  0.00    -0.002 A 
ATOM      8  C6  OXE d   1      -1.773   1.214  -1.342  0.00  0.00     0.003 A 
ENDROOT
TORSDOF 0
ENDMDL
