MODEL 1
REMARK minimizedAffinity 2.87668848
REMARK minimizedRMSD -1
REMARK  0 active torsions:
REMARK  status: ('A' for Active; 'I' for Inactive)
ROOT
ATOM      1  C2' OXE d   1       1.087  -0.346  -1.040  0.00  0.00     0.078 C 
ATOM      2  C1' OXE d   1      -1.307   1.120  -1.025  0.00  0.00     0.078 C 
ATOM      3  C1  OXE d   1      -1.027   0.218   0.151  0.00  0.00    -0.078 A 
ATOM      4  C2  OXE d   1       0.124  -0.531   0.113  0.00  0.00    -0.078 A 
ATOM      5  C3  OXE d   1       0.457  -1.338   1.198  0.00  0.00     0.003 A 
ATOM      6  C4  OXE d   1      -0.443  -1.511   2.256  0.00  0.00    -0.002 A 
ATOM      7  C5  OXE d   1      -1.640  -0.787   2.294  0.00  0.00    -0.002 A 
ATOM      8  C6  OXE d   1      -1.927   0.112   1.273  0.00  0.00     0.003 A 
ENDROOT
TORSDOF 0
ENDMDL
