MODEL 1
REMARK minimizedAffinity -4.8188839
REMARK minimizedRMSD -1
REMARK  0 active torsions:
REMARK  status: ('A' for Active; 'I' for Inactive)
ROOT
ATOM      1  C2' OXE d   1       2.789   3.415   0.264  0.00  0.00     0.078 C 
ATOM      2  C1' OXE d   1       0.149   4.357   0.411  0.00  0.00     0.078 C 
ATOM      3  C1  OXE d   1       0.357   2.882   0.174  0.00  0.00    -0.078 A 
ATOM      4  C2  OXE d   1       1.652   2.437   0.057  0.00  0.00    -0.078 A 
ATOM      5  C3  OXE d   1       1.902   1.078  -0.107  0.00  0.00     0.003 A 
ATOM      6  C4  OXE d   1       0.844   0.182  -0.308  0.00  0.00    -0.002 A 
ATOM      7  C5  OXE d   1      -0.482   0.621  -0.232  0.00  0.00    -0.002 A 
ATOM      8  C6  OXE d   1      -0.742   1.958   0.050  0.00  0.00     0.003 A 
ENDROOT
TORSDOF 0
ENDMDL
