MODEL 1
REMARK minimizedAffinity -2.10474229
REMARK minimizedRMSD -1
REMARK  0 active torsions:
REMARK  status: ('A' for Active; 'I' for Inactive)
ROOT
ATOM      1  C2' OXE d   1      -3.636   0.387  -3.784  0.00  0.00     0.078 C 
ATOM      2  C1' OXE d   1      -1.432  -0.490  -2.284  0.00  0.00     0.078 C 
ATOM      3  C1  OXE d   1      -1.387   0.908  -2.848  0.00  0.00    -0.078 A 
ATOM      4  C2  OXE d   1      -2.450   1.313  -3.619  0.00  0.00    -0.078 A 
ATOM      5  C3  OXE d   1      -2.484   2.612  -4.118  0.00  0.00     0.003 A 
ATOM      6  C4  OXE d   1      -1.379   3.457  -3.970  0.00  0.00    -0.002 A 
ATOM      7  C5  OXE d   1      -0.269   3.051  -3.221  0.00  0.00    -0.002 A 
ATOM      8  C6  OXE d   1      -0.276   1.798  -2.619  0.00  0.00     0.003 A 
ENDROOT
TORSDOF 0
ENDMDL
