MODEL 1
REMARK minimizedAffinity -2.93566346
REMARK minimizedRMSD -1
REMARK  0 active torsions:
REMARK  status: ('A' for Active; 'I' for Inactive)
ROOT
ATOM      1  C2' OXE d   1       0.652   4.655   0.720  0.00  0.00     0.078 C 
ATOM      2  C1' OXE d   1       3.194   3.574   0.220  0.00  0.00     0.078 C 
ATOM      3  C1  OXE d   1       2.001   2.660   0.085  0.00  0.00    -0.078 A 
ATOM      4  C2  OXE d   1       0.766   3.186   0.377  0.00  0.00    -0.078 A 
ATOM      5  C3  OXE d   1      -0.373   2.401   0.215  0.00  0.00     0.003 A 
ATOM      6  C4  OXE d   1      -0.258   1.040  -0.093  0.00  0.00    -0.002 A 
ATOM      7  C5  OXE d   1       0.994   0.475  -0.356  0.00  0.00    -0.002 A 
ATOM      8  C6  OXE d   1       2.128   1.280  -0.313  0.00  0.00     0.003 A 
ENDROOT
TORSDOF 0
ENDMDL
