MODEL 1
REMARK minimizedAffinity -2.56329155
REMARK minimizedRMSD -1
REMARK  0 active torsions:
REMARK  status: ('A' for Active; 'I' for Inactive)
ROOT
ATOM      1  C2' OXE d   1       1.462   1.304  -0.420  0.00  0.00     0.078 C 
ATOM      2  C1' OXE d   1      -0.667   0.074  -1.774  0.00  0.00     0.078 C 
ATOM      3  C1  OXE d   1       0.087  -0.745  -0.756  0.00  0.00    -0.078 A 
ATOM      4  C2  OXE d   1       1.157  -0.150  -0.132  0.00  0.00    -0.078 A 
ATOM      5  C3  OXE d   1       1.852  -0.843   0.854  0.00  0.00     0.003 A 
ATOM      6  C4  OXE d   1       1.570  -2.191   1.107  0.00  0.00    -0.002 A 
ATOM      7  C5  OXE d   1       0.510  -2.828   0.454  0.00  0.00    -0.002 A 
ATOM      8  C6  OXE d   1      -0.267  -2.109  -0.447  0.00  0.00     0.003 A 
ENDROOT
TORSDOF 0
ENDMDL
