MODEL 1
REMARK minimizedAffinity -3.837749
REMARK minimizedRMSD -1
REMARK  0 active torsions:
REMARK  status: ('A' for Active; 'I' for Inactive)
ROOT
ATOM      1  C2' OXE d   1       1.228  -0.453  -0.676  0.00  0.00     0.078 C 
ATOM      2  C1' OXE d   1      -1.101   1.115  -0.713  0.00  0.00     0.078 C 
ATOM      3  C1  OXE d   1       0.197   1.790  -0.344  0.00  0.00    -0.078 A 
ATOM      4  C2  OXE d   1       1.323   1.005  -0.283  0.00  0.00    -0.078 A 
ATOM      5  C3  OXE d   1       2.555   1.588  -0.001  0.00  0.00     0.003 A 
ATOM      6  C4  OXE d   1       2.633   2.936   0.372  0.00  0.00    -0.002 A 
ATOM      7  C5  OXE d   1       1.491   3.744   0.355  0.00  0.00    -0.002 A 
ATOM      8  C6  OXE d   1       0.275   3.198  -0.041  0.00  0.00     0.003 A 
ENDROOT
TORSDOF 0
ENDMDL
