MODEL 1
REMARK minimizedAffinity -3.33074927
REMARK minimizedRMSD -1
REMARK  0 active torsions:
REMARK  status: ('A' for Active; 'I' for Inactive)
ROOT
ATOM      1  C2' OXE d   1      -1.016   3.715  -2.217  0.00  0.00     0.078 C 
ATOM      2  C1' OXE d   1      -1.510   1.588  -0.454  0.00  0.00     0.078 C 
ATOM      3  C1  OXE d   1      -1.936   1.423  -1.892  0.00  0.00    -0.078 A 
ATOM      4  C2  OXE d   1      -1.732   2.488  -2.737  0.00  0.00    -0.078 A 
ATOM      5  C3  OXE d   1      -2.056   2.369  -4.085  0.00  0.00     0.003 A 
ATOM      6  C4  OXE d   1      -2.727   1.234  -4.556  0.00  0.00    -0.002 A 
ATOM      7  C5  OXE d   1      -2.980   0.154  -3.703  0.00  0.00    -0.002 A 
ATOM      8  C6  OXE d   1      -2.554   0.216  -2.381  0.00  0.00     0.003 A 
ENDROOT
TORSDOF 0
ENDMDL
