MODEL 1
REMARK minimizedAffinity -1.29330182
REMARK minimizedRMSD -1
REMARK  0 active torsions:
REMARK  status: ('A' for Active; 'I' for Inactive)
ROOT
ATOM      1  C2' OXE d   1       1.340  -1.196   0.859  0.00  0.00     0.078 C 
ATOM      2  C1' OXE d   1      -1.307  -0.569   1.555  0.00  0.00     0.078 C 
ATOM      3  C1  OXE d   1      -0.894  -0.381   0.116  0.00  0.00    -0.078 A 
ATOM      4  C2  OXE d   1       0.415  -0.646  -0.206  0.00  0.00    -0.078 A 
ATOM      5  C3  OXE d   1       0.834  -0.541  -1.529  0.00  0.00     0.003 A 
ATOM      6  C4  OXE d   1      -0.025  -0.022  -2.506  0.00  0.00    -0.002 A 
ATOM      7  C5  OXE d   1      -1.351   0.292  -2.190  0.00  0.00    -0.002 A 
ATOM      8  C6  OXE d   1      -1.813   0.078  -0.896  0.00  0.00     0.003 A 
ENDROOT
TORSDOF 0
ENDMDL
