MODEL 1
REMARK minimizedAffinity -4.69363737
REMARK minimizedRMSD -1
REMARK  0 active torsions:
REMARK  status: ('A' for Active; 'I' for Inactive)
ROOT
ATOM      1  C2' OXE d   1      -0.101  -0.655  -0.876  0.00  0.00     0.078 C 
ATOM      2  C1' OXE d   1      -1.617   1.681  -0.527  0.00  0.00     0.078 C 
ATOM      3  C1  OXE d   1      -0.130   1.765  -0.287  0.00  0.00    -0.078 A 
ATOM      4  C2  OXE d   1       0.597   0.606  -0.415  0.00  0.00    -0.078 A 
ATOM      5  C3  OXE d   1       1.980   0.640  -0.259  0.00  0.00     0.003 A 
ATOM      6  C4  OXE d   1       2.616   1.808   0.176  0.00  0.00    -0.002 A 
ATOM      7  C5  OXE d   1       1.888   2.990   0.351  0.00  0.00    -0.002 A 
ATOM      8  C6  OXE d   1       0.524   2.996   0.083  0.00  0.00     0.003 A 
ENDROOT
TORSDOF 0
ENDMDL
