MODEL 1
REMARK minimizedAffinity -0.166546777
REMARK minimizedRMSD -1
REMARK  0 active torsions:
REMARK  status: ('A' for Active; 'I' for Inactive)
ROOT
ATOM      1  C2' OXE d   1       2.265   0.450   0.004  0.00  0.00     0.078 C 
ATOM      2  C1' OXE d   1       2.646  -1.765   1.686  0.00  0.00     0.078 C 
ATOM      3  C1  OXE d   1       1.241  -1.464   1.227  0.00  0.00    -0.078 A 
ATOM      4  C2  OXE d   1       1.057  -0.351   0.443  0.00  0.00    -0.078 A 
ATOM      5  C3  OXE d   1      -0.210  -0.058  -0.053  0.00  0.00     0.003 A 
ATOM      6  C4  OXE d   1      -1.323  -0.798   0.365  0.00  0.00    -0.002 A 
ATOM      7  C5  OXE d   1      -1.163  -1.912   1.196  0.00  0.00    -0.002 A 
ATOM      8  C6  OXE d   1       0.115  -2.283   1.600  0.00  0.00     0.003 A 
ENDROOT
TORSDOF 0
ENDMDL
