MODEL 1
REMARK minimizedAffinity -4.49474764
REMARK minimizedRMSD -1
REMARK  0 active torsions:
REMARK  status: ('A' for Active; 'I' for Inactive)
ROOT
ATOM      1  C2' OXE d   1      -0.286   0.577  -0.083  0.00  0.00     0.078 C 
ATOM      2  C1' OXE d   1      -0.943  -1.351   1.849  0.00  0.00     0.078 C 
ATOM      3  C1  OXE d   1       0.277  -1.597   0.996  0.00  0.00    -0.078 A 
ATOM      4  C2  OXE d   1       0.564  -0.671   0.022  0.00  0.00    -0.078 A 
ATOM      5  C3  OXE d   1       1.709  -0.821  -0.756  0.00  0.00     0.003 A 
ATOM      6  C4  OXE d   1       2.484  -1.983  -0.659  0.00  0.00    -0.002 A 
ATOM      7  C5  OXE d   1       2.186  -2.957   0.299  0.00  0.00    -0.002 A 
ATOM      8  C6  OXE d   1       1.114  -2.759   1.162  0.00  0.00     0.003 A 
ENDROOT
TORSDOF 0
ENDMDL
