MODEL 1
REMARK minimizedAffinity -4.36879158
REMARK minimizedRMSD -1
REMARK  0 active torsions:
REMARK  status: ('A' for Active; 'I' for Inactive)
ROOT
ATOM      1  C2' OXE d   1       2.233  -0.115  -1.267  0.00  0.00     0.078 C 
ATOM      2  C1' OXE d   1      -0.362   0.629  -0.500  0.00  0.00     0.078 C 
ATOM      3  C1  OXE d   1       0.257  -0.566   0.180  0.00  0.00    -0.078 A 
ATOM      4  C2  OXE d   1       1.509  -0.951  -0.234  0.00  0.00    -0.078 A 
ATOM      5  C3  OXE d   1       2.148  -2.014   0.398  0.00  0.00     0.003 A 
ATOM      6  C4  OXE d   1       1.467  -2.788   1.345  0.00  0.00    -0.002 A 
ATOM      7  C5  OXE d   1       0.176  -2.438   1.753  0.00  0.00    -0.002 A 
ATOM      8  C6  OXE d   1      -0.426  -1.307   1.213  0.00  0.00     0.003 A 
ENDROOT
TORSDOF 0
ENDMDL
