MODEL 1
REMARK minimizedAffinity -3.80603719
REMARK minimizedRMSD -1
REMARK  0 active torsions:
REMARK  status: ('A' for Active; 'I' for Inactive)
ROOT
ATOM      1  C2' OXE d   1      -1.764   0.548   1.514  0.00  0.00     0.078 C 
ATOM      2  C1' OXE d   1      -1.430   1.129  -1.212  0.00  0.00     0.078 C 
ATOM      3  C1  OXE d   1      -0.683  -0.054  -0.648  0.00  0.00    -0.078 A 
ATOM      4  C2  OXE d   1      -0.815  -0.302   0.697  0.00  0.00    -0.078 A 
ATOM      5  C3  OXE d   1      -0.190  -1.413   1.257  0.00  0.00     0.003 A 
ATOM      6  C4  OXE d   1       0.693  -2.188   0.496  0.00  0.00    -0.002 A 
ATOM      7  C5  OXE d   1       0.873  -1.928  -0.866  0.00  0.00    -0.002 A 
ATOM      8  C6  OXE d   1       0.162  -0.893  -1.462  0.00  0.00     0.003 A 
ENDROOT
TORSDOF 0
ENDMDL
