MODEL 1
REMARK minimizedAffinity -3.3919394
REMARK minimizedRMSD -1
REMARK  0 active torsions:
REMARK  status: ('A' for Active; 'I' for Inactive)
ROOT
ATOM      1  C2' OXE d   1       3.500   3.031  -0.541  0.00  0.00     0.078 C 
ATOM      2  C1' OXE d   1       1.101   4.148   0.395  0.00  0.00     0.078 C 
ATOM      3  C1  OXE d   1       1.100   2.685   0.031  0.00  0.00    -0.078 A 
ATOM      4  C2  OXE d   1       2.266   2.158  -0.471  0.00  0.00    -0.078 A 
ATOM      5  C3  OXE d   1       2.336   0.800  -0.771  0.00  0.00     0.003 A 
ATOM      6  C4  OXE d   1       1.187   0.001  -0.712  0.00  0.00    -0.002 A 
ATOM      7  C5  OXE d   1      -0.020   0.528  -0.242  0.00  0.00    -0.002 A 
ATOM      8  C6  OXE d   1      -0.070   1.854   0.173  0.00  0.00     0.003 A 
ENDROOT
TORSDOF 0
ENDMDL
