MODEL 1
REMARK minimizedAffinity -3.95883703
REMARK minimizedRMSD -1
REMARK  0 active torsions:
REMARK  status: ('A' for Active; 'I' for Inactive)
ROOT
ATOM      1  C2' OXE d   1       1.033   4.759   0.640  0.00  0.00     0.078 C 
ATOM      2  C1' OXE d   1       3.678   4.227  -0.134  0.00  0.00     0.078 C 
ATOM      3  C1  OXE d   1       2.709   3.073  -0.104  0.00  0.00    -0.078 A 
ATOM      4  C2  OXE d   1       1.428   3.333   0.321  0.00  0.00    -0.078 A 
ATOM      5  C3  OXE d   1       0.479   2.315   0.315  0.00  0.00     0.003 A 
ATOM      6  C4  OXE d   1       0.855   0.997   0.027  0.00  0.00    -0.002 A 
ATOM      7  C5  OXE d   1       2.164   0.703  -0.370  0.00  0.00    -0.002 A 
ATOM      8  C6  OXE d   1       3.090   1.734  -0.481  0.00  0.00     0.003 A 
ENDROOT
TORSDOF 0
ENDMDL
