MODEL 1
REMARK minimizedAffinity -2.81370974
REMARK minimizedRMSD -1
REMARK  0 active torsions:
REMARK  status: ('A' for Active; 'I' for Inactive)
ROOT
ATOM      1  C2' OXE d   1       0.787  -2.379   1.237  0.00  0.00     0.078 C 
ATOM      2  C1' OXE d   1      -1.571  -1.439   2.437  0.00  0.00     0.078 C 
ATOM      3  C1  OXE d   1      -1.046  -0.692   1.237  0.00  0.00    -0.078 A 
ATOM      4  C2  OXE d   1       0.133  -1.131   0.685  0.00  0.00    -0.078 A 
ATOM      5  C3  OXE d   1       0.632  -0.511  -0.457  0.00  0.00     0.003 A 
ATOM      6  C4  OXE d   1       0.027   0.649  -0.956  0.00  0.00    -0.002 A 
ATOM      7  C5  OXE d   1      -1.153   1.137  -0.384  0.00  0.00    -0.002 A 
ATOM      8  C6  OXE d   1      -1.725   0.454   0.684  0.00  0.00     0.003 A 
ENDROOT
TORSDOF 0
ENDMDL
