MODEL 1
REMARK minimizedAffinity -3.82980657
REMARK minimizedRMSD -1
REMARK  0 active torsions:
REMARK  status: ('A' for Active; 'I' for Inactive)
ROOT
ATOM      1  C2' OXE d   1       2.383   0.787  -0.544  0.00  0.00     0.078 C 
ATOM      2  C1' OXE d   1      -0.360   0.293  -0.879  0.00  0.00     0.078 C 
ATOM      3  C1  OXE d   1       0.464  -0.758  -0.177  0.00  0.00    -0.078 A 
ATOM      4  C2  OXE d   1       1.814  -0.529  -0.059  0.00  0.00    -0.078 A 
ATOM      5  C3  OXE d   1       2.610  -1.440   0.628  0.00  0.00     0.003 A 
ATOM      6  C4  OXE d   1       2.077  -2.659   1.065  0.00  0.00    -0.002 A 
ATOM      7  C5  OXE d   1       0.713  -2.930   0.919  0.00  0.00    -0.002 A 
ATOM      8  C6  OXE d   1      -0.114  -1.974   0.340  0.00  0.00     0.003 A 
ENDROOT
TORSDOF 0
ENDMDL
