MODEL 1
REMARK minimizedAffinity -3.22377419
REMARK minimizedRMSD -1
REMARK  0 active torsions:
REMARK  status: ('A' for Active; 'I' for Inactive)
ROOT
ATOM      1  C2' OXE d   1       1.809  -0.514  -0.540  0.00  0.00     0.078 C 
ATOM      2  C1' OXE d   1       1.242  -2.858   0.897  0.00  0.00     0.078 C 
ATOM      3  C1  OXE d   1       0.273  -1.708   1.016  0.00  0.00    -0.078 A 
ATOM      4  C2  OXE d   1       0.583  -0.549   0.347  0.00  0.00    -0.078 A 
ATOM      5  C3  OXE d   1      -0.304   0.524   0.379  0.00  0.00     0.003 A 
ATOM      6  C4  OXE d   1      -1.430   0.487   1.210  0.00  0.00    -0.002 A 
ATOM      7  C5  OXE d   1      -1.743  -0.670   1.931  0.00  0.00    -0.002 A 
ATOM      8  C6  OXE d   1      -0.926  -1.789   1.812  0.00  0.00     0.003 A 
ENDROOT
TORSDOF 0
ENDMDL
