MODEL 1
REMARK minimizedAffinity -3.53285408
REMARK minimizedRMSD -1
REMARK  0 active torsions:
REMARK  status: ('A' for Active; 'I' for Inactive)
ROOT
ATOM      1  C   UNL d   1       0.355  -1.777  -3.019  0.00  0.00     0.077 C 
ATOM      2  C1  UNL d   1      -0.034  -0.960  -1.822  0.00  0.00    -0.074 A 
ATOM      3  C2  UNL d   1      -1.305  -0.386  -1.726  0.00  0.00    -0.005 A 
ATOM      4  C3  UNL d   1      -1.656   0.363  -0.603  0.00  0.00     0.006 A 
ATOM      5  C4  UNL d   1      -0.739   0.545   0.434  0.00  0.00    -0.005 A 
ATOM      6  C5  UNL d   1       0.536  -0.023   0.356  0.00  0.00    -0.074 A 
ATOM      7  C6  UNL d   1       1.530   0.155   1.465  0.00  0.00     0.077 C 
ATOM      8  C7  UNL d   1       0.878  -0.780  -0.773  0.00  0.00    -0.001 A 
ENDROOT
TORSDOF 0
ENDMDL
