MODEL 1
REMARK minimizedAffinity -5.36468029
REMARK minimizedRMSD -1
REMARK  0 active torsions:
REMARK  status: ('A' for Active; 'I' for Inactive)
ROOT
ATOM      1  C   UNL d   1       0.911   0.213  -2.273  0.00  0.00     0.077 C 
ATOM      2  C1  UNL d   1      -0.306   0.085  -1.407  0.00  0.00    -0.074 A 
ATOM      3  C2  UNL d   1      -1.581   0.361  -1.912  0.00  0.00    -0.005 A 
ATOM      4  C3  UNL d   1      -2.705   0.228  -1.097  0.00  0.00     0.006 A 
ATOM      5  C4  UNL d   1      -2.566  -0.182   0.229  0.00  0.00    -0.005 A 
ATOM      6  C5  UNL d   1      -1.300  -0.464   0.752  0.00  0.00    -0.074 A 
ATOM      7  C6  UNL d   1      -1.134  -0.915   2.173  0.00  0.00     0.077 C 
ATOM      8  C7  UNL d   1      -0.176  -0.334  -0.075  0.00  0.00    -0.001 A 
ENDROOT
TORSDOF 0
ENDMDL
