MODEL 1
REMARK minimizedAffinity -6.26151514
REMARK minimizedRMSD -1
REMARK  0 active torsions:
REMARK  status: ('A' for Active; 'I' for Inactive)
ROOT
ATOM      1  C   UNL d   1       1.510   0.365   0.757  0.00  0.00     0.077 C 
ATOM      2  C1  UNL d   1       0.250   0.071   1.515  0.00  0.00    -0.074 A 
ATOM      3  C2  UNL d   1       0.288  -0.258   2.874  0.00  0.00    -0.005 A 
ATOM      4  C3  UNL d   1      -0.893  -0.520   3.568  0.00  0.00     0.006 A 
ATOM      5  C4  UNL d   1      -2.123  -0.454   2.912  0.00  0.00    -0.005 A 
ATOM      6  C5  UNL d   1      -2.181  -0.125   1.554  0.00  0.00    -0.074 A 
ATOM      7  C6  UNL d   1      -3.495  -0.040   0.835  0.00  0.00     0.077 C 
ATOM      8  C7  UNL d   1      -0.990   0.143   0.865  0.00  0.00    -0.001 A 
ENDROOT
TORSDOF 0
ENDMDL
