MODEL 1
REMARK minimizedAffinity -4.13549805
REMARK minimizedRMSD -1
REMARK  0 active torsions:
REMARK  status: ('A' for Active; 'I' for Inactive)
ROOT
ATOM      1  C   UNL d   1      -3.744  -0.295   1.830  0.00  0.00     0.077 C 
ATOM      2  C1  UNL d   1      -2.257  -0.131   1.737  0.00  0.00    -0.074 A 
ATOM      3  C2  UNL d   1      -1.435  -0.382   2.841  0.00  0.00    -0.005 A 
ATOM      4  C3  UNL d   1      -0.052  -0.234   2.737  0.00  0.00     0.006 A 
ATOM      5  C4  UNL d   1       0.523   0.166   1.529  0.00  0.00    -0.005 A 
ATOM      6  C5  UNL d   1      -0.283   0.420   0.415  0.00  0.00    -0.074 A 
ATOM      7  C6  UNL d   1       0.320   0.840  -0.893  0.00  0.00     0.077 C 
ATOM      8  C7  UNL d   1      -1.671   0.262   0.525  0.00  0.00    -0.001 A 
ENDROOT
TORSDOF 0
ENDMDL
