MODEL 1
REMARK minimizedAffinity -6.43419361
REMARK minimizedRMSD -1
REMARK  0 active torsions:
REMARK  status: ('A' for Active; 'I' for Inactive)
ROOT
ATOM      1  C   UNL d   1      -1.466  -0.009  -2.164  0.00  0.00     0.077 C 
ATOM      2  C1  UNL d   1      -1.822  -0.003  -0.707  0.00  0.00    -0.074 A 
ATOM      3  C2  UNL d   1      -3.120   0.303  -0.286  0.00  0.00    -0.005 A 
ATOM      4  C3  UNL d   1      -3.438   0.296   1.072  0.00  0.00     0.006 A 
ATOM      5  C4  UNL d   1      -2.464  -0.017   2.021  0.00  0.00    -0.005 A 
ATOM      6  C5  UNL d   1      -1.161  -0.327   1.618  0.00  0.00    -0.074 A 
ATOM      7  C6  UNL d   1      -0.104  -0.675   2.624  0.00  0.00     0.077 C 
ATOM      8  C7  UNL d   1      -0.851  -0.324   0.251  0.00  0.00    -0.001 A 
ENDROOT
TORSDOF 0
ENDMDL
