MODEL 1
REMARK minimizedAffinity -6.68788481
REMARK minimizedRMSD -1
REMARK  0 active torsions:
REMARK  status: ('A' for Active; 'I' for Inactive)
ROOT
ATOM      1  C   UNL d   1      -0.015  -0.015  -1.505  0.00  0.00     0.077 C 
ATOM      2  C1  UNL d   1      -0.961   0.000  -0.341  0.00  0.00    -0.074 A 
ATOM      3  C2  UNL d   1      -2.299   0.370  -0.507  0.00  0.00    -0.005 A 
ATOM      4  C3  UNL d   1      -3.169   0.371   0.584  0.00  0.00     0.006 A 
ATOM      5  C4  UNL d   1      -2.710   0.002   1.849  0.00  0.00    -0.005 A 
ATOM      6  C5  UNL d   1      -1.375  -0.371   2.034  0.00  0.00    -0.074 A 
ATOM      7  C6  UNL d   1      -0.868  -0.780   3.385  0.00  0.00     0.077 C 
ATOM      8  C7  UNL d   1      -0.509  -0.376   0.932  0.00  0.00    -0.001 A 
ENDROOT
TORSDOF 0
ENDMDL
