MODEL 1
REMARK minimizedAffinity -6.63610888
REMARK minimizedRMSD -1
REMARK  0 active torsions:
REMARK  status: ('A' for Active; 'I' for Inactive)
ROOT
ATOM      1  C   UNL d   1      -3.658  -0.150   2.300  0.00  0.00     0.077 C 
ATOM      2  C1  UNL d   1      -2.230  -0.130   1.840  0.00  0.00    -0.074 A 
ATOM      3  C2  UNL d   1      -1.178  -0.191   2.760  0.00  0.00    -0.005 A 
ATOM      4  C3  UNL d   1       0.145  -0.182   2.316  0.00  0.00     0.006 A 
ATOM      5  C4  UNL d   1       0.428  -0.112   0.952  0.00  0.00    -0.005 A 
ATOM      6  C5  UNL d   1      -0.611  -0.052   0.018  0.00  0.00    -0.074 A 
ATOM      7  C6  UNL d   1      -0.324   0.014  -1.453  0.00  0.00     0.077 C 
ATOM      8  C7  UNL d   1      -1.938  -0.069   0.471  0.00  0.00    -0.001 A 
ENDROOT
TORSDOF 0
ENDMDL
