MODEL 1
REMARK minimizedAffinity -2.41847134
REMARK minimizedRMSD -1
REMARK  0 active torsions:
REMARK  status: ('A' for Active; 'I' for Inactive)
ROOT
ATOM      1  C   UNL d   1      -1.758  -2.161  -2.602  0.00  0.00     0.077 C 
ATOM      2  C1  UNL d   1      -0.496  -1.358  -2.487  0.00  0.00    -0.074 A 
ATOM      3  C2  UNL d   1       0.383  -1.242  -3.569  0.00  0.00    -0.005 A 
ATOM      4  C3  UNL d   1       1.548  -0.484  -3.451  0.00  0.00     0.006 A 
ATOM      5  C4  UNL d   1       1.845   0.165  -2.252  0.00  0.00    -0.005 A 
ATOM      6  C5  UNL d   1       0.978   0.061  -1.160  0.00  0.00    -0.074 A 
ATOM      7  C6  UNL d   1       1.277   0.761   0.133  0.00  0.00     0.077 C 
ATOM      8  C7  UNL d   1      -0.195  -0.696  -1.289  0.00  0.00    -0.001 A 
ENDROOT
TORSDOF 0
ENDMDL
