MODEL 1
REMARK minimizedAffinity -4.36842346
REMARK minimizedRMSD -1
REMARK  0 active torsions:
REMARK  status: ('A' for Active; 'I' for Inactive)
ROOT
ATOM      1  C   UNL d   1       1.460  -1.186  -3.453  0.00  0.00     0.077 C 
ATOM      2  C1  UNL d   1       0.675  -0.705  -2.269  0.00  0.00    -0.074 A 
ATOM      3  C2  UNL d   1      -0.556  -0.062  -2.436  0.00  0.00    -0.005 A 
ATOM      4  C3  UNL d   1      -1.280   0.371  -1.325  0.00  0.00     0.006 A 
ATOM      5  C4  UNL d   1      -0.781   0.166  -0.038  0.00  0.00    -0.005 A 
ATOM      6  C5  UNL d   1       0.447  -0.475   0.148  0.00  0.00    -0.074 A 
ATOM      7  C6  UNL d   1       0.993  -0.712   1.525  0.00  0.00     0.077 C 
ATOM      8  C7  UNL d   1       1.165  -0.914  -0.973  0.00  0.00    -0.001 A 
ENDROOT
TORSDOF 0
ENDMDL
