MODEL 1
REMARK minimizedAffinity -5.67598343
REMARK minimizedRMSD -1
REMARK  0 active torsions:
REMARK  status: ('A' for Active; 'I' for Inactive)
ROOT
ATOM      1  C   UNL d   1       1.637   0.570   0.833  0.00  0.00     0.077 C 
ATOM      2  C1  UNL d   1       0.271  -0.048   0.792  0.00  0.00    -0.074 A 
ATOM      3  C2  UNL d   1      -0.145  -0.937   1.788  0.00  0.00    -0.005 A 
ATOM      4  C3  UNL d   1      -1.422  -1.497   1.743  0.00  0.00     0.006 A 
ATOM      5  C4  UNL d   1      -2.294  -1.174   0.702  0.00  0.00    -0.005 A 
ATOM      6  C5  UNL d   1      -1.895  -0.286  -0.302  0.00  0.00    -0.074 A 
ATOM      7  C6  UNL d   1      -2.824   0.080  -1.422  0.00  0.00     0.077 C 
ATOM      8  C7  UNL d   1      -0.613   0.278  -0.245  0.00  0.00    -0.001 A 
ENDROOT
TORSDOF 0
ENDMDL
