MODEL 1
REMARK minimizedAffinity -1.36354363
REMARK minimizedRMSD -1
REMARK  0 active torsions:
REMARK  status: ('A' for Active; 'I' for Inactive)
ROOT
ATOM      1  C4' PXY d   1       5.664  -6.000   6.000  0.00  0.00     0.077 C 
ATOM      2  C1' PXY d   1       4.216  -1.034   3.420  0.00  0.00     0.077 C 
ATOM      3  C1  PXY d   1       4.608  -2.331   4.099  0.00  0.00    -0.082 A 
ATOM      4  C2  PXY d   1       3.946  -3.442   3.818  0.00  0.00     0.003 A 
ATOM      5  C3  PXY d   1       4.266  -4.618   4.446  0.00  0.00     0.003 A 
ATOM      6  C4  PXY d   1       5.309  -4.669   5.332  0.00  0.00    -0.082 A 
ATOM      7  C5  PXY d   1       5.996  -3.542   5.616  0.00  0.00     0.003 A 
ATOM      8  C6  PXY d   1       5.629  -2.350   4.998  0.00  0.00     0.003 A 
ENDROOT
TORSDOF 0
ENDMDL
