MODEL 1
REMARK minimizedAffinity 10.3441744
REMARK minimizedRMSD -1
REMARK  0 active torsions:
REMARK  status: ('A' for Active; 'I' for Inactive)
ROOT
ATOM      1  C4' PXY d   1      -1.611   5.915   6.000  0.00  0.00     0.077 C 
ATOM      2  C1' PXY d   1      -5.213   3.827   1.990  0.00  0.00     0.077 C 
ATOM      3  C1  PXY d   1      -4.274   4.387   3.041  0.00  0.00    -0.082 A 
ATOM      4  C2  PXY d   1      -3.106   3.801   3.253  0.00  0.00     0.003 A 
ATOM      5  C3  PXY d   1      -2.259   4.274   4.221  0.00  0.00     0.003 A 
ATOM      6  C4  PXY d   1      -2.586   5.391   4.943  0.00  0.00    -0.082 A 
ATOM      7  C5  PXY d   1      -3.771   6.000   4.725  0.00  0.00     0.003 A 
ATOM      8  C6  PXY d   1      -4.635   5.479   3.766  0.00  0.00     0.003 A 
ENDROOT
TORSDOF 0
ENDMDL
