MODEL 1
REMARK minimizedAffinity 7.11159468
REMARK minimizedRMSD -1
REMARK  0 active torsions:
REMARK  status: ('A' for Active; 'I' for Inactive)
ROOT
ATOM      1  C4' PXY d   1      -2.848   5.379   4.162  0.00  0.00     0.077 C 
ATOM      2  C1' PXY d   1      -2.517   0.397   1.249  0.00  0.00     0.077 C 
ATOM      3  C1  PXY d   1      -2.608   1.709   2.002  0.00  0.00    -0.082 A 
ATOM      4  C2  PXY d   1      -1.850   1.906   3.068  0.00  0.00     0.003 A 
ATOM      5  C3  PXY d   1      -1.943   3.074   3.780  0.00  0.00     0.003 A 
ATOM      6  C4  PXY d   1      -2.782   4.073   3.365  0.00  0.00    -0.082 A 
ATOM      7  C5  PXY d   1      -3.551   3.885   2.272  0.00  0.00     0.003 A 
ATOM      8  C6  PXY d   1      -3.472   2.675   1.587  0.00  0.00     0.003 A 
ENDROOT
TORSDOF 0
ENDMDL
