MODEL 1
REMARK minimizedAffinity -0.0533662327
REMARK minimizedRMSD -1
REMARK  0 active torsions:
REMARK  status: ('A' for Active; 'I' for Inactive)
ROOT
ATOM      1  C4' PXY d   1       3.488   5.502  -1.759  0.00  0.00     0.077 C 
ATOM      2  C1' PXY d   1       5.991   5.601   3.450  0.00  0.00     0.077 C 
ATOM      3  C1  PXY d   1       5.323   5.575   2.090  0.00  0.00    -0.082 A 
ATOM      4  C2  PXY d   1       6.000   5.145   1.037  0.00  0.00     0.003 A 
ATOM      5  C3  PXY d   1       5.421   5.145  -0.206  0.00  0.00     0.003 A 
ATOM      6  C4  PXY d   1       4.119   5.538  -0.365  0.00  0.00    -0.082 A 
ATOM      7  C5  PXY d   1       3.419   5.967   0.706  0.00  0.00     0.003 A 
ATOM      8  C6  PXY d   1       4.037   5.999   1.953  0.00  0.00     0.003 A 
ENDROOT
TORSDOF 0
ENDMDL
