MODEL 1
REMARK minimizedAffinity 9.17730713
REMARK minimizedRMSD -1
REMARK  0 active torsions:
REMARK  status: ('A' for Active; 'I' for Inactive)
ROOT
ATOM      1  C4' PXY d   1      -2.858   5.501   4.502  0.00  0.00     0.077 C 
ATOM      2  C1' PXY d   1      -3.276   0.081   2.536  0.00  0.00     0.077 C 
ATOM      3  C1  PXY d   1      -3.172   1.507   3.041  0.00  0.00    -0.082 A 
ATOM      4  C2  PXY d   1      -2.234   1.824   3.918  0.00  0.00     0.003 A 
ATOM      5  C3  PXY d   1      -2.146   3.101   4.409  0.00  0.00     0.003 A 
ATOM      6  C4  PXY d   1      -2.994   4.076   3.958  0.00  0.00    -0.082 A 
ATOM      7  C5  PXY d   1      -3.947   3.764   3.055  0.00  0.00     0.003 A 
ATOM      8  C6  PXY d   1      -4.046   2.452   2.600  0.00  0.00     0.003 A 
ENDROOT
TORSDOF 0
ENDMDL
