MODEL 1
REMARK minimizedAffinity 10.1271544
REMARK minimizedRMSD -1
REMARK  0 active torsions:
REMARK  status: ('A' for Active; 'I' for Inactive)
ROOT
ATOM      1  C4' PXY d   1      -1.862   4.904   5.251  0.00  0.00     0.077 C 
ATOM      2  C1' PXY d   1      -1.918   5.252  -0.519  0.00  0.00     0.077 C 
ATOM      3  C1  PXY d   1      -1.915   5.154   0.994  0.00  0.00    -0.082 A 
ATOM      4  C2  PXY d   1      -1.184   6.000   1.702  0.00  0.00     0.003 A 
ATOM      5  C3  PXY d   1      -1.145   5.906   3.069  0.00  0.00     0.003 A 
ATOM      6  C4  PXY d   1      -1.903   4.971   3.722  0.00  0.00    -0.082 A 
ATOM      7  C5  PXY d   1      -2.660   4.111   3.007  0.00  0.00     0.003 A 
ATOM      8  C6  PXY d   1      -2.654   4.197   1.617  0.00  0.00     0.003 A 
ENDROOT
TORSDOF 0
ENDMDL
