MODEL 1
REMARK minimizedAffinity 19.9879932
REMARK minimizedRMSD -1
REMARK  0 active torsions:
REMARK  status: ('A' for Active; 'I' for Inactive)
ROOT
ATOM      1  C4' PXY d   1      -0.673   5.872   6.000  0.00  0.00     0.077 C 
ATOM      2  C1' PXY d   1      -5.339   5.826   2.588  0.00  0.00     0.077 C 
ATOM      3  C1  PXY d   1      -4.122   5.845   3.492  0.00  0.00    -0.082 A 
ATOM      4  C2  PXY d   1      -2.914   5.729   2.965  0.00  0.00     0.003 A 
ATOM      5  C3  PXY d   1      -1.805   5.711   3.770  0.00  0.00     0.003 A 
ATOM      6  C4  PXY d   1      -1.930   5.868   5.125  0.00  0.00    -0.082 A 
ATOM      7  C5  PXY d   1      -3.158   5.998   5.669  0.00  0.00     0.003 A 
ATOM      8  C6  PXY d   1      -4.274   5.971   4.838  0.00  0.00     0.003 A 
ENDROOT
TORSDOF 0
ENDMDL
