MODEL 1
REMARK minimizedAffinity 1.71203136
REMARK minimizedRMSD -1
REMARK  0 active torsions:
REMARK  status: ('A' for Active; 'I' for Inactive)
ROOT
ATOM      1  C4' PXY d   1       3.770  -1.028  -0.730  0.00  0.00     0.077 C 
ATOM      2  C1' PXY d   1       1.011   2.663  -4.219  0.00  0.00     0.077 C 
ATOM      3  C1  PXY d   1       1.746   1.697  -3.311  0.00  0.00    -0.082 A 
ATOM      4  C2  PXY d   1       1.076   0.729  -2.707  0.00  0.00     0.003 A 
ATOM      5  C3  PXY d   1       1.719  -0.133  -1.856  0.00  0.00     0.003 A 
ATOM      6  C4  PXY d   1       3.071  -0.036  -1.664  0.00  0.00    -0.082 A 
ATOM      7  C5  PXY d   1       3.763   0.942  -2.285  0.00  0.00     0.003 A 
ATOM      8  C6  PXY d   1       3.085   1.833  -3.112  0.00  0.00     0.003 A 
ENDROOT
TORSDOF 0
ENDMDL
