MODEL 1
REMARK minimizedAffinity 6.37926865
REMARK minimizedRMSD -1
REMARK  0 active torsions:
REMARK  status: ('A' for Active; 'I' for Inactive)
ROOT
ATOM      1  C4' PXY d   1       5.467   6.000   5.992  0.00  0.00     0.077 C 
ATOM      2  C1' PXY d   1       4.254   4.507   0.541  0.00  0.00     0.077 C 
ATOM      3  C1  PXY d   1       4.564   4.908   1.970  0.00  0.00    -0.082 A 
ATOM      4  C2  PXY d   1       5.716   4.553   2.514  0.00  0.00     0.003 A 
ATOM      5  C3  PXY d   1       5.999   4.880   3.815  0.00  0.00     0.003 A 
ATOM      6  C4  PXY d   1       5.115   5.625   4.550  0.00  0.00    -0.082 A 
ATOM      7  C5  PXY d   1       3.942   6.000   3.999  0.00  0.00     0.003 A 
ATOM      8  C6  PXY d   1       3.656   5.622   2.690  0.00  0.00     0.003 A 
ENDROOT
TORSDOF 0
ENDMDL
