MODEL 1
REMARK minimizedAffinity 8.60118294
REMARK minimizedRMSD -1
REMARK  0 active torsions:
REMARK  status: ('A' for Active; 'I' for Inactive)
ROOT
ATOM      1  C4' PXY d   1      -6.000   0.034   1.861  0.00  0.00     0.077 C 
ATOM      2  C1' PXY d   1      -0.495   1.394   2.985  0.00  0.00     0.077 C 
ATOM      3  C1  PXY d   1      -1.942   1.049   2.696  0.00  0.00    -0.082 A 
ATOM      4  C2  PXY d   1      -2.293  -0.217   2.536  0.00  0.00     0.003 A 
ATOM      5  C3  PXY d   1      -3.592  -0.545   2.242  0.00  0.00     0.003 A 
ATOM      6  C4  PXY d   1      -4.552   0.429   2.164  0.00  0.00    -0.082 A 
ATOM      7  C5  PXY d   1      -4.203   1.722   2.337  0.00  0.00     0.003 A 
ATOM      8  C6  PXY d   1      -2.872   2.037   2.594  0.00  0.00     0.003 A 
ENDROOT
TORSDOF 0
ENDMDL
