MODEL 1
REMARK minimizedAffinity 6.18545389
REMARK minimizedRMSD -1
REMARK  0 active torsions:
REMARK  status: ('A' for Active; 'I' for Inactive)
ROOT
ATOM      1  C4' PXY d   1      -2.621  -0.001   3.305  0.00  0.00     0.077 C 
ATOM      2  C1' PXY d   1      -6.000  -0.782  -1.320  0.00  0.00     0.077 C 
ATOM      3  C1  PXY d   1      -5.124  -0.573  -0.100  0.00  0.00    -0.082 A 
ATOM      4  C2  PXY d   1      -3.822  -0.390  -0.253  0.00  0.00     0.003 A 
ATOM      5  C3  PXY d   1      -3.011  -0.231   0.841  0.00  0.00     0.003 A 
ATOM      6  C4  PXY d   1      -3.545  -0.207   2.102  0.00  0.00    -0.082 A 
ATOM      7  C5  PXY d   1      -4.873  -0.382   2.265  0.00  0.00     0.003 A 
ATOM      8  C6  PXY d   1      -5.674  -0.582   1.144  0.00  0.00     0.003 A 
ENDROOT
TORSDOF 0
ENDMDL
