MODEL 1
REMARK minimizedAffinity 16.0546818
REMARK minimizedRMSD -1
REMARK  0 active torsions:
REMARK  status: ('A' for Active; 'I' for Inactive)
ROOT
ATOM      1  C4' PXY d   1      -1.922   0.352   0.466  0.00  0.00     0.077 C 
ATOM      2  C1' PXY d   1      -3.551  -0.024   5.999  0.00  0.00     0.077 C 
ATOM      3  C1  PXY d   1      -3.130   0.086   4.547  0.00  0.00    -0.082 A 
ATOM      4  C2  PXY d   1      -2.831  -1.010   3.868  0.00  0.00     0.003 A 
ATOM      5  C3  PXY d   1      -2.417  -0.926   2.563  0.00  0.00     0.003 A 
ATOM      6  C4  PXY d   1      -2.361   0.287   1.931  0.00  0.00    -0.082 A 
ATOM      7  C5  PXY d   1      -2.675   1.409   2.614  0.00  0.00     0.003 A 
ATOM      8  C6  PXY d   1      -3.053   1.306   3.950  0.00  0.00     0.003 A 
ENDROOT
TORSDOF 0
ENDMDL
