MODEL 1
REMARK minimizedAffinity 10.8482561
REMARK minimizedRMSD -1
REMARK  0 active torsions:
REMARK  status: ('A' for Active; 'I' for Inactive)
ROOT
ATOM      1  C4' PXY d   1      -0.722   0.665  -0.557  0.00  0.00     0.077 C 
ATOM      2  C1' PXY d   1      -3.575  -0.560   4.320  0.00  0.00     0.077 C 
ATOM      3  C1  PXY d   1      -2.826  -0.226   3.045  0.00  0.00    -0.082 A 
ATOM      4  C2  PXY d   1      -2.991  -0.983   1.972  0.00  0.00     0.003 A 
ATOM      5  C3  PXY d   1      -2.297  -0.714   0.820  0.00  0.00     0.003 A 
ATOM      6  C4  PXY d   1      -1.465   0.371   0.750  0.00  0.00    -0.082 A 
ATOM      7  C5  PXY d   1      -1.299   1.154   1.837  0.00  0.00     0.003 A 
ATOM      8  C6  PXY d   1      -1.982   0.840   3.009  0.00  0.00     0.003 A 
ENDROOT
TORSDOF 0
ENDMDL
