MODEL 1
REMARK minimizedAffinity 9.37133598
REMARK minimizedRMSD -1
REMARK  0 active torsions:
REMARK  status: ('A' for Active; 'I' for Inactive)
ROOT
ATOM      1  C4' PXY d   1      -2.777   2.608  -1.427  0.00  0.00     0.077 C 
ATOM      2  C1' PXY d   1       1.214  -1.420  -2.549  0.00  0.00     0.077 C 
ATOM      3  C1  PXY d   1       0.159  -0.373  -2.251  0.00  0.00    -0.082 A 
ATOM      4  C2  PXY d   1       0.190   0.787  -2.887  0.00  0.00     0.003 A 
ATOM      5  C3  PXY d   1      -0.737   1.757  -2.606  0.00  0.00     0.003 A 
ATOM      6  C4  PXY d   1      -1.738   1.518  -1.703  0.00  0.00    -0.082 A 
ATOM      7  C5  PXY d   1      -1.783   0.334  -1.057  0.00  0.00     0.003 A 
ATOM      8  C6  PXY d   1      -0.808  -0.623  -1.327  0.00  0.00     0.003 A 
ENDROOT
TORSDOF 0
ENDMDL
