MODEL 1
REMARK minimizedAffinity 16.5027046
REMARK minimizedRMSD -1
REMARK  0 active torsions:
REMARK  status: ('A' for Active; 'I' for Inactive)
ROOT
ATOM      1  C4' PXY d   1       0.540   1.546  -2.663  0.00  0.00     0.077 C 
ATOM      2  C1' PXY d   1       1.043  -3.886  -4.575  0.00  0.00     0.077 C 
ATOM      3  C1  PXY d   1       0.911  -2.465  -4.062  0.00  0.00    -0.082 A 
ATOM      4  C2  PXY d   1       0.376  -1.536  -4.837  0.00  0.00     0.003 A 
ATOM      5  C3  PXY d   1       0.279  -0.240  -4.400  0.00  0.00     0.003 A 
ATOM      6  C4  PXY d   1       0.685   0.097  -3.137  0.00  0.00    -0.082 A 
ATOM      7  C5  PXY d   1       1.221  -0.847  -2.335  0.00  0.00     0.003 A 
ATOM      8  C6  PXY d   1       1.349  -2.148  -2.813  0.00  0.00     0.003 A 
ENDROOT
TORSDOF 0
ENDMDL
