MODEL 1
REMARK minimizedAffinity 10.5349636
REMARK minimizedRMSD -1
REMARK  0 active torsions:
REMARK  status: ('A' for Active; 'I' for Inactive)
ROOT
ATOM      1  C4' PXY d   1      -0.942   2.319  -2.193  0.00  0.00     0.077 C 
ATOM      2  C1' PXY d   1       1.079  -3.060  -1.561  0.00  0.00     0.077 C 
ATOM      3  C1  PXY d   1       0.537  -1.654  -1.728  0.00  0.00    -0.082 A 
ATOM      4  C2  PXY d   1       1.340  -0.689  -2.145  0.00  0.00     0.003 A 
ATOM      5  C3  PXY d   1       0.874   0.595  -2.271  0.00  0.00     0.003 A 
ATOM      6  C4  PXY d   1      -0.441   0.883  -2.019  0.00  0.00    -0.082 A 
ATOM      7  C5  PXY d   1      -1.269  -0.099  -1.603  0.00  0.00     0.003 A 
ATOM      8  C6  PXY d   1      -0.767  -1.387  -1.442  0.00  0.00     0.003 A 
ENDROOT
TORSDOF 0
ENDMDL
