MODEL 1
REMARK minimizedAffinity 8.51226807
REMARK minimizedRMSD -1
REMARK  0 active torsions:
REMARK  status: ('A' for Active; 'I' for Inactive)
ROOT
ATOM      1  C4' PXY d   1       3.304   5.977  -4.525  0.00  0.00     0.077 C 
ATOM      2  C1' PXY d   1      -0.686   5.998  -0.342  0.00  0.00     0.077 C 
ATOM      3  C1  PXY d   1       0.369   5.998  -1.431  0.00  0.00    -0.082 A 
ATOM      4  C2  PXY d   1      -0.002   6.000  -2.701  0.00  0.00     0.003 A 
ATOM      5  C3  PXY d   1       0.939   5.967  -3.698  0.00  0.00     0.003 A 
ATOM      6  C4  PXY d   1       2.273   5.987  -3.392  0.00  0.00    -0.082 A 
ATOM      7  C5  PXY d   1       2.659   5.996  -2.099  0.00  0.00     0.003 A 
ATOM      8  C6  PXY d   1       1.689   5.987  -1.101  0.00  0.00     0.003 A 
ENDROOT
TORSDOF 0
ENDMDL
