MODEL 1
REMARK minimizedAffinity -1.18486655
REMARK minimizedRMSD -1
REMARK  0 active torsions:
REMARK  status: ('A' for Active; 'I' for Inactive)
ROOT
ATOM      1  C4' PXY d   1       0.058   0.344  -1.572  0.00  0.00     0.077 C 
ATOM      2  C1' PXY d   1      -3.006   0.196   3.327  0.00  0.00     0.077 C 
ATOM      3  C1  PXY d   1      -2.208   0.224   2.039  0.00  0.00    -0.082 A 
ATOM      4  C2  PXY d   1      -1.075   0.906   1.985  0.00  0.00     0.003 A 
ATOM      5  C3  PXY d   1      -0.357   0.968   0.818  0.00  0.00     0.003 A 
ATOM      6  C4  PXY d   1      -0.775   0.280  -0.290  0.00  0.00    -0.082 A 
ATOM      7  C5  PXY d   1      -1.924  -0.427  -0.240  0.00  0.00     0.003 A 
ATOM      8  C6  PXY d   1      -2.659  -0.443   0.942  0.00  0.00     0.003 A 
ENDROOT
TORSDOF 0
ENDMDL
