MODEL 1
REMARK minimizedAffinity 6.79261255
REMARK minimizedRMSD -1
REMARK  0 active torsions:
REMARK  status: ('A' for Active; 'I' for Inactive)
ROOT
ATOM      1  C4' PXY d   1      -6.000  -0.742   5.304  0.00  0.00     0.077 C 
ATOM      2  C1' PXY d   1      -1.395   0.589   2.073  0.00  0.00     0.077 C 
ATOM      3  C1  PXY d   1      -2.611   0.244   2.911  0.00  0.00    -0.082 A 
ATOM      4  C2  PXY d   1      -2.506   0.202   4.229  0.00  0.00     0.003 A 
ATOM      5  C3  PXY d   1      -3.587  -0.139   5.001  0.00  0.00     0.003 A 
ATOM      6  C4  PXY d   1      -4.801  -0.389   4.419  0.00  0.00    -0.082 A 
ATOM      7  C5  PXY d   1      -4.919  -0.338   3.075  0.00  0.00     0.003 A 
ATOM      8  C6  PXY d   1      -3.799  -0.030   2.308  0.00  0.00     0.003 A 
ENDROOT
TORSDOF 0
ENDMDL
