MODEL 1
REMARK minimizedAffinity 5.19522476
REMARK minimizedRMSD -1
REMARK  0 active torsions:
REMARK  status: ('A' for Active; 'I' for Inactive)
ROOT
ATOM      1  C4' PXY d   1      -2.250   2.439   2.641  0.00  0.00     0.077 C 
ATOM      2  C1' PXY d   1      -6.000  -1.326   4.916  0.00  0.00     0.077 C 
ATOM      3  C1  PXY d   1      -5.025  -0.336   4.310  0.00  0.00    -0.082 A 
ATOM      4  C2  PXY d   1      -3.727  -0.483   4.521  0.00  0.00     0.003 A 
ATOM      5  C3  PXY d   1      -2.834   0.422   4.007  0.00  0.00     0.003 A 
ATOM      6  C4  PXY d   1      -3.270   1.458   3.225  0.00  0.00    -0.082 A 
ATOM      7  C5  PXY d   1      -4.592   1.609   2.997  0.00  0.00     0.003 A 
ATOM      8  C6  PXY d   1      -5.485   0.703   3.562  0.00  0.00     0.003 A 
ENDROOT
TORSDOF 0
ENDMDL
