MODEL 1
REMARK minimizedAffinity -5.07448673
REMARK minimizedRMSD -1
REMARK  0 active torsions:
REMARK  status: ('A' for Active; 'I' for Inactive)
ROOT
ATOM      1  C2' OXE d   1      -0.116  -3.925  -0.625  0.00  0.00     0.078 C 
ATOM      2  C1' OXE d   1       0.623  -1.825  -2.335  0.00  0.00     0.078 C 
ATOM      3  C1  OXE d   1       0.267  -1.480  -0.911  0.00  0.00    -0.078 A 
ATOM      4  C2  OXE d   1      -0.138  -2.508  -0.094  0.00  0.00    -0.078 A 
ATOM      5  C3  OXE d   1      -0.426  -2.253   1.244  0.00  0.00     0.003 A 
ATOM      6  C4  OXE d   1      -0.454  -0.939   1.725  0.00  0.00    -0.002 A 
ATOM      7  C5  OXE d   1      -0.082   0.128   0.899  0.00  0.00    -0.002 A 
ATOM      8  C6  OXE d   1       0.321  -0.130  -0.407  0.00  0.00     0.003 A 
ENDROOT
TORSDOF 0
ENDMDL
