MODEL 1
REMARK minimizedAffinity -4.76562071
REMARK minimizedRMSD -1
REMARK  0 active torsions:
REMARK  status: ('A' for Active; 'I' for Inactive)
ROOT
ATOM      1  C2' OXE d   1      -1.647   0.306   1.988  0.00  0.00     0.078 C 
ATOM      2  C1' OXE d   1      -0.007   1.298  -0.063  0.00  0.00     0.078 C 
ATOM      3  C1  OXE d   1      -0.025  -0.193   0.164  0.00  0.00    -0.078 A 
ATOM      4  C2  OXE d   1      -0.795  -0.665   1.200  0.00  0.00    -0.078 A 
ATOM      5  C3  OXE d   1      -0.891  -2.037   1.418  0.00  0.00     0.003 A 
ATOM      6  C4  OXE d   1      -0.092  -2.928   0.691  0.00  0.00    -0.002 A 
ATOM      7  C5  OXE d   1       0.729  -2.464  -0.342  0.00  0.00    -0.002 A 
ATOM      8  C6  OXE d   1       0.741  -1.107  -0.646  0.00  0.00     0.003 A 
ENDROOT
TORSDOF 0
ENDMDL
