MODEL 1
REMARK minimizedAffinity -4.22127581
REMARK minimizedRMSD -1
REMARK  0 active torsions:
REMARK  status: ('A' for Active; 'I' for Inactive)
ROOT
ATOM      1  C2' OXE d   1      -0.651  -0.195   1.700  0.00  0.00     0.078 C 
ATOM      2  C1' OXE d   1       0.588  -2.474   0.628  0.00  0.00     0.078 C 
ATOM      3  C1  OXE d   1       0.385  -1.290  -0.283  0.00  0.00    -0.078 A 
ATOM      4  C2  OXE d   1      -0.264  -0.196   0.237  0.00  0.00    -0.078 A 
ATOM      5  C3  OXE d   1      -0.429   0.944  -0.544  0.00  0.00     0.003 A 
ATOM      6  C4  OXE d   1      -0.078   0.932  -1.900  0.00  0.00    -0.002 A 
ATOM      7  C5  OXE d   1       0.549  -0.186  -2.460  0.00  0.00    -0.002 A 
ATOM      8  C6  OXE d   1       0.826  -1.287  -1.656  0.00  0.00     0.003 A 
ENDROOT
TORSDOF 0
ENDMDL
