MODEL 1
REMARK minimizedAffinity -3.17843747
REMARK minimizedRMSD -1
REMARK  0 active torsions:
REMARK  status: ('A' for Active; 'I' for Inactive)
ROOT
ATOM      1  C2' OXE d   1       0.047   1.460  -0.346  0.00  0.00     0.078 C 
ATOM      2  C1' OXE d   1       0.755  -0.476  -2.251  0.00  0.00     0.078 C 
ATOM      3  C1  OXE d   1       0.365  -0.954  -0.875  0.00  0.00    -0.078 A 
ATOM      4  C2  OXE d   1       0.065   0.003   0.065  0.00  0.00    -0.078 A 
ATOM      5  C3  OXE d   1      -0.353  -0.385   1.334  0.00  0.00     0.003 A 
ATOM      6  C4  OXE d   1      -0.324  -1.734   1.709  0.00  0.00    -0.002 A 
ATOM      7  C5  OXE d   1       0.017  -2.722   0.778  0.00  0.00    -0.002 A 
ATOM      8  C6  OXE d   1       0.322  -2.352  -0.527  0.00  0.00     0.003 A 
ENDROOT
TORSDOF 0
ENDMDL
