MODEL 1
REMARK minimizedAffinity -2.03882766
REMARK minimizedRMSD -1
REMARK  0 active torsions:
REMARK  status: ('A' for Active; 'I' for Inactive)
ROOT
ATOM      1  C2' OXE d   1      -1.762  -0.047   2.073  0.00  0.00     0.078 C 
ATOM      2  C1' OXE d   1      -0.858  -2.461   0.960  0.00  0.00     0.078 C 
ATOM      3  C1  OXE d   1      -0.525  -1.183   0.232  0.00  0.00    -0.078 A 
ATOM      4  C2  OXE d   1      -1.011  -0.010   0.759  0.00  0.00    -0.078 A 
ATOM      5  C3  OXE d   1      -0.687   1.202   0.157  0.00  0.00     0.003 A 
ATOM      6  C4  OXE d   1      -0.002   1.227  -1.064  0.00  0.00    -0.002 A 
ATOM      7  C5  OXE d   1       0.468   0.041  -1.638  0.00  0.00    -0.002 A 
ATOM      8  C6  OXE d   1       0.252  -1.166  -0.983  0.00  0.00     0.003 A 
ENDROOT
TORSDOF 0
ENDMDL
