MODEL 1
REMARK minimizedAffinity -3.31784534
REMARK minimizedRMSD -1
REMARK  0 active torsions:
REMARK  status: ('A' for Active; 'I' for Inactive)
ROOT
ATOM      1  C2' OXE d   1       1.547  -1.655  -1.843  0.00  0.00     0.078 C 
ATOM      2  C1' OXE d   1       0.514  -3.272   0.206  0.00  0.00     0.078 C 
ATOM      3  C1  OXE d   1       0.166  -1.805   0.225  0.00  0.00    -0.078 A 
ATOM      4  C2  OXE d   1       0.714  -1.012  -0.755  0.00  0.00    -0.078 A 
ATOM      5  C3  OXE d   1       0.382   0.338  -0.815  0.00  0.00     0.003 A 
ATOM      6  C4  OXE d   1      -0.381   0.927   0.201  0.00  0.00    -0.002 A 
ATOM      7  C5  OXE d   1      -0.916   0.145   1.230  0.00  0.00    -0.002 A 
ATOM      8  C6  OXE d   1      -0.687  -1.227   1.234  0.00  0.00     0.003 A 
ENDROOT
TORSDOF 0
ENDMDL
