MODEL 1
REMARK minimizedAffinity -5.76527739
REMARK minimizedRMSD -1
REMARK  0 active torsions:
REMARK  status: ('A' for Active; 'I' for Inactive)
ROOT
ATOM      1  C2' OXE d   1      -0.991  -0.157   1.874  0.00  0.00     0.078 C 
ATOM      2  C1' OXE d   1       0.141   1.081  -0.377  0.00  0.00     0.078 C 
ATOM      3  C1  OXE d   1       0.034  -0.424  -0.381  0.00  0.00    -0.078 A 
ATOM      4  C2  OXE d   1      -0.478  -1.024   0.744  0.00  0.00    -0.078 A 
ATOM      5  C3  OXE d   1      -0.649  -2.405   0.771  0.00  0.00     0.003 A 
ATOM      6  C4  OXE d   1      -0.163  -3.200  -0.274  0.00  0.00    -0.002 A 
ATOM      7  C5  OXE d   1       0.398  -2.612  -1.412  0.00  0.00    -0.002 A 
ATOM      8  C6  OXE d   1       0.465  -1.226  -1.499  0.00  0.00     0.003 A 
ENDROOT
TORSDOF 0
ENDMDL
