MODEL 1
REMARK minimizedAffinity -3.55163431
REMARK minimizedRMSD -1
REMARK  0 active torsions:
REMARK  status: ('A' for Active; 'I' for Inactive)
ROOT
ATOM      1  C2' OXE d   1      -0.003   1.567   0.039  0.00  0.00     0.078 C 
ATOM      2  C1' OXE d   1       0.099  -0.203  -2.137  0.00  0.00     0.078 C 
ATOM      3  C1  OXE d   1      -0.437  -0.727  -0.828  0.00  0.00    -0.078 A 
ATOM      4  C2  OXE d   1      -0.440   0.133   0.244  0.00  0.00    -0.078 A 
ATOM      5  C3  OXE d   1      -0.974  -0.283   1.460  0.00  0.00     0.003 A 
ATOM      6  C4  OXE d   1      -1.367  -1.615   1.643  0.00  0.00    -0.002 A 
ATOM      7  C5  OXE d   1      -1.335  -2.518   0.576  0.00  0.00    -0.002 A 
ATOM      8  C6  OXE d   1      -0.914  -2.080  -0.675  0.00  0.00     0.003 A 
ENDROOT
TORSDOF 0
ENDMDL
