MODEL 1
REMARK minimizedAffinity -5.07786703
REMARK minimizedRMSD -1
REMARK  0 active torsions:
REMARK  status: ('A' for Active; 'I' for Inactive)
ROOT
ATOM      1  C2' OXE d   1      -0.253   1.029   0.022  0.00  0.00     0.078 C 
ATOM      2  C1' OXE d   1      -0.676  -0.506   2.333  0.00  0.00     0.078 C 
ATOM      3  C1  OXE d   1      -0.269  -1.229   1.074  0.00  0.00    -0.078 A 
ATOM      4  C2  OXE d   1      -0.109  -0.475  -0.064  0.00  0.00    -0.078 A 
ATOM      5  C3  OXE d   1       0.319  -1.084  -1.240  0.00  0.00     0.003 A 
ATOM      6  C4  OXE d   1       0.440  -2.477  -1.314  0.00  0.00    -0.002 A 
ATOM      7  C5  OXE d   1       0.243  -3.268  -0.176  0.00  0.00    -0.002 A 
ATOM      8  C6  OXE d   1      -0.069  -2.656   1.033  0.00  0.00     0.003 A 
ENDROOT
TORSDOF 0
ENDMDL
