MODEL 1
REMARK minimizedAffinity -3.34828186
REMARK minimizedRMSD -1
REMARK  0 active torsions:
REMARK  status: ('A' for Active; 'I' for Inactive)
ROOT
ATOM      1  C2' OXE d   1      -0.030   1.296  -0.204  0.00  0.00     0.078 C 
ATOM      2  C1' OXE d   1       0.634  -0.642  -2.124  0.00  0.00     0.078 C 
ATOM      3  C1  OXE d   1       0.204  -1.121  -0.760  0.00  0.00    -0.078 A 
ATOM      4  C2  OXE d   1      -0.074  -0.166   0.188  0.00  0.00    -0.078 A 
ATOM      5  C3  OXE d   1      -0.527  -0.553   1.445  0.00  0.00     0.003 A 
ATOM      6  C4  OXE d   1      -0.555  -1.906   1.803  0.00  0.00    -0.002 A 
ATOM      7  C5  OXE d   1      -0.238  -2.895   0.865  0.00  0.00    -0.002 A 
ATOM      8  C6  OXE d   1       0.102  -2.522  -0.430  0.00  0.00     0.003 A 
ENDROOT
TORSDOF 0
ENDMDL
