MODEL 1
REMARK minimizedAffinity -4.45138693
REMARK minimizedRMSD -1
REMARK  0 active torsions:
REMARK  status: ('A' for Active; 'I' for Inactive)
ROOT
ATOM      1  C2' OXE d   1      -0.760  -0.761   1.652  0.00  0.00     0.078 C 
ATOM      2  C1' OXE d   1       0.320   0.711  -0.479  0.00  0.00     0.078 C 
ATOM      3  C1  OXE d   1      -0.017  -0.738  -0.725  0.00  0.00    -0.078 A 
ATOM      4  C2  OXE d   1      -0.502  -1.463   0.337  0.00  0.00    -0.078 A 
ATOM      5  C3  OXE d   1      -0.881  -2.789   0.150  0.00  0.00     0.003 A 
ATOM      6  C4  OXE d   1      -0.629  -3.434  -1.067  0.00  0.00    -0.002 A 
ATOM      7  C5  OXE d   1      -0.100  -2.724  -2.150  0.00  0.00    -0.002 A 
ATOM      8  C6  OXE d   1       0.172  -1.368  -2.009  0.00  0.00     0.003 A 
ENDROOT
TORSDOF 0
ENDMDL
