MODEL 1
REMARK minimizedAffinity -2.80902433
REMARK minimizedRMSD -1
REMARK  0 active torsions:
REMARK  status: ('A' for Active; 'I' for Inactive)
ROOT
ATOM      1  C2' OXE d   1       0.457   1.993   0.081  0.00  0.00     0.078 C 
ATOM      2  C1' OXE d   1      -0.211   0.492  -2.195  0.00  0.00     0.078 C 
ATOM      3  C1  OXE d   1      -0.469  -0.126  -0.844  0.00  0.00    -0.078 A 
ATOM      4  C2  OXE d   1      -0.096   0.596   0.264  0.00  0.00    -0.078 A 
ATOM      5  C3  OXE d   1      -0.361   0.096   1.535  0.00  0.00     0.003 A 
ATOM      6  C4  OXE d   1      -0.864  -1.201   1.696  0.00  0.00    -0.002 A 
ATOM      7  C5  OXE d   1      -1.214  -1.970   0.580  0.00  0.00    -0.002 A 
ATOM      8  C6  OXE d   1      -1.063  -1.432  -0.693  0.00  0.00     0.003 A 
ENDROOT
TORSDOF 0
ENDMDL
