MODEL 1
REMARK minimizedAffinity -5.10076857
REMARK minimizedRMSD -1
REMARK  0 active torsions:
REMARK  status: ('A' for Active; 'I' for Inactive)
ROOT
ATOM      1  C2' OXE d   1      -2.000  -0.242   1.159  0.00  0.00     0.078 C 
ATOM      2  C1' OXE d   1      -0.017   0.785  -0.542  0.00  0.00     0.078 C 
ATOM      3  C1  OXE d   1      -0.132  -0.714  -0.420  0.00  0.00    -0.078 A 
ATOM      4  C2  OXE d   1      -1.074  -1.207   0.450  0.00  0.00    -0.078 A 
ATOM      5  C3  OXE d   1      -1.259  -2.582   0.560  0.00  0.00     0.003 A 
ATOM      6  C4  OXE d   1      -0.392  -3.468  -0.092  0.00  0.00    -0.002 A 
ATOM      7  C5  OXE d   1       0.600  -2.987  -0.952  0.00  0.00    -0.002 A 
ATOM      8  C6  OXE d   1       0.716  -1.617  -1.160  0.00  0.00     0.003 A 
ENDROOT
TORSDOF 0
ENDMDL
