MODEL 1
REMARK minimizedAffinity -5.95459509
REMARK minimizedRMSD -1
REMARK  0 active torsions:
REMARK  status: ('A' for Active; 'I' for Inactive)
ROOT
ATOM      1  C2' OXE d   1      -0.166   0.569  -1.670  0.00  0.00     0.078 C 
ATOM      2  C1' OXE d   1       0.388  -2.074  -2.436  0.00  0.00     0.078 C 
ATOM      3  C1  OXE d   1      -0.077  -1.834  -1.022  0.00  0.00    -0.078 A 
ATOM      4  C2  OXE d   1      -0.301  -0.533  -0.641  0.00  0.00    -0.078 A 
ATOM      5  C3  OXE d   1      -0.784  -0.261   0.636  0.00  0.00     0.003 A 
ATOM      6  C4  OXE d   1      -0.896  -1.285   1.584  0.00  0.00    -0.002 A 
ATOM      7  C5  OXE d   1      -0.635  -2.613   1.229  0.00  0.00    -0.002 A 
ATOM      8  C6  OXE d   1      -0.267  -2.909  -0.079  0.00  0.00     0.003 A 
ENDROOT
TORSDOF 0
ENDMDL
