MODEL 1
REMARK minimizedAffinity 0.991670966
REMARK minimizedRMSD -1
REMARK  0 active torsions:
REMARK  status: ('A' for Active; 'I' for Inactive)
ROOT
ATOM      1  C2' OXE d   1      -0.387   0.477  -2.064  0.00  0.00     0.078 C 
ATOM      2  C1' OXE d   1       0.524   1.524   0.376  0.00  0.00     0.078 C 
ATOM      3  C1  OXE d   1      -0.039   0.125   0.377  0.00  0.00    -0.078 A 
ATOM      4  C2  OXE d   1      -0.525  -0.362  -0.812  0.00  0.00    -0.078 A 
ATOM      5  C3  OXE d   1      -1.005  -1.667  -0.878  0.00  0.00     0.003 A 
ATOM      6  C4  OXE d   1      -1.138  -2.433   0.286  0.00  0.00    -0.002 A 
ATOM      7  C5  OXE d   1      -0.685  -1.941   1.515  0.00  0.00    -0.002 A 
ATOM      8  C6  OXE d   1      -0.096  -0.683   1.570  0.00  0.00     0.003 A 
ENDROOT
TORSDOF 0
ENDMDL
