MODEL 1
REMARK minimizedAffinity -4.22104597
REMARK minimizedRMSD -1
REMARK  0 active torsions:
REMARK  status: ('A' for Active; 'I' for Inactive)
ROOT
ATOM      1  C2' OXE d   1       0.455   0.792  -1.141  0.00  0.00     0.078 C 
ATOM      2  C1' OXE d   1       0.549  -1.497  -2.763  0.00  0.00     0.078 C 
ATOM      3  C1  OXE d   1      -0.065  -1.632  -1.392  0.00  0.00    -0.078 A 
ATOM      4  C2  OXE d   1      -0.065  -0.518  -0.587  0.00  0.00    -0.078 A 
ATOM      5  C3  OXE d   1      -0.668  -0.573   0.666  0.00  0.00     0.003 A 
ATOM      6  C4  OXE d   1      -1.137  -1.790   1.175  0.00  0.00    -0.002 A 
ATOM      7  C5  OXE d   1      -1.110  -2.946   0.387  0.00  0.00    -0.002 A 
ATOM      8  C6  OXE d   1      -0.618  -2.874  -0.912  0.00  0.00     0.003 A 
ENDROOT
TORSDOF 0
ENDMDL
