MODEL 1
REMARK minimizedAffinity -0.816675425
REMARK minimizedRMSD -1
REMARK  2 active torsions:
REMARK  status: ('A' for Active; 'I' for Inactive)
REMARK    1  A    between atoms: C2'_3  and  C1'_4 
REMARK    2  A    between atoms: C1'_4  and  C1_5 
ROOT
ATOM      1  C1  I4B d   1       1.231   2.620  -0.232  0.00  0.00    -0.075 A 
ATOM      2  C2  I4B d   1       0.307   3.517   0.242  0.00  0.00     0.003 A 
ATOM      3  C3  I4B d   1       0.731   4.695   0.903  0.00  0.00     0.002 A 
ATOM      4  C4  I4B d   1       2.078   4.909   1.113  0.00  0.00    -0.004 A 
ATOM      5  C5  I4B d   1       3.015   4.010   0.612  0.00  0.00     0.002 A 
ATOM      6  C6  I4B d   1       2.590   2.864  -0.076  0.00  0.00     0.003 A 
ENDROOT
BRANCH   1   7
ATOM      7  C1' I4B d   1       0.748   1.370  -0.897  0.00  0.00     0.060 C 
BRANCH   7   8
ATOM      8  C2' I4B d   1      -0.732   1.228  -0.604  0.00  0.00    -0.013 C 
ATOM      9  C4' I4B d   1      -1.531   1.115  -1.876  0.00  0.00     0.013 C 
ATOM     10  C3' I4B d   1      -0.919   0.019   0.263  0.00  0.00     0.013 C 
ENDBRANCH   7   8
ENDBRANCH   1   7
TORSDOF 2
ENDMDL
