MODEL 1
REMARK minimizedAffinity -2.48310161
REMARK minimizedRMSD -1
REMARK  2 active torsions:
REMARK  status: ('A' for Active; 'I' for Inactive)
REMARK    1  A    between atoms: C2'_3  and  C1'_4 
REMARK    2  A    between atoms: C1'_4  and  C1_5 
ROOT
ATOM      1  C1  I4B d   1       1.432   0.866  -0.138  0.00  0.00    -0.075 A 
ATOM      2  C2  I4B d   1       2.688   0.311  -0.145  0.00  0.00     0.003 A 
ATOM      3  C3  I4B d   1       2.876  -1.033   0.259  0.00  0.00     0.002 A 
ATOM      4  C4  I4B d   1       1.796  -1.765   0.707  0.00  0.00    -0.004 A 
ATOM      5  C5  I4B d   1       0.520  -1.209   0.692  0.00  0.00     0.002 A 
ATOM      6  C6  I4B d   1       0.335   0.111   0.255  0.00  0.00     0.003 A 
ENDROOT
BRANCH   1   7
ATOM      7  C1' I4B d   1       1.274   2.298  -0.539  0.00  0.00     0.060 C 
BRANCH   7   8
ATOM      8  C2' I4B d   1       2.120   3.140   0.394  0.00  0.00    -0.013 C 
ATOM      9  C4' I4B d   1       3.406   3.563  -0.266  0.00  0.00     0.013 C 
ATOM     10  C3' I4B d   1       1.307   4.331   0.808  0.00  0.00     0.013 C 
ENDBRANCH   7   8
ENDBRANCH   1   7
TORSDOF 2
ENDMDL
