MODEL 1
REMARK minimizedAffinity 2.84607506
REMARK minimizedRMSD -1
REMARK  2 active torsions:
REMARK  status: ('A' for Active; 'I' for Inactive)
REMARK    1  A    between atoms: C2'_3  and  C1'_4 
REMARK    2  A    between atoms: C1'_4  and  C1_5 
ROOT
ATOM      1  C1  I4B d   1      -0.573   0.419   0.352  0.00  0.00    -0.075 A 
ATOM      2  C2  I4B d   1      -0.200  -0.899   0.261  0.00  0.00     0.003 A 
ATOM      3  C3  I4B d   1      -0.779  -1.865   1.119  0.00  0.00     0.002 A 
ATOM      4  C4  I4B d   1      -1.683  -1.464   2.082  0.00  0.00    -0.004 A 
ATOM      5  C5  I4B d   1      -2.077  -0.131   2.157  0.00  0.00     0.002 A 
ATOM      6  C6  I4B d   1      -1.528   0.815   1.279  0.00  0.00     0.003 A 
ENDROOT
BRANCH   1   7
ATOM      7  C1' I4B d   1       0.082   1.417  -0.548  0.00  0.00     0.060 C 
BRANCH   7   8
ATOM      8  C2' I4B d   1       1.216   2.066   0.220  0.00  0.00    -0.013 C 
ATOM      9  C4' I4B d   1       2.526   1.375  -0.053  0.00  0.00     0.013 C 
ATOM     10  C3' I4B d   1       1.274   3.512  -0.172  0.00  0.00     0.013 C 
ENDBRANCH   7   8
ENDBRANCH   1   7
TORSDOF 2
ENDMDL
