MODEL 1
REMARK minimizedAffinity -2.28607011
REMARK minimizedRMSD -1
REMARK  2 active torsions:
REMARK  status: ('A' for Active; 'I' for Inactive)
REMARK    1  A    between atoms: C2'_3  and  C1'_4 
REMARK    2  A    between atoms: C1'_4  and  C1_5 
ROOT
ATOM      1  C1  I4B d   1       0.847   1.131  -0.430  0.00  0.00    -0.075 A 
ATOM      2  C2  I4B d   1       2.215   1.121  -0.546  0.00  0.00     0.003 A 
ATOM      3  C3  I4B d   1       2.961   2.294  -0.280  0.00  0.00     0.002 A 
ATOM      4  C4  I4B d   1       2.300   3.460   0.048  0.00  0.00    -0.004 A 
ATOM      5  C5  I4B d   1       0.916   3.463   0.187  0.00  0.00     0.002 A 
ATOM      6  C6  I4B d   1       0.185   2.288  -0.041  0.00  0.00     0.003 A 
ENDROOT
BRANCH   1   7
ATOM      7  C1' I4B d   1       0.088  -0.117  -0.751  0.00  0.00     0.060 C 
BRANCH   7   8
ATOM      8  C2' I4B d   1       0.038  -0.968   0.502  0.00  0.00    -0.013 C 
ATOM      9  C4' I4B d   1       1.416  -1.182   1.070  0.00  0.00     0.013 C 
ATOM     10  C3' I4B d   1      -0.856  -0.283   1.492  0.00  0.00     0.013 C 
ENDBRANCH   7   8
ENDBRANCH   1   7
TORSDOF 2
ENDMDL
