MODEL 1
REMARK minimizedAffinity -6.1644454
REMARK minimizedRMSD -1
REMARK  2 active torsions:
REMARK  status: ('A' for Active; 'I' for Inactive)
REMARK    1  A    between atoms: C2'_3  and  C1'_4 
REMARK    2  A    between atoms: C1'_4  and  C1_5 
ROOT
ATOM      1  C1  I4B d   1       0.202   0.693   0.456  0.00  0.00    -0.075 A 
ATOM      2  C2  I4B d   1       1.561   0.876   0.410  0.00  0.00     0.003 A 
ATOM      3  C3  I4B d   1       2.422  -0.229   0.204  0.00  0.00     0.002 A 
ATOM      4  C4  I4B d   1       1.888  -1.497   0.100  0.00  0.00    -0.004 A 
ATOM      5  C5  I4B d   1       0.508  -1.678   0.124  0.00  0.00     0.002 A 
ATOM      6  C6  I4B d   1      -0.341  -0.575   0.291  0.00  0.00     0.003 A 
ENDROOT
BRANCH   1   7
ATOM      7  C1' I4B d   1      -0.677   1.877   0.707  0.00  0.00     0.060 C 
BRANCH   7   8
ATOM      8  C2' I4B d   1       0.096   3.122   0.321  0.00  0.00    -0.013 C 
ATOM      9  C4' I4B d   1      -0.350   3.647  -1.019  0.00  0.00     0.013 C 
ATOM     10  C3' I4B d   1      -0.107   4.146   1.398  0.00  0.00     0.013 C 
ENDBRANCH   7   8
ENDBRANCH   1   7
TORSDOF 2
ENDMDL
