MODEL 1
REMARK minimizedAffinity 2.61055255
REMARK minimizedRMSD -1
REMARK  2 active torsions:
REMARK  status: ('A' for Active; 'I' for Inactive)
REMARK    1  A    between atoms: C2'_3  and  C1'_4 
REMARK    2  A    between atoms: C1'_4  and  C1_5 
ROOT
ATOM      1  C1  I4B d   1      -1.692   1.207  -1.620  0.00  0.00    -0.075 A 
ATOM      2  C2  I4B d   1      -2.500   0.182  -2.045  0.00  0.00     0.003 A 
ATOM      3  C3  I4B d   1      -3.014   0.179  -3.365  0.00  0.00     0.002 A 
ATOM      4  C4  I4B d   1      -2.737   1.238  -4.204  0.00  0.00    -0.004 A 
ATOM      5  C5  I4B d   1      -1.899   2.265  -3.779  0.00  0.00     0.002 A 
ATOM      6  C6  I4B d   1      -1.363   2.244  -2.484  0.00  0.00     0.003 A 
ENDROOT
BRANCH   1   7
ATOM      7  C1' I4B d   1      -1.195   1.195  -0.210  0.00  0.00     0.060 C 
BRANCH   7   8
ATOM      8  C2' I4B d   1      -0.304  -0.018  -0.039  0.00  0.00    -0.013 C 
ATOM      9  C4' I4B d   1       1.132   0.385   0.173  0.00  0.00     0.013 C 
ATOM     10  C3' I4B d   1      -0.821  -0.813   1.123  0.00  0.00     0.013 C 
ENDBRANCH   7   8
ENDBRANCH   1   7
TORSDOF 2
ENDMDL
