MODEL 1
REMARK minimizedAffinity -3.66025734
REMARK minimizedRMSD -1
REMARK  2 active torsions:
REMARK  status: ('A' for Active; 'I' for Inactive)
REMARK    1  A    between atoms: C2'_3  and  C1'_4 
REMARK    2  A    between atoms: C1'_4  and  C1_5 
ROOT
ATOM      1  C1  I4B d   1      -0.507   2.958  -1.365  0.00  0.00    -0.075 A 
ATOM      2  C2  I4B d   1      -0.491   1.884  -0.510  0.00  0.00     0.003 A 
ATOM      3  C3  I4B d   1      -1.389   0.806  -0.702  0.00  0.00     0.002 A 
ATOM      4  C4  I4B d   1      -2.313   0.866  -1.726  0.00  0.00    -0.004 A 
ATOM      5  C5  I4B d   1      -2.311   1.944  -2.606  0.00  0.00     0.002 A 
ATOM      6  C6  I4B d   1      -1.395   2.991  -2.432  0.00  0.00     0.003 A 
ENDROOT
BRANCH   1   7
ATOM      7  C1' I4B d   1       0.433   4.094  -1.113  0.00  0.00     0.060 C 
BRANCH   7   8
ATOM      8  C2' I4B d   1       1.028   3.909   0.269  0.00  0.00    -0.013 C 
ATOM      9  C4' I4B d   1       2.519   3.712   0.198  0.00  0.00     0.013 C 
ATOM     10  C3' I4B d   1       0.680   5.117   1.088  0.00  0.00     0.013 C 
ENDBRANCH   7   8
ENDBRANCH   1   7
TORSDOF 2
ENDMDL
