MODEL 1
REMARK minimizedAffinity -3.66895413
REMARK minimizedRMSD -1
REMARK  2 active torsions:
REMARK  status: ('A' for Active; 'I' for Inactive)
REMARK    1  A    between atoms: C2'_3  and  C1'_4 
REMARK    2  A    between atoms: C1'_4  and  C1_5 
ROOT
ATOM      1  C1  I4B d   1       0.448   1.388  -0.332  0.00  0.00    -0.075 A 
ATOM      2  C2  I4B d   1       0.024   2.681  -0.155  0.00  0.00     0.003 A 
ATOM      3  C3  I4B d   1       0.967   3.730  -0.029  0.00  0.00     0.002 A 
ATOM      4  C4  I4B d   1       2.315   3.436  -0.036  0.00  0.00    -0.004 A 
ATOM      5  C5  I4B d   1       2.743   2.127  -0.239  0.00  0.00     0.002 A 
ATOM      6  C6  I4B d   1       1.804   1.098  -0.400  0.00  0.00     0.003 A 
ENDROOT
BRANCH   1   7
ATOM      7  C1' I4B d   1      -0.575   0.301  -0.427  0.00  0.00     0.060 C 
BRANCH   7   8
ATOM      8  C2' I4B d   1      -0.771  -0.279   0.959  0.00  0.00    -0.013 C 
ATOM      9  C4' I4B d   1      -1.932   0.371   1.663  0.00  0.00     0.013 C 
ATOM     10  C3' I4B d   1      -0.982  -1.757   0.817  0.00  0.00     0.013 C 
ENDBRANCH   7   8
ENDBRANCH   1   7
TORSDOF 2
ENDMDL
