MODEL 1
REMARK minimizedAffinity -1.55354011
REMARK minimizedRMSD -1
REMARK  2 active torsions:
REMARK  status: ('A' for Active; 'I' for Inactive)
REMARK    1  A    between atoms: C2'_3  and  C1'_4 
REMARK    2  A    between atoms: C1'_4  and  C1_5 
ROOT
ATOM      1  C1  I4B d   1      -1.869   0.337  -1.910  0.00  0.00    -0.075 A 
ATOM      2  C2  I4B d   1      -2.954   0.918  -1.300  0.00  0.00     0.003 A 
ATOM      3  C3  I4B d   1      -3.640   1.984  -1.930  0.00  0.00     0.002 A 
ATOM      4  C4  I4B d   1      -3.180   2.469  -3.138  0.00  0.00    -0.004 A 
ATOM      5  C5  I4B d   1      -2.094   1.864  -3.765  0.00  0.00     0.002 A 
ATOM      6  C6  I4B d   1      -1.442   0.784  -3.153  0.00  0.00     0.003 A 
ENDROOT
BRANCH   1   7
ATOM      7  C1' I4B d   1      -1.149  -0.765  -1.201  0.00  0.00     0.060 C 
BRANCH   7   8
ATOM      8  C2' I4B d   1      -0.625  -0.213   0.110  0.00  0.00    -0.013 C 
ATOM      9  C4' I4B d   1      -0.469  -1.304   1.137  0.00  0.00     0.013 C 
ATOM     10  C3' I4B d   1       0.685   0.464  -0.164  0.00  0.00     0.013 C 
ENDBRANCH   7   8
ENDBRANCH   1   7
TORSDOF 2
ENDMDL
