MODEL 1
REMARK minimizedAffinity -4.25536537
REMARK minimizedRMSD -1
REMARK  2 active torsions:
REMARK  status: ('A' for Active; 'I' for Inactive)
REMARK    1  A    between atoms: C2'_3  and  C1'_4 
REMARK    2  A    between atoms: C1'_4  and  C1_5 
ROOT
ATOM      1  C1  I4B d   1      -0.073  -0.467   0.215  0.00  0.00    -0.075 A 
ATOM      2  C2  I4B d   1       1.182  -0.061  -0.163  0.00  0.00     0.003 A 
ATOM      3  C3  I4B d   1       2.282  -0.945  -0.050  0.00  0.00     0.002 A 
ATOM      4  C4  I4B d   1       2.092  -2.200   0.490  0.00  0.00    -0.004 A 
ATOM      5  C5  I4B d   1       0.815  -2.619   0.852  0.00  0.00     0.002 A 
ATOM      6  C6  I4B d   1      -0.277  -1.752   0.703  0.00  0.00     0.003 A 
ENDROOT
BRANCH   1   7
ATOM      7  C1' I4B d   1      -1.207   0.503   0.113  0.00  0.00     0.060 C 
BRANCH   7   8
ATOM      8  C2' I4B d   1      -0.825   1.562  -0.901  0.00  0.00    -0.013 C 
ATOM      9  C4' I4B d   1      -1.777   1.568  -2.068  0.00  0.00     0.013 C 
ATOM     10  C3' I4B d   1      -0.815   2.889  -0.204  0.00  0.00     0.013 C 
ENDBRANCH   7   8
ENDBRANCH   1   7
TORSDOF 2
ENDMDL
