MODEL 1
REMARK minimizedAffinity -3.40581226
REMARK minimizedRMSD -1
REMARK  2 active torsions:
REMARK  status: ('A' for Active; 'I' for Inactive)
REMARK    1  A    between atoms: C2'_3  and  C1'_4 
REMARK    2  A    between atoms: C1'_4  and  C1_5 
ROOT
ATOM      1  C1  I4B d   1       2.563   0.570  -0.039  0.00  0.00    -0.075 A 
ATOM      2  C2  I4B d   1       1.496  -0.223  -0.380  0.00  0.00     0.003 A 
ATOM      3  C3  I4B d   1       1.201  -1.384   0.376  0.00  0.00     0.002 A 
ATOM      4  C4  I4B d   1       2.023  -1.739   1.426  0.00  0.00    -0.004 A 
ATOM      5  C5  I4B d   1       3.091  -0.921   1.784  0.00  0.00     0.002 A 
ATOM      6  C6  I4B d   1       3.356   0.248   1.055  0.00  0.00     0.003 A 
ENDROOT
BRANCH   1   7
ATOM      7  C1' I4B d   1       2.866   1.771  -0.878  0.00  0.00     0.060 C 
BRANCH   7   8
ATOM      8  C2' I4B d   1       3.052   2.954   0.049  0.00  0.00    -0.013 C 
ATOM      9  C4' I4B d   1       4.068   3.922  -0.499  0.00  0.00     0.013 C 
ATOM     10  C3' I4B d   1       1.718   3.615   0.230  0.00  0.00     0.013 C 
ENDBRANCH   7   8
ENDBRANCH   1   7
TORSDOF 2
ENDMDL
