MODEL 1
REMARK minimizedAffinity -4.33033276
REMARK minimizedRMSD -1
REMARK  2 active torsions:
REMARK  status: ('A' for Active; 'I' for Inactive)
REMARK    1  A    between atoms: C2'_3  and  C1'_4 
REMARK    2  A    between atoms: C1'_4  and  C1_5 
ROOT
ATOM      1  C1  I4B d   1       1.074   2.811  -0.209  0.00  0.00    -0.075 A 
ATOM      2  C2  I4B d   1       1.685   1.614  -0.492  0.00  0.00     0.003 A 
ATOM      3  C3  I4B d   1       3.094   1.545  -0.616  0.00  0.00     0.002 A 
ATOM      4  C4  I4B d   1       3.844   2.698  -0.500  0.00  0.00    -0.004 A 
ATOM      5  C5  I4B d   1       3.225   3.906  -0.191  0.00  0.00     0.002 A 
ATOM      6  C6  I4B d   1       1.832   3.961  -0.032  0.00  0.00     0.003 A 
ENDROOT
BRANCH   1   7
ATOM      7  C1' I4B d   1      -0.418   2.854  -0.118  0.00  0.00     0.060 C 
BRANCH   7   8
ATOM      8  C2' I4B d   1      -0.947   1.475  -0.457  0.00  0.00    -0.013 C 
ATOM      9  C4' I4B d   1      -1.695   0.877   0.705  0.00  0.00     0.013 C 
ATOM     10  C3' I4B d   1      -1.831   1.602  -1.662  0.00  0.00     0.013 C 
ENDBRANCH   7   8
ENDBRANCH   1   7
TORSDOF 2
ENDMDL
