MODEL 1
REMARK minimizedAffinity -3.07786751
REMARK minimizedRMSD -1
REMARK  1 active torsions:
REMARK  status: ('A' for Active; 'I' for Inactive)
REMARK    1  A    between atoms: C1_2  and  C2_3 
ROOT
ATOM      1  C2  UNL d   1      -1.173   1.241  -0.972  0.00  0.00    -0.077 A 
ATOM      2  C3  UNL d   1      -0.611   2.202  -1.823  0.00  0.00     0.002 A 
ATOM      3  C4  UNL d   1      -1.309   2.645  -2.948  0.00  0.00     0.002 A 
ATOM      4  C5  UNL d   1      -2.575   2.134  -3.230  0.00  0.00    -0.004 A 
ATOM      5  C6  UNL d   1      -3.142   1.176  -2.390  0.00  0.00     0.002 A 
ATOM      6  C7  UNL d   1      -2.445   0.732  -1.266  0.00  0.00     0.002 A 
ENDROOT
BRANCH   1   7
ATOM      7  C1  UNL d   1      -0.443   0.798   0.269  0.00  0.00     0.055 C 
ATOM      8  C   UNL d   1       0.760  -0.068  -0.075  0.00  0.00     0.019 C 
ENDBRANCH   1   7
TORSDOF 1
ENDMDL
