MODEL 1
REMARK minimizedAffinity -3.73894
REMARK minimizedRMSD -1
REMARK  1 active torsions:
REMARK  status: ('A' for Active; 'I' for Inactive)
REMARK    1  A    between atoms: C1_2  and  C2_3 
ROOT
ATOM      1  C2  UNL d   1      -0.884   1.338  -1.240  0.00  0.00    -0.077 A 
ATOM      2  C3  UNL d   1      -2.267   1.393  -1.461  0.00  0.00     0.002 A 
ATOM      3  C4  UNL d   1      -2.771   1.869  -2.673  0.00  0.00     0.002 A 
ATOM      4  C5  UNL d   1      -1.899   2.290  -3.675  0.00  0.00    -0.004 A 
ATOM      5  C6  UNL d   1      -0.521   2.242  -3.464  0.00  0.00     0.002 A 
ATOM      6  C7  UNL d   1      -0.016   1.767  -2.253  0.00  0.00     0.002 A 
ENDROOT
BRANCH   1   7
ATOM      7  C1  UNL d   1      -0.338   0.779   0.047  0.00  0.00     0.055 C 
ATOM      8  C   UNL d   1       0.971   0.037  -0.182  0.00  0.00     0.019 C 
ENDBRANCH   1   7
TORSDOF 1
ENDMDL
