MODEL 1
REMARK minimizedAffinity -3.90343332
REMARK minimizedRMSD -1
REMARK  1 active torsions:
REMARK  status: ('A' for Active; 'I' for Inactive)
REMARK    1  A    between atoms: C1_2  and  C2_3 
ROOT
ATOM      1  C2  UNL d   1      -0.346   0.765  -0.361  0.00  0.00    -0.077 A 
ATOM      2  C3  UNL d   1      -0.575  -0.261   0.567  0.00  0.00     0.002 A 
ATOM      3  C4  UNL d   1       0.476  -1.075   0.993  0.00  0.00     0.002 A 
ATOM      4  C5  UNL d   1       1.762  -0.870   0.500  0.00  0.00    -0.004 A 
ATOM      5  C6  UNL d   1       2.000   0.146  -0.424  0.00  0.00     0.002 A 
ATOM      6  C7  UNL d   1       0.951   0.961  -0.853  0.00  0.00     0.002 A 
ENDROOT
BRANCH   1   7
ATOM      7  C1  UNL d   1      -1.469   1.676  -0.785  0.00  0.00     0.055 C 
ATOM      8  C   UNL d   1      -2.173   1.147  -2.026  0.00  0.00     0.019 C 
ENDBRANCH   1   7
TORSDOF 1
ENDMDL
