MODEL 1
REMARK minimizedAffinity -3.28056693
REMARK minimizedRMSD -1
REMARK  1 active torsions:
REMARK  status: ('A' for Active; 'I' for Inactive)
REMARK    1  A    between atoms: C1_2  and  C2_3 
ROOT
ATOM      1  C2  UNL d   1      -0.756   0.339  -1.101  0.00  0.00    -0.077 A 
ATOM      2  C3  UNL d   1      -1.037   0.385   0.272  0.00  0.00     0.002 A 
ATOM      3  C4  UNL d   1      -0.125  -0.129   1.197  0.00  0.00     0.002 A 
ATOM      4  C5  UNL d   1       1.074  -0.687   0.759  0.00  0.00    -0.004 A 
ATOM      5  C6  UNL d   1       1.361  -0.738  -0.605  0.00  0.00     0.002 A 
ATOM      6  C7  UNL d   1       0.451  -0.227  -1.530  0.00  0.00     0.002 A 
ENDROOT
BRANCH   1   7
ATOM      7  C1  UNL d   1      -1.716   0.937  -2.096  0.00  0.00     0.055 C 
ATOM      8  C   UNL d   1      -2.493   2.096  -1.489  0.00  0.00     0.019 C 
ENDBRANCH   1   7
TORSDOF 1
ENDMDL
