MODEL 1
REMARK minimizedAffinity -4.63903427
REMARK minimizedRMSD -1
REMARK  1 active torsions:
REMARK  status: ('A' for Active; 'I' for Inactive)
REMARK    1  A    between atoms: C1_2  and  C2_3 
ROOT
ATOM      1  C2  UNL d   1      -0.181   1.236  -0.832  0.00  0.00    -0.077 A 
ATOM      2  C3  UNL d   1       1.191   1.355  -1.096  0.00  0.00     0.002 A 
ATOM      3  C4  UNL d   1       2.097   0.444  -0.549  0.00  0.00     0.002 A 
ATOM      4  C5  UNL d   1       1.641  -0.594   0.262  0.00  0.00    -0.004 A 
ATOM      5  C6  UNL d   1       0.279  -0.719   0.532  0.00  0.00     0.002 A 
ATOM      6  C7  UNL d   1      -0.628   0.191  -0.013  0.00  0.00     0.002 A 
ENDROOT
BRANCH   1   7
ATOM      7  C1  UNL d   1      -1.164   2.188  -1.461  0.00  0.00     0.055 C 
ATOM      8  C   UNL d   1      -2.090   1.467  -2.430  0.00  0.00     0.019 C 
ENDBRANCH   1   7
TORSDOF 1
ENDMDL
