MODEL 1
REMARK minimizedAffinity -0.258062273
REMARK minimizedRMSD -1
REMARK  1 active torsions:
REMARK  status: ('A' for Active; 'I' for Inactive)
REMARK    1  A    between atoms: C1_2  and  C2_3 
ROOT
ATOM      1  C2  UNL d   1       2.380  -0.499   0.875  0.00  0.00    -0.077 A 
ATOM      2  C3  UNL d   1       2.231   0.558  -0.035  0.00  0.00     0.002 A 
ATOM      3  C4  UNL d   1       0.980   0.844  -0.585  0.00  0.00     0.002 A 
ATOM      4  C5  UNL d   1      -0.131   0.083  -0.228  0.00  0.00    -0.004 A 
ATOM      5  C6  UNL d   1       0.008  -0.972   0.674  0.00  0.00     0.002 A 
ATOM      6  C7  UNL d   1       1.257  -1.260   1.224  0.00  0.00     0.002 A 
ENDROOT
BRANCH   1   7
ATOM      7  C1  UNL d   1       3.719  -0.779   1.507  0.00  0.00     0.055 C 
ATOM      8  C   UNL d   1       3.773  -0.265   2.938  0.00  0.00     0.019 C 
ENDBRANCH   1   7
TORSDOF 1
ENDMDL
