MODEL 1
REMARK minimizedAffinity 0.020668909
REMARK minimizedRMSD -1
REMARK  1 active torsions:
REMARK  status: ('A' for Active; 'I' for Inactive)
REMARK    1  A    between atoms: C1_2  and  C2_3 
ROOT
ATOM      1  C2  UNL d   1       0.816  -0.176   0.236  0.00  0.00    -0.077 A 
ATOM      2  C3  UNL d   1       1.464   0.001  -0.995  0.00  0.00     0.002 A 
ATOM      3  C4  UNL d   1       2.667  -0.655  -1.260  0.00  0.00     0.002 A 
ATOM      4  C5  UNL d   1       3.231  -1.495  -0.302  0.00  0.00    -0.004 A 
ATOM      5  C6  UNL d   1       2.596  -1.675   0.926  0.00  0.00     0.002 A 
ATOM      6  C7  UNL d   1       1.394  -1.019   1.193  0.00  0.00     0.002 A 
ENDROOT
BRANCH   1   7
ATOM      7  C1  UNL d   1      -0.507   0.492   0.505  0.00  0.00     0.055 C 
ATOM      8  C   UNL d   1      -1.241  -0.179   1.656  0.00  0.00     0.019 C 
ENDBRANCH   1   7
TORSDOF 1
ENDMDL
