MODEL 1
REMARK minimizedAffinity -3.99366784
REMARK minimizedRMSD -1
REMARK  1 active torsions:
REMARK  status: ('A' for Active; 'I' for Inactive)
REMARK    1  A    between atoms: C1_2  and  C2_3 
ROOT
ATOM      1  C2  UNL d   1       0.723  -1.180   1.288  0.00  0.00    -0.077 A 
ATOM      2  C3  UNL d   1      -0.335  -1.438   2.170  0.00  0.00     0.002 A 
ATOM      3  C4  UNL d   1      -1.486  -0.648   2.144  0.00  0.00     0.002 A 
ATOM      4  C5  UNL d   1      -1.591   0.403   1.235  0.00  0.00    -0.004 A 
ATOM      5  C6  UNL d   1      -0.543   0.669   0.354  0.00  0.00     0.002 A 
ATOM      6  C7  UNL d   1       0.609  -0.119   0.380  0.00  0.00     0.002 A 
ENDROOT
BRANCH   1   7
ATOM      7  C1  UNL d   1       1.945  -2.061   1.281  0.00  0.00     0.055 C 
ATOM      8  C   UNL d   1       2.847  -1.749   0.096  0.00  0.00     0.019 C 
ENDBRANCH   1   7
TORSDOF 1
ENDMDL
