MODEL 1
REMARK minimizedAffinity 0.476721108
REMARK minimizedRMSD -1
REMARK  1 active torsions:
REMARK  status: ('A' for Active; 'I' for Inactive)
REMARK    1  A    between atoms: C1_2  and  C2_3 
ROOT
ATOM      1  C2  UNL d   1       1.244   0.954  -0.628  0.00  0.00    -0.077 A 
ATOM      2  C3  UNL d   1       1.877   0.351   0.469  0.00  0.00     0.002 A 
ATOM      3  C4  UNL d   1       3.256   0.474   0.643  0.00  0.00     0.002 A 
ATOM      4  C5  UNL d   1       4.014   1.201  -0.272  0.00  0.00    -0.004 A 
ATOM      5  C6  UNL d   1       3.395   1.802  -1.367  0.00  0.00     0.002 A 
ATOM      6  C7  UNL d   1       2.016   1.680  -1.544  0.00  0.00     0.002 A 
ENDROOT
BRANCH   1   7
ATOM      7  C1  UNL d   1      -0.251   0.864  -0.790  0.00  0.00     0.055 C 
ATOM      8  C   UNL d   1      -0.953   0.825   0.559  0.00  0.00     0.019 C 
ENDBRANCH   1   7
TORSDOF 1
ENDMDL
