MODEL 1
REMARK minimizedAffinity -2.36052537
REMARK minimizedRMSD -1
REMARK  1 active torsions:
REMARK  status: ('A' for Active; 'I' for Inactive)
REMARK    1  A    between atoms: C1_2  and  C2_3 
ROOT
ATOM      1  C2  UNL d   1       0.771   0.221   0.319  0.00  0.00    -0.077 A 
ATOM      2  C3  UNL d   1       0.044   0.713  -0.774  0.00  0.00     0.002 A 
ATOM      3  C4  UNL d   1      -1.331   0.929  -0.668  0.00  0.00     0.002 A 
ATOM      4  C5  UNL d   1      -1.990   0.660   0.530  0.00  0.00    -0.004 A 
ATOM      5  C6  UNL d   1      -1.276   0.169   1.622  0.00  0.00     0.002 A 
ATOM      6  C7  UNL d   1       0.098  -0.049   1.518  0.00  0.00     0.002 A 
ENDROOT
BRANCH   1   7
ATOM      7  C1  UNL d   1       2.263   0.034   0.222  0.00  0.00     0.055 C 
ATOM      8  C   UNL d   1       2.873   0.972  -0.809  0.00  0.00     0.019 C 
ENDBRANCH   1   7
TORSDOF 1
ENDMDL
