MODEL 1
REMARK minimizedAffinity -1.33920252
REMARK minimizedRMSD -1
REMARK  1 active torsions:
REMARK  status: ('A' for Active; 'I' for Inactive)
REMARK    1  A    between atoms: C1_2  and  C2_3 
ROOT
ATOM      1  C2  UNL d   1       0.834  -0.174   0.514  0.00  0.00    -0.077 A 
ATOM      2  C3  UNL d   1       0.767  -0.845   1.743  0.00  0.00     0.002 A 
ATOM      3  C4  UNL d   1      -0.412  -0.834   2.490  0.00  0.00     0.002 A 
ATOM      4  C5  UNL d   1      -1.534  -0.157   2.015  0.00  0.00    -0.004 A 
ATOM      5  C6  UNL d   1      -1.477   0.515   0.795  0.00  0.00     0.002 A 
ATOM      6  C7  UNL d   1      -0.298   0.506   0.047  0.00  0.00     0.002 A 
ENDROOT
BRANCH   1   7
ATOM      7  C1  UNL d   1       2.090  -0.226  -0.317  0.00  0.00     0.055 C 
ATOM      8  C   UNL d   1       2.979  -1.390   0.096  0.00  0.00     0.019 C 
ENDBRANCH   1   7
TORSDOF 1
ENDMDL
