MODEL 1
REMARK minimizedAffinity 0.152146801
REMARK minimizedRMSD -1
REMARK  1 active torsions:
REMARK  status: ('A' for Active; 'I' for Inactive)
REMARK    1  A    between atoms: C1_2  and  C2_3 
ROOT
ATOM      1  C2  UNL d   1      -0.370   0.728  -0.254  0.00  0.00    -0.077 A 
ATOM      2  C3  UNL d   1      -1.082   0.173   0.819  0.00  0.00     0.002 A 
ATOM      3  C4  UNL d   1      -0.473  -0.756   1.666  0.00  0.00     0.002 A 
ATOM      4  C5  UNL d   1       0.850  -1.133   1.451  0.00  0.00    -0.004 A 
ATOM      5  C6  UNL d   1       1.566  -0.588   0.386  0.00  0.00     0.002 A 
ATOM      6  C7  UNL d   1       0.959   0.339  -0.462  0.00  0.00     0.002 A 
ENDROOT
BRANCH   1   7
ATOM      7  C1  UNL d   1      -1.010   1.766  -1.139  0.00  0.00     0.055 C 
ATOM      8  C   UNL d   1      -1.941   1.126  -2.158  0.00  0.00     0.019 C 
ENDBRANCH   1   7
TORSDOF 1
ENDMDL
