MODEL 1
REMARK minimizedAffinity -1.79068673
REMARK minimizedRMSD -1
REMARK  0 active torsions:
REMARK  status: ('A' for Active; 'I' for Inactive)
ROOT
ATOM      1  C   UNL d   1       0.710  -3.772   1.119  0.00  0.00     0.077 C 
ATOM      2  C1  UNL d   1       0.090  -2.444   0.798  0.00  0.00    -0.074 A 
ATOM      3  C2  UNL d   1      -0.808  -1.837   1.681  0.00  0.00    -0.005 A 
ATOM      4  C3  UNL d   1      -1.369  -0.598   1.373  0.00  0.00     0.006 A 
ATOM      5  C4  UNL d   1      -1.037   0.046   0.180  0.00  0.00    -0.005 A 
ATOM      6  C5  UNL d   1      -0.141  -0.545  -0.715  0.00  0.00    -0.074 A 
ATOM      7  C6  UNL d   1       0.233   0.138  -1.997  0.00  0.00     0.077 C 
ATOM      8  C7  UNL d   1       0.424  -1.787  -0.395  0.00  0.00    -0.001 A 
ENDROOT
TORSDOF 0
ENDMDL
