MODEL 1
REMARK minimizedAffinity -1.10833442
REMARK minimizedRMSD -1
REMARK  0 active torsions:
REMARK  status: ('A' for Active; 'I' for Inactive)
ROOT
ATOM      1  C   UNL d   1       0.083  -1.868  -2.905  0.00  0.00     0.077 C 
ATOM      2  C1  UNL d   1      -0.224  -1.330  -1.540  0.00  0.00    -0.074 A 
ATOM      3  C2  UNL d   1      -0.829  -2.135  -0.569  0.00  0.00    -0.005 A 
ATOM      4  C3  UNL d   1      -1.100  -1.623   0.700  0.00  0.00     0.006 A 
ATOM      5  C4  UNL d   1      -0.770  -0.303   1.011  0.00  0.00    -0.005 A 
ATOM      6  C5  UNL d   1      -0.164   0.516   0.053  0.00  0.00    -0.074 A 
ATOM      7  C6  UNL d   1       0.206   1.934   0.374  0.00  0.00     0.077 C 
ATOM      8  C7  UNL d   1       0.112  -0.007  -1.217  0.00  0.00    -0.001 A 
ENDROOT
TORSDOF 0
ENDMDL
