MODEL 1
REMARK minimizedAffinity -4.12860918
REMARK minimizedRMSD -1
REMARK  0 active torsions:
REMARK  status: ('A' for Active; 'I' for Inactive)
ROOT
ATOM      1  C   UNL d   1       0.040   1.403  -0.868  0.00  0.00     0.077 C 
ATOM      2  C1  UNL d   1      -0.256   0.164  -0.076  0.00  0.00    -0.074 A 
ATOM      3  C2  UNL d   1      -0.044  -1.106  -0.623  0.00  0.00    -0.005 A 
ATOM      4  C3  UNL d   1      -0.314  -2.249   0.129  0.00  0.00     0.006 A 
ATOM      5  C4  UNL d   1      -0.798  -2.135   1.433  0.00  0.00    -0.005 A 
ATOM      6  C5  UNL d   1      -1.015  -0.873   1.996  0.00  0.00    -0.074 A 
ATOM      7  C6  UNL d   1      -1.526  -0.732   3.400  0.00  0.00     0.077 C 
ATOM      8  C7  UNL d   1      -0.735   0.271   1.237  0.00  0.00    -0.001 A 
ENDROOT
TORSDOF 0
ENDMDL
