MODEL 1
REMARK minimizedAffinity -1.98639941
REMARK minimizedRMSD -1
REMARK  0 active torsions:
REMARK  status: ('A' for Active; 'I' for Inactive)
ROOT
ATOM      1  C   UNL d   1       1.203   2.342   0.372  0.00  0.00     0.077 C 
ATOM      2  C1  UNL d   1       0.491   1.044   0.136  0.00  0.00    -0.074 A 
ATOM      3  C2  UNL d   1       0.274   0.569  -1.161  0.00  0.00    -0.005 A 
ATOM      4  C3  UNL d   1      -0.382  -0.646  -1.365  0.00  0.00     0.006 A 
ATOM      5  C4  UNL d   1      -0.826  -1.396  -0.276  0.00  0.00    -0.005 A 
ATOM      6  C5  UNL d   1      -0.617  -0.937   1.029  0.00  0.00    -0.074 A 
ATOM      7  C6  UNL d   1      -1.079  -1.736   2.211  0.00  0.00     0.077 C 
ATOM      8  C7  UNL d   1       0.048   0.280   1.226  0.00  0.00    -0.001 A 
ENDROOT
TORSDOF 0
ENDMDL
