MODEL 1
REMARK minimizedAffinity 0.394497663
REMARK minimizedRMSD -1
REMARK  0 active torsions:
REMARK  status: ('A' for Active; 'I' for Inactive)
ROOT
ATOM      1  C   UNL d   1      -2.252   0.312   2.805  0.00  0.00     0.077 C 
ATOM      2  C1  UNL d   1      -1.459  -0.180   1.631  0.00  0.00    -0.074 A 
ATOM      3  C2  UNL d   1      -0.781   0.713   0.796  0.00  0.00    -0.005 A 
ATOM      4  C3  UNL d   1      -0.039   0.239  -0.286  0.00  0.00     0.006 A 
ATOM      5  C4  UNL d   1       0.030  -1.130  -0.545  0.00  0.00    -0.005 A 
ATOM      6  C5  UNL d   1      -0.641  -2.039   0.280  0.00  0.00    -0.074 A 
ATOM      7  C6  UNL d   1      -0.569  -3.514   0.022  0.00  0.00     0.077 C 
ATOM      8  C7  UNL d   1      -1.378  -1.555   1.370  0.00  0.00    -0.001 A 
ENDROOT
TORSDOF 0
ENDMDL
