MODEL 1
REMARK minimizedAffinity -0.202930391
REMARK minimizedRMSD -1
REMARK  0 active torsions:
REMARK  status: ('A' for Active; 'I' for Inactive)
ROOT
ATOM      1  C   UNL d   1      -1.172  -3.054   0.412  0.00  0.00     0.077 C 
ATOM      2  C1  UNL d   1      -0.786  -1.714  -0.140  0.00  0.00    -0.074 A 
ATOM      3  C2  UNL d   1      -1.068  -0.539   0.563  0.00  0.00    -0.005 A 
ATOM      4  C3  UNL d   1      -0.695   0.700   0.042  0.00  0.00     0.006 A 
ATOM      5  C4  UNL d   1      -0.036   0.775  -1.186  0.00  0.00    -0.005 A 
ATOM      6  C5  UNL d   1       0.256  -0.390  -1.903  0.00  0.00    -0.074 A 
ATOM      7  C6  UNL d   1       0.972  -0.327  -3.220  0.00  0.00     0.077 C 
ATOM      8  C7  UNL d   1      -0.117  -1.631  -1.369  0.00  0.00    -0.001 A 
ENDROOT
TORSDOF 0
ENDMDL
