MODEL 1
REMARK minimizedAffinity -3.41855288
REMARK minimizedRMSD -1
REMARK  0 active torsions:
REMARK  status: ('A' for Active; 'I' for Inactive)
ROOT
ATOM      1  C   UNL d   1       0.801  -0.254  -3.309  0.00  0.00     0.077 C 
ATOM      2  C1  UNL d   1       0.301  -0.309  -1.896  0.00  0.00    -0.074 A 
ATOM      3  C2  UNL d   1       0.121   0.861  -1.151  0.00  0.00    -0.005 A 
ATOM      4  C3  UNL d   1      -0.353   0.794   0.159  0.00  0.00     0.006 A 
ATOM      5  C4  UNL d   1      -0.652  -0.441   0.736  0.00  0.00    -0.005 A 
ATOM      6  C5  UNL d   1      -0.480  -1.621   0.006  0.00  0.00    -0.074 A 
ATOM      7  C6  UNL d   1      -0.806  -2.955   0.608  0.00  0.00     0.077 C 
ATOM      8  C7  UNL d   1      -0.009  -1.545  -1.312  0.00  0.00    -0.001 A 
ENDROOT
TORSDOF 0
ENDMDL
