MODEL 1
REMARK minimizedAffinity -3.80036879
REMARK minimizedRMSD -1
REMARK  0 active torsions:
REMARK  status: ('A' for Active; 'I' for Inactive)
ROOT
ATOM      1  C   UNL d   1      -1.609  -0.641   2.316  0.00  0.00     0.077 C 
ATOM      2  C1  UNL d   1      -1.004  -0.907   0.970  0.00  0.00    -0.074 A 
ATOM      3  C2  UNL d   1      -0.657   0.146   0.117  0.00  0.00    -0.005 A 
ATOM      4  C3  UNL d   1      -0.085  -0.117  -1.128  0.00  0.00     0.006 A 
ATOM      5  C4  UNL d   1       0.144  -1.432  -1.532  0.00  0.00    -0.005 A 
ATOM      6  C5  UNL d   1      -0.195  -2.498  -0.693  0.00  0.00    -0.074 A 
ATOM      7  C6  UNL d   1       0.054  -3.917  -1.108  0.00  0.00     0.077 C 
ATOM      8  C7  UNL d   1      -0.762  -2.226   0.560  0.00  0.00    -0.001 A 
ENDROOT
TORSDOF 0
ENDMDL
