MODEL 1
REMARK minimizedAffinity -6.01049328
REMARK minimizedRMSD -1
REMARK  0 active torsions:
REMARK  status: ('A' for Active; 'I' for Inactive)
ROOT
ATOM      1  C   UNL d   1       0.101   0.586  -2.233  0.00  0.00     0.077 C 
ATOM      2  C1  UNL d   1      -0.161  -0.314  -1.062  0.00  0.00    -0.074 A 
ATOM      3  C2  UNL d   1      -0.943   0.115   0.015  0.00  0.00    -0.005 A 
ATOM      4  C3  UNL d   1      -1.186  -0.737   1.092  0.00  0.00     0.006 A 
ATOM      5  C4  UNL d   1      -0.649  -2.025   1.104  0.00  0.00    -0.005 A 
ATOM      6  C5  UNL d   1       0.135  -2.472   0.036  0.00  0.00    -0.074 A 
ATOM      7  C6  UNL d   1       0.711  -3.857   0.028  0.00  0.00     0.077 C 
ATOM      8  C7  UNL d   1       0.368  -1.613  -1.047  0.00  0.00    -0.001 A 
ENDROOT
TORSDOF 0
ENDMDL
