MODEL 1
REMARK minimizedAffinity -0.819150805
REMARK minimizedRMSD -1
REMARK  0 active torsions:
REMARK  status: ('A' for Active; 'I' for Inactive)
ROOT
ATOM      1  C   UNL d   1       0.271   1.660  -0.933  0.00  0.00     0.077 C 
ATOM      2  C1  UNL d   1      -0.155   0.335  -0.374  0.00  0.00    -0.074 A 
ATOM      3  C2  UNL d   1      -0.082  -0.828  -1.146  0.00  0.00    -0.005 A 
ATOM      4  C3  UNL d   1      -0.473  -2.055  -0.609  0.00  0.00     0.006 A 
ATOM      5  C4  UNL d   1      -0.939  -2.130   0.704  0.00  0.00    -0.005 A 
ATOM      6  C5  UNL d   1      -1.018  -0.977   1.492  0.00  0.00    -0.074 A 
ATOM      7  C6  UNL d   1      -1.507  -1.042   2.908  0.00  0.00     0.077 C 
ATOM      8  C7  UNL d   1      -0.617   0.250   0.947  0.00  0.00    -0.001 A 
ENDROOT
TORSDOF 0
ENDMDL
