MODEL 1
REMARK minimizedAffinity -4.28329229
REMARK minimizedRMSD -1
REMARK  0 active torsions:
REMARK  status: ('A' for Active; 'I' for Inactive)
ROOT
ATOM      1  C   UNL d   1      -0.382   0.820  -1.576  0.00  0.00     0.077 C 
ATOM      2  C1  UNL d   1      -0.604  -0.168  -0.470  0.00  0.00    -0.074 A 
ATOM      3  C2  UNL d   1      -1.063   0.248   0.784  0.00  0.00    -0.005 A 
ATOM      4  C3  UNL d   1      -1.274  -0.683   1.800  0.00  0.00     0.006 A 
ATOM      5  C4  UNL d   1      -1.029  -2.038   1.573  0.00  0.00    -0.005 A 
ATOM      6  C5  UNL d   1      -0.571  -2.473   0.325  0.00  0.00    -0.074 A 
ATOM      7  C6  UNL d   1      -0.313  -3.927   0.062  0.00  0.00     0.077 C 
ATOM      8  C7  UNL d   1      -0.368  -1.532  -0.693  0.00  0.00    -0.001 A 
ENDROOT
TORSDOF 0
ENDMDL
