MODEL 1
REMARK minimizedAffinity -4.57608461
REMARK minimizedRMSD -1
REMARK  0 active torsions:
REMARK  status: ('A' for Active; 'I' for Inactive)
ROOT
ATOM      1  C   UNL d   1      -1.595  -0.072   0.289  0.00  0.00     0.077 C 
ATOM      2  C1  UNL d   1      -0.377   0.626  -0.238  0.00  0.00    -0.074 A 
ATOM      3  C2  UNL d   1       0.142   0.315  -1.499  0.00  0.00    -0.005 A 
ATOM      4  C3  UNL d   1       1.270   0.980  -1.980  0.00  0.00     0.006 A 
ATOM      5  C4  UNL d   1       1.890   1.961  -1.205  0.00  0.00    -0.005 A 
ATOM      6  C5  UNL d   1       1.385   2.287   0.057  0.00  0.00    -0.074 A 
ATOM      7  C6  UNL d   1       2.034   3.346   0.898  0.00  0.00     0.077 C 
ATOM      8  C7  UNL d   1       0.247   1.619   0.530  0.00  0.00    -0.001 A 
ENDROOT
TORSDOF 0
ENDMDL
