MODEL 1
REMARK minimizedAffinity 1.75618303
REMARK minimizedRMSD -1
REMARK  0 active torsions:
REMARK  status: ('A' for Active; 'I' for Inactive)
ROOT
ATOM      1  C   UNL d   1      -0.365   2.204   0.411  0.00  0.00     0.077 C 
ATOM      2  C1  UNL d   1      -0.121   1.011  -0.465  0.00  0.00    -0.074 A 
ATOM      3  C2  UNL d   1       0.265   1.166  -1.800  0.00  0.00    -0.005 A 
ATOM      4  C3  UNL d   1       0.498   0.047  -2.600  0.00  0.00     0.006 A 
ATOM      5  C4  UNL d   1       0.348  -1.236  -2.073  0.00  0.00    -0.005 A 
ATOM      6  C5  UNL d   1      -0.036  -1.411  -0.739  0.00  0.00    -0.074 A 
ATOM      7  C6  UNL d   1      -0.192  -2.783  -0.155  0.00  0.00     0.077 C 
ATOM      8  C7  UNL d   1      -0.261  -0.282   0.059  0.00  0.00    -0.001 A 
ENDROOT
TORSDOF 0
ENDMDL
