MODEL 1
REMARK minimizedAffinity -3.55464292
REMARK minimizedRMSD -1
REMARK  0 active torsions:
REMARK  status: ('A' for Active; 'I' for Inactive)
ROOT
ATOM      1  C   UNL d   1       2.031   3.093   1.691  0.00  0.00     0.077 C 
ATOM      2  C1  UNL d   1       1.111   2.331   0.784  0.00  0.00    -0.074 A 
ATOM      3  C2  UNL d   1       0.539   2.941  -0.337  0.00  0.00    -0.005 A 
ATOM      4  C3  UNL d   1      -0.307   2.217  -1.177  0.00  0.00     0.006 A 
ATOM      5  C4  UNL d   1      -0.590   0.878  -0.905  0.00  0.00    -0.005 A 
ATOM      6  C5  UNL d   1      -0.027   0.251   0.211  0.00  0.00    -0.074 A 
ATOM      7  C6  UNL d   1      -0.312  -1.190   0.512  0.00  0.00     0.077 C 
ATOM      8  C7  UNL d   1       0.828   0.983   1.046  0.00  0.00    -0.001 A 
ENDROOT
TORSDOF 0
ENDMDL
