MODEL 1
REMARK minimizedAffinity 10.0436411
REMARK minimizedRMSD -1
REMARK  0 active torsions:
REMARK  status: ('A' for Active; 'I' for Inactive)
ROOT
ATOM      1  C   UNL d   1      -5.998  -5.986   5.204  0.00  0.00    -0.002 A 
ATOM      2  C1  UNL d   1      -5.821  -4.864   6.000  0.00  0.00     0.010 A 
ATOM      3  C2  UNL d   1      -5.169  -3.734   5.500  0.00  0.00     0.041 A 
ATOM      4  C3  UNL d   1      -4.696  -3.752   4.174  0.00  0.00    -0.075 A 
ATOM      5  S   UNL d   1      -3.869  -2.484   3.348  0.00  0.00     0.015 SA
ATOM      6  C4  UNL d   1      -3.733  -3.402   1.919  0.00  0.00     0.022 A 
ATOM      7  C5  UNL d   1      -4.298  -4.648   2.051  0.00  0.00     0.026 A 
ATOM      8  C6  UNL d   1      -4.863  -4.870   3.352  0.00  0.00    -0.082 A 
ATOM      9  C7  UNL d   1      -5.527  -6.000   3.888  0.00  0.00     0.045 A 
ENDROOT
TORSDOF 0
ENDMDL
