MODEL 1
REMARK minimizedAffinity 16.2909279
REMARK minimizedRMSD -1
REMARK  0 active torsions:
REMARK  status: ('A' for Active; 'I' for Inactive)
ROOT
ATOM      1  C   UNL d   1       4.523   4.397  -4.556  0.00  0.00    -0.002 A 
ATOM      2  C1  UNL d   1       5.410   4.969  -3.656  0.00  0.00     0.010 A 
ATOM      3  C2  UNL d   1       5.576   4.427  -2.380  0.00  0.00     0.041 A 
ATOM      4  C3  UNL d   1       4.829   3.287  -2.021  0.00  0.00    -0.075 A 
ATOM      5  S   UNL d   1       4.868   2.451  -0.514  0.00  0.00     0.015 SA
ATOM      6  C4  UNL d   1       3.709   1.313  -1.030  0.00  0.00     0.022 A 
ATOM      7  C5  UNL d   1       3.291   1.551  -2.318  0.00  0.00     0.026 A 
ATOM      8  C6  UNL d   1       3.930   2.692  -2.911  0.00  0.00    -0.082 A 
ATOM      9  C7  UNL d   1       3.784   3.266  -4.197  0.00  0.00     0.045 A 
ENDROOT
TORSDOF 0
ENDMDL
