MODEL 1
REMARK minimizedAffinity 19.7023106
REMARK minimizedRMSD -1
REMARK  0 active torsions:
REMARK  status: ('A' for Active; 'I' for Inactive)
ROOT
ATOM      1  C   UNL d   1      -4.356  -4.152   1.626  0.00  0.00    -0.002 A 
ATOM      2  C1  UNL d   1      -4.042  -2.969   2.280  0.00  0.00     0.010 A 
ATOM      3  C2  UNL d   1      -4.327  -2.810   3.637  0.00  0.00     0.041 A 
ATOM      4  C3  UNL d   1      -4.938  -3.871   4.334  0.00  0.00    -0.075 A 
ATOM      5  S   UNL d   1      -5.380  -3.903   6.000  0.00  0.00     0.015 SA
ATOM      6  C4  UNL d   1      -5.996  -5.488   5.883  0.00  0.00     0.022 A 
ATOM      7  C5  UNL d   1      -5.876  -5.996   4.611  0.00  0.00     0.026 A 
ATOM      8  C6  UNL d   1      -5.264  -5.073   3.697  0.00  0.00    -0.082 A 
ATOM      9  C7  UNL d   1      -4.962  -5.202   2.320  0.00  0.00     0.045 A 
ENDROOT
TORSDOF 0
ENDMDL
