MODEL 1
REMARK minimizedAffinity 6.01808739
REMARK minimizedRMSD -1
REMARK  0 active torsions:
REMARK  status: ('A' for Active; 'I' for Inactive)
ROOT
ATOM      1  C   UNL d   1       1.749   1.410  -0.350  0.00  0.00    -0.002 A 
ATOM      2  C1  UNL d   1       2.321   1.822  -1.544  0.00  0.00     0.010 A 
ATOM      3  C2  UNL d   1       3.556   2.475  -1.552  0.00  0.00     0.041 A 
ATOM      4  C3  UNL d   1       4.212   2.707  -0.328  0.00  0.00    -0.075 A 
ATOM      5  S   UNL d   1       5.732   3.486  -0.094  0.00  0.00     0.015 SA
ATOM      6  C4  UNL d   1       5.657   3.290   1.597  0.00  0.00     0.022 A 
ATOM      7  C5  UNL d   1       4.508   2.647   1.991  0.00  0.00     0.026 A 
ATOM      8  C6  UNL d   1       3.656   2.300   0.888  0.00  0.00    -0.082 A 
ATOM      9  C7  UNL d   1       2.403   1.641   0.863  0.00  0.00     0.045 A 
ENDROOT
TORSDOF 0
ENDMDL
