MODEL 1
REMARK minimizedAffinity 17.5646858
REMARK minimizedRMSD -1
REMARK  0 active torsions:
REMARK  status: ('A' for Active; 'I' for Inactive)
ROOT
ATOM      1  C   UNL d   1       6.000   4.620  -4.527  0.00  0.00    -0.002 A 
ATOM      2  C1  UNL d   1       5.509   3.644  -5.383  0.00  0.00     0.010 A 
ATOM      3  C2  UNL d   1       4.277   3.035  -5.133  0.00  0.00     0.041 A 
ATOM      4  C3  UNL d   1       3.539   3.429  -4.000  0.00  0.00    -0.075 A 
ATOM      5  S   UNL d   1       2.006   2.823  -3.495  0.00  0.00     0.015 SA
ATOM      6  C4  UNL d   1       1.967   3.846  -2.132  0.00  0.00     0.022 A 
ATOM      7  C5  UNL d   1       3.088   4.637  -2.049  0.00  0.00     0.026 A 
ATOM      8  C6  UNL d   1       4.013   4.410  -3.124  0.00  0.00    -0.082 A 
ATOM      9  C7  UNL d   1       5.265   5.008  -3.404  0.00  0.00     0.045 A 
ENDROOT
TORSDOF 0
ENDMDL
