MODEL 1
REMARK minimizedAffinity 17.7599754
REMARK minimizedRMSD -1
REMARK  0 active torsions:
REMARK  status: ('A' for Active; 'I' for Inactive)
ROOT
ATOM      1  C   UNL d   1      -3.255  -4.234   1.292  0.00  0.00    -0.002 A 
ATOM      2  C1  UNL d   1      -4.155  -3.726   2.218  0.00  0.00     0.010 A 
ATOM      3  C2  UNL d   1      -3.964  -2.459   2.774  0.00  0.00     0.041 A 
ATOM      4  C3  UNL d   1      -2.844  -1.703   2.378  0.00  0.00    -0.075 A 
ATOM      5  S   UNL d   1      -2.407  -0.128   2.925  0.00  0.00     0.015 SA
ATOM      6  C4  UNL d   1      -1.016  -0.091   1.941  0.00  0.00     0.022 A 
ATOM      7  C5  UNL d   1      -0.872  -1.244   1.207  0.00  0.00     0.026 A 
ATOM      8  C6  UNL d   1      -1.924  -2.193   1.446  0.00  0.00    -0.082 A 
ATOM      9  C7  UNL d   1      -2.145  -3.481   0.902  0.00  0.00     0.045 A 
ENDROOT
TORSDOF 0
ENDMDL
