MODEL 1
REMARK minimizedAffinity 55.5442963
REMARK minimizedRMSD -1
REMARK  0 active torsions:
REMARK  status: ('A' for Active; 'I' for Inactive)
ROOT
ATOM      1  C   UNL d   1       0.147  -3.810  -3.653  0.00  0.00    -0.002 A 
ATOM      2  C1  UNL d   1       0.007  -4.790  -2.679  0.00  0.00     0.010 A 
ATOM      3  C2  UNL d   1      -1.057  -4.747  -1.776  0.00  0.00     0.041 A 
ATOM      4  C3  UNL d   1      -1.988  -3.694  -1.869  0.00  0.00    -0.075 A 
ATOM      5  S   UNL d   1      -3.370  -3.437  -0.872  0.00  0.00     0.015 SA
ATOM      6  C4  UNL d   1      -3.809  -2.022  -1.714  0.00  0.00     0.022 A 
ATOM      7  C5  UNL d   1      -2.932  -1.737  -2.735  0.00  0.00     0.026 A 
ATOM      8  C6  UNL d   1      -1.869  -2.696  -2.841  0.00  0.00    -0.082 A 
ATOM      9  C7  UNL d   1      -0.779  -2.767  -3.742  0.00  0.00     0.045 A 
ENDROOT
TORSDOF 0
ENDMDL
