MODEL 1
REMARK minimizedAffinity 15.1753349
REMARK minimizedRMSD -1
REMARK  0 active torsions:
REMARK  status: ('A' for Active; 'I' for Inactive)
ROOT
ATOM      1  C   UNL d   1       3.392   0.790   1.033  0.00  0.00    -0.002 A 
ATOM      2  C1  UNL d   1       4.451   1.663   1.236  0.00  0.00     0.010 A 
ATOM      3  C2  UNL d   1       4.880   2.510   0.213  0.00  0.00     0.041 A 
ATOM      4  C3  UNL d   1       4.217   2.467  -1.030  0.00  0.00    -0.075 A 
ATOM      5  S   UNL d   1       4.568   3.414  -2.428  0.00  0.00     0.015 SA
ATOM      6  C4  UNL d   1       3.318   2.683  -3.328  0.00  0.00     0.022 A 
ATOM      7  C5  UNL d   1       2.640   1.737  -2.595  0.00  0.00     0.026 A 
ATOM      8  C6  UNL d   1       3.147   1.598  -1.258  0.00  0.00    -0.082 A 
ATOM      9  C7  UNL d   1       2.737   0.750  -0.201  0.00  0.00     0.045 A 
ENDROOT
TORSDOF 0
ENDMDL
