MODEL 1
REMARK minimizedAffinity 15.0614061
REMARK minimizedRMSD -1
REMARK  0 active torsions:
REMARK  status: ('A' for Active; 'I' for Inactive)
ROOT
ATOM      1  C   UNL d   1      -5.213   0.851   1.097  0.00  0.00    -0.002 A 
ATOM      2  C1  UNL d   1      -3.847   0.710   1.295  0.00  0.00     0.010 A 
ATOM      3  C2  UNL d   1      -3.238   1.230   2.439  0.00  0.00     0.041 A 
ATOM      4  C3  UNL d   1      -4.033   1.898   3.391  0.00  0.00    -0.075 A 
ATOM      5  S   UNL d   1      -3.505   2.615   4.867  0.00  0.00     0.015 SA
ATOM      6  C4  UNL d   1      -5.081   3.125   5.270  0.00  0.00     0.022 A 
ATOM      7  C5  UNL d   1      -6.000   2.765   4.312  0.00  0.00     0.026 A 
ATOM      8  C6  UNL d   1      -5.411   2.052   3.214  0.00  0.00    -0.082 A 
ATOM      9  C7  UNL d   1      -5.999   1.515   2.043  0.00  0.00     0.045 A 
ENDROOT
TORSDOF 0
ENDMDL
