MODEL 1
REMARK minimizedAffinity 17.5484734
REMARK minimizedRMSD -1
REMARK  0 active torsions:
REMARK  status: ('A' for Active; 'I' for Inactive)
ROOT
ATOM      1  C   UNL d   1       3.350   0.199   0.439  0.00  0.00    -0.002 A 
ATOM      2  C1  UNL d   1       2.553   1.135   1.082  0.00  0.00     0.010 A 
ATOM      3  C2  UNL d   1       2.020   2.217   0.379  0.00  0.00     0.041 A 
ATOM      4  C3  UNL d   1       2.302   2.343  -0.995  0.00  0.00    -0.075 A 
ATOM      5  S   UNL d   1       1.757   3.585  -2.059  0.00  0.00     0.015 SA
ATOM      6  C4  UNL d   1       2.569   2.902  -3.393  0.00  0.00     0.022 A 
ATOM      7  C5  UNL d   1       3.244   1.754  -3.053  0.00  0.00     0.026 A 
ATOM      8  C6  UNL d   1       3.102   1.412  -1.665  0.00  0.00    -0.082 A 
ATOM      9  C7  UNL d   1       3.628   0.327  -0.925  0.00  0.00     0.045 A 
ENDROOT
TORSDOF 0
ENDMDL
