MODEL 1
REMARK minimizedAffinity 24.1617317
REMARK minimizedRMSD -1
REMARK  0 active torsions:
REMARK  status: ('A' for Active; 'I' for Inactive)
ROOT
ATOM      1  C   UNL d   1      -0.079  -1.212   2.178  0.00  0.00    -0.002 A 
ATOM      2  C1  UNL d   1       0.941  -2.139   2.343  0.00  0.00     0.010 A 
ATOM      3  C2  UNL d   1       2.134  -2.016   1.630  0.00  0.00     0.041 A 
ATOM      4  C3  UNL d   1       2.289  -0.935   0.740  0.00  0.00    -0.075 A 
ATOM      5  S   UNL d   1       3.664  -0.581  -0.238  0.00  0.00     0.015 SA
ATOM      6  C4  UNL d   1       2.930   0.809  -0.898  0.00  0.00     0.022 A 
ATOM      7  C5  UNL d   1       1.667   1.013  -0.395  0.00  0.00     0.026 A 
ATOM      8  C6  UNL d   1       1.277   0.012   0.558  0.00  0.00    -0.082 A 
ATOM      9  C7  UNL d   1       0.078  -0.141   1.295  0.00  0.00     0.045 A 
ENDROOT
TORSDOF 0
ENDMDL
