MODEL 1
REMARK minimizedAffinity 7.14780951
REMARK minimizedRMSD -1
REMARK  0 active torsions:
REMARK  status: ('A' for Active; 'I' for Inactive)
ROOT
ATOM      1  C   UNL d   1       2.211  -1.926   0.248  0.00  0.00    -0.002 A 
ATOM      2  C1  UNL d   1       1.382  -2.990   0.573  0.00  0.00     0.010 A 
ATOM      3  C2  UNL d   1       1.891  -4.287   0.660  0.00  0.00     0.041 A 
ATOM      4  C3  UNL d   1       3.263  -4.498   0.415  0.00  0.00    -0.075 A 
ATOM      5  S   UNL d   1       4.108  -6.000   0.465  0.00  0.00     0.015 SA
ATOM      6  C4  UNL d   1       5.590  -5.264   0.057  0.00  0.00     0.022 A 
ATOM      7  C5  UNL d   1       5.462  -3.906  -0.117  0.00  0.00     0.026 A 
ATOM      8  C6  UNL d   1       4.118  -3.442   0.087  0.00  0.00    -0.082 A 
ATOM      9  C7  UNL d   1       3.571  -2.139   0.005  0.00  0.00     0.045 A 
ENDROOT
TORSDOF 0
ENDMDL
