MODEL 1
REMARK minimizedAffinity -0.480380207
REMARK minimizedRMSD -1
REMARK  0 active torsions:
REMARK  status: ('A' for Active; 'I' for Inactive)
ROOT
ATOM      1  C   UNL d   1      -4.400  -4.422   1.727  0.00  0.00    -0.002 A 
ATOM      2  C1  UNL d   1      -4.742  -5.647   2.283  0.00  0.00     0.010 A 
ATOM      3  C2  UNL d   1      -5.187  -5.728   3.604  0.00  0.00     0.041 A 
ATOM      4  C3  UNL d   1      -5.287  -4.546   4.363  0.00  0.00    -0.075 A 
ATOM      5  S   UNL d   1      -5.809  -4.402   6.000  0.00  0.00     0.015 SA
ATOM      6  C4  UNL d   1      -5.592  -2.712   6.000  0.00  0.00     0.022 A 
ATOM      7  C5  UNL d   1      -5.132  -2.251   4.788  0.00  0.00     0.026 A 
ATOM      8  C6  UNL d   1      -4.949  -3.300   3.825  0.00  0.00    -0.082 A 
ATOM      9  C7  UNL d   1      -4.500  -3.251   2.483  0.00  0.00     0.045 A 
ENDROOT
TORSDOF 0
ENDMDL
