MODEL 1
REMARK minimizedAffinity 5.90459299
REMARK minimizedRMSD -1
REMARK  0 active torsions:
REMARK  status: ('A' for Active; 'I' for Inactive)
ROOT
ATOM      1  C   UNL d   1       1.010  -3.190   0.364  0.00  0.00    -0.002 A 
ATOM      2  C1  UNL d   1       1.895  -2.122   0.364  0.00  0.00     0.010 A 
ATOM      3  C2  UNL d   1       3.274  -2.341   0.354  0.00  0.00     0.041 A 
ATOM      4  C3  UNL d   1       3.753  -3.666   0.341  0.00  0.00    -0.075 A 
ATOM      5  S   UNL d   1       5.400  -4.176   0.326  0.00  0.00     0.015 SA
ATOM      6  C4  UNL d   1       4.967  -5.825   0.318  0.00  0.00     0.022 A 
ATOM      7  C5  UNL d   1       3.604  -6.000   0.327  0.00  0.00     0.026 A 
ATOM      8  C6  UNL d   1       2.881  -4.759   0.340  0.00  0.00    -0.082 A 
ATOM      9  C7  UNL d   1       1.489  -4.503   0.351  0.00  0.00     0.045 A 
ENDROOT
TORSDOF 0
ENDMDL
