MODEL 1
REMARK minimizedAffinity -1.47534072
REMARK minimizedRMSD -1
REMARK  0 active torsions:
REMARK  status: ('A' for Active; 'I' for Inactive)
ROOT
ATOM      1  C   UNL d   1      -0.762   1.400  -1.733  0.00  0.00     0.020 A 
ATOM      2  C1  UNL d   1       0.102   0.309  -1.661  0.00  0.00     0.020 A 
ATOM      3  C2  UNL d   1       0.643  -0.074  -0.432  0.00  0.00     0.034 A 
ATOM      4  C3  UNL d   1       0.321   0.636   0.730  0.00  0.00     0.017 A 
ATOM      5  C4  UNL d   1      -0.546   1.732   0.657  0.00  0.00     0.017 A 
ATOM      6  C5  UNL d   1      -1.086   2.110  -0.576  0.00  0.00     0.034 A 
ATOM      7 Cl   UNL d   1      -0.991   2.657   2.048  0.00  0.00    -0.070 Cl
ATOM      8 Cl1  UNL d   1       1.027   0.108   2.216  0.00  0.00    -0.070 Cl
ENDROOT
TORSDOF 0
ENDMDL
