MODEL 1
REMARK minimizedAffinity -0.740097821
REMARK minimizedRMSD -1
REMARK  0 active torsions:
REMARK  status: ('A' for Active; 'I' for Inactive)
ROOT
ATOM      1  C   UNL d   1      -0.098   1.260  -1.557  0.00  0.00     0.020 A 
ATOM      2  C1  UNL d   1       0.454   0.005  -1.306  0.00  0.00     0.020 A 
ATOM      3  C2  UNL d   1       0.727  -0.389   0.005  0.00  0.00     0.034 A 
ATOM      4  C3  UNL d   1       0.448   0.474   1.071  0.00  0.00     0.017 A 
ATOM      5  C4  UNL d   1      -0.107   1.734   0.819  0.00  0.00     0.017 A 
ATOM      6  C5  UNL d   1      -0.378   2.123  -0.497  0.00  0.00     0.034 A 
ATOM      7 Cl   UNL d   1      -0.479   2.854   2.082  0.00  0.00    -0.070 Cl
ATOM      8 Cl1  UNL d   1       0.811  -0.077   2.668  0.00  0.00    -0.070 Cl
ENDROOT
TORSDOF 0
ENDMDL
