MODEL 1
REMARK minimizedAffinity -1.77899766
REMARK minimizedRMSD -1
REMARK  0 active torsions:
REMARK  status: ('A' for Active; 'I' for Inactive)
ROOT
ATOM      1  C   UNL d   1      -0.542   2.567   1.497  0.00  0.00     0.020 A 
ATOM      2  C1  UNL d   1      -0.596   1.405   2.266  0.00  0.00     0.020 A 
ATOM      3  C2  UNL d   1      -0.370   0.162   1.671  0.00  0.00     0.034 A 
ATOM      4  C3  UNL d   1      -0.090   0.078   0.302  0.00  0.00     0.017 A 
ATOM      5  C4  UNL d   1      -0.036   1.244  -0.469  0.00  0.00     0.017 A 
ATOM      6  C5  UNL d   1      -0.263   2.486   0.132  0.00  0.00     0.034 A 
ATOM      7 Cl   UNL d   1       0.304   1.220  -2.164  0.00  0.00    -0.070 Cl
ATOM      8 Cl1  UNL d   1       0.180  -1.492  -0.367  0.00  0.00    -0.070 Cl
ENDROOT
TORSDOF 0
ENDMDL
