MODEL 1
REMARK minimizedAffinity -1.51219761
REMARK minimizedRMSD -1
REMARK  0 active torsions:
REMARK  status: ('A' for Active; 'I' for Inactive)
ROOT
ATOM      1  C   UNL d   1      -1.764   2.411   0.375  0.00  0.00     0.020 A 
ATOM      2  C1  UNL d   1      -1.095   2.079   1.553  0.00  0.00     0.020 A 
ATOM      3  C2  UNL d   1       0.012   1.228   1.510  0.00  0.00     0.034 A 
ATOM      4  C3  UNL d   1       0.452   0.706   0.289  0.00  0.00     0.017 A 
ATOM      5  C4  UNL d   1      -0.220   1.041  -0.893  0.00  0.00     0.017 A 
ATOM      6  C5  UNL d   1      -1.327   1.893  -0.845  0.00  0.00     0.034 A 
ATOM      7 Cl   UNL d   1       0.265   0.437  -2.438  0.00  0.00    -0.070 Cl
ATOM      8 Cl1  UNL d   1       1.827  -0.340   0.311  0.00  0.00    -0.070 Cl
ENDROOT
TORSDOF 0
ENDMDL
