MODEL 1
REMARK minimizedAffinity -0.574702084
REMARK minimizedRMSD -1
REMARK  0 active torsions:
REMARK  status: ('A' for Active; 'I' for Inactive)
ROOT
ATOM      1  C   UNL d   1      -1.467  -3.961  -1.716  0.00  0.00     0.020 A 
ATOM      2  C1  UNL d   1      -0.927  -2.686  -1.877  0.00  0.00     0.020 A 
ATOM      3  C2  UNL d   1       0.371  -2.417  -1.437  0.00  0.00     0.034 A 
ATOM      4  C3  UNL d   1       1.133  -3.424  -0.835  0.00  0.00     0.017 A 
ATOM      5  C4  UNL d   1       0.590  -4.704  -0.675  0.00  0.00     0.017 A 
ATOM      6  C5  UNL d   1      -0.710  -4.968  -1.116  0.00  0.00     0.034 A 
ATOM      7 Cl   UNL d   1       1.470  -5.999   0.059  0.00  0.00    -0.070 Cl
ATOM      8 Cl1  UNL d   1       2.731  -3.021  -0.316  0.00  0.00    -0.070 Cl
ENDROOT
TORSDOF 0
ENDMDL
