MODEL 1
REMARK minimizedAffinity 0.551212251
REMARK minimizedRMSD -1
REMARK  0 active torsions:
REMARK  status: ('A' for Active; 'I' for Inactive)
ROOT
ATOM      1  C   UNL d   1       0.812  -0.445   1.327  0.00  0.00     0.020 A 
ATOM      2  C1  UNL d   1       0.492  -0.783   0.013  0.00  0.00     0.020 A 
ATOM      3  C2  UNL d   1      -0.207   0.120  -0.790  0.00  0.00     0.034 A 
ATOM      4  C3  UNL d   1      -0.590   1.365  -0.280  0.00  0.00     0.017 A 
ATOM      5  C4  UNL d   1      -0.269   1.705   1.039  0.00  0.00     0.017 A 
ATOM      6  C5  UNL d   1       0.432   0.797   1.839  0.00  0.00     0.034 A 
ATOM      7 Cl   UNL d   1      -0.707   3.223   1.739  0.00  0.00    -0.070 Cl
ATOM      8 Cl1  UNL d   1      -1.453   2.433  -1.330  0.00  0.00    -0.070 Cl
ENDROOT
TORSDOF 0
ENDMDL
