MODEL 1
REMARK minimizedAffinity 13.9304848
REMARK minimizedRMSD -1
REMARK  0 active torsions:
REMARK  status: ('A' for Active; 'I' for Inactive)
ROOT
ATOM      1  C   UNL d   1       1.304  -0.388   2.528  0.00  0.00    -0.002 A 
ATOM      2  C1  UNL d   1       0.370   0.594   2.828  0.00  0.00     0.010 A 
ATOM      3  C2  UNL d   1      -0.397   1.176   1.817  0.00  0.00     0.041 A 
ATOM      4  C3  UNL d   1      -0.209   0.751   0.487  0.00  0.00    -0.075 A 
ATOM      5  S   UNL d   1      -1.036   1.322  -0.914  0.00  0.00     0.015 SA
ATOM      6  C4  UNL d   1      -0.169   0.276  -1.943  0.00  0.00     0.022 A 
ATOM      7  C5  UNL d   1       0.734  -0.497  -1.251  0.00  0.00     0.026 A 
ATOM      8  C6  UNL d   1       0.725  -0.237   0.161  0.00  0.00    -0.082 A 
ATOM      9  C7  UNL d   1       1.488  -0.807   1.208  0.00  0.00     0.045 A 
ENDROOT
TORSDOF 0
ENDMDL
