MODEL 1
REMARK minimizedAffinity 5.53018951
REMARK minimizedRMSD -1
REMARK  0 active torsions:
REMARK  status: ('A' for Active; 'I' for Inactive)
ROOT
ATOM      1  C   UNL d   1      -3.157  -0.070  -2.643  0.00  0.00    -0.002 A 
ATOM      2  C1  UNL d   1      -3.731  -0.762  -3.701  0.00  0.00     0.010 A 
ATOM      3  C2  UNL d   1      -4.291  -0.074  -4.779  0.00  0.00     0.041 A 
ATOM      4  C3  UNL d   1      -4.263   1.335  -4.777  0.00  0.00    -0.075 A 
ATOM      5  S   UNL d   1      -4.887   2.388  -5.991  0.00  0.00     0.015 SA
ATOM      6  C4  UNL d   1      -4.406   3.781  -5.135  0.00  0.00     0.022 A 
ATOM      7  C5  UNL d   1      -3.783   3.469  -3.950  0.00  0.00     0.026 A 
ATOM      8  C6  UNL d   1      -3.690   2.054  -3.724  0.00  0.00    -0.082 A 
ATOM      9  C7  UNL d   1      -3.131   1.327  -2.645  0.00  0.00     0.045 A 
ENDROOT
TORSDOF 0
ENDMDL
