MODEL 1
REMARK minimizedAffinity 1.35524404
REMARK minimizedRMSD -1
REMARK  0 active torsions:
REMARK  status: ('A' for Active; 'I' for Inactive)
ROOT
ATOM      1  C   UNL d   1       0.035   4.294  -1.546  0.00  0.00    -0.002 A 
ATOM      2  C1  UNL d   1      -0.336   3.028  -1.976  0.00  0.00     0.010 A 
ATOM      3  C2  UNL d   1      -0.448   1.974  -1.068  0.00  0.00     0.041 A 
ATOM      4  C3  UNL d   1      -0.180   2.216   0.294  0.00  0.00    -0.075 A 
ATOM      5  S   UNL d   1      -0.254   1.078   1.587  0.00  0.00     0.015 SA
ATOM      6  C4  UNL d   1       0.205   2.246   2.740  0.00  0.00     0.022 A 
ATOM      7  C5  UNL d   1       0.414   3.479   2.170  0.00  0.00     0.026 A 
ATOM      8  C6  UNL d   1       0.195   3.483   0.751  0.00  0.00    -0.082 A 
ATOM      9  C7  UNL d   1       0.301   4.530  -0.195  0.00  0.00     0.045 A 
ENDROOT
TORSDOF 0
ENDMDL
