MODEL 1
REMARK minimizedAffinity 4.74753761
REMARK minimizedRMSD -1
REMARK  0 active torsions:
REMARK  status: ('A' for Active; 'I' for Inactive)
ROOT
ATOM      1  C   UNL d   1      -1.026   2.138  -0.004  0.00  0.00    -0.002 A 
ATOM      2  C1  UNL d   1      -0.495   1.527  -1.131  0.00  0.00     0.010 A 
ATOM      3  C2  UNL d   1       0.477   0.532  -1.009  0.00  0.00     0.041 A 
ATOM      4  C3  UNL d   1       0.911   0.158   0.279  0.00  0.00    -0.075 A 
ATOM      5  S   UNL d   1       2.091  -1.036   0.672  0.00  0.00     0.015 SA
ATOM      6  C4  UNL d   1       1.917  -0.764   2.345  0.00  0.00     0.022 A 
ATOM      7  C5  UNL d   1       0.987   0.211   2.615  0.00  0.00     0.026 A 
ATOM      8  C6  UNL d   1       0.391   0.758   1.429  0.00  0.00    -0.082 A 
ATOM      9  C7  UNL d   1      -0.593   1.763   1.271  0.00  0.00     0.045 A 
ENDROOT
TORSDOF 0
ENDMDL
