MODEL 1
REMARK minimizedAffinity 12.2929182
REMARK minimizedRMSD -1
REMARK  0 active torsions:
REMARK  status: ('A' for Active; 'I' for Inactive)
ROOT
ATOM      1  C   UNL d   1       1.257   1.161   2.965  0.00  0.00    -0.002 A 
ATOM      2  C1  UNL d   1       1.688  -0.029   2.396  0.00  0.00     0.010 A 
ATOM      3  C2  UNL d   1       1.327  -0.363   1.089  0.00  0.00     0.041 A 
ATOM      4  C3  UNL d   1       0.520   0.529   0.356  0.00  0.00    -0.075 A 
ATOM      5  S   UNL d   1      -0.045   0.330  -1.261  0.00  0.00     0.015 SA
ATOM      6  C4  UNL d   1      -0.871   1.820  -1.235  0.00  0.00     0.022 A 
ATOM      7  C5  UNL d   1      -0.730   2.467  -0.030  0.00  0.00     0.026 A 
ATOM      8  C6  UNL d   1       0.074   1.734   0.907  0.00  0.00    -0.082 A 
ATOM      9  C7  UNL d   1       0.456   2.043   2.234  0.00  0.00     0.045 A 
ENDROOT
TORSDOF 0
ENDMDL
