MODEL 1
REMARK minimizedAffinity -4.5923624
REMARK minimizedRMSD -1
REMARK  3 active torsions:
REMARK  status: ('A' for Active; 'I' for Inactive)
REMARK    1  A    between atoms: C3'_2  and  C2'_3 
REMARK    2  A    between atoms: C2'_3  and  C1'_4 
REMARK    3  A    between atoms: C1'_4  and  C1_5 
ROOT
ATOM      1  C1  N4B d   1       0.356   0.503   0.847  0.00  0.00    -0.075 A 
ATOM      2  C2  N4B d   1       1.664   0.515   0.315  0.00  0.00     0.002 A 
ATOM      3  C3  N4B d   1       2.650   1.247   0.930  0.00  0.00     0.002 A 
ATOM      4  C4  N4B d   1       2.348   1.987   2.063  0.00  0.00    -0.004 A 
ATOM      5  C5  N4B d   1       1.088   1.950   2.586  0.00  0.00     0.002 A 
ATOM      6  C6  N4B d   1       0.089   1.215   1.980  0.00  0.00     0.002 A 
ENDROOT
BRANCH   1   7
ATOM      7  C1' N4B d   1      -0.774  -0.214   0.161  0.00  0.00     0.057 C 
BRANCH   7   8
ATOM      8  C2' N4B d   1      -0.208  -1.357  -0.676  0.00  0.00     0.009 C 
BRANCH   8   9
ATOM      9  C3' N4B d   1      -1.171  -1.796  -1.765  0.00  0.00     0.004 C 
ATOM     10  C4' N4B d   1      -2.376  -2.506  -1.224  0.00  0.00     0.003 C 
ENDBRANCH   8   9
ENDBRANCH   7   8
ENDBRANCH   1   7
TORSDOF 3
ENDMDL
