MODEL 1
REMARK minimizedAffinity -4.1248312
REMARK minimizedRMSD -1
REMARK  3 active torsions:
REMARK  status: ('A' for Active; 'I' for Inactive)
REMARK    1  A    between atoms: C3'_2  and  C2'_3 
REMARK    2  A    between atoms: C2'_3  and  C1'_4 
REMARK    3  A    between atoms: C1'_4  and  C1_5 
ROOT
ATOM      1  C1  N4B d   1      -0.866  -0.953  -1.296  0.00  0.00    -0.075 A 
ATOM      2  C2  N4B d   1      -0.493  -0.893  -2.657  0.00  0.00     0.002 A 
ATOM      3  C3  N4B d   1      -1.434  -1.094  -3.637  0.00  0.00     0.002 A 
ATOM      4  C4  N4B d   1      -2.744  -1.375  -3.282  0.00  0.00    -0.004 A 
ATOM      5  C5  N4B d   1      -3.102  -1.406  -1.966  0.00  0.00     0.002 A 
ATOM      6  C6  N4B d   1      -2.168  -1.201  -0.970  0.00  0.00     0.002 A 
ENDROOT
BRANCH   1   7
ATOM      7  C1' N4B d   1       0.144  -0.825  -0.189  0.00  0.00     0.057 C 
BRANCH   7   8
ATOM      8  C2' N4B d   1       0.327   0.651   0.153  0.00  0.00     0.009 C 
BRANCH   8   9
ATOM      9  C3' N4B d   1      -0.401   1.033   1.431  0.00  0.00     0.004 C 
ATOM     10  C4' N4B d   1       0.310   2.100   2.207  0.00  0.00     0.003 C 
ENDBRANCH   8   9
ENDBRANCH   7   8
ENDBRANCH   1   7
TORSDOF 3
ENDMDL
