MODEL 1
REMARK minimizedAffinity -4.03426886
REMARK minimizedRMSD -1
REMARK  3 active torsions:
REMARK  status: ('A' for Active; 'I' for Inactive)
REMARK    1  A    between atoms: C3'_2  and  C2'_3 
REMARK    2  A    between atoms: C2'_3  and  C1'_4 
REMARK    3  A    between atoms: C1'_4  and  C1_5 
ROOT
ATOM      1  C1  N4B d   1      -1.021  -1.074  -1.291  0.00  0.00    -0.075 A 
ATOM      2  C2  N4B d   1      -2.170  -0.450  -1.825  0.00  0.00     0.002 A 
ATOM      3  C3  N4B d   1      -2.872  -1.056  -2.838  0.00  0.00     0.002 A 
ATOM      4  C4  N4B d   1      -2.435  -2.271  -3.344  0.00  0.00    -0.004 A 
ATOM      5  C5  N4B d   1      -1.339  -2.879  -2.805  0.00  0.00     0.002 A 
ATOM      6  C6  N4B d   1      -0.626  -2.284  -1.784  0.00  0.00     0.002 A 
ENDROOT
BRANCH   1   7
ATOM      7  C1' N4B d   1      -0.172  -0.410  -0.242  0.00  0.00     0.057 C 
BRANCH   7   8
ATOM      8  C2' N4B d   1      -1.064   0.433   0.664  0.00  0.00     0.009 C 
BRANCH   8   9
ATOM      9  C3' N4B d   1      -0.503   0.542   2.072  0.00  0.00     0.004 C 
ATOM     10  C4' N4B d   1       0.368   1.748   2.258  0.00  0.00     0.003 C 
ENDBRANCH   8   9
ENDBRANCH   7   8
ENDBRANCH   1   7
TORSDOF 3
ENDMDL
