MODEL 1
REMARK minimizedAffinity -4.53664732
REMARK minimizedRMSD -1
REMARK  3 active torsions:
REMARK  status: ('A' for Active; 'I' for Inactive)
REMARK    1  A    between atoms: C3'_2  and  C2'_3 
REMARK    2  A    between atoms: C2'_3  and  C1'_4 
REMARK    3  A    between atoms: C1'_4  and  C1_5 
ROOT
ATOM      1  C1  N4B d   1      -0.795  -1.166  -1.334  0.00  0.00    -0.075 A 
ATOM      2  C2  N4B d   1      -0.937  -0.048  -2.185  0.00  0.00     0.002 A 
ATOM      3  C3  N4B d   1      -1.986   0.013  -3.069  0.00  0.00     0.002 A 
ATOM      4  C4  N4B d   1      -2.892  -1.035  -3.132  0.00  0.00    -0.004 A 
ATOM      5  C5  N4B d   1      -2.762  -2.100  -2.289  0.00  0.00     0.002 A 
ATOM      6  C6  N4B d   1      -1.715  -2.173  -1.393  0.00  0.00     0.002 A 
ENDROOT
BRANCH   1   7
ATOM      7  C1' N4B d   1       0.383  -1.318  -0.412  0.00  0.00     0.057 C 
BRANCH   7   8
ATOM      8  C2' N4B d   1       0.715   0.038   0.205  0.00  0.00     0.009 C 
BRANCH   8   9
ATOM      9  C3' N4B d   1      -0.088   0.299   1.468  0.00  0.00     0.004 C 
ATOM     10  C4' N4B d   1      -0.812   1.612   1.435  0.00  0.00     0.003 C 
ENDBRANCH   8   9
ENDBRANCH   7   8
ENDBRANCH   1   7
TORSDOF 3
ENDMDL
