MODEL 1
REMARK minimizedAffinity -4.20580626
REMARK minimizedRMSD -1
REMARK  3 active torsions:
REMARK  status: ('A' for Active; 'I' for Inactive)
REMARK    1  A    between atoms: C3'_2  and  C2'_3 
REMARK    2  A    between atoms: C2'_3  and  C1'_4 
REMARK    3  A    between atoms: C1'_4  and  C1_5 
ROOT
ATOM      1  C1  N4B d   1      -0.135  -0.306   0.010  0.00  0.00    -0.075 A 
ATOM      2  C2  N4B d   1       1.030   0.491   0.047  0.00  0.00     0.002 A 
ATOM      3  C3  N4B d   1       1.205   1.404   1.058  0.00  0.00     0.002 A 
ATOM      4  C4  N4B d   1       0.224   1.550   2.028  0.00  0.00    -0.004 A 
ATOM      5  C5  N4B d   1      -0.887   0.759   1.998  0.00  0.00     0.002 A 
ATOM      6  C6  N4B d   1      -1.074  -0.166   0.990  0.00  0.00     0.002 A 
ENDROOT
BRANCH   1   7
ATOM      7  C1' N4B d   1      -0.411  -1.257  -1.123  0.00  0.00     0.057 C 
BRANCH   7   8
ATOM      8  C2' N4B d   1      -1.862  -1.721  -1.046  0.00  0.00     0.009 C 
BRANCH   8   9
ATOM      9  C3' N4B d   1      -2.608  -1.472  -2.345  0.00  0.00     0.004 C 
ATOM     10  C4' N4B d   1      -1.689  -1.260  -3.511  0.00  0.00     0.003 C 
ENDBRANCH   8   9
ENDBRANCH   7   8
ENDBRANCH   1   7
TORSDOF 3
ENDMDL
