MODEL 1
REMARK minimizedAffinity -2.57916856
REMARK minimizedRMSD -1
REMARK  3 active torsions:
REMARK  status: ('A' for Active; 'I' for Inactive)
REMARK    1  A    between atoms: C3'_2  and  C2'_3 
REMARK    2  A    between atoms: C2'_3  and  C1'_4 
REMARK    3  A    between atoms: C1'_4  and  C1_5 
ROOT
ATOM      1  C1  N4B d   1       0.198  -0.422   0.355  0.00  0.00    -0.075 A 
ATOM      2  C2  N4B d   1      -0.954   0.295   0.745  0.00  0.00     0.002 A 
ATOM      3  C3  N4B d   1      -0.832   1.421   1.522  0.00  0.00     0.002 A 
ATOM      4  C4  N4B d   1       0.425   1.836   1.935  0.00  0.00    -0.004 A 
ATOM      5  C5  N4B d   1       1.535   1.152   1.533  0.00  0.00     0.002 A 
ATOM      6  C6  N4B d   1       1.428   0.021   0.749  0.00  0.00     0.002 A 
ENDROOT
BRANCH   1   7
ATOM      7  C1' N4B d   1       0.109  -1.707  -0.422  0.00  0.00     0.057 C 
BRANCH   7   8
ATOM      8  C2' N4B d   1      -1.288  -1.833  -1.023  0.00  0.00     0.009 C 
BRANCH   8   9
ATOM      9  C3' N4B d   1      -1.288  -1.574  -2.519  0.00  0.00     0.004 C 
ATOM     10  C4' N4B d   1      -2.666  -1.583  -3.110  0.00  0.00     0.003 C 
ENDBRANCH   8   9
ENDBRANCH   7   8
ENDBRANCH   1   7
TORSDOF 3
ENDMDL
