MODEL 1
REMARK minimizedAffinity -2.4604609
REMARK minimizedRMSD -1
REMARK  3 active torsions:
REMARK  status: ('A' for Active; 'I' for Inactive)
REMARK    1  A    between atoms: C3'_2  and  C2'_3 
REMARK    2  A    between atoms: C2'_3  and  C1'_4 
REMARK    3  A    between atoms: C1'_4  and  C1_5 
ROOT
ATOM      1  C1  N4B d   1       0.022  -0.135   0.029  0.00  0.00    -0.075 A 
ATOM      2  C2  N4B d   1      -0.962   0.248   0.967  0.00  0.00     0.002 A 
ATOM      3  C3  N4B d   1      -0.661   1.171   1.939  0.00  0.00     0.002 A 
ATOM      4  C4  N4B d   1       0.616   1.707   2.004  0.00  0.00    -0.004 A 
ATOM      5  C5  N4B d   1       1.553   1.351   1.079  0.00  0.00     0.002 A 
ATOM      6  C6  N4B d   1       1.264   0.428   0.094  0.00  0.00     0.002 A 
ENDROOT
BRANCH   1   7
ATOM      7  C1' N4B d   1      -0.234  -1.203  -0.999  0.00  0.00     0.057 C 
BRANCH   7   8
ATOM      8  C2' N4B d   1      -1.711  -1.586  -0.966  0.00  0.00     0.009 C 
BRANCH   8   9
ATOM      9  C3' N4B d   1      -2.137  -2.315  -2.229  0.00  0.00     0.004 C 
ATOM     10  C4' N4B d   1      -2.200  -1.413  -3.426  0.00  0.00     0.003 C 
ENDBRANCH   8   9
ENDBRANCH   7   8
ENDBRANCH   1   7
TORSDOF 3
ENDMDL
