MODEL 1
REMARK minimizedAffinity -3.9325819
REMARK minimizedRMSD -1
REMARK  3 active torsions:
REMARK  status: ('A' for Active; 'I' for Inactive)
REMARK    1  A    between atoms: C3'_2  and  C2'_3 
REMARK    2  A    between atoms: C2'_3  and  C1'_4 
REMARK    3  A    between atoms: C1'_4  and  C1_5 
ROOT
ATOM      1  C1  N4B d   1      -0.393  -0.355   0.283  0.00  0.00    -0.075 A 
ATOM      2  C2  N4B d   1       0.978  -0.086   0.074  0.00  0.00     0.002 A 
ATOM      3  C3  N4B d   1       1.572   0.982   0.700  0.00  0.00     0.002 A 
ATOM      4  C4  N4B d   1       0.815   1.802   1.523  0.00  0.00    -0.004 A 
ATOM      5  C5  N4B d   1      -0.502   1.521   1.740  0.00  0.00     0.002 A 
ATOM      6  C6  N4B d   1      -1.112   0.449   1.120  0.00  0.00     0.002 A 
ENDROOT
BRANCH   1   7
ATOM      7  C1' N4B d   1      -1.106  -1.459  -0.447  0.00  0.00     0.057 C 
BRANCH   7   8
ATOM      8  C2' N4B d   1      -2.503  -0.983  -0.834  0.00  0.00     0.009 C 
BRANCH   8   9
ATOM      9  C3' N4B d   1      -3.029  -1.702  -2.064  0.00  0.00     0.004 C 
ATOM     10  C4' N4B d   1      -2.587  -1.060  -3.345  0.00  0.00     0.003 C 
ENDBRANCH   8   9
ENDBRANCH   7   8
ENDBRANCH   1   7
TORSDOF 3
ENDMDL
