MODEL 1
REMARK minimizedAffinity 7.14766216
REMARK minimizedRMSD -1
REMARK  0 active torsions:
REMARK  status: ('A' for Active; 'I' for Inactive)
ROOT
ATOM      1  C   UNL d   1      -5.806   0.813   5.377  0.00  0.00     0.020 A 
ATOM      2  C1  UNL d   1      -6.000   2.182   5.194  0.00  0.00     0.020 A 
ATOM      3  C2  UNL d   1      -6.000   2.721   3.906  0.00  0.00     0.034 A 
ATOM      4  C3  UNL d   1      -5.806   1.891   2.796  0.00  0.00     0.017 A 
ATOM      5  C4  UNL d   1      -5.612   0.517   2.981  0.00  0.00     0.017 A 
ATOM      6  C5  UNL d   1      -5.613  -0.017   4.273  0.00  0.00     0.034 A 
ATOM      7 Cl   UNL d   1      -5.367  -0.570   1.660  0.00  0.00    -0.070 Cl
ATOM      8 Cl1  UNL d   1      -5.819   2.625   1.232  0.00  0.00    -0.070 Cl
ENDROOT
TORSDOF 0
ENDMDL
