MODEL 1
REMARK minimizedAffinity 0.144563049
REMARK minimizedRMSD -1
REMARK  0 active torsions:
REMARK  status: ('A' for Active; 'I' for Inactive)
ROOT
ATOM      1  C   UNL d   1       5.250  -3.891   4.264  0.00  0.00     0.020 A 
ATOM      2  C1  UNL d   1       5.404  -3.576   5.614  0.00  0.00     0.020 A 
ATOM      3  C2  UNL d   1       5.634  -2.253   6.000  0.00  0.00     0.034 A 
ATOM      4  C3  UNL d   1       5.711  -1.242   5.036  0.00  0.00     0.017 A 
ATOM      5  C4  UNL d   1       5.557  -1.560   3.681  0.00  0.00     0.017 A 
ATOM      6  C5  UNL d   1       5.327  -2.885   3.300  0.00  0.00     0.034 A 
ATOM      7 Cl   UNL d   1       5.639  -0.366   2.434  0.00  0.00    -0.070 Cl
ATOM      8 Cl1  UNL d   1       5.997   0.371   5.585  0.00  0.00    -0.070 Cl
ENDROOT
TORSDOF 0
ENDMDL
