MODEL 1
REMARK minimizedAffinity -0.841896534
REMARK minimizedRMSD -1
REMARK  0 active torsions:
REMARK  status: ('A' for Active; 'I' for Inactive)
ROOT
ATOM      1  C   UNL d   1       5.195  -4.335   5.496  0.00  0.00     0.020 A 
ATOM      2  C1  UNL d   1       5.614  -3.104   6.000  0.00  0.00     0.020 A 
ATOM      3  C2  UNL d   1       5.856  -2.040   5.130  0.00  0.00     0.034 A 
ATOM      4  C3  UNL d   1       5.681  -2.203   3.751  0.00  0.00     0.017 A 
ATOM      5  C4  UNL d   1       5.260  -3.439   3.246  0.00  0.00     0.017 A 
ATOM      6  C5  UNL d   1       5.019  -4.502   4.122  0.00  0.00     0.034 A 
ATOM      7 Cl   UNL d   1       5.021  -3.717   1.557  0.00  0.00    -0.070 Cl
ATOM      8 Cl1  UNL d   1       5.999  -0.843   2.733  0.00  0.00    -0.070 Cl
ENDROOT
TORSDOF 0
ENDMDL
