MODEL 1
REMARK minimizedAffinity 2.94086814
REMARK minimizedRMSD -1
REMARK  0 active torsions:
REMARK  status: ('A' for Active; 'I' for Inactive)
ROOT
ATOM      1  C   UNL d   1       2.972   1.463  -2.283  0.00  0.00     0.020 A 
ATOM      2  C1  UNL d   1       2.658   1.650  -3.629  0.00  0.00     0.020 A 
ATOM      3  C2  UNL d   1       1.349   1.457  -4.074  0.00  0.00     0.034 A 
ATOM      4  C3  UNL d   1       0.348   1.076  -3.173  0.00  0.00     0.017 A 
ATOM      5  C4  UNL d   1       0.664   0.888  -1.822  0.00  0.00     0.017 A 
ATOM      6  C5  UNL d   1       1.977   1.083  -1.382  0.00  0.00     0.034 A 
ATOM      7 Cl   UNL d   1      -0.517   0.418  -0.651  0.00  0.00    -0.070 Cl
ATOM      8 Cl1  UNL d   1      -1.250   0.855  -3.792  0.00  0.00    -0.070 Cl
ENDROOT
TORSDOF 0
ENDMDL
