MODEL 1
REMARK minimizedAffinity 0.834121466
REMARK minimizedRMSD -1
REMARK  0 active torsions:
REMARK  status: ('A' for Active; 'I' for Inactive)
ROOT
ATOM      1  C   UNL d   1       5.834  -4.084   6.000  0.00  0.00     0.020 A 
ATOM      2  C1  UNL d   1       5.441  -5.008   5.032  0.00  0.00     0.020 A 
ATOM      3  C2  UNL d   1       5.214  -4.591   3.719  0.00  0.00     0.034 A 
ATOM      4  C3  UNL d   1       5.379  -3.246   3.370  0.00  0.00     0.017 A 
ATOM      5  C4  UNL d   1       5.774  -2.318   4.341  0.00  0.00     0.017 A 
ATOM      6  C5  UNL d   1       6.000  -2.742   5.654  0.00  0.00     0.034 A 
ATOM      7 Cl   UNL d   1       5.998  -0.642   3.985  0.00  0.00    -0.070 Cl
ATOM      8 Cl1  UNL d   1       5.082  -2.800   1.727  0.00  0.00    -0.070 Cl
ENDROOT
TORSDOF 0
ENDMDL
