MODEL 1
REMARK minimizedAffinity 12.9324646
REMARK minimizedRMSD -1
REMARK  0 active torsions:
REMARK  status: ('A' for Active; 'I' for Inactive)
ROOT
ATOM      1  C   UNL d   1       5.999  -0.328   4.159  0.00  0.00     0.020 A 
ATOM      2  C1  UNL d   1       4.903   0.494   3.902  0.00  0.00     0.020 A 
ATOM      3  C2  UNL d   1       3.806  -0.004   3.195  0.00  0.00     0.034 A 
ATOM      4  C3  UNL d   1       3.804  -1.328   2.742  0.00  0.00     0.017 A 
ATOM      5  C4  UNL d   1       4.904  -2.153   3.000  0.00  0.00     0.017 A 
ATOM      6  C5  UNL d   1       5.999  -1.649   3.709  0.00  0.00     0.034 A 
ATOM      7 Cl   UNL d   1       4.973  -3.798   2.474  0.00  0.00    -0.070 Cl
ATOM      8 Cl1  UNL d   1       2.414  -1.877   1.874  0.00  0.00    -0.070 Cl
ENDROOT
TORSDOF 0
ENDMDL
