MODEL 1
REMARK minimizedAffinity -0.733639836
REMARK minimizedRMSD -1
REMARK  0 active torsions:
REMARK  status: ('A' for Active; 'I' for Inactive)
ROOT
ATOM      1  C   UNL d   1       5.954   0.516   4.119  0.00  0.00     0.020 A 
ATOM      2  C1  UNL d   1       5.581   0.210   2.811  0.00  0.00     0.020 A 
ATOM      3  C2  UNL d   1       5.253  -1.103   2.467  0.00  0.00     0.034 A 
ATOM      4  C3  UNL d   1       5.298  -2.116   3.433  0.00  0.00     0.017 A 
ATOM      5  C4  UNL d   1       5.673  -1.808   4.745  0.00  0.00     0.017 A 
ATOM      6  C5  UNL d   1       6.000  -0.491   5.084  0.00  0.00     0.034 A 
ATOM      7 Cl   UNL d   1       5.752  -3.003   5.991  0.00  0.00    -0.070 Cl
ATOM      8 Cl1  UNL d   1       4.880  -3.717   2.937  0.00  0.00    -0.070 Cl
ENDROOT
TORSDOF 0
ENDMDL
