MODEL 1
REMARK minimizedAffinity 1.50421691
REMARK minimizedRMSD -1
REMARK  0 active torsions:
REMARK  status: ('A' for Active; 'I' for Inactive)
ROOT
ATOM      1  C   UNL d   1      -2.797  -0.523  -3.086  0.00  0.00     0.020 A 
ATOM      2  C1  UNL d   1      -2.287   0.752  -2.850  0.00  0.00     0.020 A 
ATOM      3  C2  UNL d   1      -1.713   1.057  -1.614  0.00  0.00     0.034 A 
ATOM      4  C3  UNL d   1      -1.649   0.085  -0.609  0.00  0.00     0.017 A 
ATOM      5  C4  UNL d   1      -2.162  -1.195  -0.847  0.00  0.00     0.017 A 
ATOM      6  C5  UNL d   1      -2.735  -1.495  -2.087  0.00  0.00     0.034 A 
ATOM      7 Cl   UNL d   1      -2.118  -2.447   0.344  0.00  0.00    -0.070 Cl
ATOM      8 Cl1  UNL d   1      -0.926   0.532   0.896  0.00  0.00    -0.070 Cl
ENDROOT
TORSDOF 0
ENDMDL
