MODEL 1
REMARK minimizedAffinity 2.97559643
REMARK minimizedRMSD -1
REMARK  0 active torsions:
REMARK  status: ('A' for Active; 'I' for Inactive)
ROOT
ATOM      1  C   UNL d   1      -1.680   0.892   1.499  0.00  0.00     0.020 A 
ATOM      2  C1  UNL d   1      -0.776   0.001   0.923  0.00  0.00     0.020 A 
ATOM      3  C2  UNL d   1       0.589   0.116   1.196  0.00  0.00     0.034 A 
ATOM      4  C3  UNL d   1       1.053   1.125   2.048  0.00  0.00     0.017 A 
ATOM      5  C4  UNL d   1       0.145   2.019   2.626  0.00  0.00     0.017 A 
ATOM      6  C5  UNL d   1      -1.220   1.899   2.349  0.00  0.00     0.034 A 
ATOM      7 Cl   UNL d   1       0.643   3.289   3.688  0.00  0.00    -0.070 Cl
ATOM      8 Cl1  UNL d   1       2.754   1.208   2.342  0.00  0.00    -0.070 Cl
ENDROOT
TORSDOF 0
ENDMDL
