MODEL 1
REMARK minimizedAffinity 7.32077789
REMARK minimizedRMSD -1
REMARK  0 active torsions:
REMARK  status: ('A' for Active; 'I' for Inactive)
ROOT
ATOM      1  C   UNL d   1       0.707   1.212   0.511  0.00  0.00     0.020 A 
ATOM      2  C1  UNL d   1       0.235   0.252   1.405  0.00  0.00     0.020 A 
ATOM      3  C2  UNL d   1      -0.526  -0.822   0.939  0.00  0.00     0.034 A 
ATOM      4  C3  UNL d   1      -0.817  -0.939  -0.425  0.00  0.00     0.017 A 
ATOM      5  C4  UNL d   1      -0.342   0.025  -1.322  0.00  0.00     0.017 A 
ATOM      6  C5  UNL d   1       0.419   1.098  -0.850  0.00  0.00     0.034 A 
ATOM      7 Cl   UNL d   1      -0.660  -0.052  -3.019  0.00  0.00    -0.070 Cl
ATOM      8 Cl1  UNL d   1      -1.763  -2.294  -0.932  0.00  0.00    -0.070 Cl
ENDROOT
TORSDOF 0
ENDMDL
