MODEL 1
REMARK minimizedAffinity 0.387929112
REMARK minimizedRMSD -1
REMARK  0 active torsions:
REMARK  status: ('A' for Active; 'I' for Inactive)
ROOT
ATOM      1  C   UNL d   1       5.895  -3.392   3.949  0.00  0.00     0.020 A 
ATOM      2  C1  UNL d   1       5.816  -3.301   5.338  0.00  0.00     0.020 A 
ATOM      3  C2  UNL d   1       5.711  -2.050   5.950  0.00  0.00     0.034 A 
ATOM      4  C3  UNL d   1       5.686  -0.886   5.174  0.00  0.00     0.017 A 
ATOM      5  C4  UNL d   1       5.766  -0.979   3.780  0.00  0.00     0.017 A 
ATOM      6  C5  UNL d   1       5.870  -2.234   3.171  0.00  0.00     0.034 A 
ATOM      7 Cl   UNL d   1       5.740   0.413   2.755  0.00  0.00    -0.070 Cl
ATOM      8 Cl1  UNL d   1       5.555   0.627   5.998  0.00  0.00    -0.070 Cl
ENDROOT
TORSDOF 0
ENDMDL
