MODEL 1
REMARK minimizedAffinity 10.1291351
REMARK minimizedRMSD -1
REMARK  0 active torsions:
REMARK  status: ('A' for Active; 'I' for Inactive)
ROOT
ATOM      1  C   UNL d   1      -5.995  -1.614   5.986  0.00  0.00     0.020 A 
ATOM      2  C1  UNL d   1      -5.987  -2.871   5.383  0.00  0.00     0.020 A 
ATOM      3  C2  UNL d   1      -5.983  -2.977   3.990  0.00  0.00     0.034 A 
ATOM      4  C3  UNL d   1      -5.987  -1.824   3.197  0.00  0.00     0.017 A 
ATOM      5  C4  UNL d   1      -5.995  -0.562   3.804  0.00  0.00     0.017 A 
ATOM      6  C5  UNL d   1      -5.999  -0.462   5.198  0.00  0.00     0.034 A 
ATOM      7 Cl   UNL d   1      -6.000   0.905   2.891  0.00  0.00    -0.070 Cl
ATOM      8 Cl1  UNL d   1      -5.981  -2.029   1.481  0.00  0.00    -0.070 Cl
ENDROOT
TORSDOF 0
ENDMDL
