MODEL 1
REMARK minimizedAffinity 0.345080316
REMARK minimizedRMSD -1
REMARK  0 active torsions:
REMARK  status: ('A' for Active; 'I' for Inactive)
ROOT
ATOM      1  C   UNL d   1      -1.161   0.351   1.572  0.00  0.00     0.020 A 
ATOM      2  C1  UNL d   1      -0.736  -0.558   2.540  0.00  0.00     0.020 A 
ATOM      3  C2  UNL d   1       0.629  -0.755   2.761  0.00  0.00     0.034 A 
ATOM      4  C3  UNL d   1       1.573  -0.043   2.012  0.00  0.00     0.017 A 
ATOM      5  C4  UNL d   1       1.145   0.869   1.041  0.00  0.00     0.017 A 
ATOM      6  C5  UNL d   1      -0.223   1.063   0.824  0.00  0.00     0.034 A 
ATOM      7 Cl   UNL d   1       2.251   1.784   0.078  0.00  0.00    -0.070 Cl
ATOM      8 Cl1  UNL d   1       3.244  -0.337   2.338  0.00  0.00    -0.070 Cl
ENDROOT
TORSDOF 0
ENDMDL
