MODEL 1
REMARK minimizedAffinity 4.56680155
REMARK minimizedRMSD -1
REMARK  0 active torsions:
REMARK  status: ('A' for Active; 'I' for Inactive)
ROOT
ATOM      1  C   UNL d   1       5.531   0.368   2.989  0.00  0.00     0.020 A 
ATOM      2  C1  UNL d   1       4.184   0.007   3.006  0.00  0.00     0.020 A 
ATOM      3  C2  UNL d   1       3.305   0.547   2.065  0.00  0.00     0.034 A 
ATOM      4  C3  UNL d   1       3.771   1.451   1.103  0.00  0.00     0.017 A 
ATOM      5  C4  UNL d   1       5.123   1.812   1.087  0.00  0.00     0.017 A 
ATOM      6  C5  UNL d   1       5.999   1.268   2.031  0.00  0.00     0.034 A 
ATOM      7 Cl   UNL d   1       5.772   2.921  -0.069  0.00  0.00    -0.070 Cl
ATOM      8 Cl1  UNL d   1       2.627   2.079  -0.029  0.00  0.00    -0.070 Cl
ENDROOT
TORSDOF 0
ENDMDL
