MODEL 1
REMARK minimizedAffinity 3.12159514
REMARK minimizedRMSD -1
REMARK  0 active torsions:
REMARK  status: ('A' for Active; 'I' for Inactive)
ROOT
ATOM      1  C   UNL d   1       0.253  -1.234   1.599  0.00  0.00     0.020 A 
ATOM      2  C1  UNL d   1      -1.021  -1.786   1.471  0.00  0.00     0.020 A 
ATOM      3  C2  UNL d   1      -1.650  -1.807   0.224  0.00  0.00     0.034 A 
ATOM      4  C3  UNL d   1      -1.005  -1.276  -0.899  0.00  0.00     0.017 A 
ATOM      5  C4  UNL d   1       0.274  -0.722  -0.769  0.00  0.00     0.017 A 
ATOM      6  C5  UNL d   1       0.898  -0.703   0.482  0.00  0.00     0.034 A 
ATOM      7 Cl   UNL d   1       1.132  -0.047  -2.108  0.00  0.00    -0.070 Cl
ATOM      8 Cl1  UNL d   1      -1.842  -1.336  -2.410  0.00  0.00    -0.070 Cl
ENDROOT
TORSDOF 0
ENDMDL
