MODEL 1
REMARK minimizedAffinity 7.96217537
REMARK minimizedRMSD -1
REMARK  0 active torsions:
REMARK  status: ('A' for Active; 'I' for Inactive)
ROOT
ATOM      1  C   UNL d   1       3.446  -1.508  -2.523  0.00  0.00     0.020 A 
ATOM      2  C1  UNL d   1       3.290  -0.808  -3.718  0.00  0.00     0.020 A 
ATOM      3  C2  UNL d   1       2.812   0.504  -3.701  0.00  0.00     0.034 A 
ATOM      4  C3  UNL d   1       2.487   1.120  -2.486  0.00  0.00     0.017 A 
ATOM      5  C4  UNL d   1       2.644   0.415  -1.287  0.00  0.00     0.017 A 
ATOM      6  C5  UNL d   1       3.123  -0.898  -1.310  0.00  0.00     0.034 A 
ATOM      7 Cl   UNL d   1       2.264   1.107   0.251  0.00  0.00    -0.070 Cl
ATOM      8 Cl1  UNL d   1       1.902   2.744  -2.540  0.00  0.00    -0.070 Cl
ENDROOT
TORSDOF 0
ENDMDL
