MODEL 1
REMARK minimizedAffinity 7.40492201
REMARK minimizedRMSD -1
REMARK  0 active torsions:
REMARK  status: ('A' for Active; 'I' for Inactive)
ROOT
ATOM      1  C   UNL d   1      -5.964   0.356   2.550  0.00  0.00     0.020 A 
ATOM      2  C1  UNL d   1      -5.311   1.586   2.610  0.00  0.00     0.020 A 
ATOM      3  C2  UNL d   1      -4.038   1.729   2.054  0.00  0.00     0.034 A 
ATOM      4  C3  UNL d   1      -3.414   0.639   1.435  0.00  0.00     0.017 A 
ATOM      5  C4  UNL d   1      -4.071  -0.595   1.375  0.00  0.00     0.017 A 
ATOM      6  C5  UNL d   1      -5.345  -0.733   1.934  0.00  0.00     0.034 A 
ATOM      7 Cl   UNL d   1      -3.365  -1.985   0.628  0.00  0.00    -0.070 Cl
ATOM      8 Cl1  UNL d   1      -1.840   0.887   0.767  0.00  0.00    -0.070 Cl
ENDROOT
TORSDOF 0
ENDMDL
