MODEL 1
REMARK minimizedAffinity 7.88523865
REMARK minimizedRMSD -1
REMARK  0 active torsions:
REMARK  status: ('A' for Active; 'I' for Inactive)
ROOT
ATOM      1  C   UNL d   1       3.150  -0.145  -1.980  0.00  0.00     0.020 A 
ATOM      2  C1  UNL d   1       3.021  -1.494  -2.309  0.00  0.00     0.020 A 
ATOM      3  C2  UNL d   1       3.451  -1.954  -3.555  0.00  0.00     0.034 A 
ATOM      4  C3  UNL d   1       4.013  -1.064  -4.477  0.00  0.00     0.017 A 
ATOM      5  C4  UNL d   1       4.143   0.290  -4.147  0.00  0.00     0.017 A 
ATOM      6  C5  UNL d   1       3.710   0.745  -2.898  0.00  0.00     0.034 A 
ATOM      7 Cl   UNL d   1       4.826   1.448  -5.233  0.00  0.00    -0.070 Cl
ATOM      8 Cl1  UNL d   1       4.525  -1.702  -6.000  0.00  0.00    -0.070 Cl
ENDROOT
TORSDOF 0
ENDMDL
