MODEL 1
REMARK minimizedAffinity 9.63587093
REMARK minimizedRMSD -1
REMARK  0 active torsions:
REMARK  status: ('A' for Active; 'I' for Inactive)
ROOT
ATOM      1  C   UNL d   1      -2.717   1.004   1.135  0.00  0.00     0.020 A 
ATOM      2  C1  UNL d   1      -1.446   0.501   0.857  0.00  0.00     0.020 A 
ATOM      3  C2  UNL d   1      -0.325   1.055   1.478  0.00  0.00     0.034 A 
ATOM      4  C3  UNL d   1      -0.471   2.115   2.380  0.00  0.00     0.017 A 
ATOM      5  C4  UNL d   1      -1.746   2.619   2.659  0.00  0.00     0.017 A 
ATOM      6  C5  UNL d   1      -2.866   2.061   2.034  0.00  0.00     0.034 A 
ATOM      7 Cl   UNL d   1      -2.006   3.926   3.760  0.00  0.00    -0.070 Cl
ATOM      8 Cl1  UNL d   1       0.960   2.751   3.111  0.00  0.00    -0.070 Cl
ENDROOT
TORSDOF 0
ENDMDL
