MODEL 1
REMARK minimizedAffinity 26.4767361
REMARK minimizedRMSD -1
REMARK  0 active torsions:
REMARK  status: ('A' for Active; 'I' for Inactive)
ROOT
ATOM      1  N1  IND d   1       0.322  -2.946   1.936  0.00  0.00    -0.196 N 
ATOM      2  C2  IND d   1       1.345  -2.086   2.226  0.00  0.00     0.054 A 
ATOM      3  C3  IND d   1       1.024  -0.829   1.847  0.00  0.00    -0.031 A 
ATOM      4  C4  IND d   1      -1.163   0.064   0.825  0.00  0.00     0.051 A 
ATOM      5  C5  IND d   1      -2.374  -0.348   0.343  0.00  0.00    -0.031 A 
ATOM      6  C6  IND d   1      -2.757  -1.673   0.371  0.00  0.00     0.015 A 
ATOM      7  C7  IND d   1      -1.944  -2.639   0.894  0.00  0.00    -0.016 A 
ATOM      8  C8  IND d   1      -0.711  -2.225   1.378  0.00  0.00    -0.047 A 
ATOM      9  C9  IND d   1      -0.300  -0.887   1.314  0.00  0.00    -0.096 A 
ATOM     10  HN1 IND d   1       0.323  -3.794   2.078  0.00  0.00     0.298 HD
ENDROOT
TORSDOF 0
ENDMDL
