MODEL 1
REMARK minimizedAffinity 18.1390839
REMARK minimizedRMSD -1
REMARK  0 active torsions:
REMARK  status: ('A' for Active; 'I' for Inactive)
ROOT
ATOM      1  N1  IND d   1       0.972  -2.965   1.585  0.00  0.00    -0.196 N 
ATOM      2  C2  IND d   1       1.776  -2.132   2.313  0.00  0.00     0.054 A 
ATOM      3  C3  IND d   1       1.152  -0.954   2.536  0.00  0.00    -0.031 A 
ATOM      4  C4  IND d   1      -1.227  -0.214   1.889  0.00  0.00     0.051 A 
ATOM      5  C5  IND d   1      -2.327  -0.618   1.186  0.00  0.00    -0.031 A 
ATOM      6  C6  IND d   1      -2.386  -1.851   0.569  0.00  0.00     0.015 A 
ATOM      7  C7  IND d   1      -1.347  -2.734   0.644  0.00  0.00    -0.016 A 
ATOM      8  C8  IND d   1      -0.225  -2.325   1.351  0.00  0.00    -0.047 A 
ATOM      9  C9  IND d   1      -0.143  -1.058   1.943  0.00  0.00    -0.096 A 
ATOM     10  HN1 IND d   1       1.179  -3.756   1.319  0.00  0.00     0.298 HD
ENDROOT
TORSDOF 0
ENDMDL
