MODEL 1
REMARK minimizedAffinity 6.17548752
REMARK minimizedRMSD -1
REMARK  0 active torsions:
REMARK  status: ('A' for Active; 'I' for Inactive)
ROOT
ATOM      1  N1  IND d   1      -1.950  -2.589   1.521  0.00  0.00    -0.196 N 
ATOM      2  C2  IND d   1      -0.719  -2.459   2.101  0.00  0.00     0.054 A 
ATOM      3  C3  IND d   1      -0.373  -1.155   2.185  0.00  0.00    -0.031 A 
ATOM      4  C4  IND d   1      -1.717   0.939   1.524  0.00  0.00     0.051 A 
ATOM      5  C5  IND d   1      -2.880   1.326   0.919  0.00  0.00    -0.031 A 
ATOM      6  C6  IND d   1      -3.812   0.409   0.478  0.00  0.00     0.015 A 
ATOM      7  C7  IND d   1      -3.621  -0.934   0.635  0.00  0.00    -0.016 A 
ATOM      8  C8  IND d   1      -2.438  -1.331   1.243  0.00  0.00    -0.047 A 
ATOM      9  C9  IND d   1      -1.469  -0.407   1.655  0.00  0.00    -0.096 A 
ATOM     10  HN1 IND d   1      -2.351  -3.331   1.357  0.00  0.00     0.298 HD
ENDROOT
TORSDOF 0
ENDMDL
