MODEL 1
REMARK minimizedAffinity 16.5614777
REMARK minimizedRMSD -1
REMARK  0 active torsions:
REMARK  status: ('A' for Active; 'I' for Inactive)
ROOT
ATOM      1  N1  IND d   1      -0.365   4.282  -3.580  0.00  0.00    -0.196 N 
ATOM      2  C2  IND d   1       0.031   5.436  -4.197  0.00  0.00     0.054 A 
ATOM      3  C3  IND d   1       1.374   5.569  -4.129  0.00  0.00    -0.031 A 
ATOM      4  C4  IND d   1       3.129   3.964  -3.145  0.00  0.00     0.051 A 
ATOM      5  C5  IND d   1       3.248   2.798  -2.441  0.00  0.00    -0.031 A 
ATOM      6  C6  IND d   1       2.147   2.051  -2.077  0.00  0.00     0.015 A 
ATOM      7  C7  IND d   1       0.880   2.437  -2.413  0.00  0.00    -0.016 A 
ATOM      8  C8  IND d   1       0.755   3.624  -3.121  0.00  0.00    -0.047 A 
ATOM      9  C9  IND d   1       1.866   4.409  -3.457  0.00  0.00    -0.096 A 
ATOM     10  HN1 IND d   1      -1.176   4.012  -3.494  0.00  0.00     0.298 HD
ENDROOT
TORSDOF 0
ENDMDL
