MODEL 1
REMARK minimizedAffinity 9.32043934
REMARK minimizedRMSD -1
REMARK  0 active torsions:
REMARK  status: ('A' for Active; 'I' for Inactive)
ROOT
ATOM      1  N1  IND d   1      -3.026  -6.000  -4.756  0.00  0.00    -0.196 N 
ATOM      2  C2  IND d   1      -2.432  -5.997  -5.987  0.00  0.00     0.054 A 
ATOM      3  C3  IND d   1      -1.381  -5.147  -6.000  0.00  0.00    -0.031 A 
ATOM      4  C4  IND d   1      -0.395  -3.736  -4.086  0.00  0.00     0.051 A 
ATOM      5  C5  IND d   1      -0.617  -3.380  -2.785  0.00  0.00    -0.031 A 
ATOM      6  C6  IND d   1      -1.674  -3.891  -2.059  0.00  0.00     0.015 A 
ATOM      7  C7  IND d   1      -2.545  -4.790  -2.607  0.00  0.00    -0.016 A 
ATOM      8  C8  IND d   1      -2.326  -5.149  -3.929  0.00  0.00    -0.047 A 
ATOM      9  C9  IND d   1      -1.280  -4.601  -4.684  0.00  0.00    -0.096 A 
ATOM     10  HN1 IND d   1      -3.721  -6.456  -4.535  0.00  0.00     0.298 HD
ENDROOT
TORSDOF 0
ENDMDL
