MODEL 1
REMARK minimizedAffinity 11.2308331
REMARK minimizedRMSD -1
REMARK  0 active torsions:
REMARK  status: ('A' for Active; 'I' for Inactive)
ROOT
ATOM      1  N1  IND d   1      -1.097   0.561   2.442  0.00  0.00    -0.196 N 
ATOM      2  C2  IND d   1      -2.367   0.697   1.955  0.00  0.00     0.054 A 
ATOM      3  C3  IND d   1      -2.778  -0.458   1.385  0.00  0.00    -0.031 A 
ATOM      4  C4  IND d   1      -1.569  -2.726   1.229  0.00  0.00     0.051 A 
ATOM      5  C5  IND d   1      -0.373  -3.330   1.498  0.00  0.00    -0.031 A 
ATOM      6  C6  IND d   1       0.663  -2.655   2.111  0.00  0.00     0.015 A 
ATOM      7  C7  IND d   1       0.537  -1.348   2.489  0.00  0.00    -0.016 A 
ATOM      8  C8  IND d   1      -0.674  -0.729   2.210  0.00  0.00    -0.047 A 
ATOM      9  C9  IND d   1      -1.714  -1.397   1.551  0.00  0.00    -0.096 A 
ATOM     10  HN1 IND d   1      -0.639   1.178   2.827  0.00  0.00     0.298 HD
ENDROOT
TORSDOF 0
ENDMDL
