MODEL 1
REMARK minimizedAffinity 17.5626297
REMARK minimizedRMSD -1
REMARK  0 active torsions:
REMARK  status: ('A' for Active; 'I' for Inactive)
ROOT
ATOM      1  N1  IND d   1      -0.869  -0.252   2.818  0.00  0.00    -0.196 N 
ATOM      2  C2  IND d   1      -2.137   0.258   2.800  0.00  0.00     0.054 A 
ATOM      3  C3  IND d   1      -2.951  -0.531   2.064  0.00  0.00    -0.031 A 
ATOM      4  C4  IND d   1      -2.438  -2.761   0.884  0.00  0.00     0.051 A 
ATOM      5  C5  IND d   1      -1.410  -3.611   0.587  0.00  0.00    -0.031 A 
ATOM      6  C6  IND d   1      -0.123  -3.381   1.030  0.00  0.00     0.015 A 
ATOM      7  C7  IND d   1       0.182  -2.294   1.800  0.00  0.00    -0.016 A 
ATOM      8  C8  IND d   1      -0.858  -1.425   2.097  0.00  0.00    -0.047 A 
ATOM      9  C9  IND d   1      -2.157  -1.630   1.614  0.00  0.00    -0.096 A 
ATOM     10  HN1 IND d   1      -0.192   0.102   3.213  0.00  0.00     0.298 HD
ENDROOT
TORSDOF 0
ENDMDL
