MODEL 1
REMARK minimizedAffinity 12.8877296
REMARK minimizedRMSD -1
REMARK  0 active torsions:
REMARK  status: ('A' for Active; 'I' for Inactive)
ROOT
ATOM      1  N1  IND d   1      -1.607  -3.396   0.799  0.00  0.00    -0.196 N 
ATOM      2  C2  IND d   1      -2.918  -3.025   0.687  0.00  0.00     0.054 A 
ATOM      3  C3  IND d   1      -3.205  -2.040   1.567  0.00  0.00    -0.031 A 
ATOM      4  C4  IND d   1      -1.652  -0.815   3.215  0.00  0.00     0.051 A 
ATOM      5  C5  IND d   1      -0.376  -0.828   3.705  0.00  0.00    -0.031 A 
ATOM      6  C6  IND d   1       0.575  -1.713   3.239  0.00  0.00     0.015 A 
ATOM      7  C7  IND d   1       0.287  -2.615   2.255  0.00  0.00    -0.016 A 
ATOM      8  C8  IND d   1      -1.010  -2.610   1.760  0.00  0.00    -0.047 A 
ATOM      9  C9  IND d   1      -1.991  -1.743   2.258  0.00  0.00    -0.096 A 
ATOM     10  HN1 IND d   1      -1.221  -4.016   0.345  0.00  0.00     0.298 HD
ENDROOT
TORSDOF 0
ENDMDL
