MODEL 1
REMARK minimizedAffinity 18.5890617
REMARK minimizedRMSD -1
REMARK  0 active torsions:
REMARK  status: ('A' for Active; 'I' for Inactive)
ROOT
ATOM      1  N1  IND d   1      -5.746   5.315  -2.236  0.00  0.00    -0.196 N 
ATOM      2  C2  IND d   1      -5.562   5.918  -1.023  0.00  0.00     0.054 A 
ATOM      3  C3  IND d   1      -5.513   4.991  -0.040  0.00  0.00    -0.031 A 
ATOM      4  C4  IND d   1      -5.612   2.424  -0.206  0.00  0.00     0.051 A 
ATOM      5  C5  IND d   1      -5.811   1.409  -1.100  0.00  0.00    -0.031 A 
ATOM      6  C6  IND d   1      -6.000   1.650  -2.446  0.00  0.00     0.015 A 
ATOM      7  C7  IND d   1      -5.985   2.919  -2.952  0.00  0.00    -0.016 A 
ATOM      8  C8  IND d   1      -5.790   3.952  -2.046  0.00  0.00    -0.047 A 
ATOM      9  C9  IND d   1      -5.641   3.717  -0.673  0.00  0.00    -0.096 A 
ATOM     10  HN1 IND d   1      -5.822   5.720  -2.991  0.00  0.00     0.298 HD
ENDROOT
TORSDOF 0
ENDMDL
