MODEL 1
REMARK minimizedAffinity 14.2276745
REMARK minimizedRMSD -1
REMARK  0 active torsions:
REMARK  status: ('A' for Active; 'I' for Inactive)
ROOT
ATOM      1  N1  IND d   1       1.069   3.988  -4.303  0.00  0.00    -0.196 N 
ATOM      2  C2  IND d   1      -0.187   3.919  -3.769  0.00  0.00     0.054 A 
ATOM      3  C3  IND d   1      -0.166   3.238  -2.601  0.00  0.00    -0.031 A 
ATOM      4  C4  IND d   1       1.836   2.238  -1.328  0.00  0.00     0.051 A 
ATOM      5  C5  IND d   1       3.181   2.019  -1.436  0.00  0.00    -0.031 A 
ATOM      6  C6  IND d   1       3.905   2.456  -2.526  0.00  0.00     0.015 A 
ATOM      7  C7  IND d   1       3.312   3.142  -3.548  0.00  0.00    -0.016 A 
ATOM      8  C8  IND d   1       1.945   3.360  -3.445  0.00  0.00    -0.047 A 
ATOM      9  C9  IND d   1       1.197   2.882  -2.361  0.00  0.00    -0.096 A 
ATOM     10  HN1 IND d   1       1.278   4.362  -5.049  0.00  0.00     0.298 HD
ENDROOT
TORSDOF 0
ENDMDL
