MODEL 1
REMARK minimizedAffinity 8.83712482
REMARK minimizedRMSD -1
REMARK  0 active torsions:
REMARK  status: ('A' for Active; 'I' for Inactive)
ROOT
ATOM      1  N1  IND d   1      -5.991  -1.032  -2.305  0.00  0.00    -0.196 N 
ATOM      2  C2  IND d   1      -5.996  -0.722  -3.636  0.00  0.00     0.054 A 
ATOM      3  C3  IND d   1      -5.985   0.619  -3.807  0.00  0.00    -0.031 A 
ATOM      4  C4  IND d   1      -5.855   2.491  -2.045  0.00  0.00     0.051 A 
ATOM      5  C5  IND d   1      -5.868   2.702  -0.695  0.00  0.00    -0.031 A 
ATOM      6  C6  IND d   1      -5.920   1.658   0.206  0.00  0.00     0.015 A 
ATOM      7  C7  IND d   1      -5.950   0.358  -0.212  0.00  0.00    -0.016 A 
ATOM      8  C8  IND d   1      -5.945   0.140  -1.582  0.00  0.00    -0.047 A 
ATOM      9  C9  IND d   1      -5.935   1.197  -2.502  0.00  0.00    -0.096 A 
ATOM     10  HN1 IND d   1      -6.013  -1.826  -1.974  0.00  0.00     0.298 HD
ENDROOT
TORSDOF 0
ENDMDL
