MODEL 1
REMARK minimizedAffinity 3.41278601
REMARK minimizedRMSD -1
REMARK  0 active torsions:
REMARK  status: ('A' for Active; 'I' for Inactive)
ROOT
ATOM      1  N1  IND d   1      -1.879  -0.125   3.490  0.00  0.00    -0.196 N 
ATOM      2  C2  IND d   1      -1.482  -0.721   2.326  0.00  0.00     0.054 A 
ATOM      3  C3  IND d   1      -2.423  -0.558   1.368  0.00  0.00    -0.031 A 
ATOM      4  C4  IND d   1      -4.644   0.740   1.463  0.00  0.00     0.051 A 
ATOM      5  C5  IND d   1      -5.457   1.423   2.324  0.00  0.00    -0.031 A 
ATOM      6  C6  IND d   1      -5.110   1.632   3.643  0.00  0.00     0.015 A 
ATOM      7  C7  IND d   1      -3.927   1.173   4.150  0.00  0.00    -0.016 A 
ATOM      8  C8  IND d   1      -3.103   0.473   3.281  0.00  0.00    -0.047 A 
ATOM      9  C9  IND d   1      -3.468   0.221   1.952  0.00  0.00    -0.096 A 
ATOM     10  HN1 IND d   1      -1.439  -0.123   4.228  0.00  0.00     0.298 HD
ENDROOT
TORSDOF 0
ENDMDL
