MODEL 1
REMARK minimizedAffinity 11.9675016
REMARK minimizedRMSD -1
REMARK  0 active torsions:
REMARK  status: ('A' for Active; 'I' for Inactive)
ROOT
ATOM      1  N1  IND d   1      -0.989   3.348  -4.598  0.00  0.00    -0.196 N 
ATOM      2  C2  IND d   1      -1.309   4.604  -5.034  0.00  0.00     0.054 A 
ATOM      3  C3  IND d   1      -0.502   5.522  -4.456  0.00  0.00    -0.031 A 
ATOM      4  C4  IND d   1       1.477   5.179  -2.847  0.00  0.00     0.051 A 
ATOM      5  C5  IND d   1       2.131   4.213  -2.133  0.00  0.00    -0.031 A 
ATOM      6  C6  IND d   1       1.772   2.883  -2.209  0.00  0.00     0.015 A 
ATOM      7  C7  IND d   1       0.749   2.465  -3.013  0.00  0.00    -0.016 A 
ATOM      8  C8  IND d   1       0.079   3.444  -3.733  0.00  0.00    -0.047 A 
ATOM      9  C9  IND d   1       0.411   4.801  -3.628  0.00  0.00    -0.096 A 
ATOM     10  HN1 IND d   1      -1.387   2.621  -4.826  0.00  0.00     0.298 HD
ENDROOT
TORSDOF 0
ENDMDL
