MODEL 1
REMARK minimizedAffinity 12.9255457
REMARK minimizedRMSD -1
REMARK  0 active torsions:
REMARK  status: ('A' for Active; 'I' for Inactive)
ROOT
ATOM      1  N1  IND d   1      -4.121  -5.779  -5.997  0.00  0.00    -0.196 N 
ATOM      2  C2  IND d   1      -5.017  -4.746  -6.000  0.00  0.00     0.054 A 
ATOM      3  C3  IND d   1      -4.466  -3.644  -5.444  0.00  0.00    -0.031 A 
ATOM      4  C4  IND d   1      -2.076  -3.280  -4.558  0.00  0.00     0.051 A 
ATOM      5  C5  IND d   1      -0.906  -3.942  -4.312  0.00  0.00    -0.031 A 
ATOM      6  C6  IND d   1      -0.744  -5.276  -4.624  0.00  0.00     0.015 A 
ATOM      7  C7  IND d   1      -1.746  -5.999  -5.207  0.00  0.00    -0.016 A 
ATOM      8  C8  IND d   1      -2.938  -5.332  -5.452  0.00  0.00    -0.047 A 
ATOM      9  C9  IND d   1      -3.123  -3.989  -5.098  0.00  0.00    -0.096 A 
ATOM     10  HN1 IND d   1      -4.272  -6.574  -6.288  0.00  0.00     0.298 HD
ENDROOT
TORSDOF 0
ENDMDL
