MODEL 1
REMARK minimizedAffinity 3.72546935
REMARK minimizedRMSD -1
REMARK  0 active torsions:
REMARK  status: ('A' for Active; 'I' for Inactive)
ROOT
ATOM      1  N1  IND d   1      -0.271  -3.189  -0.308  0.00  0.00    -0.196 N 
ATOM      2  C2  IND d   1       1.057  -3.513  -0.289  0.00  0.00     0.054 A 
ATOM      3  C3  IND d   1       1.692  -2.843   0.699  0.00  0.00    -0.031 A 
ATOM      4  C4  IND d   1       0.728  -1.241   2.469  0.00  0.00     0.051 A 
ATOM      5  C5  IND d   1      -0.427  -0.609   2.834  0.00  0.00    -0.031 A 
ATOM      6  C6  IND d   1      -1.614  -0.810   2.159  0.00  0.00     0.015 A 
ATOM      7  C7  IND d   1      -1.692  -1.664   1.095  0.00  0.00    -0.016 A 
ATOM      8  C8  IND d   1      -0.520  -2.303   0.717  0.00  0.00    -0.047 A 
ATOM      9  C9  IND d   1       0.697  -2.070   1.372  0.00  0.00    -0.096 A 
ATOM     10  HN1 IND d   1      -0.852  -3.488  -0.865  0.00  0.00     0.298 HD
ENDROOT
TORSDOF 0
ENDMDL
