MODEL 1
REMARK minimizedAffinity -0.682256997
REMARK minimizedRMSD -1
REMARK  0 active torsions:
REMARK  status: ('A' for Active; 'I' for Inactive)
ROOT
ATOM      1  N1  IND d   1      -1.642  -0.772  -0.010  0.00  0.00    -0.196 N 
ATOM      2  C2  IND d   1      -1.848   0.361  -0.748  0.00  0.00     0.054 A 
ATOM      3  C3  IND d   1      -0.693   1.051  -0.882  0.00  0.00    -0.031 A 
ATOM      4  C4  IND d   1       1.673   0.458  -0.059  0.00  0.00     0.051 A 
ATOM      5  C5  IND d   1       2.353  -0.459   0.692  0.00  0.00    -0.031 A 
ATOM      6  C6  IND d   1       1.725  -1.550   1.257  0.00  0.00     0.015 A 
ATOM      7  C7  IND d   1       0.389  -1.772   1.081  0.00  0.00    -0.016 A 
ATOM      8  C8  IND d   1      -0.307  -0.840   0.325  0.00  0.00    -0.047 A 
ATOM      9  C9  IND d   1       0.317   0.292  -0.215  0.00  0.00    -0.096 A 
ATOM     10  HN1 IND d   1      -2.244  -1.345   0.208  0.00  0.00     0.298 HD
ENDROOT
TORSDOF 0
ENDMDL
