MODEL 1
REMARK minimizedAffinity -5.42072248
REMARK minimizedRMSD -1
REMARK  1 active torsions:
REMARK  status: ('A' for Active; 'I' for Inactive)
REMARK    1  A    between atoms: C1_2  and  C2_3 
ROOT
ATOM      1  C2  UNL d   1      -0.913   0.629  -0.242  0.00  0.00    -0.081 A 
ATOM      2  C3  UNL d   1       0.186   1.496  -0.249  0.00  0.00     0.006 A 
ATOM      3  C4  UNL d   1       1.488   0.990  -0.203  0.00  0.00     0.002 A 
ATOM      4  C5  UNL d   1       1.711  -0.391  -0.157  0.00  0.00    -0.080 A 
ATOM      5  C6  UNL d   1       3.103  -0.948  -0.138  0.00  0.00     0.076 C 
ATOM      6  C7  UNL d   1       0.612  -1.256  -0.132  0.00  0.00     0.002 A 
ATOM      7  C8  UNL d   1      -0.689  -0.751  -0.178  0.00  0.00     0.006 A 
ENDROOT
BRANCH   1   8
ATOM      8  C1  UNL d   1      -2.316   1.169  -0.357  0.00  0.00     0.054 C 
ATOM      9  C   UNL d   1      -2.866   1.572   1.004  0.00  0.00     0.018 C 
ENDBRANCH   1   8
TORSDOF 1
ENDMDL
