MODEL 1
REMARK minimizedAffinity -1.07623506
REMARK minimizedRMSD -1
REMARK  1 active torsions:
REMARK  status: ('A' for Active; 'I' for Inactive)
REMARK    1  A    between atoms: C1_2  and  C2_3 
ROOT
ATOM      1  C2  UNL d   1       1.906   0.447  -0.494  0.00  0.00    -0.081 A 
ATOM      2  C3  UNL d   1       0.538   0.717  -0.622  0.00  0.00     0.006 A 
ATOM      3  C4  UNL d   1      -0.384  -0.329  -0.707  0.00  0.00     0.002 A 
ATOM      4  C5  UNL d   1       0.044  -1.659  -0.657  0.00  0.00    -0.080 A 
ATOM      5  C6  UNL d   1      -0.939  -2.791  -0.717  0.00  0.00     0.076 C 
ATOM      6  C7  UNL d   1       1.413  -1.929  -0.547  0.00  0.00     0.002 A 
ATOM      7  C8  UNL d   1       2.336  -0.884  -0.463  0.00  0.00     0.006 A 
ENDROOT
BRANCH   1   8
ATOM      8  C1  UNL d   1       2.898   1.572  -0.337  0.00  0.00     0.054 C 
ATOM      9  C   UNL d   1       4.328   1.073  -0.480  0.00  0.00     0.018 C 
ENDBRANCH   1   8
TORSDOF 1
ENDMDL
