MODEL 1
REMARK minimizedAffinity -3.87509179
REMARK minimizedRMSD -1
REMARK  1 active torsions:
REMARK  status: ('A' for Active; 'I' for Inactive)
REMARK    1  A    between atoms: C1_2  and  C2_3 
ROOT
ATOM      1  C2  UNL d   1      -0.374   0.032  -0.524  0.00  0.00    -0.081 A 
ATOM      2  C3  UNL d   1      -0.003  -1.305  -0.710  0.00  0.00     0.006 A 
ATOM      3  C4  UNL d   1       1.186  -1.793  -0.164  0.00  0.00     0.002 A 
ATOM      4  C5  UNL d   1       2.020  -0.954   0.584  0.00  0.00    -0.080 A 
ATOM      5  C6  UNL d   1       3.285  -1.473   1.201  0.00  0.00     0.076 C 
ATOM      6  C7  UNL d   1       1.659   0.386   0.755  0.00  0.00     0.002 A 
ATOM      7  C8  UNL d   1       0.470   0.875   0.208  0.00  0.00     0.006 A 
ENDROOT
BRANCH   1   8
ATOM      8  C1  UNL d   1      -1.687   0.545  -1.057  0.00  0.00     0.054 C 
ATOM      9  C   UNL d   1      -2.647   0.887   0.073  0.00  0.00     0.018 C 
ENDBRANCH   1   8
TORSDOF 1
ENDMDL
