MODEL 1
REMARK minimizedAffinity -1.41725445
REMARK minimizedRMSD -1
REMARK  1 active torsions:
REMARK  status: ('A' for Active; 'I' for Inactive)
REMARK    1  A    between atoms: C1_2  and  C2_3 
ROOT
ATOM      1  C2  UNL d   1      -1.144   0.516  -0.449  0.00  0.00    -0.081 A 
ATOM      2  C3  UNL d   1      -0.780  -0.673  -1.091  0.00  0.00     0.006 A 
ATOM      3  C4  UNL d   1       0.486  -1.229  -0.889  0.00  0.00     0.002 A 
ATOM      4  C5  UNL d   1       1.405  -0.608  -0.036  0.00  0.00    -0.080 A 
ATOM      5  C6  UNL d   1       2.756  -1.210   0.214  0.00  0.00     0.076 C 
ATOM      6  C7  UNL d   1       1.048   0.590   0.592  0.00  0.00     0.002 A 
ATOM      7  C8  UNL d   1      -0.217   1.146   0.390  0.00  0.00     0.006 A 
ENDROOT
BRANCH   1   8
ATOM      8  C1  UNL d   1      -2.531   1.083  -0.614  0.00  0.00     0.054 C 
ATOM      9  C   UNL d   1      -3.347   0.929   0.661  0.00  0.00     0.018 C 
ENDBRANCH   1   8
TORSDOF 1
ENDMDL
