MODEL 1
REMARK minimizedAffinity -5.01603699
REMARK minimizedRMSD -1
REMARK  1 active torsions:
REMARK  status: ('A' for Active; 'I' for Inactive)
REMARK    1  A    between atoms: C1_2  and  C2_3 
ROOT
ATOM      1  C2  UNL d   1      -0.105   0.296   2.367  0.00  0.00    -0.073 A 
ATOM      2  C3  UNL d   1      -1.268   1.073   2.398  0.00  0.00    -0.002 A 
ATOM      3  C4  UNL d   1      -1.926   1.405   1.213  0.00  0.00     0.004 A 
ATOM      4  C5  UNL d   1      -1.432   0.959  -0.013  0.00  0.00    -0.004 A 
ATOM      5  C6  UNL d   1      -0.277   0.171  -0.064  0.00  0.00    -0.075 A 
ATOM      6  C7  UNL d   1       0.268  -0.315  -1.374  0.00  0.00     0.076 C 
ATOM      7  C8  UNL d   1       0.379  -0.156   1.130  0.00  0.00     0.001 A 
ENDROOT
BRANCH   1   8
ATOM      8  C1  UNL d   1       0.606  -0.070   3.644  0.00  0.00     0.053 C 
ATOM      9  C   UNL d   1       2.042  -0.502   3.394  0.00  0.00     0.018 C 
ENDBRANCH   1   8
TORSDOF 1
ENDMDL
