MODEL 1
REMARK minimizedAffinity -2.89205647
REMARK minimizedRMSD -1
REMARK  1 active torsions:
REMARK  status: ('A' for Active; 'I' for Inactive)
REMARK    1  A    between atoms: C1_2  and  C2_3 
ROOT
ATOM      1  C2  UNL d   1      -0.128   0.358  -0.380  0.00  0.00    -0.073 A 
ATOM      2  C3  UNL d   1      -1.340  -0.230  -0.759  0.00  0.00    -0.002 A 
ATOM      3  C4  UNL d   1      -2.360  -0.407   0.177  0.00  0.00     0.004 A 
ATOM      4  C5  UNL d   1      -2.181   0.007   1.497  0.00  0.00    -0.004 A 
ATOM      5  C6  UNL d   1      -0.981   0.607   1.892  0.00  0.00    -0.075 A 
ATOM      6  C7  UNL d   1      -0.773   1.056   3.308  0.00  0.00     0.076 C 
ATOM      7  C8  UNL d   1       0.039   0.779   0.947  0.00  0.00     0.001 A 
ENDROOT
BRANCH   1   8
ATOM      8  C1  UNL d   1       0.974   0.557  -1.389  0.00  0.00     0.053 C 
ATOM      9  C   UNL d   1       0.498   0.307  -2.811  0.00  0.00     0.018 C 
ENDBRANCH   1   8
TORSDOF 1
ENDMDL
