MODEL 1
REMARK minimizedAffinity -0.878330767
REMARK minimizedRMSD -1
REMARK  1 active torsions:
REMARK  status: ('A' for Active; 'I' for Inactive)
REMARK    1  A    between atoms: C1_2  and  C2_3 
ROOT
ATOM      1  C2  UNL d   1      -0.254  -0.049  -0.669  0.00  0.00    -0.073 A 
ATOM      2  C3  UNL d   1      -1.416   0.672  -0.966  0.00  0.00    -0.002 A 
ATOM      3  C4  UNL d   1      -2.281   1.067   0.056  0.00  0.00     0.004 A 
ATOM      4  C5  UNL d   1      -1.990   0.751   1.383  0.00  0.00    -0.004 A 
ATOM      5  C6  UNL d   1      -0.827   0.042   1.701  0.00  0.00    -0.075 A 
ATOM      6  C7  UNL d   1      -0.501  -0.308   3.123  0.00  0.00     0.076 C 
ATOM      7  C8  UNL d   1       0.035  -0.354   0.669  0.00  0.00     0.001 A 
ENDROOT
BRANCH   1   8
ATOM      8  C1  UNL d   1       0.686  -0.472  -1.768  0.00  0.00     0.053 C 
ATOM      9  C   UNL d   1       0.040  -0.372  -3.141  0.00  0.00     0.018 C 
ENDBRANCH   1   8
TORSDOF 1
ENDMDL
