MODEL 1
REMARK minimizedAffinity -4.73959494
REMARK minimizedRMSD -1
REMARK  1 active torsions:
REMARK  status: ('A' for Active; 'I' for Inactive)
REMARK    1  A    between atoms: C1_2  and  C2_3 
ROOT
ATOM      1  C2  UNL d   1      -0.625   0.279  -0.571  0.00  0.00    -0.073 A 
ATOM      2  C3  UNL d   1      -0.546  -1.116  -0.493  0.00  0.00    -0.002 A 
ATOM      3  C4  UNL d   1       0.121  -1.841  -1.481  0.00  0.00     0.004 A 
ATOM      4  C5  UNL d   1       0.721  -1.179  -2.553  0.00  0.00    -0.004 A 
ATOM      5  C6  UNL d   1       0.663   0.215  -2.642  0.00  0.00    -0.075 A 
ATOM      6  C7  UNL d   1       1.301   0.942  -3.790  0.00  0.00     0.076 C 
ATOM      7  C8  UNL d   1      -0.011   0.936  -1.647  0.00  0.00     0.001 A 
ENDROOT
BRANCH   1   8
ATOM      8  C1  UNL d   1      -1.338   1.067   0.497  0.00  0.00     0.053 C 
ATOM      9  C   UNL d   1      -1.530   0.257   1.770  0.00  0.00     0.018 C 
ENDBRANCH   1   8
TORSDOF 1
ENDMDL
