MODEL 1
REMARK minimizedAffinity -3.350003
REMARK minimizedRMSD -1
REMARK  1 active torsions:
REMARK  status: ('A' for Active; 'I' for Inactive)
REMARK    1  A    between atoms: C1_2  and  C2_3 
ROOT
ATOM      1  C2  UNL d   1      -0.062  -0.051   2.288  0.00  0.00    -0.073 A 
ATOM      2  C3  UNL d   1      -1.340   0.509   2.396  0.00  0.00    -0.002 A 
ATOM      3  C4  UNL d   1      -2.085   0.790   1.250  0.00  0.00     0.004 A 
ATOM      4  C5  UNL d   1      -1.564   0.509  -0.013  0.00  0.00    -0.004 A 
ATOM      5  C6  UNL d   1      -0.293  -0.062  -0.141  0.00  0.00    -0.075 A 
ATOM      6  C7  UNL d   1       0.282  -0.369  -1.492  0.00  0.00     0.076 C 
ATOM      7  C8  UNL d   1       0.450  -0.339   1.015  0.00  0.00     0.001 A 
ENDROOT
BRANCH   1   8
ATOM      8  C1  UNL d   1       0.744  -0.363   3.523  0.00  0.00     0.053 C 
ATOM      9  C   UNL d   1       2.202  -0.643   3.196  0.00  0.00     0.018 C 
ENDBRANCH   1   8
TORSDOF 1
ENDMDL
