MODEL 1
REMARK minimizedAffinity -4.3579917
REMARK minimizedRMSD -1
REMARK  1 active torsions:
REMARK  status: ('A' for Active; 'I' for Inactive)
REMARK    1  A    between atoms: C1_2  and  C2_3 
ROOT
ATOM      1  C2  UNL d   1      -0.760   0.211  -0.220  0.00  0.00    -0.073 A 
ATOM      2  C3  UNL d   1       0.188  -0.700   0.258  0.00  0.00    -0.002 A 
ATOM      3  C4  UNL d   1       1.187  -1.186  -0.587  0.00  0.00     0.004 A 
ATOM      4  C5  UNL d   1       1.252  -0.763  -1.914  0.00  0.00    -0.004 A 
ATOM      5  C6  UNL d   1       0.320   0.156  -2.407  0.00  0.00    -0.075 A 
ATOM      6  C7  UNL d   1       0.375   0.621  -3.833  0.00  0.00     0.076 C 
ATOM      7  C8  UNL d   1      -0.681   0.638  -1.554  0.00  0.00     0.001 A 
ENDROOT
BRANCH   1   8
ATOM      8  C1  UNL d   1      -1.836   0.744   0.690  0.00  0.00     0.053 C 
ATOM      9  C   UNL d   1      -1.596   0.363   2.142  0.00  0.00     0.018 C 
ENDBRANCH   1   8
TORSDOF 1
ENDMDL
