MODEL 1
REMARK minimizedAffinity -4.49552584
REMARK minimizedRMSD -1
REMARK  1 active torsions:
REMARK  status: ('A' for Active; 'I' for Inactive)
REMARK    1  A    between atoms: C1_2  and  C2_3 
ROOT
ATOM      1  C2  UNL d   1      -0.534   0.538  -0.637  0.00  0.00    -0.073 A 
ATOM      2  C3  UNL d   1       0.163  -0.596  -0.207  0.00  0.00    -0.002 A 
ATOM      3  C4  UNL d   1       1.025  -1.265  -1.077  0.00  0.00     0.004 A 
ATOM      4  C5  UNL d   1       1.204  -0.803  -2.380  0.00  0.00    -0.004 A 
ATOM      5  C6  UNL d   1       0.526   0.336  -2.825  0.00  0.00    -0.075 A 
ATOM      6  C7  UNL d   1       0.706   0.844  -4.225  0.00  0.00     0.076 C 
ATOM      7  C8  UNL d   1      -0.340   1.001  -1.946  0.00  0.00     0.001 A 
ENDROOT
BRANCH   1   8
ATOM      8  C1  UNL d   1      -1.462   1.268   0.301  0.00  0.00     0.053 C 
ATOM      9  C   UNL d   1      -1.436   0.678   1.702  0.00  0.00     0.018 C 
ENDBRANCH   1   8
TORSDOF 1
ENDMDL
