MODEL 1
REMARK minimizedAffinity -4.98454189
REMARK minimizedRMSD -1
REMARK  1 active torsions:
REMARK  status: ('A' for Active; 'I' for Inactive)
REMARK    1  A    between atoms: C1_2  and  C2_3 
ROOT
ATOM      1  C2  UNL d   1      -0.143   0.187   2.579  0.00  0.00    -0.073 A 
ATOM      2  C3  UNL d   1      -1.380   0.842   2.578  0.00  0.00    -0.002 A 
ATOM      3  C4  UNL d   1      -2.099   0.989   1.392  0.00  0.00     0.004 A 
ATOM      4  C5  UNL d   1      -1.595   0.477   0.197  0.00  0.00    -0.004 A 
ATOM      5  C6  UNL d   1      -0.367  -0.192   0.179  0.00  0.00    -0.075 A 
ATOM      6  C7  UNL d   1       0.191  -0.747  -1.099  0.00  0.00     0.076 C 
ATOM      7  C8  UNL d   1       0.351  -0.333   1.374  0.00  0.00     0.001 A 
ENDROOT
BRANCH   1   8
ATOM      8  C1  UNL d   1       0.634   0.020   3.858  0.00  0.00     0.053 C 
ATOM      9  C   UNL d   1       1.937  -0.732   3.640  0.00  0.00     0.018 C 
ENDBRANCH   1   8
TORSDOF 1
ENDMDL
