MODEL 1
REMARK minimizedAffinity 13.7168465
REMARK minimizedRMSD -1
REMARK  0 active torsions:
REMARK  status: ('A' for Active; 'I' for Inactive)
ROOT
ATOM      1  C   UNL d   1       1.821   1.282  -0.601  0.00  0.00     0.020 A 
ATOM      2  C1  UNL d   1       2.392   0.368  -1.486  0.00  0.00     0.020 A 
ATOM      3  C2  UNL d   1       3.670   0.598  -1.998  0.00  0.00     0.034 A 
ATOM      4  C3  UNL d   1       4.382   1.744  -1.627  0.00  0.00     0.017 A 
ATOM      5  C4  UNL d   1       3.808   2.661  -0.739  0.00  0.00     0.017 A 
ATOM      6  C5  UNL d   1       2.528   2.426  -0.229  0.00  0.00     0.034 A 
ATOM      7 Cl   UNL d   1       4.625   4.098  -0.234  0.00  0.00    -0.070 Cl
ATOM      8 Cl1  UNL d   1       5.958   1.964  -2.299  0.00  0.00    -0.070 Cl
ENDROOT
TORSDOF 0
ENDMDL
