MODEL 1
REMARK minimizedAffinity 16.2286701
REMARK minimizedRMSD -1
REMARK  0 active torsions:
REMARK  status: ('A' for Active; 'I' for Inactive)
ROOT
ATOM      1  C   UNL d   1       5.412   4.038  -0.016  0.00  0.00     0.020 A 
ATOM      2  C1  UNL d   1       4.091   3.783   0.348  0.00  0.00     0.020 A 
ATOM      3  C2  UNL d   1       3.333   2.859  -0.375  0.00  0.00     0.034 A 
ATOM      4  C3  UNL d   1       3.897   2.186  -1.465  0.00  0.00     0.017 A 
ATOM      5  C4  UNL d   1       5.224   2.443  -1.829  0.00  0.00     0.017 A 
ATOM      6  C5  UNL d   1       5.978   3.369  -1.102  0.00  0.00     0.034 A 
ATOM      7 Cl   UNL d   1       5.989   1.652  -3.163  0.00  0.00    -0.070 Cl
ATOM      8 Cl1  UNL d   1       2.903   1.056  -2.314  0.00  0.00    -0.070 Cl
ENDROOT
TORSDOF 0
ENDMDL
