MODEL 1
REMARK minimizedAffinity 5.55695868
REMARK minimizedRMSD -1
REMARK  0 active torsions:
REMARK  status: ('A' for Active; 'I' for Inactive)
ROOT
ATOM      1  C   UNL d   1       5.135   2.071   5.835  0.00  0.00     0.020 A 
ATOM      2  C1  UNL d   1       3.742   2.036   5.787  0.00  0.00     0.020 A 
ATOM      3  C2  UNL d   1       3.014   3.227   5.768  0.00  0.00     0.034 A 
ATOM      4  C3  UNL d   1       3.678   4.458   5.797  0.00  0.00     0.017 A 
ATOM      5  C4  UNL d   1       5.076   4.493   5.845  0.00  0.00     0.017 A 
ATOM      6  C5  UNL d   1       5.800   3.297   5.864  0.00  0.00     0.034 A 
ATOM      7 Cl   UNL d   1       5.966   5.974   5.883  0.00  0.00    -0.070 Cl
ATOM      8 Cl1  UNL d   1       2.713   5.892   5.770  0.00  0.00    -0.070 Cl
ENDROOT
TORSDOF 0
ENDMDL
