MODEL 1
REMARK minimizedAffinity 6.05872679
REMARK minimizedRMSD -1
REMARK  0 active torsions:
REMARK  status: ('A' for Active; 'I' for Inactive)
ROOT
ATOM      1  C   UNL d   1       4.841   5.922   6.000  0.00  0.00     0.020 A 
ATOM      2  C1  UNL d   1       5.803   4.913   6.000  0.00  0.00     0.020 A 
ATOM      3  C2  UNL d   1       5.687   3.837   5.116  0.00  0.00     0.034 A 
ATOM      4  C3  UNL d   1       4.607   3.768   4.229  0.00  0.00     0.017 A 
ATOM      5  C4  UNL d   1       3.641   4.782   4.230  0.00  0.00     0.017 A 
ATOM      6  C5  UNL d   1       3.762   5.856   5.117  0.00  0.00     0.034 A 
ATOM      7 Cl   UNL d   1       2.280   4.766   3.165  0.00  0.00    -0.070 Cl
ATOM      8 Cl1  UNL d   1       4.527   2.410   3.164  0.00  0.00    -0.070 Cl
ENDROOT
TORSDOF 0
ENDMDL
