MODEL 1
REMARK minimizedAffinity 2.15166426
REMARK minimizedRMSD -1
REMARK  0 active torsions:
REMARK  status: ('A' for Active; 'I' for Inactive)
ROOT
ATOM      1  C   UNL d   1       5.676   5.437   6.000  0.00  0.00     0.020 A 
ATOM      2  C1  UNL d   1       5.973   4.284   5.275  0.00  0.00     0.020 A 
ATOM      3  C2  UNL d   1       4.972   3.642   4.543  0.00  0.00     0.034 A 
ATOM      4  C3  UNL d   1       3.669   4.152   4.535  0.00  0.00     0.017 A 
ATOM      5  C4  UNL d   1       3.372   5.310   5.262  0.00  0.00     0.017 A 
ATOM      6  C5  UNL d   1       4.378   5.949   5.993  0.00  0.00     0.034 A 
ATOM      7 Cl   UNL d   1       1.787   5.999   5.300  0.00  0.00    -0.070 Cl
ATOM      8 Cl1  UNL d   1       2.481   3.307   3.607  0.00  0.00    -0.070 Cl
ENDROOT
TORSDOF 0
ENDMDL
