MODEL 1
REMARK minimizedAffinity 8.75301933
REMARK minimizedRMSD -1
REMARK  0 active torsions:
REMARK  status: ('A' for Active; 'I' for Inactive)
ROOT
ATOM      1  C   UNL d   1      -0.950  -3.236   1.190  0.00  0.00     0.020 A 
ATOM      2  C1  UNL d   1      -0.454  -2.180   0.427  0.00  0.00     0.020 A 
ATOM      3  C2  UNL d   1      -1.304  -1.146   0.028  0.00  0.00     0.034 A 
ATOM      4  C3  UNL d   1      -2.655  -1.166   0.393  0.00  0.00     0.017 A 
ATOM      5  C4  UNL d   1      -3.152  -2.226   1.159  0.00  0.00     0.017 A 
ATOM      6  C5  UNL d   1      -2.297  -3.259   1.555  0.00  0.00     0.034 A 
ATOM      7 Cl   UNL d   1      -4.808  -2.320   1.648  0.00  0.00    -0.070 Cl
ATOM      8 Cl1  UNL d   1      -3.649   0.146  -0.134  0.00  0.00    -0.070 Cl
ENDROOT
TORSDOF 0
ENDMDL
