MODEL 1
REMARK minimizedAffinity 6.75340414
REMARK minimizedRMSD -1
REMARK  0 active torsions:
REMARK  status: ('A' for Active; 'I' for Inactive)
ROOT
ATOM      1  C   UNL d   1       3.954   1.945   5.990  0.00  0.00     0.020 A 
ATOM      2  C1  UNL d   1       5.344   2.055   5.966  0.00  0.00     0.020 A 
ATOM      3  C2  UNL d   1       5.944   3.316   5.952  0.00  0.00     0.034 A 
ATOM      4  C3  UNL d   1       5.154   4.472   5.961  0.00  0.00     0.017 A 
ATOM      5  C4  UNL d   1       3.760   4.360   5.986  0.00  0.00     0.017 A 
ATOM      6  C5  UNL d   1       3.164   3.095   6.000  0.00  0.00     0.034 A 
ATOM      7 Cl   UNL d   1       2.719   5.740   5.999  0.00  0.00    -0.070 Cl
ATOM      8 Cl1  UNL d   1       5.964   5.998   5.943  0.00  0.00    -0.070 Cl
ENDROOT
TORSDOF 0
ENDMDL
