MODEL 1
REMARK minimizedAffinity 9.15992641
REMARK minimizedRMSD -1
REMARK  0 active torsions:
REMARK  status: ('A' for Active; 'I' for Inactive)
ROOT
ATOM      1  C   UNL d   1       4.829   5.978   5.785  0.00  0.00     0.020 A 
ATOM      2  C1  UNL d   1       5.999   5.219   5.778  0.00  0.00     0.020 A 
ATOM      3  C2  UNL d   1       5.928   3.826   5.838  0.00  0.00     0.034 A 
ATOM      4  C3  UNL d   1       4.685   3.187   5.907  0.00  0.00     0.017 A 
ATOM      5  C4  UNL d   1       3.511   3.949   5.914  0.00  0.00     0.017 A 
ATOM      6  C5  UNL d   1       3.588   5.344   5.853  0.00  0.00     0.034 A 
ATOM      7 Cl   UNL d   1       1.940   3.232   5.997  0.00  0.00    -0.070 Cl
ATOM      8 Cl1  UNL d   1       4.672   1.460   5.979  0.00  0.00    -0.070 Cl
ENDROOT
TORSDOF 0
ENDMDL
