MODEL 1
REMARK minimizedAffinity 18.5911674
REMARK minimizedRMSD -1
REMARK  0 active torsions:
REMARK  status: ('A' for Active; 'I' for Inactive)
ROOT
ATOM      1  C   UNL d   1      -3.186  -1.596   0.179  0.00  0.00     0.020 A 
ATOM      2  C1  UNL d   1      -2.508  -0.380   0.105  0.00  0.00     0.020 A 
ATOM      3  C2  UNL d   1      -1.340  -0.277  -0.655  0.00  0.00     0.034 A 
ATOM      4  C3  UNL d   1      -0.848  -1.392  -1.343  0.00  0.00     0.017 A 
ATOM      5  C4  UNL d   1      -1.529  -2.612  -1.268  0.00  0.00     0.017 A 
ATOM      6  C5  UNL d   1      -2.698  -2.709  -0.506  0.00  0.00     0.034 A 
ATOM      7 Cl   UNL d   1      -0.983  -4.031  -2.089  0.00  0.00    -0.070 Cl
ATOM      8 Cl1  UNL d   1       0.601  -1.192  -2.263  0.00  0.00    -0.070 Cl
ENDROOT
TORSDOF 0
ENDMDL
