MODEL 1
REMARK minimizedAffinity 11.5549917
REMARK minimizedRMSD -1
REMARK  0 active torsions:
REMARK  status: ('A' for Active; 'I' for Inactive)
ROOT
ATOM      1  C   UNL d   1       3.733   5.962   5.980  0.00  0.00     0.020 A 
ATOM      2  C1  UNL d   1       5.105   5.997   5.735  0.00  0.00     0.020 A 
ATOM      3  C2  UNL d   1       5.785   4.823   5.404  0.00  0.00     0.034 A 
ATOM      4  C3  UNL d   1       5.094   3.609   5.319  0.00  0.00     0.017 A 
ATOM      5  C4  UNL d   1       3.717   3.575   5.566  0.00  0.00     0.017 A 
ATOM      6  C5  UNL d   1       3.040   4.753   5.896  0.00  0.00     0.034 A 
ATOM      7 Cl   UNL d   1       2.796   2.115   5.480  0.00  0.00    -0.070 Cl
ATOM      8 Cl1  UNL d   1       6.000   2.197   4.906  0.00  0.00    -0.070 Cl
ENDROOT
TORSDOF 0
ENDMDL
