MODEL 1
REMARK minimizedAffinity 1.3122834
REMARK minimizedRMSD -1
REMARK  0 active torsions:
REMARK  status: ('A' for Active; 'I' for Inactive)
ROOT
ATOM      1  C   UNL d   1       5.997   4.393   5.971  0.00  0.00     0.020 A 
ATOM      2  C1  UNL d   1       5.558   5.717   5.971  0.00  0.00     0.020 A 
ATOM      3  C2  UNL d   1       4.191   5.999   5.980  0.00  0.00     0.034 A 
ATOM      4  C3  UNL d   1       3.257   4.957   5.989  0.00  0.00     0.017 A 
ATOM      5  C4  UNL d   1       3.698   3.629   5.989  0.00  0.00     0.017 A 
ATOM      6  C5  UNL d   1       5.068   3.351   5.980  0.00  0.00     0.034 A 
ATOM      7 Cl   UNL d   1       2.605   2.290   6.000  0.00  0.00    -0.070 Cl
ATOM      8 Cl1  UNL d   1       1.581   5.380   6.000  0.00  0.00    -0.070 Cl
ENDROOT
TORSDOF 0
ENDMDL
