MODEL 1
REMARK minimizedAffinity 9.0653944
REMARK minimizedRMSD -1
REMARK  0 active torsions:
REMARK  status: ('A' for Active; 'I' for Inactive)
ROOT
ATOM      1  C   UNL d   1       3.721   2.041   5.980  0.00  0.00     0.020 A 
ATOM      2  C1  UNL d   1       5.115   2.087   5.969  0.00  0.00     0.020 A 
ATOM      3  C2  UNL d   1       5.773   3.319   5.962  0.00  0.00     0.034 A 
ATOM      4  C3  UNL d   1       5.037   4.510   5.965  0.00  0.00     0.017 A 
ATOM      5  C4  UNL d   1       3.638   4.463   5.977  0.00  0.00     0.017 A 
ATOM      6  C5  UNL d   1       2.985   3.227   5.984  0.00  0.00     0.034 A 
ATOM      7 Cl   UNL d   1       2.663   5.890   5.982  0.00  0.00    -0.070 Cl
ATOM      8 Cl1  UNL d   1       5.916   5.997   5.956  0.00  0.00    -0.070 Cl
ENDROOT
TORSDOF 0
ENDMDL
