MODEL 1
REMARK minimizedAffinity 12.749732
REMARK minimizedRMSD -1
REMARK  0 active torsions:
REMARK  status: ('A' for Active; 'I' for Inactive)
ROOT
ATOM      1  C   UNL d   1       5.977   4.287   5.046  0.00  0.00     0.020 A 
ATOM      2  C1  UNL d   1       5.572   5.224   5.996  0.00  0.00     0.020 A 
ATOM      3  C2  UNL d   1       4.274   5.737   5.962  0.00  0.00     0.034 A 
ATOM      4  C3  UNL d   1       3.376   5.314   4.975  0.00  0.00     0.017 A 
ATOM      5  C4  UNL d   1       3.783   4.373   4.022  0.00  0.00     0.017 A 
ATOM      6  C5  UNL d   1       5.084   3.862   4.061  0.00  0.00     0.034 A 
ATOM      7 Cl   UNL d   1       2.731   3.803   2.775  0.00  0.00    -0.070 Cl
ATOM      8 Cl1  UNL d   1       1.786   5.990   4.993  0.00  0.00    -0.070 Cl
ENDROOT
TORSDOF 0
ENDMDL
