MODEL 1
REMARK minimizedAffinity 4.41451359
REMARK minimizedRMSD -1
REMARK  0 active torsions:
REMARK  status: ('A' for Active; 'I' for Inactive)
ROOT
ATOM      1  C   UNL d   1       5.982   4.254   5.875  0.00  0.00     0.020 A 
ATOM      2  C1  UNL d   1       5.651   5.608   5.872  0.00  0.00     0.020 A 
ATOM      3  C2  UNL d   1       4.311   5.999   5.861  0.00  0.00     0.034 A 
ATOM      4  C3  UNL d   1       3.296   5.035   5.855  0.00  0.00     0.017 A 
ATOM      5  C4  UNL d   1       3.630   3.676   5.859  0.00  0.00     0.017 A 
ATOM      6  C5  UNL d   1       4.973   3.290   5.869  0.00  0.00     0.034 A 
ATOM      7 Cl   UNL d   1       2.433   2.428   5.851  0.00  0.00    -0.070 Cl
ATOM      8 Cl1  UNL d   1       1.660   5.591   5.843  0.00  0.00    -0.070 Cl
ENDROOT
TORSDOF 0
ENDMDL
