MODEL 1
REMARK minimizedAffinity 16.0741386
REMARK minimizedRMSD -1
REMARK  0 active torsions:
REMARK  status: ('A' for Active; 'I' for Inactive)
ROOT
ATOM      1  C   UNL d   1       5.662   5.084   6.000  0.00  0.00     0.020 A 
ATOM      2  C1  UNL d   1       5.308   3.735   5.999  0.00  0.00     0.020 A 
ATOM      3  C2  UNL d   1       5.118   3.063   4.790  0.00  0.00     0.034 A 
ATOM      4  C3  UNL d   1       5.281   3.740   3.576  0.00  0.00     0.017 A 
ATOM      5  C4  UNL d   1       5.636   5.094   3.577  0.00  0.00     0.017 A 
ATOM      6  C5  UNL d   1       5.825   5.762   4.791  0.00  0.00     0.034 A 
ATOM      7 Cl   UNL d   1       5.855   5.996   2.119  0.00  0.00    -0.070 Cl
ATOM      8 Cl1  UNL d   1       5.030   2.847   2.118  0.00  0.00    -0.070 Cl
ENDROOT
TORSDOF 0
ENDMDL
