MODEL 1
REMARK minimizedAffinity 12.7006788
REMARK minimizedRMSD -1
REMARK  0 active torsions:
REMARK  status: ('A' for Active; 'I' for Inactive)
ROOT
ATOM      1  C   UNL d   1      -2.691  -3.137  -2.833  0.00  0.00     0.020 A 
ATOM      2  C1  UNL d   1      -1.564  -3.645  -2.188  0.00  0.00     0.020 A 
ATOM      3  C2  UNL d   1      -1.034  -2.979  -1.081  0.00  0.00     0.034 A 
ATOM      4  C3  UNL d   1      -1.631  -1.802  -0.616  0.00  0.00     0.017 A 
ATOM      5  C4  UNL d   1      -2.762  -1.293  -1.264  0.00  0.00     0.017 A 
ATOM      6  C5  UNL d   1      -3.289  -1.964  -2.372  0.00  0.00     0.034 A 
ATOM      7 Cl   UNL d   1      -3.554   0.154  -0.747  0.00  0.00    -0.070 Cl
ATOM      8 Cl1  UNL d   1      -0.922  -1.031   0.759  0.00  0.00    -0.070 Cl
ENDROOT
TORSDOF 0
ENDMDL
