MODEL 1
REMARK minimizedAffinity 15.5612259
REMARK minimizedRMSD -1
REMARK  0 active torsions:
REMARK  status: ('A' for Active; 'I' for Inactive)
ROOT
ATOM      1  C   UNL d   1       1.893   0.714  -1.732  0.00  0.00     0.020 A 
ATOM      2  C1  UNL d   1       3.020   0.268  -2.421  0.00  0.00     0.020 A 
ATOM      3  C2  UNL d   1       4.273   0.818  -2.141  0.00  0.00     0.034 A 
ATOM      4  C3  UNL d   1       4.401   1.818  -1.169  0.00  0.00     0.017 A 
ATOM      5  C4  UNL d   1       3.269   2.264  -0.478  0.00  0.00     0.017 A 
ATOM      6  C5  UNL d   1       2.017   1.710  -0.763  0.00  0.00     0.034 A 
ATOM      7 Cl   UNL d   1       3.348   3.494   0.734  0.00  0.00    -0.070 Cl
ATOM      8 Cl1  UNL d   1       5.980   2.453  -0.874  0.00  0.00    -0.070 Cl
ENDROOT
TORSDOF 0
ENDMDL
