MODEL 1
REMARK minimizedAffinity 21.774128
REMARK minimizedRMSD -1
REMARK  0 active torsions:
REMARK  status: ('A' for Active; 'I' for Inactive)
ROOT
ATOM      1  C   UNL d   1      -3.333   0.732  -3.021  0.00  0.00     0.020 A 
ATOM      2  C1  UNL d   1      -3.128   1.266  -4.292  0.00  0.00     0.020 A 
ATOM      3  C2  UNL d   1      -3.037   2.649  -4.463  0.00  0.00     0.034 A 
ATOM      4  C3  UNL d   1      -3.151   3.503  -3.359  0.00  0.00     0.017 A 
ATOM      5  C4  UNL d   1      -3.357   2.966  -2.083  0.00  0.00     0.017 A 
ATOM      6  C5  UNL d   1      -3.447   1.580  -1.919  0.00  0.00     0.034 A 
ATOM      7 Cl   UNL d   1      -3.507   3.955  -0.675  0.00  0.00    -0.070 Cl
ATOM      8 Cl1  UNL d   1      -3.029   5.203  -3.643  0.00  0.00    -0.070 Cl
ENDROOT
TORSDOF 0
ENDMDL
