MODEL 1
REMARK minimizedAffinity 12.8587074
REMARK minimizedRMSD -1
REMARK  0 active torsions:
REMARK  status: ('A' for Active; 'I' for Inactive)
ROOT
ATOM      1  C   UNL d   1       5.958   4.122   5.890  0.00  0.00     0.020 A 
ATOM      2  C1  UNL d   1       5.730   5.497   5.892  0.00  0.00     0.020 A 
ATOM      3  C2  UNL d   1       4.422   5.988   5.881  0.00  0.00     0.034 A 
ATOM      4  C3  UNL d   1       3.338   5.103   5.868  0.00  0.00     0.017 A 
ATOM      5  C4  UNL d   1       3.568   3.723   5.865  0.00  0.00     0.017 A 
ATOM      6  C5  UNL d   1       4.879   3.236   5.877  0.00  0.00     0.034 A 
ATOM      7 Cl   UNL d   1       2.282   2.569   5.849  0.00  0.00    -0.070 Cl
ATOM      8 Cl1  UNL d   1       1.749   5.780   5.855  0.00  0.00    -0.070 Cl
ENDROOT
TORSDOF 0
ENDMDL
