MODEL 1
REMARK minimizedAffinity 7.69580841
REMARK minimizedRMSD -1
REMARK  0 active torsions:
REMARK  status: ('A' for Active; 'I' for Inactive)
ROOT
ATOM      1  C   UNL d   1       5.490   5.758   5.856  0.00  0.00     0.020 A 
ATOM      2  C1  UNL d   1       5.991   4.477   5.628  0.00  0.00     0.020 A 
ATOM      3  C2  UNL d   1       5.114   3.399   5.491  0.00  0.00     0.034 A 
ATOM      4  C3  UNL d   1       3.732   3.599   5.582  0.00  0.00     0.017 A 
ATOM      5  C4  UNL d   1       3.230   4.886   5.811  0.00  0.00     0.017 A 
ATOM      6  C5  UNL d   1       4.113   5.962   5.947  0.00  0.00     0.034 A 
ATOM      7 Cl   UNL d   1       1.538   5.212   5.935  0.00  0.00    -0.070 Cl
ATOM      8 Cl1  UNL d   1       2.706   2.221   5.402  0.00  0.00    -0.070 Cl
ENDROOT
TORSDOF 0
ENDMDL
