MODEL 1
REMARK minimizedAffinity 12.0254869
REMARK minimizedRMSD -1
REMARK  0 active torsions:
REMARK  status: ('A' for Active; 'I' for Inactive)
ROOT
ATOM      1  C   UNL d   1      -2.666   1.178  -3.288  0.00  0.00     0.020 A 
ATOM      2  C1  UNL d   1      -3.892   1.582  -3.816  0.00  0.00     0.020 A 
ATOM      3  C2  UNL d   1      -4.827   2.222  -3.000  0.00  0.00     0.034 A 
ATOM      4  C3  UNL d   1      -4.539   2.459  -1.651  0.00  0.00     0.017 A 
ATOM      5  C4  UNL d   1      -3.309   2.053  -1.122  0.00  0.00     0.017 A 
ATOM      6  C5  UNL d   1      -2.376   1.413  -1.943  0.00  0.00     0.034 A 
ATOM      7 Cl   UNL d   1      -2.881   2.311   0.533  0.00  0.00    -0.070 Cl
ATOM      8 Cl1  UNL d   1      -5.742   3.255  -0.700  0.00  0.00    -0.070 Cl
ENDROOT
TORSDOF 0
ENDMDL
