MODEL 1
REMARK minimizedAffinity 7.56239319
REMARK minimizedRMSD -1
REMARK  0 active torsions:
REMARK  status: ('A' for Active; 'I' for Inactive)
ROOT
ATOM      1  C   UNL d   1       4.728   0.909  -6.000  0.00  0.00     0.020 A 
ATOM      2  C1  UNL d   1       3.743   1.490  -5.202  0.00  0.00     0.020 A 
ATOM      3  C2  UNL d   1       3.442   0.940  -3.954  0.00  0.00     0.034 A 
ATOM      4  C3  UNL d   1       4.125  -0.194  -3.501  0.00  0.00     0.017 A 
ATOM      5  C4  UNL d   1       5.114  -0.776  -4.302  0.00  0.00     0.017 A 
ATOM      6  C5  UNL d   1       5.412  -0.222  -5.551  0.00  0.00     0.034 A 
ATOM      7 Cl   UNL d   1       6.000  -2.176  -3.810  0.00  0.00    -0.070 Cl
ATOM      8 Cl1  UNL d   1       3.701  -0.820  -1.947  0.00  0.00    -0.070 Cl
ENDROOT
TORSDOF 0
ENDMDL
