MODEL 1
REMARK minimizedAffinity -0.306780607
REMARK minimizedRMSD -1
REMARK  0 active torsions:
REMARK  status: ('A' for Active; 'I' for Inactive)
ROOT
ATOM      1  C   UNL d   1       5.303   1.594  -6.000  0.00  0.00     0.020 A 
ATOM      2  C1  UNL d   1       4.159   1.862  -5.249  0.00  0.00     0.020 A 
ATOM      3  C2  UNL d   1       3.565   0.847  -4.495  0.00  0.00     0.034 A 
ATOM      4  C3  UNL d   1       4.115  -0.440  -4.492  0.00  0.00     0.017 A 
ATOM      5  C4  UNL d   1       5.264  -0.708  -5.246  0.00  0.00     0.017 A 
ATOM      6  C5  UNL d   1       5.854   0.312  -5.998  0.00  0.00     0.034 A 
ATOM      7 Cl   UNL d   1       6.000  -2.271  -5.291  0.00  0.00    -0.070 Cl
ATOM      8 Cl1  UNL d   1       3.329  -1.647  -3.537  0.00  0.00    -0.070 Cl
ENDROOT
TORSDOF 0
ENDMDL
