MODEL 1
REMARK minimizedAffinity 11.2107143
REMARK minimizedRMSD -1
REMARK  0 active torsions:
REMARK  status: ('A' for Active; 'I' for Inactive)
ROOT
ATOM      1  C   UNL d   1       1.570  -2.825  -2.221  0.00  0.00     0.020 A 
ATOM      2  C1  UNL d   1       2.394  -3.927  -2.443  0.00  0.00     0.020 A 
ATOM      3  C2  UNL d   1       3.692  -3.743  -2.925  0.00  0.00     0.034 A 
ATOM      4  C3  UNL d   1       4.169  -2.454  -3.187  0.00  0.00     0.017 A 
ATOM      5  C4  UNL d   1       3.341  -1.348  -2.963  0.00  0.00     0.017 A 
ATOM      6  C5  UNL d   1       2.043  -1.538  -2.480  0.00  0.00     0.034 A 
ATOM      7 Cl   UNL d   1       3.859   0.274  -3.262  0.00  0.00    -0.070 Cl
ATOM      8 Cl1  UNL d   1       5.784  -2.300  -3.781  0.00  0.00    -0.070 Cl
ENDROOT
TORSDOF 0
ENDMDL
