MODEL 1
REMARK minimizedAffinity 16.4618645
REMARK minimizedRMSD -1
REMARK  0 active torsions:
REMARK  status: ('A' for Active; 'I' for Inactive)
ROOT
ATOM      1  C   UNL d   1      -6.000   3.291  -2.202  0.00  0.00     0.020 A 
ATOM      2  C1  UNL d   1      -5.672   2.805  -3.467  0.00  0.00     0.020 A 
ATOM      3  C2  UNL d   1      -4.500   2.067  -3.650  0.00  0.00     0.034 A 
ATOM      4  C3  UNL d   1      -3.652   1.814  -2.565  0.00  0.00     0.017 A 
ATOM      5  C4  UNL d   1      -3.982   2.303  -1.296  0.00  0.00     0.017 A 
ATOM      6  C5  UNL d   1      -5.157   3.041  -1.119  0.00  0.00     0.034 A 
ATOM      7 Cl   UNL d   1      -2.985   2.032   0.090  0.00  0.00    -0.070 Cl
ATOM      8 Cl1  UNL d   1      -2.220   0.895  -2.863  0.00  0.00    -0.070 Cl
ENDROOT
TORSDOF 0
ENDMDL
