MODEL 1
REMARK minimizedAffinity -1.38457787
REMARK minimizedRMSD -1
REMARK  2 active torsions:
REMARK  status: ('A' for Active; 'I' for Inactive)
REMARK    1  A    between atoms: C2'_3  and  C1'_4 
REMARK    2  A    between atoms: C1'_4  and  C1_5 
ROOT
ATOM      1  C1  I4B d   1       0.064  -0.057   0.430  0.00  0.00    -0.075 A 
ATOM      2  C2  I4B d   1      -0.504   0.011  -0.818  0.00  0.00     0.003 A 
ATOM      3  C3  I4B d   1       0.128  -0.609  -1.923  0.00  0.00     0.002 A 
ATOM      4  C4  I4B d   1       1.343  -1.239  -1.746  0.00  0.00    -0.004 A 
ATOM      5  C5  I4B d   1       1.906  -1.326  -0.476  0.00  0.00     0.002 A 
ATOM      6  C6  I4B d   1       1.257  -0.742   0.621  0.00  0.00     0.003 A 
ENDROOT
BRANCH   1   7
ATOM      7  C1' I4B d   1      -0.613   0.638   1.568  0.00  0.00     0.060 C 
BRANCH   7   8
ATOM      8  C2' I4B d   1      -1.469  -0.380   2.293  0.00  0.00    -0.013 C 
ATOM      9  C4' I4B d   1      -2.455  -1.029   1.357  0.00  0.00     0.013 C 
ATOM     10  C3' I4B d   1      -0.557  -1.398   2.909  0.00  0.00     0.013 C 
ENDBRANCH   7   8
ENDBRANCH   1   7
TORSDOF 2
ENDMDL
