MODEL 1
REMARK minimizedAffinity -2.06295824
REMARK minimizedRMSD -1
REMARK  2 active torsions:
REMARK  status: ('A' for Active; 'I' for Inactive)
REMARK    1  A    between atoms: C2'_3  and  C1'_4 
REMARK    2  A    between atoms: C1'_4  and  C1_5 
ROOT
ATOM      1  C1  I4B d   1      -0.477   1.005  -1.129  0.00  0.00    -0.075 A 
ATOM      2  C2  I4B d   1       0.216   2.177  -0.955  0.00  0.00     0.003 A 
ATOM      3  C3  I4B d   1      -0.058   3.295  -1.779  0.00  0.00     0.002 A 
ATOM      4  C4  I4B d   1      -0.990   3.183  -2.790  0.00  0.00    -0.004 A 
ATOM      5  C5  I4B d   1      -1.708   2.001  -2.950  0.00  0.00     0.002 A 
ATOM      6  C6  I4B d   1      -1.459   0.909  -2.106  0.00  0.00     0.003 A 
ENDROOT
BRANCH   1   7
ATOM      7  C1' I4B d   1      -0.140  -0.167  -0.262  0.00  0.00     0.060 C 
BRANCH   7   8
ATOM      8  C2' I4B d   1      -0.780   0.055   1.093  0.00  0.00    -0.013 C 
ATOM      9  C4' I4B d   1      -2.271  -0.141   1.031  0.00  0.00     0.013 C 
ATOM     10  C3' I4B d   1      -0.148  -0.897   2.064  0.00  0.00     0.013 C 
ENDBRANCH   7   8
ENDBRANCH   1   7
TORSDOF 2
ENDMDL
