MODEL 1
REMARK minimizedAffinity -2.97419667
REMARK minimizedRMSD -1
REMARK  2 active torsions:
REMARK  status: ('A' for Active; 'I' for Inactive)
REMARK    1  A    between atoms: C2'_3  and  C1'_4 
REMARK    2  A    between atoms: C1'_4  and  C1_5 
ROOT
ATOM      1  C1  I4B d   1      -0.545   1.177   0.422  0.00  0.00    -0.075 A 
ATOM      2  C2  I4B d   1      -0.054   0.010  -0.108  0.00  0.00     0.003 A 
ATOM      3  C3  I4B d   1      -0.032  -1.172   0.671  0.00  0.00     0.002 A 
ATOM      4  C4  I4B d   1      -0.463  -1.131   1.981  0.00  0.00    -0.004 A 
ATOM      5  C5  I4B d   1      -0.982   0.047   2.509  0.00  0.00     0.002 A 
ATOM      6  C6  I4B d   1      -1.036   1.206   1.721  0.00  0.00     0.003 A 
ENDROOT
BRANCH   1   7
ATOM      7  C1' I4B d   1      -0.523   2.416  -0.417  0.00  0.00     0.060 C 
BRANCH   7   8
ATOM      8  C2' I4B d   1      -0.819   2.015  -1.848  0.00  0.00    -0.013 C 
ATOM      9  C4' I4B d   1      -2.254   2.299  -2.207  0.00  0.00     0.013 C 
ATOM     10  C3' I4B d   1       0.122   2.765  -2.743  0.00  0.00     0.013 C 
ENDBRANCH   7   8
ENDBRANCH   1   7
TORSDOF 2
ENDMDL
