MODEL 1
REMARK minimizedAffinity -4.31472158
REMARK minimizedRMSD -1
REMARK  2 active torsions:
REMARK  status: ('A' for Active; 'I' for Inactive)
REMARK    1  A    between atoms: C2'_3  and  C1'_4 
REMARK    2  A    between atoms: C1'_4  and  C1_5 
ROOT
ATOM      1  C1  I4B d   1       0.193  -1.248   0.349  0.00  0.00    -0.075 A 
ATOM      2  C2  I4B d   1      -0.097  -1.418   1.680  0.00  0.00     0.003 A 
ATOM      3  C3  I4B d   1       0.795  -2.132   2.518  0.00  0.00     0.002 A 
ATOM      4  C4  I4B d   1       1.931  -2.698   1.976  0.00  0.00    -0.004 A 
ATOM      5  C5  I4B d   1       2.234  -2.505   0.631  0.00  0.00     0.002 A 
ATOM      6  C6  I4B d   1       1.366  -1.765  -0.185  0.00  0.00     0.003 A 
ENDROOT
BRANCH   1   7
ATOM      7  C1' I4B d   1      -0.787  -0.518  -0.513  0.00  0.00     0.060 C 
BRANCH   7   8
ATOM      8  C2' I4B d   1      -0.071   0.664  -1.135  0.00  0.00    -0.013 C 
ATOM      9  C4' I4B d   1      -0.845   1.218  -2.302  0.00  0.00     0.013 C 
ATOM     10  C3' I4B d   1       0.120   1.702  -0.071  0.00  0.00     0.013 C 
ENDBRANCH   7   8
ENDBRANCH   1   7
TORSDOF 2
ENDMDL
