MODEL 1
REMARK minimizedAffinity -2.56844521
REMARK minimizedRMSD -1
REMARK  2 active torsions:
REMARK  status: ('A' for Active; 'I' for Inactive)
REMARK    1  A    between atoms: C2'_3  and  C1'_4 
REMARK    2  A    between atoms: C1'_4  and  C1_5 
ROOT
ATOM      1  C1  I4B d   1      -0.615   1.538  -1.836  0.00  0.00    -0.075 A 
ATOM      2  C2  I4B d   1      -1.811   2.204  -1.931  0.00  0.00     0.003 A 
ATOM      3  C3  I4B d   1      -1.837   3.576  -2.279  0.00  0.00     0.002 A 
ATOM      4  C4  I4B d   1      -0.649   4.250  -2.474  0.00  0.00    -0.004 A 
ATOM      5  C5  I4B d   1       0.562   3.568  -2.400  0.00  0.00     0.002 A 
ATOM      6  C6  I4B d   1       0.579   2.200  -2.092  0.00  0.00     0.003 A 
ENDROOT
BRANCH   1   7
ATOM      7  C1' I4B d   1      -0.622   0.097  -1.434  0.00  0.00     0.060 C 
BRANCH   7   8
ATOM      8  C2' I4B d   1       0.294  -0.058  -0.237  0.00  0.00    -0.013 C 
ATOM      9  C4' I4B d   1      -0.492  -0.308   1.023  0.00  0.00     0.013 C 
ATOM     10  C3' I4B d   1       1.237  -1.189  -0.520  0.00  0.00     0.013 C 
ENDBRANCH   7   8
ENDBRANCH   1   7
TORSDOF 2
ENDMDL
