MODEL 1
REMARK minimizedAffinity -1.03966093
REMARK minimizedRMSD -1
REMARK  0 active torsions:
REMARK  status: ('A' for Active; 'I' for Inactive)
ROOT
ATOM      1  C   UNL d   1      -0.509   0.441   2.404  0.00  0.00     0.023 A 
ATOM      2  C1  UNL d   1      -1.459   0.705   1.417  0.00  0.00     0.003 A 
ATOM      3  C2  UNL d   1      -1.146   0.501   0.072  0.00  0.00     0.048 A 
ATOM      4  C3  UNL d   1       0.119   0.033  -0.280  0.00  0.00     0.023 A 
ATOM      5  C4  UNL d   1       1.073  -0.234   0.704  0.00  0.00     0.048 A 
ATOM      6  C5  UNL d   1       0.755  -0.028   2.048  0.00  0.00     0.003 A 
ATOM      7  I   UNL d   1       0.589  -0.272  -2.282  0.00  0.00    -0.146 I 
ENDROOT
TORSDOF 0
ENDMDL
