MODEL 1
REMARK minimizedAffinity -0.28222695
REMARK minimizedRMSD -1
REMARK  0 active torsions:
REMARK  status: ('A' for Active; 'I' for Inactive)
ROOT
ATOM      1  C   UNL d   1      -0.311   0.225   2.335  0.00  0.00     0.023 A 
ATOM      2  C1  UNL d   1      -1.321   0.123   1.378  0.00  0.00     0.003 A 
ATOM      3  C2  UNL d   1      -0.995   0.021   0.024  0.00  0.00     0.048 A 
ATOM      4  C3  UNL d   1       0.344   0.021  -0.366  0.00  0.00     0.023 A 
ATOM      5  C4  UNL d   1       1.358   0.121   0.588  0.00  0.00     0.048 A 
ATOM      6  C5  UNL d   1       1.027   0.224   1.940  0.00  0.00     0.003 A 
ATOM      7  I   UNL d   1       0.833  -0.131  -2.381  0.00  0.00    -0.146 I 
ENDROOT
TORSDOF 0
ENDMDL
