MODEL 1
REMARK minimizedAffinity -4.40531015
REMARK minimizedRMSD -1
REMARK  0 active torsions:
REMARK  status: ('A' for Active; 'I' for Inactive)
ROOT
ATOM      1  C   UNL d   1      -2.854   0.338   3.503  0.00  0.00     0.023 A 
ATOM      2  C1  UNL d   1      -1.554  -0.114   3.730  0.00  0.00     0.003 A 
ATOM      3  C2  UNL d   1      -0.621  -0.110   2.691  0.00  0.00     0.048 A 
ATOM      4  C3  UNL d   1      -0.994   0.348   1.428  0.00  0.00     0.023 A 
ATOM      5  C4  UNL d   1      -2.294   0.802   1.197  0.00  0.00     0.048 A 
ATOM      6  C5  UNL d   1      -3.223   0.796   2.238  0.00  0.00     0.003 A 
ATOM      7  I   UNL d   1       0.393   0.356  -0.120  0.00  0.00    -0.146 I 
ENDROOT
TORSDOF 0
ENDMDL
