MODEL 1
REMARK minimizedAffinity -1.89437592
REMARK minimizedRMSD -1
REMARK  0 active torsions:
REMARK  status: ('A' for Active; 'I' for Inactive)
ROOT
ATOM      1  C   UNL d   1      -0.853   0.817   1.441  0.00  0.00     0.023 A 
ATOM      2  C1  UNL d   1       0.523   0.692   1.252  0.00  0.00     0.003 A 
ATOM      3  C2  UNL d   1       1.027   0.324   0.003  0.00  0.00     0.048 A 
ATOM      4  C3  UNL d   1       0.149   0.084  -1.054  0.00  0.00     0.023 A 
ATOM      5  C4  UNL d   1      -1.229   0.209  -0.869  0.00  0.00     0.048 A 
ATOM      6  C5  UNL d   1      -1.728   0.576   0.382  0.00  0.00     0.003 A 
ATOM      7  I   UNL d   1       0.897  -0.464  -2.914  0.00  0.00    -0.146 I 
ENDROOT
TORSDOF 0
ENDMDL
