MODEL 1
REMARK minimizedAffinity -1.66064942
REMARK minimizedRMSD -1
REMARK  0 active torsions:
REMARK  status: ('A' for Active; 'I' for Inactive)
ROOT
ATOM      1  C   UNL d   1       1.546  -1.482  -4.246  0.00  0.00     0.023 A 
ATOM      2  C1  UNL d   1       2.483  -0.718  -3.550  0.00  0.00     0.003 A 
ATOM      3  C2  UNL d   1       2.112  -0.053  -2.379  0.00  0.00     0.048 A 
ATOM      4  C3  UNL d   1       0.803  -0.158  -1.910  0.00  0.00     0.023 A 
ATOM      5  C4  UNL d   1      -0.137  -0.922  -2.602  0.00  0.00     0.048 A 
ATOM      6  C5  UNL d   1       0.238  -1.584  -3.773  0.00  0.00     0.003 A 
ATOM      7  I   UNL d   1       0.249   0.830  -0.167  0.00  0.00    -0.146 I 
ENDROOT
TORSDOF 0
ENDMDL
