MODEL 1
REMARK minimizedAffinity 0.707085609
REMARK minimizedRMSD -1
REMARK  0 active torsions:
REMARK  status: ('A' for Active; 'I' for Inactive)
ROOT
ATOM      1  C   UNL d   1       1.310   0.339  -0.754  0.00  0.00     0.023 A 
ATOM      2  C1  UNL d   1       1.872   0.848   0.417  0.00  0.00     0.003 A 
ATOM      3  C2  UNL d   1       1.162   0.788   1.618  0.00  0.00     0.048 A 
ATOM      4  C3  UNL d   1      -0.110   0.216   1.641  0.00  0.00     0.023 A 
ATOM      5  C4  UNL d   1      -0.676  -0.296   0.472  0.00  0.00     0.048 A 
ATOM      6  C5  UNL d   1       0.037  -0.232  -0.726  0.00  0.00     0.003 A 
ATOM      7  I   UNL d   1      -1.168   0.124   3.427  0.00  0.00    -0.146 I 
ENDROOT
TORSDOF 0
ENDMDL
