MODEL 1
REMARK minimizedAffinity -1.30937409
REMARK minimizedRMSD -1
REMARK  0 active torsions:
REMARK  status: ('A' for Active; 'I' for Inactive)
ROOT
ATOM      1  C   UNL d   1      -0.695   0.429   2.149  0.00  0.00     0.023 A 
ATOM      2  C1  UNL d   1       0.583  -0.127   2.080  0.00  0.00     0.003 A 
ATOM      3  C2  UNL d   1       1.120  -0.492   0.844  0.00  0.00     0.048 A 
ATOM      4  C3  UNL d   1       0.375  -0.299  -0.319  0.00  0.00     0.023 A 
ATOM      5  C4  UNL d   1      -0.904   0.258  -0.254  0.00  0.00     0.048 A 
ATOM      6  C5  UNL d   1      -1.437   0.622   0.984  0.00  0.00     0.003 A 
ATOM      7  I   UNL d   1       1.172  -0.842  -2.159  0.00  0.00    -0.146 I 
ENDROOT
TORSDOF 0
ENDMDL
