MODEL 1
REMARK minimizedAffinity -2.93168759
REMARK minimizedRMSD -1
REMARK  0 active torsions:
REMARK  status: ('A' for Active; 'I' for Inactive)
ROOT
ATOM      1  C   UNL d   1      -0.630   0.444   1.841  0.00  0.00     0.023 A 
ATOM      2  C1  UNL d   1       0.599  -0.214   1.783  0.00  0.00     0.003 A 
ATOM      3  C2  UNL d   1       1.155  -0.549   0.547  0.00  0.00     0.048 A 
ATOM      4  C3  UNL d   1       0.478  -0.223  -0.628  0.00  0.00     0.023 A 
ATOM      5  C4  UNL d   1      -0.751   0.436  -0.575  0.00  0.00     0.048 A 
ATOM      6  C5  UNL d   1      -1.304   0.769   0.663  0.00  0.00     0.003 A 
ATOM      7  I   UNL d   1       1.304  -0.722  -2.468  0.00  0.00    -0.146 I 
ENDROOT
TORSDOF 0
ENDMDL
