MODEL 1
REMARK minimizedAffinity -2.21895981
REMARK minimizedRMSD -1
REMARK  0 active torsions:
REMARK  status: ('A' for Active; 'I' for Inactive)
ROOT
ATOM      1  C   UNL d   1       0.737   0.455   2.501  0.00  0.00     0.023 A 
ATOM      2  C1  UNL d   1      -0.345  -0.188   1.899  0.00  0.00     0.003 A 
ATOM      3  C2  UNL d   1      -0.331  -0.446   0.527  0.00  0.00     0.048 A 
ATOM      4  C3  UNL d   1       0.769  -0.058  -0.238  0.00  0.00     0.023 A 
ATOM      5  C4  UNL d   1       1.854   0.585   0.360  0.00  0.00     0.048 A 
ATOM      6  C5  UNL d   1       1.835   0.841   1.732  0.00  0.00     0.003 A 
ATOM      7  I   UNL d   1       0.792  -0.440  -2.281  0.00  0.00    -0.146 I 
ENDROOT
TORSDOF 0
ENDMDL
