MODEL 1
REMARK minimizedAffinity 0.502146363
REMARK minimizedRMSD -1
REMARK  0 active torsions:
REMARK  status: ('A' for Active; 'I' for Inactive)
ROOT
ATOM      1  C   UNL d   1       0.971   0.336   2.357  0.00  0.00     0.023 A 
ATOM      2  C1  UNL d   1      -0.373   0.296   2.727  0.00  0.00     0.003 A 
ATOM      3  C2  UNL d   1      -1.370   0.389   1.754  0.00  0.00     0.048 A 
ATOM      4  C3  UNL d   1      -1.015   0.521   0.411  0.00  0.00     0.023 A 
ATOM      5  C4  UNL d   1       0.329   0.561   0.036  0.00  0.00     0.048 A 
ATOM      6  C5  UNL d   1       1.322   0.468   1.013  0.00  0.00     0.003 A 
ATOM      7  I   UNL d   1      -2.497   0.660  -1.039  0.00  0.00    -0.146 I 
ENDROOT
TORSDOF 0
ENDMDL
