MODEL 1
REMARK minimizedAffinity -1.49851561
REMARK minimizedRMSD -1
REMARK  0 active torsions:
REMARK  status: ('A' for Active; 'I' for Inactive)
ROOT
ATOM      1  C   UNL d   1      -0.897   0.416   2.083  0.00  0.00     0.023 A 
ATOM      2  C1  UNL d   1       0.472   0.154   2.031  0.00  0.00     0.003 A 
ATOM      3  C2  UNL d   1       1.094  -0.076   0.802  0.00  0.00     0.048 A 
ATOM      4  C3  UNL d   1       0.341  -0.041  -0.371  0.00  0.00     0.023 A 
ATOM      5  C4  UNL d   1      -1.029   0.222  -0.324  0.00  0.00     0.048 A 
ATOM      6  C5  UNL d   1      -1.647   0.450   0.908  0.00  0.00     0.003 A 
ATOM      7  I   UNL d   1       1.264  -0.382  -2.202  0.00  0.00    -0.146 I 
ENDROOT
TORSDOF 0
ENDMDL
