MODEL 1
REMARK minimizedAffinity -2.26409984
REMARK minimizedRMSD -1
REMARK  0 active torsions:
REMARK  status: ('A' for Active; 'I' for Inactive)
ROOT
ATOM      1  C   UNL d   1      -0.207   0.391   1.056  0.00  0.00     0.023 A 
ATOM      2  C1  UNL d   1      -1.086   0.300  -0.023  0.00  0.00     0.003 A 
ATOM      3  C2  UNL d   1      -0.652  -0.241  -1.235  0.00  0.00     0.048 A 
ATOM      4  C3  UNL d   1       0.662  -0.690  -1.361  0.00  0.00     0.023 A 
ATOM      5  C4  UNL d   1       1.545  -0.602  -0.283  0.00  0.00     0.048 A 
ATOM      6  C5  UNL d   1       1.107  -0.060   0.926  0.00  0.00     0.003 A 
ATOM      7  I   UNL d   1       1.310  -1.496  -3.164  0.00  0.00    -0.146 I 
ENDROOT
TORSDOF 0
ENDMDL
