MODEL 1
REMARK minimizedAffinity 14.1274147
REMARK minimizedRMSD -1
REMARK  3 active torsions:
REMARK  status: ('A' for Active; 'I' for Inactive)
REMARK    1  A    between atoms: C3'_2  and  C2'_3 
REMARK    2  A    between atoms: C2'_3  and  C1'_4 
REMARK    3  A    between atoms: C1'_4  and  C1_5 
ROOT
ATOM      1  C1  N4B d   1      -0.738   2.788  -1.894  0.00  0.00    -0.075 A 
ATOM      2  C2  N4B d   1      -0.473   3.860  -1.013  0.00  0.00     0.002 A 
ATOM      3  C3  N4B d   1       0.638   3.827  -0.207  0.00  0.00     0.002 A 
ATOM      4  C4  N4B d   1       1.484   2.729  -0.250  0.00  0.00    -0.004 A 
ATOM      5  C5  N4B d   1       1.235   1.710  -1.122  0.00  0.00     0.002 A 
ATOM      6  C6  N4B d   1       0.124   1.732  -1.941  0.00  0.00     0.002 A 
ENDROOT
BRANCH   1   7
ATOM      7  C1' N4B d   1      -1.986   2.740  -2.733  0.00  0.00     0.057 C 
BRANCH   7   8
ATOM      8  C2' N4B d   1      -2.120   4.048  -3.507  0.00  0.00     0.009 C 
BRANCH   8   9
ATOM      9  C3' N4B d   1      -3.011   3.897  -4.728  0.00  0.00     0.004 C 
ATOM     10  C4' N4B d   1      -2.330   4.315  -5.998  0.00  0.00     0.003 C 
ENDBRANCH   8   9
ENDBRANCH   7   8
ENDBRANCH   1   7
TORSDOF 3
ENDMDL
