MODEL 1
REMARK minimizedAffinity 17.0491772
REMARK minimizedRMSD -1
REMARK  3 active torsions:
REMARK  status: ('A' for Active; 'I' for Inactive)
REMARK    1  A    between atoms: C3'_2  and  C2'_3 
REMARK    2  A    between atoms: C2'_3  and  C1'_4 
REMARK    3  A    between atoms: C1'_4  and  C1_5 
ROOT
ATOM      1  C1  N4B d   1      -2.795   3.659  -2.425  0.00  0.00    -0.075 A 
ATOM      2  C2  N4B d   1      -3.872   3.015  -1.776  0.00  0.00     0.002 A 
ATOM      3  C3  N4B d   1      -4.810   3.756  -1.101  0.00  0.00     0.002 A 
ATOM      4  C4  N4B d   1      -4.682   5.136  -1.044  0.00  0.00    -0.004 A 
ATOM      5  C5  N4B d   1      -3.654   5.753  -1.695  0.00  0.00     0.002 A 
ATOM      6  C6  N4B d   1      -2.706   5.021  -2.381  0.00  0.00     0.002 A 
ENDROOT
BRANCH   1   7
ATOM      7  C1' N4B d   1      -1.699   2.885  -3.103  0.00  0.00     0.057 C 
BRANCH   7   8
ATOM      8  C2' N4B d   1      -0.913   2.106  -2.053  0.00  0.00     0.009 C 
BRANCH   8   9
ATOM      9  C3' N4B d   1       0.391   2.796  -1.691  0.00  0.00     0.004 C 
ATOM     10  C4' N4B d   1       0.687   2.743  -0.222  0.00  0.00     0.003 C 
ENDBRANCH   8   9
ENDBRANCH   7   8
ENDBRANCH   1   7
TORSDOF 3
ENDMDL
