MODEL 1
REMARK minimizedAffinity 10.5687428
REMARK minimizedRMSD -1
REMARK  3 active torsions:
REMARK  status: ('A' for Active; 'I' for Inactive)
REMARK    1  A    between atoms: C3'_2  and  C2'_3 
REMARK    2  A    between atoms: C2'_3  and  C1'_4 
REMARK    3  A    between atoms: C1'_4  and  C1_5 
ROOT
ATOM      1  C1  N4B d   1      -2.269   3.961  -3.590  0.00  0.00    -0.075 A 
ATOM      2  C2  N4B d   1      -1.932   5.332  -3.644  0.00  0.00     0.002 A 
ATOM      3  C3  N4B d   1      -1.963   6.000  -4.843  0.00  0.00     0.002 A 
ATOM      4  C4  N4B d   1      -2.308   5.317  -6.000  0.00  0.00    -0.004 A 
ATOM      5  C5  N4B d   1      -2.658   4.000  -5.936  0.00  0.00     0.002 A 
ATOM      6  C6  N4B d   1      -2.635   3.317  -4.736  0.00  0.00     0.002 A 
ENDROOT
BRANCH   1   7
ATOM      7  C1' N4B d   1      -2.167   3.168  -2.316  0.00  0.00     0.057 C 
BRANCH   7   8
ATOM      8  C2' N4B d   1      -0.829   2.436  -2.288  0.00  0.00     0.009 C 
BRANCH   8   9
ATOM      9  C3' N4B d   1       0.096   2.983  -1.215  0.00  0.00     0.004 C 
ATOM     10  C4' N4B d   1       1.381   3.519  -1.773  0.00  0.00     0.003 C 
ENDBRANCH   8   9
ENDBRANCH   7   8
ENDBRANCH   1   7
TORSDOF 3
ENDMDL
