MODEL 1
REMARK minimizedAffinity 12.9117918
REMARK minimizedRMSD -1
REMARK  3 active torsions:
REMARK  status: ('A' for Active; 'I' for Inactive)
REMARK    1  A    between atoms: C3'_2  and  C2'_3 
REMARK    2  A    between atoms: C2'_3  and  C1'_4 
REMARK    3  A    between atoms: C1'_4  and  C1_5 
ROOT
ATOM      1  C1  N4B d   1      -2.545   3.860  -3.469  0.00  0.00    -0.075 A 
ATOM      2  C2  N4B d   1      -2.704   3.385  -4.790  0.00  0.00     0.002 A 
ATOM      3  C3  N4B d   1      -2.502   4.232  -5.853  0.00  0.00     0.002 A 
ATOM      4  C4  N4B d   1      -2.161   5.556  -5.620  0.00  0.00    -0.004 A 
ATOM      5  C5  N4B d   1      -1.985   6.000  -4.342  0.00  0.00     0.002 A 
ATOM      6  C6  N4B d   1      -2.180   5.159  -3.264  0.00  0.00     0.002 A 
ENDROOT
BRANCH   1   7
ATOM      7  C1' N4B d   1      -2.838   2.995  -2.274  0.00  0.00     0.057 C 
BRANCH   7   8
ATOM      8  C2' N4B d   1      -4.344   2.970  -2.031  0.00  0.00     0.009 C 
BRANCH   8   9
ATOM      9  C3' N4B d   1      -4.797   4.125  -1.155  0.00  0.00     0.004 C 
ATOM     10  C4' N4B d   1      -5.531   3.671   0.071  0.00  0.00     0.003 C 
ENDBRANCH   8   9
ENDBRANCH   7   8
ENDBRANCH   1   7
TORSDOF 3
ENDMDL
