MODEL 1
REMARK minimizedAffinity 4.536901
REMARK minimizedRMSD -1
REMARK  3 active torsions:
REMARK  status: ('A' for Active; 'I' for Inactive)
REMARK    1  A    between atoms: C3'_2  and  C2'_3 
REMARK    2  A    between atoms: C2'_3  and  C1'_4 
REMARK    3  A    between atoms: C1'_4  and  C1_5 
ROOT
ATOM      1  C1  N4B d   1      -1.734  -2.242   3.492  0.00  0.00    -0.075 A 
ATOM      2  C2  N4B d   1      -1.050  -2.792   2.386  0.00  0.00     0.002 A 
ATOM      3  C3  N4B d   1       0.141  -2.245   1.974  0.00  0.00     0.002 A 
ATOM      4  C4  N4B d   1       0.655  -1.141   2.637  0.00  0.00    -0.004 A 
ATOM      5  C5  N4B d   1       0.001  -0.631   3.720  0.00  0.00     0.002 A 
ATOM      6  C6  N4B d   1      -1.195  -1.173   4.149  0.00  0.00     0.002 A 
ENDROOT
BRANCH   1   7
ATOM      7  C1' N4B d   1      -3.081  -2.751   3.927  0.00  0.00     0.057 C 
BRANCH   7   8
ATOM      8  C2' N4B d   1      -3.321  -2.356   5.381  0.00  0.00     0.009 C 
BRANCH   8   9
ATOM      9  C3' N4B d   1      -4.470  -3.133   5.999  0.00  0.00     0.004 C 
ATOM     10  C4' N4B d   1      -5.758  -2.365   5.996  0.00  0.00     0.003 C 
ENDBRANCH   8   9
ENDBRANCH   7   8
ENDBRANCH   1   7
TORSDOF 3
ENDMDL
