MODEL 1
REMARK minimizedAffinity 9.06007481
REMARK minimizedRMSD -1
REMARK  3 active torsions:
REMARK  status: ('A' for Active; 'I' for Inactive)
REMARK    1  A    between atoms: C3'_2  and  C2'_3 
REMARK    2  A    between atoms: C2'_3  and  C1'_4 
REMARK    3  A    between atoms: C1'_4  and  C1_5 
ROOT
ATOM      1  C1  N4B d   1      -2.461   3.390  -2.362  0.00  0.00    -0.075 A 
ATOM      2  C2  N4B d   1      -3.640   3.297  -1.590  0.00  0.00     0.002 A 
ATOM      3  C3  N4B d   1      -4.321   4.436  -1.238  0.00  0.00     0.002 A 
ATOM      4  C4  N4B d   1      -3.835   5.675  -1.629  0.00  0.00    -0.004 A 
ATOM      5  C5  N4B d   1      -2.710   5.755  -2.396  0.00  0.00     0.002 A 
ATOM      6  C6  N4B d   1      -2.017   4.618  -2.761  0.00  0.00     0.002 A 
ENDROOT
BRANCH   1   7
ATOM      7  C1' N4B d   1      -1.635   2.179  -2.699  0.00  0.00     0.057 C 
BRANCH   7   8
ATOM      8  C2' N4B d   1      -0.165   2.485  -2.429  0.00  0.00     0.009 C 
BRANCH   8   9
ATOM      9  C3' N4B d   1       0.178   2.369  -0.954  0.00  0.00     0.004 C 
ATOM     10  C4' N4B d   1       1.449   3.080  -0.595  0.00  0.00     0.003 C 
ENDBRANCH   8   9
ENDBRANCH   7   8
ENDBRANCH   1   7
TORSDOF 3
ENDMDL
