MODEL 1
REMARK minimizedAffinity 17.7352276
REMARK minimizedRMSD -1
REMARK  3 active torsions:
REMARK  status: ('A' for Active; 'I' for Inactive)
REMARK    1  A    between atoms: C3'_2  and  C2'_3 
REMARK    2  A    between atoms: C2'_3  and  C1'_4 
REMARK    3  A    between atoms: C1'_4  and  C1_5 
ROOT
ATOM      1  C1  N4B d   1      -1.510   3.692  -3.277  0.00  0.00    -0.075 A 
ATOM      2  C2  N4B d   1      -1.348   5.066  -2.994  0.00  0.00     0.002 A 
ATOM      3  C3  N4B d   1      -1.561   6.000  -3.978  0.00  0.00     0.002 A 
ATOM      4  C4  N4B d   1      -1.916   5.584  -5.252  0.00  0.00    -0.004 A 
ATOM      5  C5  N4B d   1      -2.096   4.257  -5.511  0.00  0.00     0.002 A 
ATOM      6  C6  N4B d   1      -1.890   3.308  -4.531  0.00  0.00     0.002 A 
ENDROOT
BRANCH   1   7
ATOM      7  C1' N4B d   1      -1.206   2.629  -2.257  0.00  0.00     0.057 C 
BRANCH   7   8
ATOM      8  C2' N4B d   1       0.276   2.691  -1.897  0.00  0.00     0.009 C 
BRANCH   8   9
ATOM      9  C3' N4B d   1       0.491   2.856  -0.402  0.00  0.00     0.004 C 
ATOM     10  C4' N4B d   1       1.169   4.147  -0.052  0.00  0.00     0.003 C 
ENDBRANCH   8   9
ENDBRANCH   7   8
ENDBRANCH   1   7
TORSDOF 3
ENDMDL
