MODEL 1
REMARK minimizedAffinity 7.72310829
REMARK minimizedRMSD -1
REMARK  3 active torsions:
REMARK  status: ('A' for Active; 'I' for Inactive)
REMARK    1  A    between atoms: C3'_2  and  C2'_3 
REMARK    2  A    between atoms: C2'_3  and  C1'_4 
REMARK    3  A    between atoms: C1'_4  and  C1_5 
ROOT
ATOM      1  C1  N4B d   1      -0.419  -2.635   2.579  0.00  0.00    -0.075 A 
ATOM      2  C2  N4B d   1      -0.673  -1.604   3.509  0.00  0.00     0.002 A 
ATOM      3  C3  N4B d   1       0.154  -0.508   3.562  0.00  0.00     0.002 A 
ATOM      4  C4  N4B d   1       1.246  -0.432   2.711  0.00  0.00    -0.004 A 
ATOM      5  C5  N4B d   1       1.470  -1.420   1.798  0.00  0.00     0.002 A 
ATOM      6  C6  N4B d   1       0.645  -2.525   1.731  0.00  0.00     0.002 A 
ENDROOT
BRANCH   1   7
ATOM      7  C1' N4B d   1      -1.245  -3.892   2.542  0.00  0.00     0.057 C 
BRANCH   7   8
ATOM      8  C2' N4B d   1      -2.423  -3.689   1.593  0.00  0.00     0.009 C 
BRANCH   8   9
ATOM      9  C3' N4B d   1      -2.095  -4.132   0.178  0.00  0.00     0.004 C 
ATOM     10  C4' N4B d   1      -3.068  -5.141  -0.355  0.00  0.00     0.003 C 
ENDBRANCH   8   9
ENDBRANCH   7   8
ENDBRANCH   1   7
TORSDOF 3
ENDMDL
