MODEL 1
REMARK minimizedAffinity 11.8790379
REMARK minimizedRMSD -1
REMARK  3 active torsions:
REMARK  status: ('A' for Active; 'I' for Inactive)
REMARK    1  A    between atoms: C3'_2  and  C2'_3 
REMARK    2  A    between atoms: C2'_3  and  C1'_4 
REMARK    3  A    between atoms: C1'_4  and  C1_5 
ROOT
ATOM      1  C1  N4B d   1       0.085  -1.766   2.743  0.00  0.00    -0.075 A 
ATOM      2  C2  N4B d   1      -0.112  -0.661   3.600  0.00  0.00     0.002 A 
ATOM      3  C3  N4B d   1      -1.266  -0.562   4.337  0.00  0.00     0.002 A 
ATOM      4  C4  N4B d   1      -2.241  -1.541   4.220  0.00  0.00    -0.004 A 
ATOM      5  C5  N4B d   1      -2.032  -2.618   3.409  0.00  0.00     0.002 A 
ATOM      6  C6  N4B d   1      -0.875  -2.733   2.665  0.00  0.00     0.002 A 
ENDROOT
BRANCH   1   7
ATOM      7  C1' N4B d   1       1.293  -1.875   1.852  0.00  0.00     0.057 C 
BRANCH   7   8
ATOM      8  C2' N4B d   1       1.709  -0.478   1.400  0.00  0.00     0.009 C 
BRANCH   8   9
ATOM      9  C3' N4B d   1       3.191  -0.404   1.076  0.00  0.00     0.004 C 
ATOM     10  C4' N4B d   1       3.871   0.763   1.729  0.00  0.00     0.003 C 
ENDBRANCH   8   9
ENDBRANCH   7   8
ENDBRANCH   1   7
TORSDOF 3
ENDMDL
