MODEL 1
REMARK minimizedAffinity 11.6434011
REMARK minimizedRMSD -1
REMARK  2 active torsions:
REMARK  status: ('A' for Active; 'I' for Inactive)
REMARK    1  A    between atoms: C2'_3  and  C1'_4 
REMARK    2  A    between atoms: C1'_4  and  C1_5 
ROOT
ATOM      1  C1  I4B d   1      -0.642  -0.800   2.760  0.00  0.00    -0.075 A 
ATOM      2  C2  I4B d   1      -0.932   0.259   3.583  0.00  0.00     0.003 A 
ATOM      3  C3  I4B d   1      -2.134   0.987   3.410  0.00  0.00     0.002 A 
ATOM      4  C4  I4B d   1      -2.987   0.657   2.377  0.00  0.00    -0.004 A 
ATOM      5  C5  I4B d   1      -2.702  -0.432   1.558  0.00  0.00     0.002 A 
ATOM      6  C6  I4B d   1      -1.528  -1.173   1.758  0.00  0.00     0.003 A 
ENDROOT
BRANCH   1   7
ATOM      7  C1' I4B d   1       0.652  -1.527   2.950  0.00  0.00     0.060 C 
BRANCH   7   8
ATOM      8  C2' I4B d   1       1.768  -0.502   2.947  0.00  0.00    -0.013 C 
ATOM      9  C4' I4B d   1       2.770  -0.785   4.035  0.00  0.00     0.013 C 
ATOM     10  C3' I4B d   1       2.415  -0.526   1.595  0.00  0.00     0.013 C 
ENDBRANCH   7   8
ENDBRANCH   1   7
TORSDOF 2
ENDMDL
