MODEL 1
REMARK minimizedAffinity 6.83160162
REMARK minimizedRMSD -1
REMARK  2 active torsions:
REMARK  status: ('A' for Active; 'I' for Inactive)
REMARK    1  A    between atoms: C2'_3  and  C1'_4 
REMARK    2  A    between atoms: C1'_4  and  C1_5 
ROOT
ATOM      1  C1  I4B d   1       3.835  -3.125   3.985  0.00  0.00    -0.075 A 
ATOM      2  C2  I4B d   1       4.406  -2.983   5.226  0.00  0.00     0.003 A 
ATOM      3  C3  I4B d   1       4.736  -4.126   5.993  0.00  0.00     0.002 A 
ATOM      4  C4  I4B d   1       4.434  -5.382   5.507  0.00  0.00    -0.004 A 
ATOM      5  C5  I4B d   1       3.877  -5.525   4.240  0.00  0.00     0.002 A 
ATOM      6  C6  I4B d   1       3.586  -4.390   3.468  0.00  0.00     0.003 A 
ENDROOT
BRANCH   1   7
ATOM      7  C1' I4B d   1       3.469  -1.896   3.215  0.00  0.00     0.060 C 
BRANCH   7   8
ATOM      8  C2' I4B d   1       1.958  -1.842   3.113  0.00  0.00    -0.013 C 
ATOM      9  C4' I4B d   1       1.429  -0.504   3.555  0.00  0.00     0.013 C 
ATOM     10  C3' I4B d   1       1.581  -2.131   1.690  0.00  0.00     0.013 C 
ENDBRANCH   7   8
ENDBRANCH   1   7
TORSDOF 2
ENDMDL
