MODEL 1
REMARK minimizedAffinity -1.16377413
REMARK minimizedRMSD -1
REMARK  2 active torsions:
REMARK  status: ('A' for Active; 'I' for Inactive)
REMARK    1  A    between atoms: C2'_3  and  C1'_4 
REMARK    2  A    between atoms: C1'_4  and  C1_5 
ROOT
ATOM      1  C1  I4B d   1      -2.740   0.193  -3.915  0.00  0.00    -0.075 A 
ATOM      2  C2  I4B d   1      -3.001  -1.145  -3.762  0.00  0.00     0.003 A 
ATOM      3  C3  I4B d   1      -2.379  -1.878  -2.722  0.00  0.00     0.002 A 
ATOM      4  C4  I4B d   1      -1.471  -1.248  -1.896  0.00  0.00    -0.004 A 
ATOM      5  C5  I4B d   1      -1.225   0.115  -2.039  0.00  0.00     0.002 A 
ATOM      6  C6  I4B d   1      -1.873   0.843  -3.047  0.00  0.00     0.003 A 
ENDROOT
BRANCH   1   7
ATOM      7  C1' I4B d   1      -3.390   0.929  -5.045  0.00  0.00     0.060 C 
BRANCH   7   8
ATOM      8  C2' I4B d   1      -2.944   2.376  -4.977  0.00  0.00    -0.013 C 
ATOM      9  C4' I4B d   1      -1.873   2.664  -5.996  0.00  0.00     0.013 C 
ATOM     10  C3' I4B d   1      -4.148   3.242  -5.196  0.00  0.00     0.013 C 
ENDBRANCH   7   8
ENDBRANCH   1   7
TORSDOF 2
ENDMDL
