MODEL 1
REMARK minimizedAffinity 4.91340208
REMARK minimizedRMSD -1
REMARK  2 active torsions:
REMARK  status: ('A' for Active; 'I' for Inactive)
REMARK    1  A    between atoms: C2'_3  and  C1'_4 
REMARK    2  A    between atoms: C1'_4  and  C1_5 
ROOT
ATOM      1  C1  I4B d   1       0.192  -0.660   1.609  0.00  0.00    -0.075 A 
ATOM      2  C2  I4B d   1       0.927  -0.462   0.466  0.00  0.00     0.003 A 
ATOM      3  C3  I4B d   1       0.328  -0.634  -0.805  0.00  0.00     0.002 A 
ATOM      4  C4  I4B d   1      -0.985  -1.050  -0.888  0.00  0.00    -0.004 A 
ATOM      5  C5  I4B d   1      -1.735  -1.228   0.271  0.00  0.00     0.002 A 
ATOM      6  C6  I4B d   1      -1.147  -1.020   1.527  0.00  0.00     0.003 A 
ENDROOT
BRANCH   1   7
ATOM      7  C1' I4B d   1       0.864  -0.502   2.935  0.00  0.00     0.060 C 
BRANCH   7   8
ATOM      8  C2' I4B d   1       1.158  -1.886   3.477  0.00  0.00    -0.013 C 
ATOM      9  C4' I4B d   1      -0.088  -2.731   3.520  0.00  0.00     0.013 C 
ATOM     10  C3' I4B d   1       2.207  -2.512   2.607  0.00  0.00     0.013 C 
ENDBRANCH   7   8
ENDBRANCH   1   7
TORSDOF 2
ENDMDL
