MODEL 1
REMARK minimizedAffinity 1.04942238
REMARK minimizedRMSD -1
REMARK  2 active torsions:
REMARK  status: ('A' for Active; 'I' for Inactive)
REMARK    1  A    between atoms: C2'_3  and  C1'_4 
REMARK    2  A    between atoms: C1'_4  and  C1_5 
ROOT
ATOM      1  C1  I4B d   1       2.172  -0.613  -0.139  0.00  0.00    -0.075 A 
ATOM      2  C2  I4B d   1       1.632  -0.917  -1.364  0.00  0.00     0.003 A 
ATOM      3  C3  I4B d   1       1.456   0.097  -2.337  0.00  0.00     0.002 A 
ATOM      4  C4  I4B d   1       1.784   1.401  -2.026  0.00  0.00    -0.004 A 
ATOM      5  C5  I4B d   1       2.352   1.703  -0.792  0.00  0.00     0.002 A 
ATOM      6  C6  I4B d   1       2.560   0.688   0.153  0.00  0.00     0.003 A 
ENDROOT
BRANCH   1   7
ATOM      7  C1' I4B d   1       2.314  -1.703   0.876  0.00  0.00     0.060 C 
BRANCH   7   8
ATOM      8  C2' I4B d   1       1.594  -1.264   2.135  0.00  0.00    -0.013 C 
ATOM      9  C4' I4B d   1       0.474  -2.210   2.479  0.00  0.00     0.013 C 
ATOM     10  C3' I4B d   1       2.602  -1.192   3.243  0.00  0.00     0.013 C 
ENDBRANCH   7   8
ENDBRANCH   1   7
TORSDOF 2
ENDMDL
