MODEL 1
REMARK minimizedAffinity -3.54526949
REMARK minimizedRMSD -1
REMARK  0 active torsions:
REMARK  status: ('A' for Active; 'I' for Inactive)
ROOT
ATOM      1  C1  BNZ d   1       0.446  -1.143  -0.595  0.00  0.00     0.000 A 
ATOM      2  C2  BNZ d   1       0.335  -0.316   0.491  0.00  0.00     0.000 A 
ATOM      3  C3  BNZ d   1      -0.161   0.951   0.357  0.00  0.00     0.000 A 
ATOM      4  C4  BNZ d   1      -0.506   1.402  -0.866  0.00  0.00     0.000 A 
ATOM      5  C5  BNZ d   1      -0.390   0.584  -1.971  0.00  0.00     0.000 A 
ATOM      6  C6  BNZ d   1       0.072  -0.704  -1.827  0.00  0.00     0.000 A 
ENDROOT
TORSDOF 0
ENDMDL
