MODEL 1
REMARK minimizedAffinity -2.46998715
REMARK minimizedRMSD -1
REMARK  0 active torsions:
REMARK  status: ('A' for Active; 'I' for Inactive)
ROOT
ATOM      1  C1  BNZ d   1      -0.055  -0.363  -1.194  0.00  0.00     0.000 A 
ATOM      2  C2  BNZ d   1      -0.074  -0.430   0.174  0.00  0.00     0.000 A 
ATOM      3  C3  BNZ d   1      -0.102   0.708   0.930  0.00  0.00     0.000 A 
ATOM      4  C4  BNZ d   1      -0.070   1.910   0.320  0.00  0.00     0.000 A 
ATOM      5  C5  BNZ d   1      -0.041   1.995  -1.057  0.00  0.00     0.000 A 
ATOM      6  C6  BNZ d   1      -0.053   0.847  -1.816  0.00  0.00     0.000 A 
ENDROOT
TORSDOF 0
ENDMDL
