MODEL 1
REMARK minimizedAffinity 2.67651367
REMARK minimizedRMSD -1
REMARK  0 active torsions:
REMARK  status: ('A' for Active; 'I' for Inactive)
ROOT
ATOM      1  C1  BNZ d   1       5.039  -0.404   0.223  0.00  0.00     0.000 A 
ATOM      2  C2  BNZ d   1       5.296  -0.183   1.550  0.00  0.00     0.000 A 
ATOM      3  C3  BNZ d   1       4.302  -0.290   2.483  0.00  0.00     0.000 A 
ATOM      4  C4  BNZ d   1       3.047  -0.578   2.083  0.00  0.00     0.000 A 
ATOM      5  C5  BNZ d   1       2.770  -0.794   0.748  0.00  0.00     0.000 A 
ATOM      6  C6  BNZ d   1       3.781  -0.724  -0.183  0.00  0.00     0.000 A 
ENDROOT
TORSDOF 0
ENDMDL
