MODEL 1
REMARK minimizedAffinity -4.13930416
REMARK minimizedRMSD -1
REMARK  0 active torsions:
REMARK  status: ('A' for Active; 'I' for Inactive)
ROOT
ATOM      1  C1  BNZ d   1      -1.196   0.630  -0.011  0.00  0.00     0.000 A 
ATOM      2  C2  BNZ d   1      -0.009   0.116   0.437  0.00  0.00     0.000 A 
ATOM      3  C3  BNZ d   1       0.566   0.580   1.587  0.00  0.00     0.000 A 
ATOM      4  C4  BNZ d   1      -0.026   1.584   2.266  0.00  0.00     0.000 A 
ATOM      5  C5  BNZ d   1      -1.219   2.119   1.822  0.00  0.00     0.000 A 
ATOM      6  C6  BNZ d   1      -1.815   1.623   0.685  0.00  0.00     0.000 A 
ENDROOT
TORSDOF 0
ENDMDL
