MODEL 1
REMARK minimizedAffinity -4.81517076
REMARK minimizedRMSD -1
REMARK  0 active torsions:
REMARK  status: ('A' for Active; 'I' for Inactive)
ROOT
ATOM      1  C1  BNZ d   1      -0.219   0.027   0.224  0.00  0.00     0.000 A 
ATOM      2  C2  BNZ d   1      -1.248   0.833  -0.187  0.00  0.00     0.000 A 
ATOM      3  C3  BNZ d   1      -1.454   2.054   0.391  0.00  0.00     0.000 A 
ATOM      4  C4  BNZ d   1      -0.658   2.451   1.405  0.00  0.00     0.000 A 
ATOM      5  C5  BNZ d   1       0.377   1.646   1.837  0.00  0.00     0.000 A 
ATOM      6  C6  BNZ d   1       0.606   0.434   1.226  0.00  0.00     0.000 A 
ENDROOT
TORSDOF 0
ENDMDL
