MODEL 1
REMARK minimizedAffinity -3.89064574
REMARK minimizedRMSD -1
REMARK  0 active torsions:
REMARK  status: ('A' for Active; 'I' for Inactive)
ROOT
ATOM      1  C1  BNZ d   1       0.366   0.342   0.787  0.00  0.00     0.000 A 
ATOM      2  C2  BNZ d   1      -0.589   1.229   1.207  0.00  0.00     0.000 A 
ATOM      3  C3  BNZ d   1      -1.260   2.012   0.310  0.00  0.00     0.000 A 
ATOM      4  C4  BNZ d   1      -0.948   1.936  -1.000  0.00  0.00     0.000 A 
ATOM      5  C5  BNZ d   1       0.018   1.053  -1.438  0.00  0.00     0.000 A 
ATOM      6  C6  BNZ d   1       0.665   0.239  -0.537  0.00  0.00     0.000 A 
ENDROOT
TORSDOF 0
ENDMDL
