MODEL 1
REMARK minimizedAffinity -3.26496387
REMARK minimizedRMSD -1
REMARK  0 active torsions:
REMARK  status: ('A' for Active; 'I' for Inactive)
ROOT
ATOM      1  C1  BNZ d   1      -0.475   1.547  -1.355  0.00  0.00     0.000 A 
ATOM      2  C2  BNZ d   1      -1.194   2.049  -0.302  0.00  0.00     0.000 A 
ATOM      3  C3  BNZ d   1      -0.898   1.688   0.982  0.00  0.00     0.000 A 
ATOM      4  C4  BNZ d   1       0.089   0.797   1.210  0.00  0.00     0.000 A 
ATOM      5  C5  BNZ d   1       0.816   0.275   0.159  0.00  0.00     0.000 A 
ATOM      6  C6  BNZ d   1       0.541   0.670  -1.130  0.00  0.00     0.000 A 
ENDROOT
TORSDOF 0
ENDMDL
