MODEL 1
REMARK minimizedAffinity -4.39476871
REMARK minimizedRMSD -1
REMARK  0 active torsions:
REMARK  status: ('A' for Active; 'I' for Inactive)
ROOT
ATOM      1  C1  BNZ d   1      -0.693   1.550   2.549  0.00  0.00     0.000 A 
ATOM      2  C2  BNZ d   1       0.193   0.542   2.281  0.00  0.00     0.000 A 
ATOM      3  C3  BNZ d   1       0.412   0.125   0.998  0.00  0.00     0.000 A 
ATOM      4  C4  BNZ d   1      -0.284   0.689  -0.010  0.00  0.00     0.000 A 
ATOM      5  C5  BNZ d   1      -1.188   1.701   0.245  0.00  0.00     0.000 A 
ATOM      6  C6  BNZ d   1      -1.377   2.144   1.534  0.00  0.00     0.000 A 
ENDROOT
TORSDOF 0
ENDMDL
