MODEL 1
REMARK minimizedAffinity 12.5662842
REMARK minimizedRMSD -1
REMARK  2 active torsions:
REMARK  status: ('A' for Active; 'I' for Inactive)
REMARK    1  A    between atoms: C1_2  and  C2_3 
REMARK    2  A    between atoms: C2_3  and  C3_4 
ROOT
ATOM      1  C3  UNL d   1      -2.074  -2.595  -5.979  0.00  0.00    -0.075 A 
ATOM      2  C4  UNL d   1      -2.774  -1.380  -5.988  0.00  0.00     0.002 A 
ATOM      3  C5  UNL d   1      -4.169  -1.366  -5.989  0.00  0.00     0.002 A 
ATOM      4  C6  UNL d   1      -4.881  -2.564  -5.992  0.00  0.00    -0.004 A 
ATOM      5  C7  UNL d   1      -4.196  -3.777  -5.999  0.00  0.00     0.002 A 
ATOM      6  C8  UNL d   1      -2.800  -3.794  -5.994  0.00  0.00     0.002 A 
ENDROOT
BRANCH   1   7
ATOM      7  C2  UNL d   1      -0.565  -2.617  -5.948  0.00  0.00     0.056 C 
BRANCH   7   8
ATOM      8  C1  UNL d   1       0.072  -1.259  -5.633  0.00  0.00     0.007 C 
ATOM      9  C   UNL d   1       1.511  -1.369  -5.147  0.00  0.00     0.009 C 
ENDBRANCH   7   8
ENDBRANCH   1   7
TORSDOF 2
ENDMDL
