MODEL 1
REMARK minimizedAffinity -0.0695668086
REMARK minimizedRMSD -1
REMARK  2 active torsions:
REMARK  status: ('A' for Active; 'I' for Inactive)
REMARK    1  A    between atoms: C1_2  and  C2_3 
REMARK    2  A    between atoms: C2_3  and  C3_4 
ROOT
ATOM      1  C3  UNL d   1      -0.587   0.352   2.381  0.00  0.00    -0.075 A 
ATOM      2  C4  UNL d   1      -1.607   1.018   3.076  0.00  0.00     0.002 A 
ATOM      3  C5  UNL d   1      -2.814   1.320   2.445  0.00  0.00     0.002 A 
ATOM      4  C6  UNL d   1      -3.013   0.971   1.111  0.00  0.00    -0.004 A 
ATOM      5  C7  UNL d   1      -2.000   0.324   0.406  0.00  0.00     0.002 A 
ATOM      6  C8  UNL d   1      -0.793   0.016   1.036  0.00  0.00     0.002 A 
ENDROOT
BRANCH   1   7
ATOM      7  C2  UNL d   1       0.710  -0.005   3.066  0.00  0.00     0.056 C 
BRANCH   7   8
ATOM      8  C1  UNL d   1       1.760   1.111   3.034  0.00  0.00     0.007 C 
ATOM      9  C   UNL d   1       1.306   2.383   3.739  0.00  0.00     0.009 C 
ENDBRANCH   7   8
ENDBRANCH   1   7
TORSDOF 2
ENDMDL
