MODEL 1
REMARK minimizedAffinity 13.2709103
REMARK minimizedRMSD -1
REMARK  2 active torsions:
REMARK  status: ('A' for Active; 'I' for Inactive)
REMARK    1  A    between atoms: C1_2  and  C2_3 
REMARK    2  A    between atoms: C2_3  and  C3_4 
ROOT
ATOM      1  C3  UNL d   1       3.192   0.317  -3.591  0.00  0.00    -0.075 A 
ATOM      2  C4  UNL d   1       2.031  -0.425  -3.850  0.00  0.00     0.002 A 
ATOM      3  C5  UNL d   1       1.895  -1.134  -5.044  0.00  0.00     0.002 A 
ATOM      4  C6  UNL d   1       2.911  -1.102  -5.996  0.00  0.00    -0.004 A 
ATOM      5  C7  UNL d   1       4.062  -0.355  -5.757  0.00  0.00     0.002 A 
ATOM      6  C8  UNL d   1       4.203   0.352  -4.561  0.00  0.00     0.002 A 
ENDROOT
BRANCH   1   7
ATOM      7  C2  UNL d   1       3.358   1.062  -2.288  0.00  0.00     0.056 C 
BRANCH   7   8
ATOM      8  C1  UNL d   1       2.089   1.779  -1.814  0.00  0.00     0.007 C 
ATOM      9  C   UNL d   1       2.139   2.180  -0.346  0.00  0.00     0.009 C 
ENDBRANCH   7   8
ENDBRANCH   1   7
TORSDOF 2
ENDMDL
