MODEL 1
REMARK minimizedAffinity 8.28227139
REMARK minimizedRMSD -1
REMARK  2 active torsions:
REMARK  status: ('A' for Active; 'I' for Inactive)
REMARK    1  A    between atoms: C1_2  and  C2_3 
REMARK    2  A    between atoms: C2_3  and  C3_4 
ROOT
ATOM      1  C3  UNL d   1      -1.057  -0.921  -5.292  0.00  0.00    -0.075 A 
ATOM      2  C4  UNL d   1      -0.898  -2.267  -5.649  0.00  0.00     0.002 A 
ATOM      3  C5  UNL d   1      -2.003  -3.044  -5.998  0.00  0.00     0.002 A 
ATOM      4  C6  UNL d   1      -3.280  -2.488  -5.985  0.00  0.00    -0.004 A 
ATOM      5  C7  UNL d   1      -3.453  -1.156  -5.616  0.00  0.00     0.002 A 
ATOM      6  C8  UNL d   1      -2.348  -0.375  -5.270  0.00  0.00     0.002 A 
ENDROOT
BRANCH   1   7
ATOM      7  C2  UNL d   1       0.138  -0.067  -4.941  0.00  0.00     0.056 C 
BRANCH   7   8
ATOM      8  C1  UNL d   1       1.005  -0.640  -3.815  0.00  0.00     0.007 C 
ATOM      9  C   UNL d   1       1.454   0.411  -2.809  0.00  0.00     0.009 C 
ENDBRANCH   7   8
ENDBRANCH   1   7
TORSDOF 2
ENDMDL
