MODEL 1
REMARK minimizedAffinity -0.153088689
REMARK minimizedRMSD -1
REMARK  2 active torsions:
REMARK  status: ('A' for Active; 'I' for Inactive)
REMARK    1  A    between atoms: C1_2  and  C2_3 
REMARK    2  A    between atoms: C2_3  and  C3_4 
ROOT
ATOM      1  C3  UNL d   1      -2.294   1.459   2.550  0.00  0.00    -0.075 A 
ATOM      2  C4  UNL d   1      -2.476   0.824   1.313  0.00  0.00     0.002 A 
ATOM      3  C5  UNL d   1      -3.759   0.622   0.803  0.00  0.00     0.002 A 
ATOM      4  C6  UNL d   1      -4.873   1.041   1.525  0.00  0.00    -0.004 A 
ATOM      5  C7  UNL d   1      -4.705   1.658   2.763  0.00  0.00     0.002 A 
ATOM      6  C8  UNL d   1      -3.422   1.866   3.274  0.00  0.00     0.002 A 
ENDROOT
BRANCH   1   7
ATOM      7  C2  UNL d   1      -0.907   1.707   3.094  0.00  0.00     0.056 C 
BRANCH   7   8
ATOM      8  C1  UNL d   1      -0.079   0.434   3.294  0.00  0.00     0.007 C 
ATOM      9  C   UNL d   1       1.418   0.701   3.393  0.00  0.00     0.009 C 
ENDBRANCH   7   8
ENDBRANCH   1   7
TORSDOF 2
ENDMDL
