MODEL 1
REMARK minimizedAffinity 8.30673409
REMARK minimizedRMSD -1
REMARK  2 active torsions:
REMARK  status: ('A' for Active; 'I' for Inactive)
REMARK    1  A    between atoms: C1_2  and  C2_3 
REMARK    2  A    between atoms: C2_3  and  C3_4 
ROOT
ATOM      1  C3  UNL d   1      -4.328   1.209   3.054  0.00  0.00    -0.075 A 
ATOM      2  C4  UNL d   1      -4.702   0.650   1.824  0.00  0.00     0.002 A 
ATOM      3  C5  UNL d   1      -3.743   0.379   0.848  0.00  0.00     0.002 A 
ATOM      4  C6  UNL d   1      -2.401   0.670   1.085  0.00  0.00    -0.004 A 
ATOM      5  C7  UNL d   1      -2.020   1.240   2.298  0.00  0.00     0.002 A 
ATOM      6  C8  UNL d   1      -2.978   1.509   3.278  0.00  0.00     0.002 A 
ENDROOT
BRANCH   1   7
ATOM      7  C2  UNL d   1      -5.357   1.478   4.126  0.00  0.00     0.056 C 
BRANCH   7   8
ATOM      8  C1  UNL d   1      -4.880   1.153   5.545  0.00  0.00     0.007 C 
ATOM      9  C   UNL d   1      -5.261  -0.250   6.000  0.00  0.00     0.009 C 
ENDBRANCH   7   8
ENDBRANCH   1   7
TORSDOF 2
ENDMDL
