MODEL 1
REMARK minimizedAffinity 8.46517563
REMARK minimizedRMSD -1
REMARK  2 active torsions:
REMARK  status: ('A' for Active; 'I' for Inactive)
REMARK    1  A    between atoms: C1_2  and  C2_3 
REMARK    2  A    between atoms: C2_3  and  C3_4 
ROOT
ATOM      1  C3  UNL d   1      -3.987   0.554   3.114  0.00  0.00    -0.075 A 
ATOM      2  C4  UNL d   1      -4.624   0.752   1.881  0.00  0.00     0.002 A 
ATOM      3  C5  UNL d   1      -3.913   0.623   0.687  0.00  0.00     0.002 A 
ATOM      4  C6  UNL d   1      -2.557   0.307   0.712  0.00  0.00    -0.004 A 
ATOM      5  C7  UNL d   1      -1.910   0.124   1.932  0.00  0.00     0.002 A 
ATOM      6  C8  UNL d   1      -2.620   0.247   3.127  0.00  0.00     0.002 A 
ENDROOT
BRANCH   1   7
ATOM      7  C2  UNL d   1      -4.757   0.662   4.408  0.00  0.00     0.056 C 
BRANCH   7   8
ATOM      8  C1  UNL d   1      -5.998   1.557   4.322  0.00  0.00     0.007 C 
ATOM      9  C   UNL d   1      -5.999   2.683   5.348  0.00  0.00     0.009 C 
ENDBRANCH   7   8
ENDBRANCH   1   7
TORSDOF 2
ENDMDL
