MODEL 1
REMARK minimizedAffinity -0.601431251
REMARK minimizedRMSD -1
REMARK  2 active torsions:
REMARK  status: ('A' for Active; 'I' for Inactive)
REMARK    1  A    between atoms: C1_2  and  C2_3 
REMARK    2  A    between atoms: C2_3  and  C3_4 
ROOT
ATOM      1  C3  UNL d   1      -4.872   1.829   2.681  0.00  0.00    -0.075 A 
ATOM      2  C4  UNL d   1      -3.727   1.437   3.391  0.00  0.00     0.002 A 
ATOM      3  C5  UNL d   1      -2.712   0.720   2.757  0.00  0.00     0.002 A 
ATOM      4  C6  UNL d   1      -2.832   0.378   1.412  0.00  0.00    -0.004 A 
ATOM      5  C7  UNL d   1      -3.972   0.748   0.701  0.00  0.00     0.002 A 
ATOM      6  C8  UNL d   1      -4.988   1.469   1.332  0.00  0.00     0.002 A 
ENDROOT
BRANCH   1   7
ATOM      7  C2  UNL d   1      -5.960   2.631   3.354  0.00  0.00     0.056 C 
BRANCH   7   8
ATOM      8  C1  UNL d   1      -6.000   2.474   4.877  0.00  0.00     0.007 C 
ATOM      9  C   UNL d   1      -6.000   3.804   5.618  0.00  0.00     0.009 C 
ENDBRANCH   7   8
ENDBRANCH   1   7
TORSDOF 2
ENDMDL
