MODEL 1
REMARK minimizedAffinity 4.03622437
REMARK minimizedRMSD -1
REMARK  2 active torsions:
REMARK  status: ('A' for Active; 'I' for Inactive)
REMARK    1  A    between atoms: C1_2  and  C2_3 
REMARK    2  A    between atoms: C2_3  and  C3_4 
ROOT
ATOM      1  C3  UNL d   1      -5.366  -1.674   2.904  0.00  0.00    -0.075 A 
ATOM      2  C4  UNL d   1      -5.120  -1.660   1.523  0.00  0.00     0.002 A 
ATOM      3  C5  UNL d   1      -4.716  -0.485   0.888  0.00  0.00     0.002 A 
ATOM      4  C6  UNL d   1      -4.564   0.690   1.621  0.00  0.00    -0.004 A 
ATOM      5  C7  UNL d   1      -4.822   0.691   2.990  0.00  0.00     0.002 A 
ATOM      6  C8  UNL d   1      -5.221  -0.484   3.629  0.00  0.00     0.002 A 
ENDROOT
BRANCH   1   7
ATOM      7  C2  UNL d   1      -5.775  -2.949   3.602  0.00  0.00     0.056 C 
BRANCH   7   8
ATOM      8  C1  UNL d   1      -5.871  -2.822   5.126  0.00  0.00     0.007 C 
ATOM      9  C   UNL d   1      -4.533  -3.007   5.830  0.00  0.00     0.009 C 
ENDBRANCH   7   8
ENDBRANCH   1   7
TORSDOF 2
ENDMDL
