MODEL 1
REMARK minimizedAffinity 4.12903404
REMARK minimizedRMSD -1
REMARK  2 active torsions:
REMARK  status: ('A' for Active; 'I' for Inactive)
REMARK    1  A    between atoms: C1_2  and  C2_3 
REMARK    2  A    between atoms: C2_3  and  C3_4 
ROOT
ATOM      1  C3  UNL d   1      -2.392   0.801   1.840  0.00  0.00    -0.075 A 
ATOM      2  C4  UNL d   1      -1.932   2.099   2.101  0.00  0.00     0.002 A 
ATOM      3  C5  UNL d   1      -0.666   2.305   2.650  0.00  0.00     0.002 A 
ATOM      4  C6  UNL d   1       0.150   1.217   2.954  0.00  0.00    -0.004 A 
ATOM      5  C7  UNL d   1      -0.304  -0.078   2.714  0.00  0.00     0.002 A 
ATOM      6  C8  UNL d   1      -1.569  -0.287   2.161  0.00  0.00     0.002 A 
ENDROOT
BRANCH   1   7
ATOM      7  C2  UNL d   1      -3.750   0.573   1.219  0.00  0.00     0.056 C 
BRANCH   7   8
ATOM      8  C1  UNL d   1      -4.321  -0.828   1.465  0.00  0.00     0.007 C 
ATOM      9  C   UNL d   1      -4.380  -1.682   0.206  0.00  0.00     0.009 C 
ENDBRANCH   7   8
ENDBRANCH   1   7
TORSDOF 2
ENDMDL
