MODEL 1
REMARK minimizedAffinity 6.86767864
REMARK minimizedRMSD -1
REMARK  2 active torsions:
REMARK  status: ('A' for Active; 'I' for Inactive)
REMARK    1  A    between atoms: C1_2  and  C2_3 
REMARK    2  A    between atoms: C2_3  and  C3_4 
ROOT
ATOM      1  C3  UNL d   1      -1.278   0.896   2.919  0.00  0.00    -0.075 A 
ATOM      2  C4  UNL d   1      -0.280  -0.080   3.059  0.00  0.00     0.002 A 
ATOM      3  C5  UNL d   1       0.989   0.267   3.524  0.00  0.00     0.002 A 
ATOM      4  C6  UNL d   1       1.279   1.591   3.845  0.00  0.00    -0.004 A 
ATOM      5  C7  UNL d   1       0.300   2.571   3.695  0.00  0.00     0.002 A 
ATOM      6  C8  UNL d   1      -0.972   2.226   3.233  0.00  0.00     0.002 A 
ENDROOT
BRANCH   1   7
ATOM      7  C2  UNL d   1      -2.662   0.523   2.444  0.00  0.00     0.056 C 
BRANCH   7   8
ATOM      8  C1  UNL d   1      -2.679  -0.266   1.130  0.00  0.00     0.007 C 
ATOM      9  C   UNL d   1      -4.084  -0.619   0.660  0.00  0.00     0.009 C 
ENDBRANCH   7   8
ENDBRANCH   1   7
TORSDOF 2
ENDMDL
