MODEL 1
REMARK minimizedAffinity 5.54528999
REMARK minimizedRMSD -1
REMARK  2 active torsions:
REMARK  status: ('A' for Active; 'I' for Inactive)
REMARK    1  A    between atoms: C1_2  and  C2_3 
REMARK    2  A    between atoms: C2_3  and  C3_4 
ROOT
ATOM      1  C3  UNL d   1      -1.230   0.451   2.793  0.00  0.00    -0.075 A 
ATOM      2  C4  UNL d   1      -2.254   0.305   3.739  0.00  0.00     0.002 A 
ATOM      3  C5  UNL d   1      -3.583   0.188   3.332  0.00  0.00     0.002 A 
ATOM      4  C6  UNL d   1      -3.906   0.224   1.978  0.00  0.00    -0.004 A 
ATOM      5  C7  UNL d   1      -2.898   0.385   1.029  0.00  0.00     0.002 A 
ATOM      6  C8  UNL d   1      -1.567   0.499   1.433  0.00  0.00     0.002 A 
ENDROOT
BRANCH   1   7
ATOM      7  C2  UNL d   1       0.214   0.549   3.225  0.00  0.00     0.056 C 
BRANCH   7   8
ATOM      8  C1  UNL d   1       0.632   1.949   3.687  0.00  0.00     0.007 C 
ATOM      9  C   UNL d   1      -0.239   3.057   3.111  0.00  0.00     0.009 C 
ENDBRANCH   7   8
ENDBRANCH   1   7
TORSDOF 2
ENDMDL
