MODEL 1
REMARK minimizedAffinity 3.31511331
REMARK minimizedRMSD -1
REMARK  2 active torsions:
REMARK  status: ('A' for Active; 'I' for Inactive)
REMARK    1  A    between atoms: C1_2  and  C2_3 
REMARK    2  A    between atoms: C2_3  and  C3_4 
ROOT
ATOM      1  C3  UNL d   1      -3.649  -0.747   0.955  0.00  0.00    -0.075 A 
ATOM      2  C4  UNL d   1      -2.408  -0.102   0.850  0.00  0.00     0.002 A 
ATOM      3  C5  UNL d   1      -2.063   0.919   1.736  0.00  0.00     0.002 A 
ATOM      4  C6  UNL d   1      -2.956   1.315   2.729  0.00  0.00    -0.004 A 
ATOM      5  C7  UNL d   1      -4.198   0.693   2.832  0.00  0.00     0.002 A 
ATOM      6  C8  UNL d   1      -4.544  -0.332   1.949  0.00  0.00     0.002 A 
ENDROOT
BRANCH   1   7
ATOM      7  C2  UNL d   1      -4.016  -1.873   0.018  0.00  0.00     0.056 C 
BRANCH   7   8
ATOM      8  C1  UNL d   1      -3.574  -3.257   0.503  0.00  0.00     0.007 C 
ATOM      9  C   UNL d   1      -2.077  -3.495   0.358  0.00  0.00     0.009 C 
ENDBRANCH   7   8
ENDBRANCH   1   7
TORSDOF 2
ENDMDL
