MODEL 1
REMARK minimizedAffinity -4.32818365
REMARK minimizedRMSD -1
REMARK  1 active torsions:
REMARK  status: ('A' for Active; 'I' for Inactive)
REMARK    1  A    between atoms: N_2  and  C1_3 
ROOT
ATOM      1  C1  UNL d   1      -1.450  -0.617  -0.532  0.00  0.00     0.143 A 
ATOM      2  C2  UNL d   1      -0.728  -1.077   0.575  0.00  0.00    -0.057 A 
ATOM      3  C3  UNL d   1      -1.357  -1.322   1.801  0.00  0.00     0.033 A 
ATOM      4  C4  UNL d   1      -2.719  -1.083   1.951  0.00  0.00    -0.042 A 
ATOM      5  C5  UNL d   1      -3.452  -0.602   0.872  0.00  0.00     0.033 A 
ATOM      6  C6  UNL d   1      -2.819  -0.365  -0.352  0.00  0.00    -0.057 A 
ENDROOT
BRANCH   1   7
ATOM      7  N   UNL d   1      -0.864  -0.261  -1.749  0.00  0.00    -0.732 N 
ATOM      8  C   UNL d   1      -1.535   0.651  -2.651  0.00  0.00     0.284 C 
ATOM      9  H3  UNL d   1       0.137  -0.102  -1.667  0.00  0.00     0.395 HD
ENDBRANCH   1   7
TORSDOF 1
ENDMDL
