MODEL 1
REMARK minimizedAffinity 0.55591321
REMARK minimizedRMSD -1
REMARK  1 active torsions:
REMARK  status: ('A' for Active; 'I' for Inactive)
REMARK    1  A    between atoms: N_2  and  C1_3 
ROOT
ATOM      1  C1  UNL d   1      -0.429  -0.635   0.233  0.00  0.00     0.143 A 
ATOM      2  C2  UNL d   1      -1.398  -1.512  -0.267  0.00  0.00    -0.057 A 
ATOM      3  C3  UNL d   1      -2.181  -1.173  -1.377  0.00  0.00     0.033 A 
ATOM      4  C4  UNL d   1      -2.027   0.065  -1.991  0.00  0.00    -0.042 A 
ATOM      5  C5  UNL d   1      -1.087   0.963  -1.497  0.00  0.00     0.033 A 
ATOM      6  C6  UNL d   1      -0.304   0.616  -0.392  0.00  0.00    -0.057 A 
ENDROOT
BRANCH   1   7
ATOM      7  N   UNL d   1       0.312  -0.874   1.393  0.00  0.00    -0.732 N 
ATOM      8  C   UNL d   1      -0.050  -0.241   2.642  0.00  0.00     0.284 C 
ATOM      9  H3  UNL d   1       0.586  -1.850   1.485  0.00  0.00     0.395 HD
ENDBRANCH   1   7
TORSDOF 1
ENDMDL
