MODEL 1
REMARK minimizedAffinity -2.07146811
REMARK minimizedRMSD -1
REMARK  1 active torsions:
REMARK  status: ('A' for Active; 'I' for Inactive)
REMARK    1  A    between atoms: N_2  and  C1_3 
ROOT
ATOM      1  C1  UNL d   1       0.871   0.650   1.151  0.00  0.00     0.143 A 
ATOM      2  C2  UNL d   1       0.708  -0.739   1.151  0.00  0.00    -0.057 A 
ATOM      3  C3  UNL d   1       0.054  -1.394   0.100  0.00  0.00     0.033 A 
ATOM      4  C4  UNL d   1      -0.477  -0.664  -0.959  0.00  0.00    -0.042 A 
ATOM      5  C5  UNL d   1      -0.348   0.721  -0.968  0.00  0.00     0.033 A 
ATOM      6  C6  UNL d   1       0.312   1.367   0.081  0.00  0.00    -0.057 A 
ENDROOT
BRANCH   1   7
ATOM      7  N   UNL d   1       1.425   1.368   2.214  0.00  0.00    -0.732 N 
ATOM      8  C   UNL d   1       2.218   2.554   1.968  0.00  0.00     0.284 C 
ATOM      9  H3  UNL d   1       0.786   1.451   3.001  0.00  0.00     0.395 HD
ENDBRANCH   1   7
TORSDOF 1
ENDMDL
