MODEL 1
REMARK minimizedAffinity 1.16538191
REMARK minimizedRMSD -1
REMARK  1 active torsions:
REMARK  status: ('A' for Active; 'I' for Inactive)
REMARK    1  A    between atoms: N_2  and  C1_3 
ROOT
ATOM      1  C1  UNL d   1       0.235  -0.620   0.178  0.00  0.00     0.143 A 
ATOM      2  C2  UNL d   1       0.757   0.577  -0.324  0.00  0.00    -0.057 A 
ATOM      3  C3  UNL d   1       0.157   1.234  -1.405  0.00  0.00     0.033 A 
ATOM      4  C4  UNL d   1      -0.962   0.688  -2.024  0.00  0.00    -0.042 A 
ATOM      5  C5  UNL d   1      -1.483  -0.514  -1.559  0.00  0.00     0.033 A 
ATOM      6  C6  UNL d   1      -0.883  -1.162  -0.474  0.00  0.00    -0.057 A 
ENDROOT
BRANCH   1   7
ATOM      7  N   UNL d   1       0.844  -1.372   1.186  0.00  0.00    -0.732 N 
ATOM      8  C   UNL d   1       0.060  -2.259   2.019  0.00  0.00     0.284 C 
ATOM      9  H3  UNL d   1       1.740  -1.757   0.896  0.00  0.00     0.395 HD
ENDBRANCH   1   7
TORSDOF 1
ENDMDL
