MODEL 1
REMARK minimizedAffinity -0.618466616
REMARK minimizedRMSD -1
REMARK  1 active torsions:
REMARK  status: ('A' for Active; 'I' for Inactive)
REMARK    1  A    between atoms: N_2  and  C1_3 
ROOT
ATOM      1  C1  UNL d   1       0.836   0.562   0.012  0.00  0.00     0.143 A 
ATOM      2  C2  UNL d   1       0.433  -0.608   0.664  0.00  0.00    -0.057 A 
ATOM      3  C3  UNL d   1      -0.681  -1.336   0.226  0.00  0.00     0.033 A 
ATOM      4  C4  UNL d   1      -1.430  -0.889  -0.857  0.00  0.00    -0.042 A 
ATOM      5  C5  UNL d   1      -1.063   0.286  -1.504  0.00  0.00     0.033 A 
ATOM      6  C6  UNL d   1       0.054   1.005  -1.066  0.00  0.00    -0.057 A 
ENDROOT
BRANCH   1   7
ATOM      7  N   UNL d   1       1.874   1.383   0.460  0.00  0.00    -0.732 N 
ATOM      8  C   UNL d   1       1.766   2.088   1.719  0.00  0.00     0.284 C 
ATOM      9  H3  UNL d   1       2.791   0.978   0.287  0.00  0.00     0.395 HD
ENDBRANCH   1   7
TORSDOF 1
ENDMDL
