MODEL 1
REMARK minimizedAffinity -3.27881956
REMARK minimizedRMSD -1
REMARK  1 active torsions:
REMARK  status: ('A' for Active; 'I' for Inactive)
REMARK    1  A    between atoms: N_2  and  C1_3 
ROOT
ATOM      1  C1  UNL d   1      -5.280   5.471   3.282  0.00  0.00     0.143 A 
ATOM      2  C2  UNL d   1      -5.993   4.493   3.984  0.00  0.00    -0.057 A 
ATOM      3  C3  UNL d   1      -5.601   4.088   5.266  0.00  0.00     0.033 A 
ATOM      4  C4  UNL d   1      -4.467   4.634   5.858  0.00  0.00    -0.042 A 
ATOM      5  C5  UNL d   1      -3.728   5.589   5.168  0.00  0.00     0.033 A 
ATOM      6  C6  UNL d   1      -4.129   5.995   3.892  0.00  0.00    -0.057 A 
ENDROOT
BRANCH   1   7
ATOM      7  N   UNL d   1      -5.562   5.845   1.966  0.00  0.00    -0.732 N 
ATOM      8  C   UNL d   1      -4.782   5.318   0.867  0.00  0.00     0.284 C 
ATOM      9  H3  UNL d   1      -6.561   5.892   1.782  0.00  0.00     0.395 HD
ENDBRANCH   1   7
TORSDOF 1
ENDMDL
