MODEL 1
REMARK minimizedAffinity 0.841757476
REMARK minimizedRMSD -1
REMARK  1 active torsions:
REMARK  status: ('A' for Active; 'I' for Inactive)
REMARK    1  A    between atoms: N_2  and  C1_3 
ROOT
ATOM      1  C1  UNL d   1       1.286   1.378   1.484  0.00  0.00     0.143 A 
ATOM      2  C2  UNL d   1       1.638   0.292   0.677  0.00  0.00    -0.057 A 
ATOM      3  C3  UNL d   1       0.966  -0.933   0.773  0.00  0.00     0.033 A 
ATOM      4  C4  UNL d   1      -0.055  -1.101   1.703  0.00  0.00    -0.042 A 
ATOM      5  C5  UNL d   1      -0.405  -0.043   2.533  0.00  0.00     0.033 A 
ATOM      6  C6  UNL d   1       0.265   1.180   2.427  0.00  0.00    -0.057 A 
ENDROOT
BRANCH   1   7
ATOM      7  N   UNL d   1       1.981   2.590   1.505  0.00  0.00    -0.732 N 
ATOM      8  C   UNL d   1       2.868   2.949   0.419  0.00  0.00     0.284 C 
ATOM      9  H3  UNL d   1       1.410   3.360   1.847  0.00  0.00     0.395 HD
ENDBRANCH   1   7
TORSDOF 1
ENDMDL
