MODEL 1
REMARK minimizedAffinity 4.22920847
REMARK minimizedRMSD -1
REMARK  1 active torsions:
REMARK  status: ('A' for Active; 'I' for Inactive)
REMARK    1  A    between atoms: N_2  and  C1_3 
ROOT
ATOM      1  C1  UNL d   1      -0.964  -1.641   1.119  0.00  0.00     0.143 A 
ATOM      2  C2  UNL d   1      -2.083  -1.239   1.856  0.00  0.00    -0.057 A 
ATOM      3  C3  UNL d   1      -3.278  -0.879   1.223  0.00  0.00     0.033 A 
ATOM      4  C4  UNL d   1      -3.367  -0.887  -0.165  0.00  0.00    -0.042 A 
ATOM      5  C5  UNL d   1      -2.260  -1.260  -0.919  0.00  0.00     0.033 A 
ATOM      6  C6  UNL d   1      -1.070  -1.624  -0.281  0.00  0.00    -0.057 A 
ENDROOT
BRANCH   1   7
ATOM      7  N   UNL d   1       0.283  -1.916   1.685  0.00  0.00    -0.732 N 
ATOM      8  C   UNL d   1       1.445  -1.131   1.327  0.00  0.00     0.284 C 
ATOM      9  H3  UNL d   1       0.220  -2.135   2.677  0.00  0.00     0.395 HD
ENDBRANCH   1   7
TORSDOF 1
ENDMDL
