MODEL 1
REMARK minimizedAffinity 2.39543247
REMARK minimizedRMSD -1
REMARK  1 active torsions:
REMARK  status: ('A' for Active; 'I' for Inactive)
REMARK    1  A    between atoms: N_2  and  C1_3 
ROOT
ATOM      1  C1  UNL d   1      -0.327  -1.281   0.629  0.00  0.00     0.143 A 
ATOM      2  C2  UNL d   1       0.271  -0.757  -0.523  0.00  0.00    -0.057 A 
ATOM      3  C3  UNL d   1      -0.499  -0.321  -1.607  0.00  0.00     0.033 A 
ATOM      4  C4  UNL d   1      -1.886  -0.427  -1.570  0.00  0.00    -0.042 A 
ATOM      5  C5  UNL d   1      -2.501  -0.967  -0.447  0.00  0.00     0.033 A 
ATOM      6  C6  UNL d   1      -1.726  -1.395   0.636  0.00  0.00    -0.057 A 
ENDROOT
BRANCH   1   7
ATOM      7  N   UNL d   1       0.388  -1.823   1.699  0.00  0.00    -0.732 N 
ATOM      8  C   UNL d   1       1.735  -1.379   1.986  0.00  0.00     0.284 C 
ATOM      9  H3  UNL d   1      -0.191  -1.955   2.526  0.00  0.00     0.395 HD
ENDBRANCH   1   7
TORSDOF 1
ENDMDL
