MODEL 1
REMARK minimizedAffinity 0.911781251
REMARK minimizedRMSD -1
REMARK  1 active torsions:
REMARK  status: ('A' for Active; 'I' for Inactive)
REMARK    1  A    between atoms: N_2  and  C1_3 
ROOT
ATOM      1  C1  UNL d   1       0.975   0.916   2.599  0.00  0.00     0.143 A 
ATOM      2  C2  UNL d   1      -0.370   0.557   2.454  0.00  0.00    -0.057 A 
ATOM      3  C3  UNL d   1      -0.741  -0.752   2.124  0.00  0.00     0.033 A 
ATOM      4  C4  UNL d   1       0.231  -1.722   1.904  0.00  0.00    -0.042 A 
ATOM      5  C5  UNL d   1       1.575  -1.382   2.017  0.00  0.00     0.033 A 
ATOM      6  C6  UNL d   1       1.938  -0.075   2.353  0.00  0.00    -0.057 A 
ENDROOT
BRANCH   1   7
ATOM      7  N   UNL d   1       1.411   2.223   2.829  0.00  0.00    -0.732 N 
ATOM      8  C   UNL d   1       2.558   2.752   2.123  0.00  0.00     0.284 C 
ATOM      9  H3  UNL d   1       0.639   2.880   2.919  0.00  0.00     0.395 HD
ENDBRANCH   1   7
TORSDOF 1
ENDMDL
