MODEL 1
REMARK minimizedAffinity 2.64757824
REMARK minimizedRMSD -1
REMARK  1 active torsions:
REMARK  status: ('A' for Active; 'I' for Inactive)
REMARK    1  A    between atoms: N_2  and  C1_3 
ROOT
ATOM      1  C1  UNL d   1      -0.813   1.393  -3.301  0.00  0.00     0.143 A 
ATOM      2  C2  UNL d   1      -0.453   0.188  -2.689  0.00  0.00    -0.057 A 
ATOM      3  C3  UNL d   1      -1.368  -0.533  -1.912  0.00  0.00     0.033 A 
ATOM      4  C4  UNL d   1      -2.654  -0.045  -1.710  0.00  0.00    -0.042 A 
ATOM      5  C5  UNL d   1      -3.026   1.163  -2.289  0.00  0.00     0.033 A 
ATOM      6  C6  UNL d   1      -2.110   1.875  -3.069  0.00  0.00    -0.057 A 
ENDROOT
BRANCH   1   7
ATOM      7  N   UNL d   1       0.081   2.206  -4.004  0.00  0.00    -0.732 N 
ATOM      8  C   UNL d   1       0.835   1.679  -5.120  0.00  0.00     0.284 C 
ATOM      9  H3  UNL d   1      -0.284   3.144  -4.154  0.00  0.00     0.395 HD
ENDBRANCH   1   7
TORSDOF 1
ENDMDL
