MODEL 1
REMARK minimizedAffinity 6.32982063
REMARK minimizedRMSD -1
REMARK  1 active torsions:
REMARK  status: ('A' for Active; 'I' for Inactive)
REMARK    1  A    between atoms: N_2  and  C1_3 
ROOT
ATOM      1  C1  UNL d   1      -2.510  -0.899  -1.292  0.00  0.00     0.143 A 
ATOM      2  C2  UNL d   1      -2.719  -2.097  -1.984  0.00  0.00    -0.057 A 
ATOM      3  C3  UNL d   1      -1.878  -2.485  -3.034  0.00  0.00     0.033 A 
ATOM      4  C4  UNL d   1      -0.827  -1.665  -3.431  0.00  0.00    -0.042 A 
ATOM      5  C5  UNL d   1      -0.616  -0.458  -2.775  0.00  0.00     0.033 A 
ATOM      6  C6  UNL d   1      -1.455  -0.079  -1.722  0.00  0.00    -0.057 A 
ENDROOT
BRANCH   1   7
ATOM      7  N   UNL d   1      -3.369  -0.411  -0.305  0.00  0.00    -0.732 N 
ATOM      8  C   UNL d   1      -2.895   0.533   0.684  0.00  0.00     0.284 C 
ATOM      9  H3  UNL d   1      -4.298  -0.203  -0.666  0.00  0.00     0.395 HD
ENDBRANCH   1   7
TORSDOF 1
ENDMDL
