MODEL 1
REMARK minimizedAffinity 4.7054038
REMARK minimizedRMSD -1
REMARK  1 active torsions:
REMARK  status: ('A' for Active; 'I' for Inactive)
REMARK    1  A    between atoms: N_2  and  C1_3 
ROOT
ATOM      1  C1  UNL d   1      -1.387   0.363  -2.220  0.00  0.00     0.143 A 
ATOM      2  C2  UNL d   1      -0.899  -0.830  -1.676  0.00  0.00    -0.057 A 
ATOM      3  C3  UNL d   1      -1.677  -1.602  -0.803  0.00  0.00     0.033 A 
ATOM      4  C4  UNL d   1      -2.949  -1.177  -0.435  0.00  0.00    -0.042 A 
ATOM      5  C5  UNL d   1      -3.445   0.018  -0.944  0.00  0.00     0.033 A 
ATOM      6  C6  UNL d   1      -2.666   0.781  -1.820  0.00  0.00    -0.057 A 
ENDROOT
BRANCH   1   7
ATOM      7  N   UNL d   1      -0.627   1.224  -3.014  0.00  0.00    -0.732 N 
ATOM      8  C   UNL d   1      -1.267   2.113  -3.960  0.00  0.00     0.284 C 
ATOM      9  H3  UNL d   1       0.143   1.648  -2.501  0.00  0.00     0.395 HD
ENDBRANCH   1   7
TORSDOF 1
ENDMDL
