MODEL 1
REMARK minimizedAffinity -2.13476968
REMARK minimizedRMSD -1
REMARK  1 active torsions:
REMARK  status: ('A' for Active; 'I' for Inactive)
REMARK    1  A    between atoms: N_2  and  C1_3 
ROOT
ATOM      1  C1  UNL d   1       4.088   3.528  -1.456  0.00  0.00     0.143 A 
ATOM      2  C2  UNL d   1       4.115   4.805  -2.026  0.00  0.00    -0.057 A 
ATOM      3  C3  UNL d   1       5.044   5.138  -3.019  0.00  0.00     0.033 A 
ATOM      4  C4  UNL d   1       5.985   4.204  -3.440  0.00  0.00    -0.042 A 
ATOM      5  C5  UNL d   1       5.993   2.936  -2.870  0.00  0.00     0.033 A 
ATOM      6  C6  UNL d   1       5.058   2.608  -1.883  0.00  0.00    -0.057 A 
ENDROOT
BRANCH   1   7
ATOM      7  N   UNL d   1       3.253   3.166  -0.396  0.00  0.00    -0.732 N 
ATOM      8  C   UNL d   1       3.335   3.854   0.875  0.00  0.00     0.284 C 
ATOM      9  H3  UNL d   1       2.302   2.968  -0.700  0.00  0.00     0.395 HD
ENDBRANCH   1   7
TORSDOF 1
ENDMDL
