MODEL 1
REMARK minimizedAffinity 0.803775668
REMARK minimizedRMSD -1
REMARK  0 active torsions:
REMARK  status: ('A' for Active; 'I' for Inactive)
ROOT
ATOM      1  N1  IND d   1       5.198   1.672   5.920  0.00  0.00    -0.196 N 
ATOM      2  C2  IND d   1       4.174   0.767   5.942  0.00  0.00     0.054 A 
ATOM      3  C3  IND d   1       2.984   1.405   6.000  0.00  0.00    -0.031 A 
ATOM      4  C4  IND d   1       2.478   3.929   5.966  0.00  0.00     0.051 A 
ATOM      5  C5  IND d   1       3.091   5.151   5.988  0.00  0.00    -0.031 A 
ATOM      6  C6  IND d   1       4.465   5.278   5.987  0.00  0.00     0.015 A 
ATOM      7  C7  IND d   1       5.281   4.183   5.951  0.00  0.00    -0.016 A 
ATOM      8  C8  IND d   1       4.663   2.941   5.935  0.00  0.00    -0.047 A 
ATOM      9  C9  IND d   1       3.269   2.805   5.979  0.00  0.00    -0.096 A 
ATOM     10  HN1 IND d   1       6.036   1.480   5.901  0.00  0.00     0.298 HD
ENDROOT
TORSDOF 0
ENDMDL
