MODEL 1
REMARK minimizedAffinity 0.523265183
REMARK minimizedRMSD -1
REMARK  0 active torsions:
REMARK  status: ('A' for Active; 'I' for Inactive)
ROOT
ATOM      1  N1  IND d   1       3.046   2.494   5.999  0.00  0.00    -0.196 N 
ATOM      2  C2  IND d   1       3.747   1.400   5.575  0.00  0.00     0.054 A 
ATOM      3  C3  IND d   1       4.935   1.776   5.050  0.00  0.00    -0.031 A 
ATOM      4  C4  IND d   1       5.976   4.125   4.878  0.00  0.00     0.051 A 
ATOM      5  C5  IND d   1       5.698   5.445   5.097  0.00  0.00    -0.031 A 
ATOM      6  C6  IND d   1       4.499   5.857   5.642  0.00  0.00     0.015 A 
ATOM      7  C7  IND d   1       3.533   4.959   6.000  0.00  0.00    -0.016 A 
ATOM      8  C8  IND d   1       3.809   3.618   5.772  0.00  0.00    -0.047 A 
ATOM      9  C9  IND d   1       5.007   3.197   5.180  0.00  0.00    -0.096 A 
ATOM     10  HN1 IND d   1       2.260   2.482   6.348  0.00  0.00     0.298 HD
ENDROOT
TORSDOF 0
ENDMDL
