MODEL 1
REMARK minimizedAffinity 5.27945089
REMARK minimizedRMSD -1
REMARK  0 active torsions:
REMARK  status: ('A' for Active; 'I' for Inactive)
ROOT
ATOM      1  N1  IND d   1       3.855   5.441   5.999  0.00  0.00    -0.196 N 
ATOM      2  C2  IND d   1       5.103   5.988   5.890  0.00  0.00     0.054 A 
ATOM      3  C3  IND d   1       5.994   5.052   5.491  0.00  0.00    -0.031 A 
ATOM      4  C4  IND d   1       5.604   2.586   4.863  0.00  0.00     0.051 A 
ATOM      5  C5  IND d   1       4.637   1.620   4.840  0.00  0.00    -0.031 A 
ATOM      6  C6  IND d   1       3.334   1.885   5.207  0.00  0.00     0.015 A 
ATOM      7  C7  IND d   1       2.944   3.133   5.601  0.00  0.00    -0.016 A 
ATOM      8  C8  IND d   1       3.924   4.115   5.633  0.00  0.00    -0.047 A 
ATOM      9  C9  IND d   1       5.258   3.842   5.302  0.00  0.00    -0.096 A 
ATOM     10  HN1 IND d   1       3.146   5.856   6.254  0.00  0.00     0.298 HD
ENDROOT
TORSDOF 0
ENDMDL
