MODEL 1
REMARK minimizedAffinity 3.50227904
REMARK minimizedRMSD -1
REMARK  0 active torsions:
REMARK  status: ('A' for Active; 'I' for Inactive)
ROOT
ATOM      1  N1  IND d   1       3.877   2.064   4.972  0.00  0.00    -0.196 N 
ATOM      2  C2  IND d   1       3.143   1.837   3.841  0.00  0.00     0.054 A 
ATOM      3  C3  IND d   1       3.035   2.973   3.115  0.00  0.00    -0.031 A 
ATOM      4  C4  IND d   1       4.070   5.291   3.542  0.00  0.00     0.051 A 
ATOM      5  C5  IND d   1       4.791   5.996   4.465  0.00  0.00    -0.031 A 
ATOM      6  C6  IND d   1       5.256   5.413   5.626  0.00  0.00     0.015 A 
ATOM      7  C7  IND d   1       5.026   4.095   5.904  0.00  0.00    -0.016 A 
ATOM      8  C8  IND d   1       4.288   3.379   4.972  0.00  0.00    -0.047 A 
ATOM      9  C9  IND d   1       3.777   3.975   3.812  0.00  0.00    -0.096 A 
ATOM     10  HN1 IND d   1       4.053   1.482   5.580  0.00  0.00     0.298 HD
ENDROOT
TORSDOF 0
ENDMDL
