MODEL 1
REMARK minimizedAffinity -3.71382141
REMARK minimizedRMSD -1
REMARK  0 active torsions:
REMARK  status: ('A' for Active; 'I' for Inactive)
ROOT
ATOM      1  N1  IND d   1       4.423   5.704   4.459  0.00  0.00    -0.196 N 
ATOM      2  C2  IND d   1       5.521   5.987   5.222  0.00  0.00     0.054 A 
ATOM      3  C3  IND d   1       5.871   4.910   5.961  0.00  0.00    -0.031 A 
ATOM      4  C4  IND d   1       4.843   2.550   6.000  0.00  0.00     0.051 A 
ATOM      5  C5  IND d   1       3.800   1.821   5.502  0.00  0.00    -0.031 A 
ATOM      6  C6  IND d   1       2.895   2.359   4.610  0.00  0.00     0.015 A 
ATOM      7  C7  IND d   1       3.006   3.649   4.173  0.00  0.00    -0.016 A 
ATOM      8  C8  IND d   1       4.059   4.394   4.683  0.00  0.00    -0.047 A 
ATOM      9  C9  IND d   1       4.957   3.867   5.620  0.00  0.00    -0.096 A 
ATOM     10  HN1 IND d   1       4.025   6.253   3.929  0.00  0.00     0.298 HD
ENDROOT
TORSDOF 0
ENDMDL
