MODEL 1
REMARK minimizedAffinity -5.23664331
REMARK minimizedRMSD -1
REMARK  0 active torsions:
REMARK  status: ('A' for Active; 'I' for Inactive)
ROOT
ATOM      1  N1  IND d   1       2.998   5.997   4.130  0.00  0.00    -0.196 N 
ATOM      2  C2  IND d   1       1.679   5.999   3.768  0.00  0.00     0.054 A 
ATOM      3  C3  IND d   1       1.138   4.775   3.959  0.00  0.00    -0.031 A 
ATOM      4  C4  IND d   1       2.203   2.651   4.951  0.00  0.00     0.051 A 
ATOM      5  C5  IND d   1       3.395   2.150   5.393  0.00  0.00    -0.031 A 
ATOM      6  C6  IND d   1       4.538   2.922   5.441  0.00  0.00     0.015 A 
ATOM      7  C7  IND d   1       4.529   4.233   5.056  0.00  0.00    -0.016 A 
ATOM      8  C8  IND d   1       3.322   4.743   4.600  0.00  0.00    -0.047 A 
ATOM      9  C9  IND d   1       2.169   3.953   4.509  0.00  0.00    -0.096 A 
ATOM     10  HN1 IND d   1       3.534   6.667   4.074  0.00  0.00     0.298 HD
ENDROOT
TORSDOF 0
ENDMDL
