MODEL 1
REMARK minimizedAffinity -5.63549089
REMARK minimizedRMSD -1
REMARK  0 active torsions:
REMARK  status: ('A' for Active; 'I' for Inactive)
ROOT
ATOM      1  N1  IND d   1       2.991   3.293   5.924  0.00  0.00    -0.196 N 
ATOM      2  C2  IND d   1       3.927   2.717   5.110  0.00  0.00     0.054 A 
ATOM      3  C3  IND d   1       3.675   3.019   3.817  0.00  0.00    -0.031 A 
ATOM      4  C4  IND d   1       1.842   4.525   2.816  0.00  0.00     0.051 A 
ATOM      5  C5  IND d   1       0.731   5.242   3.160  0.00  0.00    -0.031 A 
ATOM      6  C6  IND d   1       0.309   5.351   4.470  0.00  0.00     0.015 A 
ATOM      7  C7  IND d   1       0.993   4.753   5.490  0.00  0.00    -0.016 A 
ATOM      8  C8  IND d   1       2.118   4.018   5.144  0.00  0.00    -0.047 A 
ATOM      9  C9  IND d   1       2.526   3.869   3.812  0.00  0.00    -0.096 A 
ATOM     10  HN1 IND d   1       2.955   3.215   6.780  0.00  0.00     0.298 HD
ENDROOT
TORSDOF 0
ENDMDL
