MODEL 1
REMARK minimizedAffinity -3.15377522
REMARK minimizedRMSD -1
REMARK  0 active torsions:
REMARK  status: ('A' for Active; 'I' for Inactive)
ROOT
ATOM      1  N1  IND d   1       4.461   2.267   4.027  0.00  0.00    -0.196 N 
ATOM      2  C2  IND d   1       4.195   1.539   5.153  0.00  0.00     0.054 A 
ATOM      3  C3  IND d   1       3.415   2.248   5.999  0.00  0.00    -0.031 A 
ATOM      4  C4  IND d   1       2.374   4.583   5.695  0.00  0.00     0.051 A 
ATOM      5  C5  IND d   1       2.360   5.654   4.846  0.00  0.00    -0.031 A 
ATOM      6  C6  IND d   1       3.057   5.650   3.655  0.00  0.00     0.015 A 
ATOM      7  C7  IND d   1       3.789   4.565   3.262  0.00  0.00    -0.016 A 
ATOM      8  C8  IND d   1       3.811   3.478   4.125  0.00  0.00    -0.047 A 
ATOM      9  C9  IND d   1       3.139   3.493   5.354  0.00  0.00    -0.096 A 
ATOM     10  HN1 IND d   1       4.951   2.012   3.368  0.00  0.00     0.298 HD
ENDROOT
TORSDOF 0
ENDMDL
