MODEL 1
REMARK minimizedAffinity -4.249897
REMARK minimizedRMSD -1
REMARK  0 active torsions:
REMARK  status: ('A' for Active; 'I' for Inactive)
ROOT
ATOM      1  N1  IND d   1       3.306   5.999   3.701  0.00  0.00    -0.196 N 
ATOM      2  C2  IND d   1       4.445   5.391   3.253  0.00  0.00     0.054 A 
ATOM      3  C3  IND d   1       4.549   4.147   3.771  0.00  0.00    -0.031 A 
ATOM      4  C4  IND d   1       2.916   2.868   5.295  0.00  0.00     0.051 A 
ATOM      5  C5  IND d   1       1.755   3.022   6.000  0.00  0.00    -0.031 A 
ATOM      6  C6  IND d   1       1.036   4.199   5.971  0.00  0.00     0.015 A 
ATOM      7  C7  IND d   1       1.446   5.267   5.225  0.00  0.00    -0.016 A 
ATOM      8  C8  IND d   1       2.629   5.117   4.514  0.00  0.00    -0.047 A 
ATOM      9  C9  IND d   1       3.385   3.939   4.573  0.00  0.00    -0.096 A 
ATOM     10  HN1 IND d   1       3.054   6.799   3.508  0.00  0.00     0.298 HD
ENDROOT
TORSDOF 0
ENDMDL
