MODEL 1
REMARK minimizedAffinity 4.60516596
REMARK minimizedRMSD -1
REMARK  0 active torsions:
REMARK  status: ('A' for Active; 'I' for Inactive)
ROOT
ATOM      1  N1  IND d   1       3.397   1.993   6.000  0.00  0.00    -0.196 N 
ATOM      2  C2  IND d   1       2.937   1.172   5.008  0.00  0.00     0.054 A 
ATOM      3  C3  IND d   1       3.109   1.752   3.799  0.00  0.00    -0.031 A 
ATOM      4  C4  IND d   1       4.218   3.998   3.206  0.00  0.00     0.051 A 
ATOM      5  C5  IND d   1       4.758   5.117   3.777  0.00  0.00    -0.031 A 
ATOM      6  C6  IND d   1       4.877   5.252   5.145  0.00  0.00     0.015 A 
ATOM      7  C7  IND d   1       4.469   4.266   5.997  0.00  0.00    -0.016 A 
ATOM      8  C8  IND d   1       3.913   3.131   5.422  0.00  0.00    -0.047 A 
ATOM      9  C9  IND d   1       3.751   3.006   4.036  0.00  0.00    -0.096 A 
ATOM     10  HN1 IND d   1       3.369   1.826   6.843  0.00  0.00     0.298 HD
ENDROOT
TORSDOF 0
ENDMDL
