MODEL 1
REMARK minimizedAffinity -2.86880589
REMARK minimizedRMSD -1
REMARK  0 active torsions:
REMARK  status: ('A' for Active; 'I' for Inactive)
ROOT
ATOM      1  O1  BZF d   1       0.613  -0.777  -0.531  0.00  0.00    -0.204 OA
ATOM      2  C2  BZF d   1      -0.705  -0.811  -0.119  0.00  0.00     0.174 A 
ATOM      3  C3  BZF d   1      -0.905   0.028   0.917  0.00  0.00    -0.012 A 
ATOM      4  C3A BZF d   1       0.347   0.693   1.110  0.00  0.00    -0.107 A 
ATOM      5  C4  BZF d   1       0.776   1.653   1.981  0.00  0.00     0.055 A 
ATOM      6  C5  BZF d   1       2.081   2.034   1.954  0.00  0.00    -0.016 A 
ATOM      7  C6  BZF d   1       2.983   1.472   1.076  0.00  0.00     0.022 A 
ATOM      8  C7  BZF d   1       2.604   0.519   0.190  0.00  0.00     0.029 A 
ATOM      9  C7A BZF d   1       1.279   0.156   0.191  0.00  0.00     0.058 A 
ENDROOT
TORSDOF 0
ENDMDL
