MODEL 1
REMARK minimizedAffinity 2.07080698
REMARK minimizedRMSD -1
REMARK  0 active torsions:
REMARK  status: ('A' for Active; 'I' for Inactive)
ROOT
ATOM      1  O1  BZF d   1       2.957   0.115  -0.186  0.00  0.00    -0.204 OA
ATOM      2  C2  BZF d   1       3.951   0.682   0.588  0.00  0.00     0.174 A 
ATOM      3  C3  BZF d   1       3.420   1.419   1.585  0.00  0.00    -0.012 A 
ATOM      4  C3A BZF d   1       2.005   1.230   1.480  0.00  0.00    -0.107 A 
ATOM      5  C4  BZF d   1       0.941   1.691   2.199  0.00  0.00     0.055 A 
ATOM      6  C5  BZF d   1      -0.317   1.379   1.792  0.00  0.00    -0.016 A 
ATOM      7  C6  BZF d   1      -0.547   0.613   0.668  0.00  0.00     0.022 A 
ATOM      8  C7  BZF d   1       0.477   0.128  -0.076  0.00  0.00     0.029 A 
ATOM      9  C7A BZF d   1       1.751   0.415   0.353  0.00  0.00     0.058 A 
ENDROOT
TORSDOF 0
ENDMDL
