MODEL 1
REMARK minimizedAffinity -3.75557041
REMARK minimizedRMSD -1
REMARK  0 active torsions:
REMARK  status: ('A' for Active; 'I' for Inactive)
ROOT
ATOM      1  O1  BZF d   1      -0.142   1.577   0.795  0.00  0.00    -0.204 OA
ATOM      2  C2  BZF d   1       1.002   2.205   0.342  0.00  0.00     0.174 A 
ATOM      3  C3  BZF d   1       1.673   1.414  -0.520  0.00  0.00    -0.012 A 
ATOM      4  C3A BZF d   1       0.853   0.253  -0.681  0.00  0.00    -0.107 A 
ATOM      5  C4  BZF d   1       0.975  -0.886  -1.425  0.00  0.00     0.055 A 
ATOM      6  C5  BZF d   1       0.034  -1.859  -1.301  0.00  0.00    -0.016 A 
ATOM      7  C6  BZF d   1      -1.037  -1.728  -0.442  0.00  0.00     0.022 A 
ATOM      8  C7  BZF d   1      -1.203  -0.615   0.312  0.00  0.00     0.029 A 
ATOM      9  C7A BZF d   1      -0.272   0.384   0.166  0.00  0.00     0.058 A 
ENDROOT
TORSDOF 0
ENDMDL
