MODEL 1
REMARK minimizedAffinity -4.16648579
REMARK minimizedRMSD -1
REMARK  0 active torsions:
REMARK  status: ('A' for Active; 'I' for Inactive)
ROOT
ATOM      1  O1  BZF d   1       0.451  -0.128  -1.083  0.00  0.00    -0.204 OA
ATOM      2  C2  BZF d   1      -0.464  -1.163  -1.078  0.00  0.00     0.174 A 
ATOM      3  C3  BZF d   1      -1.067  -1.262   0.124  0.00  0.00    -0.012 A 
ATOM      4  C3A BZF d   1      -0.561  -0.165   0.891  0.00  0.00    -0.107 A 
ATOM      5  C4  BZF d   1      -0.795   0.281   2.160  0.00  0.00     0.055 A 
ATOM      6  C5  BZF d   1      -0.083   1.338   2.631  0.00  0.00    -0.016 A 
ATOM      7  C6  BZF d   1       0.874   1.969   1.863  0.00  0.00     0.022 A 
ATOM      8  C7  BZF d   1       1.138   1.565   0.596  0.00  0.00     0.029 A 
ATOM      9  C7A BZF d   1       0.397   0.518   0.106  0.00  0.00     0.058 A 
ENDROOT
TORSDOF 0
ENDMDL
