MODEL 1
REMARK minimizedAffinity -3.98049593
REMARK minimizedRMSD -1
REMARK  0 active torsions:
REMARK  status: ('A' for Active; 'I' for Inactive)
ROOT
ATOM      1  O1  BZF d   1       0.054   0.515  -1.342  0.00  0.00    -0.204 OA
ATOM      2  C2  BZF d   1      -0.376  -0.795  -1.270  0.00  0.00     0.174 A 
ATOM      3  C3  BZF d   1      -0.619  -1.149   0.009  0.00  0.00    -0.012 A 
ATOM      4  C3A BZF d   1      -0.410   0.041   0.775  0.00  0.00    -0.107 A 
ATOM      5  C4  BZF d   1      -0.512   0.331   2.105  0.00  0.00     0.055 A 
ATOM      6  C5  BZF d   1      -0.168   1.572   2.539  0.00  0.00    -0.016 A 
ATOM      7  C6  BZF d   1       0.286   2.544   1.672  0.00  0.00     0.022 A 
ATOM      8  C7  BZF d   1       0.399   2.305   0.342  0.00  0.00     0.029 A 
ATOM      9  C7A BZF d   1       0.021   1.062  -0.103  0.00  0.00     0.058 A 
ENDROOT
TORSDOF 0
ENDMDL
