MODEL 1
REMARK minimizedAffinity -5.80044842
REMARK minimizedRMSD -1
REMARK  0 active torsions:
REMARK  status: ('A' for Active; 'I' for Inactive)
ROOT
ATOM      1  O1  BZF d   1       0.372   0.423  -1.335  0.00  0.00    -0.204 OA
ATOM      2  C2  BZF d   1      -0.496  -0.647  -1.441  0.00  0.00     0.174 A 
ATOM      3  C3  BZF d   1      -0.989  -0.984  -0.231  0.00  0.00    -0.012 A 
ATOM      4  C3A BZF d   1      -0.464  -0.009   0.674  0.00  0.00    -0.107 A 
ATOM      5  C4  BZF d   1      -0.606   0.198   2.017  0.00  0.00     0.055 A 
ATOM      6  C5  BZF d   1       0.100   1.196   2.609  0.00  0.00    -0.016 A 
ATOM      7  C6  BZF d   1       0.960   2.002   1.892  0.00  0.00     0.022 A 
ATOM      8  C7  BZF d   1       1.130   1.838   0.557  0.00  0.00     0.029 A 
ATOM      9  C7A BZF d   1       0.393   0.851  -0.050  0.00  0.00     0.058 A 
ENDROOT
TORSDOF 0
ENDMDL
