MODEL 1
REMARK minimizedAffinity -3.97884417
REMARK minimizedRMSD -1
REMARK  0 active torsions:
REMARK  status: ('A' for Active; 'I' for Inactive)
ROOT
ATOM      1  O1  BZF d   1      -3.824  -3.287  -0.134  0.00  0.00    -0.204 OA
ATOM      2  C2  BZF d   1      -5.157  -3.417  -0.473  0.00  0.00     0.174 A 
ATOM      3  C3  BZF d   1      -5.429  -2.746  -1.610  0.00  0.00    -0.012 A 
ATOM      4  C3A BZF d   1      -4.169  -2.236  -2.057  0.00  0.00    -0.107 A 
ATOM      5  C4  BZF d   1      -3.785  -1.499  -3.140  0.00  0.00     0.055 A 
ATOM      6  C5  BZF d   1      -2.489  -1.104  -3.245  0.00  0.00    -0.016 A 
ATOM      7  C6  BZF d   1      -1.553  -1.423  -2.283  0.00  0.00     0.022 A 
ATOM      8  C7  BZF d   1      -1.885  -2.157  -1.193  0.00  0.00     0.029 A 
ATOM      9  C7A BZF d   1      -3.187  -2.586  -1.102  0.00  0.00     0.058 A 
ENDROOT
TORSDOF 0
ENDMDL
