MODEL 1
REMARK minimizedAffinity -5.94529486
REMARK minimizedRMSD -1
REMARK  0 active torsions:
REMARK  status: ('A' for Active; 'I' for Inactive)
ROOT
ATOM      1  O1  BZF d   1      -1.342   1.946   3.156  0.00  0.00    -0.204 OA
ATOM      2  C2  BZF d   1      -2.119   0.819   2.971  0.00  0.00     0.174 A 
ATOM      3  C3  BZF d   1      -1.664   0.090   1.932  0.00  0.00    -0.012 A 
ATOM      4  C3A BZF d   1      -0.476   0.758   1.495  0.00  0.00    -0.107 A 
ATOM      5  C4  BZF d   1       0.434   0.506   0.508  0.00  0.00     0.055 A 
ATOM      6  C5  BZF d   1       1.440   1.394   0.296  0.00  0.00    -0.016 A 
ATOM      7  C6  BZF d   1       1.564   2.544   1.046  0.00  0.00     0.022 A 
ATOM      8  C7  BZF d   1       0.688   2.835   2.040  0.00  0.00     0.029 A 
ATOM      9  C7A BZF d   1      -0.311   1.923   2.278  0.00  0.00     0.058 A 
ENDROOT
TORSDOF 0
ENDMDL
