MODEL 1
REMARK minimizedAffinity -3.8355279
REMARK minimizedRMSD -1
REMARK  0 active torsions:
REMARK  status: ('A' for Active; 'I' for Inactive)
ROOT
ATOM      1  O1  BZF d   1       0.446  -0.146  -0.606  0.00  0.00    -0.204 OA
ATOM      2  C2  BZF d   1      -0.076   0.082   0.652  0.00  0.00     0.174 A 
ATOM      3  C3  BZF d   1      -1.325  -0.418   0.749  0.00  0.00    -0.012 A 
ATOM      4  C3A BZF d   1      -1.566  -1.074  -0.499  0.00  0.00    -0.107 A 
ATOM      5  C4  BZF d   1      -2.625  -1.774  -1.003  0.00  0.00     0.055 A 
ATOM      6  C5  BZF d   1      -2.570  -2.224  -2.284  0.00  0.00    -0.016 A 
ATOM      7  C6  BZF d   1      -1.476  -1.988  -3.090  0.00  0.00     0.022 A 
ATOM      8  C7  BZF d   1      -0.399  -1.302  -2.633  0.00  0.00     0.029 A 
ATOM      9  C7A BZF d   1      -0.438  -0.875  -1.328  0.00  0.00     0.058 A 
ENDROOT
TORSDOF 0
ENDMDL
