MODEL 1
REMARK minimizedAffinity -1.34385633
REMARK minimizedRMSD -1
REMARK  0 active torsions:
REMARK  status: ('A' for Active; 'I' for Inactive)
ROOT
ATOM      1  O1  BZF d   1      -0.564   0.308  -1.156  0.00  0.00    -0.204 OA
ATOM      2  C2  BZF d   1      -0.309  -0.347   0.033  0.00  0.00     0.174 A 
ATOM      3  C3  BZF d   1      -0.932  -1.543   0.064  0.00  0.00    -0.012 A 
ATOM      4  C3A BZF d   1      -1.543  -1.682  -1.222  0.00  0.00    -0.107 A 
ATOM      5  C4  BZF d   1      -2.290  -2.665  -1.805  0.00  0.00     0.055 A 
ATOM      6  C5  BZF d   1      -2.797  -2.460  -3.049  0.00  0.00    -0.016 A 
ATOM      7  C6  BZF d   1      -2.581  -1.284  -3.736  0.00  0.00     0.022 A 
ATOM      8  C7  BZF d   1      -1.841  -0.282  -3.201  0.00  0.00     0.029 A 
ATOM      9  C7A BZF d   1      -1.300  -0.499  -1.958  0.00  0.00     0.058 A 
ENDROOT
TORSDOF 0
ENDMDL
