MODEL 1
REMARK minimizedAffinity -3.63581371
REMARK minimizedRMSD -1
REMARK  0 active torsions:
REMARK  status: ('A' for Active; 'I' for Inactive)
ROOT
ATOM      1  O1  BZF d   1       0.155  -0.292  -1.429  0.00  0.00    -0.204 OA
ATOM      2  C2  BZF d   1      -0.861  -1.191  -1.170  0.00  0.00     0.174 A 
ATOM      3  C3  BZF d   1      -1.390  -0.976   0.052  0.00  0.00    -0.012 A 
ATOM      4  C3A BZF d   1      -0.721   0.184   0.553  0.00  0.00    -0.107 A 
ATOM      5  C4  BZF d   1      -0.821   0.899   1.713  0.00  0.00     0.055 A 
ATOM      6  C5  BZF d   1       0.028   1.938   1.924  0.00  0.00    -0.016 A 
ATOM      7  C6  BZF d   1       0.993   2.287   1.001  0.00  0.00     0.022 A 
ATOM      8  C7  BZF d   1       1.127   1.611  -0.166  0.00  0.00     0.029 A 
ATOM      9  C7A BZF d   1       0.249   0.581  -0.397  0.00  0.00     0.058 A 
ENDROOT
TORSDOF 0
ENDMDL
