MODEL 1
REMARK minimizedAffinity -5.32357025
REMARK minimizedRMSD -1
REMARK  0 active torsions:
REMARK  status: ('A' for Active; 'I' for Inactive)
ROOT
ATOM      1  O1  BZF d   1       0.694   2.048   1.661  0.00  0.00    -0.204 OA
ATOM      2  C2  BZF d   1       1.722   2.497   0.854  0.00  0.00     0.174 A 
ATOM      3  C3  BZF d   1       1.932   1.645  -0.171  0.00  0.00    -0.012 A 
ATOM      4  C3A BZF d   1       0.915   0.647  -0.045  0.00  0.00    -0.107 A 
ATOM      5  C4  BZF d   1       0.591  -0.461  -0.775  0.00  0.00     0.055 A 
ATOM      6  C5  BZF d   1      -0.414  -1.267  -0.343  0.00  0.00    -0.016 A 
ATOM      7  C6  BZF d   1      -1.111  -0.999   0.817  0.00  0.00     0.022 A 
ATOM      8  C7  BZF d   1      -0.829   0.091   1.572  0.00  0.00     0.029 A 
ATOM      9  C7A BZF d   1       0.164   0.925   1.120  0.00  0.00     0.058 A 
ENDROOT
TORSDOF 0
ENDMDL
