MODEL 1
REMARK minimizedAffinity -4.17053032
REMARK minimizedRMSD -1
REMARK  0 active torsions:
REMARK  status: ('A' for Active; 'I' for Inactive)
ROOT
ATOM      1  O1  BZF d   1       1.090  -0.776  -0.619  0.00  0.00    -0.204 OA
ATOM      2  C2  BZF d   1      -0.288  -0.728  -0.535  0.00  0.00     0.174 A 
ATOM      3  C3  BZF d   1      -0.688   0.367   0.143  0.00  0.00    -0.012 A 
ATOM      4  C3A BZF d   1       0.511   1.094   0.425  0.00  0.00    -0.107 A 
ATOM      5  C4  BZF d   1       0.766   2.275   1.061  0.00  0.00     0.055 A 
ATOM      6  C5  BZF d   1       2.055   2.669   1.232  0.00  0.00    -0.016 A 
ATOM      7  C6  BZF d   1       3.113   1.904   0.787  0.00  0.00     0.022 A 
ATOM      8  C7  BZF d   1       2.910   0.727   0.146  0.00  0.00     0.029 A 
ATOM      9  C7A BZF d   1       1.608   0.343  -0.058  0.00  0.00     0.058 A 
ENDROOT
TORSDOF 0
ENDMDL
