MODEL 1
REMARK minimizedAffinity -3.74667072
REMARK minimizedRMSD -1
REMARK  0 active torsions:
REMARK  status: ('A' for Active; 'I' for Inactive)
ROOT
ATOM      1  O1  BZF d   1       2.377   0.751  -0.530  0.00  0.00    -0.204 OA
ATOM      2  C2  BZF d   1       3.385   1.477   0.073  0.00  0.00     0.174 A 
ATOM      3  C3  BZF d   1       2.905   2.192   1.111  0.00  0.00    -0.012 A 
ATOM      4  C3A BZF d   1       1.527   1.823   1.216  0.00  0.00    -0.107 A 
ATOM      5  C4  BZF d   1       0.521   2.185   2.066  0.00  0.00     0.055 A 
ATOM      6  C5  BZF d   1      -0.730   1.698   1.853  0.00  0.00    -0.016 A 
ATOM      7  C6  BZF d   1      -1.011   0.852   0.800  0.00  0.00     0.022 A 
ATOM      8  C7  BZF d   1      -0.044   0.462  -0.066  0.00  0.00     0.029 A 
ATOM      9  C7A BZF d   1       1.227   0.926   0.165  0.00  0.00     0.058 A 
ENDROOT
TORSDOF 0
ENDMDL
