MODEL 1
REMARK minimizedAffinity -6.48229742
REMARK minimizedRMSD -1
REMARK  0 active torsions:
REMARK  status: ('A' for Active; 'I' for Inactive)
ROOT
ATOM      1  O1  BZF d   1       0.786  -1.105  -0.379  0.00  0.00    -0.204 OA
ATOM      2  C2  BZF d   1      -0.489  -1.105   0.151  0.00  0.00     0.174 A 
ATOM      3  C3  BZF d   1      -0.709   0.015   0.869  0.00  0.00    -0.012 A 
ATOM      4  C3A BZF d   1       0.473   0.805   0.706  0.00  0.00    -0.107 A 
ATOM      5  C4  BZF d   1       0.852   2.034   1.165  0.00  0.00     0.055 A 
ATOM      6  C5  BZF d   1       2.102   2.487   0.884  0.00  0.00    -0.016 A 
ATOM      7  C6  BZF d   1       2.999   1.737   0.153  0.00  0.00     0.022 A 
ATOM      8  C7  BZF d   1       2.667   0.514  -0.329  0.00  0.00     0.029 A 
ATOM      9  C7A BZF d   1       1.393   0.067  -0.074  0.00  0.00     0.058 A 
ENDROOT
TORSDOF 0
ENDMDL
