MODEL 1
REMARK minimizedAffinity 0.831518173
REMARK minimizedRMSD -1
REMARK  0 active torsions:
REMARK  status: ('A' for Active; 'I' for Inactive)
ROOT
ATOM      1  O1  BZF d   1       0.461  -0.167  -2.014  0.00  0.00    -0.204 OA
ATOM      2  C2  BZF d   1       0.653  -0.483  -0.683  0.00  0.00     0.174 A 
ATOM      3  C3  BZF d   1      -0.444  -1.074  -0.168  0.00  0.00    -0.012 A 
ATOM      4  C3A BZF d   1      -1.348  -1.214  -1.269  0.00  0.00    -0.107 A 
ATOM      5  C4  BZF d   1      -2.600  -1.743  -1.394  0.00  0.00     0.055 A 
ATOM      6  C5  BZF d   1      -3.237  -1.657  -2.592  0.00  0.00    -0.016 A 
ATOM      7  C6  BZF d   1      -2.654  -1.046  -3.682  0.00  0.00     0.022 A 
ATOM      8  C7  BZF d   1      -1.410  -0.512  -3.608  0.00  0.00     0.029 A 
ATOM      9  C7A BZF d   1      -0.751  -0.626  -2.408  0.00  0.00     0.058 A 
ENDROOT
TORSDOF 0
ENDMDL
