MODEL 1
REMARK minimizedAffinity -3.20685577
REMARK minimizedRMSD -1
REMARK  0 active torsions:
REMARK  status: ('A' for Active; 'I' for Inactive)
ROOT
ATOM      1  O1  BZF d   1       1.746  -1.524  -1.101  0.00  0.00    -0.204 OA
ATOM      2  C2  BZF d   1       0.625  -2.289  -0.844  0.00  0.00     0.174 A 
ATOM      3  C3  BZF d   1      -0.282  -1.586  -0.135  0.00  0.00    -0.012 A 
ATOM      4  C3A BZF d   1       0.272  -0.272  -0.015  0.00  0.00    -0.107 A 
ATOM      5  C4  BZF d   1      -0.167   0.882   0.569  0.00  0.00     0.055 A 
ATOM      6  C5  BZF d   1       0.645   1.972   0.572  0.00  0.00    -0.016 A 
ATOM      7  C6  BZF d   1       1.903   1.941   0.006  0.00  0.00     0.022 A 
ATOM      8  C7  BZF d   1       2.380   0.821  -0.590  0.00  0.00     0.029 A 
ATOM      9  C7A BZF d   1       1.548  -0.272  -0.624  0.00  0.00     0.058 A 
ENDROOT
TORSDOF 0
ENDMDL
