MODEL 1
REMARK minimizedAffinity -3.29509401
REMARK minimizedRMSD -1
REMARK  0 active torsions:
REMARK  status: ('A' for Active; 'I' for Inactive)
ROOT
ATOM      1  O1  BZF d   1      -0.170  -0.724   0.579  0.00  0.00    -0.204 OA
ATOM      2  C2  BZF d   1       0.395  -1.191  -0.592  0.00  0.00     0.174 A 
ATOM      3  C3  BZF d   1       1.176  -0.247  -1.155  0.00  0.00    -0.012 A 
ATOM      4  C3A BZF d   1       1.167   0.849  -0.235  0.00  0.00    -0.107 A 
ATOM      5  C4  BZF d   1       1.770   2.074  -0.227  0.00  0.00     0.055 A 
ATOM      6  C5  BZF d   1       1.496   2.938   0.785  0.00  0.00    -0.016 A 
ATOM      7  C6  BZF d   1       0.623   2.612   1.802  0.00  0.00     0.022 A 
ATOM      8  C7  BZF d   1       0.005   1.407   1.840  0.00  0.00     0.029 A 
ATOM      9  C7A BZF d   1       0.304   0.519   0.836  0.00  0.00     0.058 A 
ENDROOT
TORSDOF 0
ENDMDL
