MODEL 1
REMARK minimizedAffinity -2.56675601
REMARK minimizedRMSD -1
REMARK  0 active torsions:
REMARK  status: ('A' for Active; 'I' for Inactive)
ROOT
ATOM      1  O1  BZF d   1      -1.030  -0.790   0.098  0.00  0.00    -0.204 OA
ATOM      2  C2  BZF d   1      -0.236  -0.825  -1.032  0.00  0.00     0.174 A 
ATOM      3  C3  BZF d   1       0.682   0.162  -1.002  0.00  0.00    -0.012 A 
ATOM      4  C3A BZF d   1       0.507   0.801   0.266  0.00  0.00    -0.107 A 
ATOM      5  C4  BZF d   1       1.135   1.843   0.887  0.00  0.00     0.055 A 
ATOM      6  C5  BZF d   1       0.674   2.267   2.093  0.00  0.00    -0.016 A 
ATOM      7  C6  BZF d   1      -0.414   1.677   2.703  0.00  0.00     0.022 A 
ATOM      8  C7  BZF d   1      -1.066   0.637   2.128  0.00  0.00     0.029 A 
ATOM      9  C7A BZF d   1      -0.582   0.185   0.925  0.00  0.00     0.058 A 
ENDROOT
TORSDOF 0
ENDMDL
