MODEL 1
REMARK minimizedAffinity 5.47108459
REMARK minimizedRMSD -1
REMARK  3 active torsions:
REMARK  status: ('A' for Active; 'I' for Inactive)
REMARK    1  A    between atoms: C3'_2  and  C2'_3 
REMARK    2  A    between atoms: C2'_3  and  C1'_4 
REMARK    3  A    between atoms: C1'_4  and  C1_5 
ROOT
ATOM      1  C1  N4B d   1       0.217   4.543  -1.153  0.00  0.00    -0.075 A 
ATOM      2  C2  N4B d   1      -0.998   3.824  -1.175  0.00  0.00     0.002 A 
ATOM      3  C3  N4B d   1      -1.124   2.669  -0.443  0.00  0.00     0.002 A 
ATOM      4  C4  N4B d   1      -0.048   2.206   0.300  0.00  0.00    -0.004 A 
ATOM      5  C5  N4B d   1       1.113   2.920   0.335  0.00  0.00     0.002 A 
ATOM      6  C6  N4B d   1       1.253   4.085  -0.392  0.00  0.00     0.002 A 
ENDROOT
BRANCH   1   7
ATOM      7  C1' N4B d   1       0.432   5.765  -2.004  0.00  0.00     0.057 C 
BRANCH   7   8
ATOM      8  C2' N4B d   1      -0.693   5.864  -3.031  0.00  0.00     0.009 C 
BRANCH   8   9
ATOM      9  C3' N4B d   1      -0.160   5.998  -4.447  0.00  0.00     0.004 C 
ATOM     10  C4' N4B d   1       1.339   5.992  -4.506  0.00  0.00     0.003 C 
ENDBRANCH   8   9
ENDBRANCH   7   8
ENDBRANCH   1   7
TORSDOF 3
ENDMDL
