MODEL 1
REMARK minimizedAffinity 7.68398094
REMARK minimizedRMSD -1
REMARK  3 active torsions:
REMARK  status: ('A' for Active; 'I' for Inactive)
REMARK    1  A    between atoms: C3'_2  and  C2'_3 
REMARK    2  A    between atoms: C2'_3  and  C1'_4 
REMARK    3  A    between atoms: C1'_4  and  C1_5 
ROOT
ATOM      1  C1  N4B d   1       0.085   5.019  -0.608  0.00  0.00    -0.075 A 
ATOM      2  C2  N4B d   1      -0.393   5.001  -1.936  0.00  0.00     0.002 A 
ATOM      3  C3  N4B d   1      -1.649   5.477  -2.221  0.00  0.00     0.002 A 
ATOM      4  C4  N4B d   1      -2.450   5.957  -1.195  0.00  0.00    -0.004 A 
ATOM      5  C5  N4B d   1      -1.971   5.995   0.082  0.00  0.00     0.002 A 
ATOM      6  C6  N4B d   1      -0.709   5.523   0.382  0.00  0.00     0.002 A 
ENDROOT
BRANCH   1   7
ATOM      7  C1' N4B d   1       1.418   4.430  -0.235  0.00  0.00     0.057 C 
BRANCH   7   8
ATOM      8  C2' N4B d   1       1.198   3.247   0.703  0.00  0.00     0.009 C 
BRANCH   8   9
ATOM      9  C3' N4B d   1      -0.141   2.571   0.460  0.00  0.00     0.004 C 
ATOM     10  C4' N4B d   1      -0.913   2.341   1.725  0.00  0.00     0.003 C 
ENDBRANCH   8   9
ENDBRANCH   7   8
ENDBRANCH   1   7
TORSDOF 3
ENDMDL
