MODEL 1
REMARK minimizedAffinity 17.2451725
REMARK minimizedRMSD -1
REMARK  3 active torsions:
REMARK  status: ('A' for Active; 'I' for Inactive)
REMARK    1  A    between atoms: C3'_2  and  C2'_3 
REMARK    2  A    between atoms: C2'_3  and  C1'_4 
REMARK    3  A    between atoms: C1'_4  and  C1_5 
ROOT
ATOM      1  C1  N4B d   1       0.513   0.607   3.600  0.00  0.00    -0.075 A 
ATOM      2  C2  N4B d   1      -0.173  -0.065   4.636  0.00  0.00     0.002 A 
ATOM      3  C3  N4B d   1       0.300  -1.267   5.104  0.00  0.00     0.002 A 
ATOM      4  C4  N4B d   1       1.439  -1.822   4.541  0.00  0.00    -0.004 A 
ATOM      5  C5  N4B d   1       2.110  -1.154   3.559  0.00  0.00     0.002 A 
ATOM      6  C6  N4B d   1       1.649   0.057   3.081  0.00  0.00     0.002 A 
ENDROOT
BRANCH   1   7
ATOM      7  C1' N4B d   1      -0.013   1.881   2.996  0.00  0.00     0.057 C 
BRANCH   7   8
ATOM      8  C2' N4B d   1       0.865   2.274   1.812  0.00  0.00     0.009 C 
BRANCH   8   9
ATOM      9  C3' N4B d   1       0.052   2.484   0.547  0.00  0.00     0.004 C 
ATOM     10  C4' N4B d   1       0.436   3.733  -0.189  0.00  0.00     0.003 C 
ENDBRANCH   8   9
ENDBRANCH   7   8
ENDBRANCH   1   7
TORSDOF 3
ENDMDL
