MODEL 1
REMARK minimizedAffinity -3.48531985
REMARK minimizedRMSD -1
REMARK  3 active torsions:
REMARK  status: ('A' for Active; 'I' for Inactive)
REMARK    1  A    between atoms: C3'_2  and  C2'_3 
REMARK    2  A    between atoms: C2'_3  and  C1'_4 
REMARK    3  A    between atoms: C1'_4  and  C1_5 
ROOT
ATOM      1  C1  N4B d   1      -0.434  -0.433  -0.424  0.00  0.00    -0.075 A 
ATOM      2  C2  N4B d   1      -1.649  -0.411  -1.143  0.00  0.00     0.002 A 
ATOM      3  C3  N4B d   1      -2.798  -0.892  -0.565  0.00  0.00     0.002 A 
ATOM      4  C4  N4B d   1      -2.752  -1.416   0.719  0.00  0.00    -0.004 A 
ATOM      5  C5  N4B d   1      -1.580  -1.410   1.416  0.00  0.00     0.002 A 
ATOM      6  C6  N4B d   1      -0.418  -0.926   0.849  0.00  0.00     0.002 A 
ENDROOT
BRANCH   1   7
ATOM      7  C1' N4B d   1       0.865   0.002  -1.046  0.00  0.00     0.057 C 
BRANCH   7   8
ATOM      8  C2' N4B d   1       1.076  -0.760  -2.351  0.00  0.00     0.009 C 
BRANCH   8   9
ATOM      9  C3' N4B d   1       2.527  -0.728  -2.799  0.00  0.00     0.004 C 
ATOM     10  C4' N4B d   1       2.676  -0.792  -4.290  0.00  0.00     0.003 C 
ENDBRANCH   8   9
ENDBRANCH   7   8
ENDBRANCH   1   7
TORSDOF 3
ENDMDL
