MODEL 1
REMARK minimizedAffinity -4.25833178
REMARK minimizedRMSD -1
REMARK  3 active torsions:
REMARK  status: ('A' for Active; 'I' for Inactive)
REMARK    1  A    between atoms: C3'_2  and  C2'_3 
REMARK    2  A    between atoms: C2'_3  and  C1'_4 
REMARK    3  A    between atoms: C1'_4  and  C1_5 
ROOT
ATOM      1  C1  N4B d   1       1.932   1.097   1.273  0.00  0.00    -0.075 A 
ATOM      2  C2  N4B d   1       1.202   2.265   0.963  0.00  0.00     0.002 A 
ATOM      3  C3  N4B d   1       1.328   3.383   1.751  0.00  0.00     0.002 A 
ATOM      4  C4  N4B d   1       2.160   3.350   2.860  0.00  0.00    -0.004 A 
ATOM      5  C5  N4B d   1       2.881   2.225   3.138  0.00  0.00     0.002 A 
ATOM      6  C6  N4B d   1       2.767   1.096   2.352  0.00  0.00     0.002 A 
ENDROOT
BRANCH   1   7
ATOM      7  C1' N4B d   1       1.761  -0.177   0.491  0.00  0.00     0.057 C 
BRANCH   7   8
ATOM      8  C2' N4B d   1       0.661  -1.016   1.135  0.00  0.00     0.009 C 
BRANCH   8   9
ATOM      9  C3' N4B d   1      -0.687  -0.792   0.470  0.00  0.00     0.004 C 
ATOM     10  C4' N4B d   1      -1.808  -0.666   1.458  0.00  0.00     0.003 C 
ENDBRANCH   8   9
ENDBRANCH   7   8
ENDBRANCH   1   7
TORSDOF 3
ENDMDL
