MODEL 1
REMARK minimizedAffinity -0.776485443
REMARK minimizedRMSD -1
REMARK  3 active torsions:
REMARK  status: ('A' for Active; 'I' for Inactive)
REMARK    1  A    between atoms: C3'_2  and  C2'_3 
REMARK    2  A    between atoms: C2'_3  and  C1'_4 
REMARK    3  A    between atoms: C1'_4  and  C1_5 
ROOT
ATOM      1  C1  N4B d   1       1.370   1.987   1.177  0.00  0.00    -0.075 A 
ATOM      2  C2  N4B d   1       1.740   2.995   0.260  0.00  0.00     0.002 A 
ATOM      3  C3  N4B d   1       2.642   3.962   0.630  0.00  0.00     0.002 A 
ATOM      4  C4  N4B d   1       3.170   3.953   1.912  0.00  0.00    -0.004 A 
ATOM      5  C5  N4B d   1       2.827   2.961   2.784  0.00  0.00     0.002 A 
ATOM      6  C6  N4B d   1       1.925   1.980   2.424  0.00  0.00     0.002 A 
ENDROOT
BRANCH   1   7
ATOM      7  C1' N4B d   1       0.323   0.958   0.847  0.00  0.00     0.057 C 
BRANCH   7   8
ATOM      8  C2' N4B d   1       1.003  -0.384   0.591  0.00  0.00     0.009 C 
BRANCH   8   9
ATOM      9  C3' N4B d   1       0.558  -1.444   1.584  0.00  0.00     0.004 C 
ATOM     10  C4' N4B d   1      -0.876  -1.846   1.401  0.00  0.00     0.003 C 
ENDBRANCH   8   9
ENDBRANCH   7   8
ENDBRANCH   1   7
TORSDOF 3
ENDMDL
