MODEL 1
REMARK minimizedAffinity -4.2159071
REMARK minimizedRMSD -1
REMARK  3 active torsions:
REMARK  status: ('A' for Active; 'I' for Inactive)
REMARK    1  A    between atoms: C3'_2  and  C2'_3 
REMARK    2  A    between atoms: C2'_3  and  C1'_4 
REMARK    3  A    between atoms: C1'_4  and  C1_5 
ROOT
ATOM      1  C1  N4B d   1       0.321   0.090  -1.830  0.00  0.00    -0.075 A 
ATOM      2  C2  N4B d   1       1.303   0.076  -0.815  0.00  0.00     0.002 A 
ATOM      3  C3  N4B d   1       2.609  -0.213  -1.127  0.00  0.00     0.002 A 
ATOM      4  C4  N4B d   1       2.952  -0.509  -2.438  0.00  0.00    -0.004 A 
ATOM      5  C5  N4B d   1       2.002  -0.468  -3.417  0.00  0.00     0.002 A 
ATOM      6  C6  N4B d   1       0.686  -0.175  -3.118  0.00  0.00     0.002 A 
ENDROOT
BRANCH   1   7
ATOM      7  C1' N4B d   1      -1.134   0.316  -1.524  0.00  0.00     0.057 C 
BRANCH   7   8
ATOM      8  C2' N4B d   1      -1.491  -0.406  -0.228  0.00  0.00     0.009 C 
BRANCH   8   9
ATOM      9  C3' N4B d   1      -2.993  -0.483  -0.016  0.00  0.00     0.004 C 
ATOM     10  C4' N4B d   1      -3.706  -1.155  -1.151  0.00  0.00     0.003 C 
ENDBRANCH   8   9
ENDBRANCH   7   8
ENDBRANCH   1   7
TORSDOF 3
ENDMDL
