MODEL 1
REMARK minimizedAffinity -6.52249241
REMARK minimizedRMSD -1
REMARK  3 active torsions:
REMARK  status: ('A' for Active; 'I' for Inactive)
REMARK    1  A    between atoms: C3'_2  and  C2'_3 
REMARK    2  A    between atoms: C2'_3  and  C1'_4 
REMARK    3  A    between atoms: C1'_4  and  C1_5 
ROOT
ATOM      1  C1  N4B d   1       0.933  -0.034  -2.154  0.00  0.00    -0.075 A 
ATOM      2  C2  N4B d   1       1.972  -0.677  -2.862  0.00  0.00     0.002 A 
ATOM      3  C3  N4B d   1       1.993  -0.640  -4.235  0.00  0.00     0.002 A 
ATOM      4  C4  N4B d   1       0.981   0.016  -4.919  0.00  0.00    -0.004 A 
ATOM      5  C5  N4B d   1      -0.006   0.656  -4.227  0.00  0.00     0.002 A 
ATOM      6  C6  N4B d   1      -0.038   0.630  -2.847  0.00  0.00     0.002 A 
ENDROOT
BRANCH   1   7
ATOM      7  C1' N4B d   1       0.820  -0.120  -0.657  0.00  0.00     0.057 C 
BRANCH   7   8
ATOM      8  C2' N4B d   1      -0.600   0.249  -0.240  0.00  0.00     0.009 C 
BRANCH   8   9
ATOM      9  C3' N4B d   1      -1.275  -0.870   0.534  0.00  0.00     0.004 C 
ATOM     10  C4' N4B d   1      -2.731  -1.010   0.204  0.00  0.00     0.003 C 
ENDBRANCH   8   9
ENDBRANCH   7   8
ENDBRANCH   1   7
TORSDOF 3
ENDMDL
