MODEL 1
REMARK minimizedAffinity -2.89204907
REMARK minimizedRMSD -1
REMARK  3 active torsions:
REMARK  status: ('A' for Active; 'I' for Inactive)
REMARK    1  A    between atoms: C3'_2  and  C2'_3 
REMARK    2  A    between atoms: C2'_3  and  C1'_4 
REMARK    3  A    between atoms: C1'_4  and  C1_5 
ROOT
ATOM      1  C1  N4B d   1       1.054  -0.168  -0.820  0.00  0.00    -0.075 A 
ATOM      2  C2  N4B d   1      -0.315   0.009  -1.122  0.00  0.00     0.002 A 
ATOM      3  C3  N4B d   1      -1.273  -0.379  -0.218  0.00  0.00     0.002 A 
ATOM      4  C4  N4B d   1      -0.889  -0.960   0.981  0.00  0.00    -0.004 A 
ATOM      5  C5  N4B d   1       0.436  -1.103   1.276  0.00  0.00     0.002 A 
ATOM      6  C6  N4B d   1       1.409  -0.715   0.378  0.00  0.00     0.002 A 
ENDROOT
BRANCH   1   7
ATOM      7  C1' N4B d   1       2.135   0.162  -1.813  0.00  0.00     0.057 C 
BRANCH   7   8
ATOM      8  C2' N4B d   1       2.446  -1.079  -2.645  0.00  0.00     0.009 C 
BRANCH   8   9
ATOM      9  C3' N4B d   1       3.091  -0.725  -3.974  0.00  0.00     0.004 C 
ATOM     10  C4' N4B d   1       2.129  -0.099  -4.939  0.00  0.00     0.003 C 
ENDBRANCH   8   9
ENDBRANCH   7   8
ENDBRANCH   1   7
TORSDOF 3
ENDMDL
