MODEL 1
REMARK minimizedAffinity -5.99472427
REMARK minimizedRMSD -1
REMARK  3 active torsions:
REMARK  status: ('A' for Active; 'I' for Inactive)
REMARK    1  A    between atoms: C3'_2  and  C2'_3 
REMARK    2  A    between atoms: C2'_3  and  C1'_4 
REMARK    3  A    between atoms: C1'_4  and  C1_5 
ROOT
ATOM      1  C1  N4B d   1      -0.703   0.070  -1.205  0.00  0.00    -0.075 A 
ATOM      2  C2  N4B d   1      -1.854  -0.681  -1.529  0.00  0.00     0.002 A 
ATOM      3  C3  N4B d   1      -2.828  -0.886  -0.583  0.00  0.00     0.002 A 
ATOM      4  C4  N4B d   1      -2.665  -0.367   0.693  0.00  0.00    -0.004 A 
ATOM      5  C5  N4B d   1      -1.562   0.379   0.990  0.00  0.00     0.002 A 
ATOM      6  C6  N4B d   1      -0.577   0.596   0.048  0.00  0.00     0.002 A 
ENDROOT
BRANCH   1   7
ATOM      7  C1' N4B d   1       0.429   0.247  -2.180  0.00  0.00     0.057 C 
BRANCH   7   8
ATOM      8  C2' N4B d   1       1.753   0.002  -1.461  0.00  0.00     0.009 C 
BRANCH   8   9
ATOM      9  C3' N4B d   1       2.795  -0.610  -2.382  0.00  0.00     0.004 C 
ATOM     10  C4' N4B d   1       2.235  -0.993  -3.719  0.00  0.00     0.003 C 
ENDBRANCH   8   9
ENDBRANCH   7   8
ENDBRANCH   1   7
TORSDOF 3
ENDMDL
