MODEL 1
REMARK minimizedAffinity -4.62175608
REMARK minimizedRMSD -1
REMARK  3 active torsions:
REMARK  status: ('A' for Active; 'I' for Inactive)
REMARK    1  A    between atoms: C3'_2  and  C2'_3 
REMARK    2  A    between atoms: C2'_3  and  C1'_4 
REMARK    3  A    between atoms: C1'_4  and  C1_5 
ROOT
ATOM      1  C1  N4B d   1      -0.981  -0.298  -1.197  0.00  0.00    -0.075 A 
ATOM      2  C2  N4B d   1      -2.154  -0.922  -1.674  0.00  0.00     0.002 A 
ATOM      3  C3  N4B d   1      -3.120  -1.336  -0.790  0.00  0.00     0.002 A 
ATOM      4  C4  N4B d   1      -2.928  -1.152   0.571  0.00  0.00    -0.004 A 
ATOM      5  C5  N4B d   1      -1.804  -0.525   1.022  0.00  0.00     0.002 A 
ATOM      6  C6  N4B d   1      -0.826  -0.101   0.145  0.00  0.00     0.002 A 
ENDROOT
BRANCH   1   7
ATOM      7  C1' N4B d   1       0.141   0.094  -2.119  0.00  0.00     0.057 C 
BRANCH   7   8
ATOM      8  C2' N4B d   1       1.474  -0.218  -1.445  0.00  0.00     0.009 C 
BRANCH   8   9
ATOM      9  C3' N4B d   1       2.502  -0.742  -2.433  0.00  0.00     0.004 C 
ATOM     10  C4' N4B d   1       1.975  -0.814  -3.836  0.00  0.00     0.003 C 
ENDBRANCH   8   9
ENDBRANCH   7   8
ENDBRANCH   1   7
TORSDOF 3
ENDMDL
