MODEL 1
REMARK minimizedAffinity -4.76749897
REMARK minimizedRMSD -1
REMARK  3 active torsions:
REMARK  status: ('A' for Active; 'I' for Inactive)
REMARK    1  A    between atoms: C3'_2  and  C2'_3 
REMARK    2  A    between atoms: C2'_3  and  C1'_4 
REMARK    3  A    between atoms: C1'_4  and  C1_5 
ROOT
ATOM      1  C1  N4B d   1      -0.430  -0.449   0.358  0.00  0.00    -0.075 A 
ATOM      2  C2  N4B d   1      -0.341  -1.431   1.369  0.00  0.00     0.002 A 
ATOM      3  C3  N4B d   1      -1.420  -2.236   1.641  0.00  0.00     0.002 A 
ATOM      4  C4  N4B d   1      -2.600  -2.065   0.932  0.00  0.00    -0.004 A 
ATOM      5  C5  N4B d   1      -2.669  -1.131  -0.060  0.00  0.00     0.002 A 
ATOM      6  C6  N4B d   1      -1.591  -0.318  -0.348  0.00  0.00     0.002 A 
ENDROOT
BRANCH   1   7
ATOM      7  C1' N4B d   1       0.695   0.511   0.083  0.00  0.00     0.057 C 
BRANCH   7   8
ATOM      8  C2' N4B d   1       1.207   1.074   1.405  0.00  0.00     0.009 C 
BRANCH   8   9
ATOM      9  C3' N4B d   1       2.008   2.350   1.207  0.00  0.00     0.004 C 
ATOM     10  C4' N4B d   1       1.965   3.254   2.402  0.00  0.00     0.003 C 
ENDBRANCH   8   9
ENDBRANCH   7   8
ENDBRANCH   1   7
TORSDOF 3
ENDMDL
