MODEL 1
REMARK minimizedAffinity -2.79606223
REMARK minimizedRMSD -1
REMARK  0 active torsions:
REMARK  status: ('A' for Active; 'I' for Inactive)
ROOT
ATOM      1  C1  DEN d   1       0.669   1.167   2.304  0.00  0.00     0.130 A 
ATOM      2  C2  DEN d   1      -0.653   1.716   2.591  0.00  0.00    -0.031 A 
ATOM      3  C3  DEN d   1      -1.571   1.279   1.520  0.00  0.00     0.027 A 
ATOM      4  C4  DEN d   1      -1.077  -0.190  -0.542  0.00  0.00     0.027 A 
ATOM      5  C5  DEN d   1      -0.097  -0.883  -1.218  0.00  0.00    -0.003 A 
ATOM      6  C6  DEN d   1       1.204  -0.912  -0.790  0.00  0.00     0.001 A 
ATOM      7  C7  DEN d   1       1.551  -0.273   0.372  0.00  0.00     0.017 A 
ATOM      8  C8  DEN d   1       0.570   0.433   1.055  0.00  0.00    -0.094 A 
ATOM      9  C9  DEN d   1      -0.742   0.440   0.612  0.00  0.00    -0.072 A 
ENDROOT
TORSDOF 0
ENDMDL
