MODEL 1
REMARK minimizedAffinity -2.89082885
REMARK minimizedRMSD -1
REMARK  0 active torsions:
REMARK  status: ('A' for Active; 'I' for Inactive)
ROOT
ATOM      1  C1  DEN d   1      -0.804  -1.053  -0.179  0.00  0.00     0.130 A 
ATOM      2  C2  DEN d   1       0.121  -0.557  -1.195  0.00  0.00    -0.031 A 
ATOM      3  C3  DEN d   1       0.603   0.771  -0.763  0.00  0.00     0.027 A 
ATOM      4  C4  DEN d   1       0.014   2.096   1.369  0.00  0.00     0.027 A 
ATOM      5  C5  DEN d   1      -0.735   2.089   2.525  0.00  0.00    -0.003 A 
ATOM      6  C6  DEN d   1      -1.579   1.057   2.841  0.00  0.00     0.001 A 
ATOM      7  C7  DEN d   1      -1.660  -0.032   2.013  0.00  0.00     0.017 A 
ATOM      8  C8  DEN d   1      -0.913  -0.028   0.843  0.00  0.00    -0.094 A 
ATOM      9  C9  DEN d   1      -0.056   1.019   0.547  0.00  0.00    -0.072 A 
ENDROOT
TORSDOF 0
ENDMDL
