MODEL 1
REMARK minimizedAffinity -4.20245409
REMARK minimizedRMSD -1
REMARK  0 active torsions:
REMARK  status: ('A' for Active; 'I' for Inactive)
ROOT
ATOM      1  C1  DEN d   1       0.321   1.262   2.299  0.00  0.00     0.130 A 
ATOM      2  C2  DEN d   1      -1.058   1.681   2.533  0.00  0.00    -0.031 A 
ATOM      3  C3  DEN d   1      -1.904   1.071   1.487  0.00  0.00     0.027 A 
ATOM      4  C4  DEN d   1      -1.216  -0.478  -0.458  0.00  0.00     0.027 A 
ATOM      5  C5  DEN d   1      -0.154  -1.104  -1.072  0.00  0.00    -0.003 A 
ATOM      6  C6  DEN d   1       1.134  -0.959  -0.630  0.00  0.00     0.001 A 
ATOM      7  C7  DEN d   1       1.388  -0.206   0.485  0.00  0.00     0.017 A 
ATOM      8  C8  DEN d   1       0.324   0.435   1.106  0.00  0.00    -0.094 A 
ATOM      9  C9  DEN d   1      -0.973   0.266   0.651  0.00  0.00    -0.072 A 
ENDROOT
TORSDOF 0
ENDMDL
