MODEL 1
REMARK minimizedAffinity -1.16020298
REMARK minimizedRMSD -1
REMARK  0 active torsions:
REMARK  status: ('A' for Active; 'I' for Inactive)
ROOT
ATOM      1  C1  DEN d   1      -1.751   1.142   1.671  0.00  0.00     0.130 A 
ATOM      2  C2  DEN d   1      -0.789   1.693   2.622  0.00  0.00    -0.031 A 
ATOM      3  C3  DEN d   1       0.567   1.344   2.153  0.00  0.00     0.027 A 
ATOM      4  C4  DEN d   1       1.268   0.017   0.056  0.00  0.00     0.027 A 
ATOM      5  C5  DEN d   1       0.805  -0.663  -1.049  0.00  0.00    -0.003 A 
ATOM      6  C6  DEN d   1      -0.532  -0.817  -1.304  0.00  0.00     0.001 A 
ATOM      7  C7  DEN d   1      -1.453  -0.245  -0.468  0.00  0.00     0.017 A 
ATOM      8  C8  DEN d   1      -0.994   0.436   0.652  0.00  0.00    -0.094 A 
ATOM      9  C9  DEN d   1       0.362   0.591   0.887  0.00  0.00    -0.072 A 
ENDROOT
TORSDOF 0
ENDMDL
