MODEL 1
REMARK minimizedAffinity -4.1212182
REMARK minimizedRMSD -1
REMARK  0 active torsions:
REMARK  status: ('A' for Active; 'I' for Inactive)
ROOT
ATOM      1  C1  DEN d   1       1.332   1.130  -0.457  0.00  0.00     0.130 A 
ATOM      2  C2  DEN d   1       1.036   0.134  -1.483  0.00  0.00    -0.031 A 
ATOM      3  C3  DEN d   1      -0.243  -0.516  -1.133  0.00  0.00     0.027 A 
ATOM      4  C4  DEN d   1      -1.788  -0.075   0.885  0.00  0.00     0.027 A 
ATOM      5  C5  DEN d   1      -1.951   0.669   2.033  0.00  0.00    -0.003 A 
ATOM      6  C6  DEN d   1      -1.023   1.587   2.446  0.00  0.00     0.001 A 
ATOM      7  C7  DEN d   1       0.090   1.817   1.681  0.00  0.00     0.017 A 
ATOM      8  C8  DEN d   1       0.265   1.066   0.527  0.00  0.00    -0.094 A 
ATOM      9  C9  DEN d   1      -0.691   0.151   0.120  0.00  0.00    -0.072 A 
ENDROOT
TORSDOF 0
ENDMDL
