MODEL 1
REMARK minimizedAffinity -4.06621408
REMARK minimizedRMSD -1
REMARK  0 active torsions:
REMARK  status: ('A' for Active; 'I' for Inactive)
ROOT
ATOM      1  C1  DEN d   1       0.108   1.476  -1.542  0.00  0.00     0.130 A 
ATOM      2  C2  DEN d   1       0.436   0.081  -1.824  0.00  0.00    -0.031 A 
ATOM      3  C3  DEN d   1       0.016  -0.730  -0.664  0.00  0.00     0.027 A 
ATOM      4  C4  DEN d   1      -1.108   0.033   1.528  0.00  0.00     0.027 A 
ATOM      5  C5  DEN d   1      -1.574   1.123   2.231  0.00  0.00    -0.003 A 
ATOM      6  C6  DEN d   1      -1.482   2.400   1.744  0.00  0.00     0.001 A 
ATOM      7  C7  DEN d   1      -0.951   2.614   0.499  0.00  0.00     0.017 A 
ATOM      8  C8  DEN d   1      -0.472   1.522  -0.212  0.00  0.00    -0.094 A 
ATOM      9  C9  DEN d   1      -0.586   0.237   0.293  0.00  0.00    -0.072 A 
ENDROOT
TORSDOF 0
ENDMDL
