MODEL 1
REMARK minimizedAffinity -6.89710617
REMARK minimizedRMSD -1
REMARK  0 active torsions:
REMARK  status: ('A' for Active; 'I' for Inactive)
ROOT
ATOM      1  C1  DEN d   1       0.297   0.670   2.357  0.00  0.00     0.130 A 
ATOM      2  C2  DEN d   1      -0.788   1.309   3.097  0.00  0.00    -0.031 A 
ATOM      3  C3  DEN d   1      -1.975   1.354   2.220  0.00  0.00     0.027 A 
ATOM      4  C4  DEN d   1      -2.239   0.497  -0.198  0.00  0.00     0.027 A 
ATOM      5  C5  DEN d   1      -1.591  -0.110  -1.251  0.00  0.00    -0.003 A 
ATOM      6  C6  DEN d   1      -0.270  -0.466  -1.188  0.00  0.00     0.001 A 
ATOM      7  C7  DEN d   1       0.434  -0.258  -0.031  0.00  0.00     0.017 A 
ATOM      8  C8  DEN d   1      -0.210   0.360   1.032  0.00  0.00    -0.094 A 
ATOM      9  C9  DEN d   1      -1.550   0.701   0.953  0.00  0.00    -0.072 A 
ENDROOT
TORSDOF 0
ENDMDL
