MODEL 1
REMARK minimizedAffinity -4.43776608
REMARK minimizedRMSD -1
REMARK  0 active torsions:
REMARK  status: ('A' for Active; 'I' for Inactive)
ROOT
ATOM      1  C1  DEN d   1       0.059   1.789   1.442  0.00  0.00     0.130 A 
ATOM      2  C2  DEN d   1      -1.029   1.485   2.368  0.00  0.00    -0.031 A 
ATOM      3  C3  DEN d   1      -1.750   0.305   1.852  0.00  0.00     0.027 A 
ATOM      4  C4  DEN d   1      -1.287  -1.078  -0.275  0.00  0.00     0.027 A 
ATOM      5  C5  DEN d   1      -0.477  -1.196  -1.383  0.00  0.00    -0.003 A 
ATOM      6  C6  DEN d   1       0.538  -0.315  -1.642  0.00  0.00     0.001 A 
ATOM      7  C7  DEN d   1       0.800   0.699  -0.759  0.00  0.00     0.017 A 
ATOM      8  C8  DEN d   1      -0.017   0.829   0.357  0.00  0.00    -0.094 A 
ATOM      9  C9  DEN d   1      -1.031  -0.080   0.608  0.00  0.00    -0.072 A 
ENDROOT
TORSDOF 0
ENDMDL
