MODEL 1
REMARK minimizedAffinity 0.35439086
REMARK minimizedRMSD -1
REMARK  1 active torsions:
REMARK  status: ('A' for Active; 'I' for Inactive)
REMARK    1  A    between atoms: C1_2  and  C2_3 
ROOT
ATOM      1  C2  UNL d   1      -0.435  -0.050   1.928  0.00  0.00    -0.081 A 
ATOM      2  C3  UNL d   1      -1.186  -0.631   2.957  0.00  0.00     0.006 A 
ATOM      3  C4  UNL d   1      -0.579  -1.483   3.882  0.00  0.00     0.002 A 
ATOM      4  C5  UNL d   1       0.789  -1.762   3.799  0.00  0.00    -0.080 A 
ATOM      5  C6  UNL d   1       1.459  -2.652   4.805  0.00  0.00     0.076 C 
ATOM      6  C7  UNL d   1       1.536  -1.196   2.761  0.00  0.00     0.002 A 
ATOM      7  C8  UNL d   1       0.930  -0.344   1.835  0.00  0.00     0.006 A 
ENDROOT
BRANCH   1   8
ATOM      8  C1  UNL d   1      -1.073   0.921   0.967  0.00  0.00     0.054 C 
ATOM      9  C   UNL d   1      -1.637   0.203  -0.251  0.00  0.00     0.018 C 
ENDBRANCH   1   8
TORSDOF 1
ENDMDL
