MODEL 1
REMARK minimizedAffinity 2.17719769
REMARK minimizedRMSD -1
REMARK  1 active torsions:
REMARK  status: ('A' for Active; 'I' for Inactive)
REMARK    1  A    between atoms: C1_2  and  C2_3 
ROOT
ATOM      1  C2  UNL d   1       0.389  -1.472   3.892  0.00  0.00    -0.081 A 
ATOM      2  C3  UNL d   1      -0.140  -0.497   3.038  0.00  0.00     0.006 A 
ATOM      3  C4  UNL d   1      -1.514  -0.441   2.792  0.00  0.00     0.002 A 
ATOM      4  C5  UNL d   1      -2.381  -1.354   3.401  0.00  0.00    -0.080 A 
ATOM      5  C6  UNL d   1      -3.862  -1.287   3.168  0.00  0.00     0.076 C 
ATOM      6  C7  UNL d   1      -1.851  -2.340   4.240  0.00  0.00     0.002 A 
ATOM      7  C8  UNL d   1      -0.477  -2.396   4.486  0.00  0.00     0.006 A 
ENDROOT
BRANCH   1   8
ATOM      8  C1  UNL d   1       1.863  -1.494   4.211  0.00  0.00     0.054 C 
ATOM      9  C   UNL d   1       2.109  -1.883   5.662  0.00  0.00     0.018 C 
ENDBRANCH   1   8
TORSDOF 1
ENDMDL
