MODEL 1
REMARK minimizedAffinity 2.56311703
REMARK minimizedRMSD -1
REMARK  1 active torsions:
REMARK  status: ('A' for Active; 'I' for Inactive)
REMARK    1  A    between atoms: C1_2  and  C2_3 
ROOT
ATOM      1  C2  UNL d   1      -0.483  -1.078   2.678  0.00  0.00    -0.081 A 
ATOM      2  C3  UNL d   1      -0.598  -2.148   3.574  0.00  0.00     0.006 A 
ATOM      3  C4  UNL d   1       0.544  -2.772   4.081  0.00  0.00     0.002 A 
ATOM      4  C5  UNL d   1       1.819  -2.332   3.708  0.00  0.00    -0.080 A 
ATOM      5  C6  UNL d   1       3.053  -2.974   4.270  0.00  0.00     0.076 C 
ATOM      6  C7  UNL d   1       1.934  -1.275   2.800  0.00  0.00     0.002 A 
ATOM      7  C8  UNL d   1       0.792  -0.651   2.291  0.00  0.00     0.006 A 
ENDROOT
BRANCH   1   8
ATOM      8  C1  UNL d   1      -1.711  -0.361   2.178  0.00  0.00     0.054 C 
ATOM      9  C   UNL d   1      -1.531   1.150   2.234  0.00  0.00     0.018 C 
ENDBRANCH   1   8
TORSDOF 1
ENDMDL
