MODEL 1
REMARK minimizedAffinity 1.53219736
REMARK minimizedRMSD -1
REMARK  1 active torsions:
REMARK  status: ('A' for Active; 'I' for Inactive)
REMARK    1  A    between atoms: C1_2  and  C2_3 
ROOT
ATOM      1  C2  UNL d   1       1.202  -1.641   3.826  0.00  0.00    -0.081 A 
ATOM      2  C3  UNL d   1       1.670  -1.082   2.630  0.00  0.00     0.006 A 
ATOM      3  C4  UNL d   1       0.773  -0.567   1.691  0.00  0.00     0.002 A 
ATOM      4  C5  UNL d   1      -0.604  -0.596   1.934  0.00  0.00    -0.080 A 
ATOM      5  C6  UNL d   1      -1.576  -0.019   0.948  0.00  0.00     0.076 C 
ATOM      6  C7  UNL d   1      -1.073  -1.170   3.121  0.00  0.00     0.002 A 
ATOM      7  C8  UNL d   1      -0.177  -1.685   4.060  0.00  0.00     0.006 A 
ENDROOT
BRANCH   1   8
ATOM      8  C1  UNL d   1       2.170  -2.138   4.869  0.00  0.00     0.054 C 
ATOM      9  C   UNL d   1       3.233  -1.094   5.180  0.00  0.00     0.018 C 
ENDBRANCH   1   8
TORSDOF 1
ENDMDL
