MODEL 1
REMARK minimizedAffinity -1.66173732
REMARK minimizedRMSD -1
REMARK  1 active torsions:
REMARK  status: ('A' for Active; 'I' for Inactive)
REMARK    1  A    between atoms: C1_2  and  C2_3 
ROOT
ATOM      1  C2  UNL d   1      -1.350  -0.575   1.529  0.00  0.00    -0.081 A 
ATOM      2  C3  UNL d   1      -0.131   0.041   1.837  0.00  0.00     0.006 A 
ATOM      3  C4  UNL d   1       0.720  -0.512   2.798  0.00  0.00     0.002 A 
ATOM      4  C5  UNL d   1       0.369  -1.693   3.460  0.00  0.00    -0.080 A 
ATOM      5  C6  UNL d   1       1.287  -2.313   4.471  0.00  0.00     0.076 C 
ATOM      6  C7  UNL d   1      -0.857  -2.299   3.165  0.00  0.00     0.002 A 
ATOM      7  C8  UNL d   1      -1.707  -1.747   2.205  0.00  0.00     0.006 A 
ENDROOT
BRANCH   1   8
ATOM      8  C1  UNL d   1      -2.239  -0.017   0.447  0.00  0.00     0.054 C 
ATOM      9  C   UNL d   1      -1.837  -0.540  -0.924  0.00  0.00     0.018 C 
ENDBRANCH   1   8
TORSDOF 1
ENDMDL
