MODEL 1
REMARK minimizedAffinity 8.29741859
REMARK minimizedRMSD -1
REMARK  1 active torsions:
REMARK  status: ('A' for Active; 'I' for Inactive)
REMARK    1  A    between atoms: C1_2  and  C2_3 
ROOT
ATOM      1  C2  UNL d   1      -1.128  -3.037  -4.882  0.00  0.00    -0.081 A 
ATOM      2  C3  UNL d   1      -0.764  -2.858  -3.541  0.00  0.00     0.006 A 
ATOM      3  C4  UNL d   1       0.004  -3.821  -2.882  0.00  0.00     0.002 A 
ATOM      4  C5  UNL d   1       0.427  -4.973  -3.553  0.00  0.00    -0.080 A 
ATOM      5  C6  UNL d   1       1.277  -6.000  -2.865  0.00  0.00     0.076 C 
ATOM      6  C7  UNL d   1       0.048  -5.160  -4.887  0.00  0.00     0.002 A 
ATOM      7  C8  UNL d   1      -0.720  -4.198  -5.546  0.00  0.00     0.006 A 
ENDROOT
BRANCH   1   8
ATOM      8  C1  UNL d   1      -1.902  -1.971  -5.614  0.00  0.00     0.054 C 
ATOM      9  C   UNL d   1      -1.528  -0.579  -5.123  0.00  0.00     0.018 C 
ENDBRANCH   1   8
TORSDOF 1
ENDMDL
