MODEL 1
REMARK minimizedAffinity -2.49736428
REMARK minimizedRMSD -1
REMARK  0 active torsions:
REMARK  status: ('A' for Active; 'I' for Inactive)
ROOT
ATOM      1  C   UNL d   1       1.177  -0.883  -0.620  0.00  0.00     0.023 A 
ATOM      2  C1  UNL d   1      -0.118  -0.365  -0.623  0.00  0.00     0.003 A 
ATOM      3  C2  UNL d   1      -0.602   0.315   0.496  0.00  0.00     0.048 A 
ATOM      4  C3  UNL d   1       0.215   0.476   1.615  0.00  0.00     0.023 A 
ATOM      5  C4  UNL d   1       1.512  -0.040   1.622  0.00  0.00     0.048 A 
ATOM      6  C5  UNL d   1       1.991  -0.720   0.501  0.00  0.00     0.003 A 
ATOM      7  I   UNL d   1      -0.503   1.488   3.282  0.00  0.00    -0.146 I 
ENDROOT
TORSDOF 0
ENDMDL
