MODEL 1
REMARK minimizedAffinity -3.04812074
REMARK minimizedRMSD -1
REMARK  0 active torsions:
REMARK  status: ('A' for Active; 'I' for Inactive)
ROOT
ATOM      1  C   UNL d   1       1.473   0.466   2.564  0.00  0.00     0.023 A 
ATOM      2  C1  UNL d   1       0.333   1.226   2.827  0.00  0.00     0.003 A 
ATOM      3  C2  UNL d   1      -0.801   1.087   2.025  0.00  0.00     0.048 A 
ATOM      4  C3  UNL d   1      -0.789   0.185   0.961  0.00  0.00     0.023 A 
ATOM      5  C4  UNL d   1       0.348  -0.579   0.695  0.00  0.00     0.048 A 
ATOM      6  C5  UNL d   1       1.480  -0.436   1.500  0.00  0.00     0.003 A 
ATOM      7  I   UNL d   1      -2.476  -0.024  -0.235  0.00  0.00    -0.146 I 
ENDROOT
TORSDOF 0
ENDMDL
