MODEL 1
REMARK minimizedAffinity -4.14090204
REMARK minimizedRMSD -1
REMARK  0 active torsions:
REMARK  status: ('A' for Active; 'I' for Inactive)
ROOT
ATOM      1  C   UNL d   1      -1.154   1.075   2.885  0.00  0.00     0.023 A 
ATOM      2  C1  UNL d   1      -1.777  -0.019   2.285  0.00  0.00     0.003 A 
ATOM      3  C2  UNL d   1      -1.301  -0.516   1.070  0.00  0.00     0.048 A 
ATOM      4  C3  UNL d   1      -0.200   0.086   0.461  0.00  0.00     0.023 A 
ATOM      5  C4  UNL d   1       0.427   1.181   1.058  0.00  0.00     0.048 A 
ATOM      6  C5  UNL d   1      -0.054   1.674   2.272  0.00  0.00     0.003 A 
ATOM      7  I   UNL d   1       0.511  -0.652  -1.347  0.00  0.00    -0.146 I 
ENDROOT
TORSDOF 0
ENDMDL
