MODEL 1
REMARK minimizedAffinity -1.09329522
REMARK minimizedRMSD -1
REMARK  0 active torsions:
REMARK  status: ('A' for Active; 'I' for Inactive)
ROOT
ATOM      1  C   UNL d   1       0.582   1.932   2.625  0.00  0.00     0.023 A 
ATOM      2  C1  UNL d   1       1.165   1.339   1.506  0.00  0.00     0.003 A 
ATOM      3  C2  UNL d   1       0.425   0.456   0.716  0.00  0.00     0.048 A 
ATOM      4  C3  UNL d   1      -0.898   0.172   1.052  0.00  0.00     0.023 A 
ATOM      5  C4  UNL d   1      -1.486   0.763   2.171  0.00  0.00     0.048 A 
ATOM      6  C5  UNL d   1      -0.742   1.644   2.958  0.00  0.00     0.003 A 
ATOM      7  I   UNL d   1      -2.001  -1.142  -0.122  0.00  0.00    -0.146 I 
ENDROOT
TORSDOF 0
ENDMDL
