MODEL 1
REMARK minimizedAffinity -4.10842848
REMARK minimizedRMSD -1
REMARK  0 active torsions:
REMARK  status: ('A' for Active; 'I' for Inactive)
ROOT
ATOM      1  C   UNL d   1       0.910   1.111  -5.585  0.00  0.00     0.023 A 
ATOM      2  C1  UNL d   1      -0.074   0.138  -5.408  0.00  0.00     0.003 A 
ATOM      3  C2  UNL d   1      -0.294  -0.412  -4.144  0.00  0.00     0.048 A 
ATOM      4  C3  UNL d   1       0.472   0.016  -3.060  0.00  0.00     0.023 A 
ATOM      5  C4  UNL d   1       1.457   0.990  -3.232  0.00  0.00     0.048 A 
ATOM      6  C5  UNL d   1       1.674   1.536  -4.498  0.00  0.00     0.003 A 
ATOM      7  I   UNL d   1       0.146  -0.802  -1.177  0.00  0.00    -0.146 I 
ENDROOT
TORSDOF 0
ENDMDL
