MODEL 1
REMARK minimizedAffinity 0.663466573
REMARK minimizedRMSD -1
REMARK  0 active torsions:
REMARK  status: ('A' for Active; 'I' for Inactive)
ROOT
ATOM      1  C   UNL d   1      -1.943  -2.208  -5.473  0.00  0.00     0.023 A 
ATOM      2  C1  UNL d   1      -1.144  -2.653  -4.420  0.00  0.00     0.003 A 
ATOM      3  C2  UNL d   1      -0.155  -1.820  -3.892  0.00  0.00     0.048 A 
ATOM      4  C3  UNL d   1       0.028  -0.543  -4.421  0.00  0.00     0.023 A 
ATOM      5  C4  UNL d   1      -0.769  -0.093  -5.474  0.00  0.00     0.048 A 
ATOM      6  C5  UNL d   1      -1.756  -0.930  -6.000  0.00  0.00     0.003 A 
ATOM      7  I   UNL d   1       1.499   0.698  -3.636  0.00  0.00    -0.146 I 
ENDROOT
TORSDOF 0
ENDMDL
