MODEL 1
REMARK minimizedAffinity -1.11295295
REMARK minimizedRMSD -1
REMARK  0 active torsions:
REMARK  status: ('A' for Active; 'I' for Inactive)
ROOT
ATOM      1  C   UNL d   1      -3.626  -3.555  -1.329  0.00  0.00     0.124 A 
ATOM      2  C1  UNL d   1      -3.250  -2.776  -0.243  0.00  0.00     0.062 A 
ATOM      3  C2  UNL d   1      -2.374  -1.708  -0.418  0.00  0.00     0.162 A 
ATOM      4  C3  UNL d   1      -1.869  -1.412  -1.685  0.00  0.00    -0.034 A 
ATOM      5  C4  UNL d   1      -2.251  -2.201  -2.771  0.00  0.00     0.162 A 
ATOM      6  C5  UNL d   1      -3.126  -3.268  -2.591  0.00  0.00     0.062 A 
ATOM      7  F   UNL d   1      -3.488  -4.019  -3.641  0.00  0.00    -0.097 F 
ATOM      8  F1  UNL d   1      -1.784  -1.945  -4.002  0.00  0.00    -0.096 F 
ATOM      9  I   UNL d   1      -0.560   0.183  -1.950  0.00  0.00    -0.060 I 
ATOM     10  F2  UNL d   1      -2.028  -0.972   0.648  0.00  0.00    -0.096 F 
ATOM     11  F3  UNL d   1      -3.730  -3.053   0.977  0.00  0.00    -0.097 F 
ATOM     12  F4  UNL d   1      -4.467  -4.583  -1.157  0.00  0.00    -0.092 F 
ENDROOT
TORSDOF 0
ENDMDL
