MODEL 1
REMARK minimizedAffinity -1.33482254
REMARK minimizedRMSD -1
REMARK  0 active torsions:
REMARK  status: ('A' for Active; 'I' for Inactive)
ROOT
ATOM      1  C   UNL d   1      -2.756  -3.170  -2.467  0.00  0.00     0.124 A 
ATOM      2  C1  UNL d   1      -1.933  -2.179  -2.983  0.00  0.00     0.062 A 
ATOM      3  C2  UNL d   1      -1.228  -1.338  -2.127  0.00  0.00     0.162 A 
ATOM      4  C3  UNL d   1      -1.342  -1.485  -0.745  0.00  0.00    -0.034 A 
ATOM      5  C4  UNL d   1      -2.173  -2.483  -0.233  0.00  0.00     0.162 A 
ATOM      6  C5  UNL d   1      -2.876  -3.321  -1.092  0.00  0.00     0.062 A 
ATOM      7  F   UNL d   1      -3.670  -4.278  -0.592  0.00  0.00    -0.097 F 
ATOM      8  F1  UNL d   1      -2.306  -2.652   1.091  0.00  0.00    -0.096 F 
ATOM      9  I   UNL d   1      -0.290  -0.229   0.539  0.00  0.00    -0.060 I 
ATOM     10  F2  UNL d   1      -0.440  -0.389  -2.654  0.00  0.00    -0.096 F 
ATOM     11  F3  UNL d   1      -1.817  -2.030  -4.311  0.00  0.00    -0.097 F 
ATOM     12  F4  UNL d   1      -3.434  -3.977  -3.293  0.00  0.00    -0.092 F 
ENDROOT
TORSDOF 0
ENDMDL
