MODEL 1
REMARK minimizedAffinity 2.19425082
REMARK minimizedRMSD -1
REMARK  0 active torsions:
REMARK  status: ('A' for Active; 'I' for Inactive)
ROOT
ATOM      1  C   UNL d   1      -1.841  -1.912  -2.797  0.00  0.00     0.124 A 
ATOM      2  C1  UNL d   1      -1.788  -2.780  -1.714  0.00  0.00     0.062 A 
ATOM      3  C2  UNL d   1      -1.382  -2.318  -0.466  0.00  0.00     0.162 A 
ATOM      4  C3  UNL d   1      -1.024  -0.980  -0.293  0.00  0.00    -0.034 A 
ATOM      5  C4  UNL d   1      -1.078  -0.114  -1.386  0.00  0.00     0.162 A 
ATOM      6  C5  UNL d   1      -1.486  -0.581  -2.632  0.00  0.00     0.062 A 
ATOM      7  F   UNL d   1      -1.535   0.258  -3.677  0.00  0.00    -0.097 F 
ATOM      8  F1  UNL d   1      -0.742   1.177  -1.255  0.00  0.00    -0.096 F 
ATOM      9  I   UNL d   1      -0.415  -0.285   1.572  0.00  0.00    -0.060 I 
ATOM     10  F2  UNL d   1      -1.341  -3.178   0.562  0.00  0.00    -0.096 F 
ATOM     11  F3  UNL d   1      -2.130  -4.067  -1.871  0.00  0.00    -0.097 F 
ATOM     12  F4  UNL d   1      -2.231  -2.360  -3.997  0.00  0.00    -0.092 F 
ENDROOT
TORSDOF 0
ENDMDL
