MODEL 1
REMARK minimizedAffinity 5.44731665
REMARK minimizedRMSD -1
REMARK  0 active torsions:
REMARK  status: ('A' for Active; 'I' for Inactive)
ROOT
ATOM      1  C   UNL d   1      -2.401  -2.096  -2.779  0.00  0.00     0.124 A 
ATOM      2  C1  UNL d   1      -2.314  -2.889  -1.644  0.00  0.00     0.062 A 
ATOM      3  C2  UNL d   1      -1.568  -2.464  -0.548  0.00  0.00     0.162 A 
ATOM      4  C3  UNL d   1      -0.903  -1.238  -0.583  0.00  0.00    -0.034 A 
ATOM      5  C4  UNL d   1      -0.995  -0.446  -1.729  0.00  0.00     0.162 A 
ATOM      6  C5  UNL d   1      -1.741  -0.875  -2.821  0.00  0.00     0.062 A 
ATOM      7  F   UNL d   1      -1.824  -0.108  -3.917  0.00  0.00    -0.097 F 
ATOM      8  F1  UNL d   1      -0.368   0.738  -1.795  0.00  0.00    -0.096 F 
ATOM      9  I   UNL d   1       0.213  -0.598   1.053  0.00  0.00    -0.060 I 
ATOM     10  F2  UNL d   1      -1.501  -3.251   0.536  0.00  0.00    -0.096 F 
ATOM     11  F3  UNL d   1      -2.949  -4.069  -1.602  0.00  0.00    -0.097 F 
ATOM     12  F4  UNL d   1      -3.118  -2.508  -3.832  0.00  0.00    -0.092 F 
ENDROOT
TORSDOF 0
ENDMDL
