MODEL 1
REMARK minimizedAffinity 11.781374
REMARK minimizedRMSD -1
REMARK  0 active torsions:
REMARK  status: ('A' for Active; 'I' for Inactive)
ROOT
ATOM      1  C   UNL d   1      -3.405   1.450   3.401  0.00  0.00     0.124 A 
ATOM      2  C1  UNL d   1      -3.663   1.756   2.072  0.00  0.00     0.062 A 
ATOM      3  C2  UNL d   1      -4.014   3.052   1.708  0.00  0.00     0.162 A 
ATOM      4  C3  UNL d   1      -4.107   4.054   2.674  0.00  0.00    -0.034 A 
ATOM      5  C4  UNL d   1      -3.847   3.738   4.009  0.00  0.00     0.162 A 
ATOM      6  C5  UNL d   1      -3.497   2.441   4.368  0.00  0.00     0.062 A 
ATOM      7  F   UNL d   1      -3.248   2.147   5.652  0.00  0.00    -0.097 F 
ATOM      8  F1  UNL d   1      -3.928   4.677   4.963  0.00  0.00    -0.096 F 
ATOM      9  I   UNL d   1      -4.631   5.994   2.133  0.00  0.00    -0.060 I 
ATOM     10  F2  UNL d   1      -4.258   3.319   0.416  0.00  0.00    -0.096 F 
ATOM     11  F3  UNL d   1      -3.576   0.799   1.136  0.00  0.00    -0.097 F 
ATOM     12  F4  UNL d   1      -3.069   0.201   3.749  0.00  0.00    -0.092 F 
ENDROOT
TORSDOF 0
ENDMDL
