MODEL 1
REMARK minimizedAffinity 12.1130114
REMARK minimizedRMSD -1
REMARK  0 active torsions:
REMARK  status: ('A' for Active; 'I' for Inactive)
ROOT
ATOM      1  C   UNL d   1      -2.168   0.767   1.264  0.00  0.00     0.124 A 
ATOM      2  C1  UNL d   1      -1.923   1.775   0.343  0.00  0.00     0.062 A 
ATOM      3  C2  UNL d   1      -0.983   1.588  -0.667  0.00  0.00     0.162 A 
ATOM      4  C3  UNL d   1      -0.282   0.386  -0.761  0.00  0.00    -0.034 A 
ATOM      5  C4  UNL d   1      -0.533  -0.624   0.170  0.00  0.00     0.162 A 
ATOM      6  C5  UNL d   1      -1.474  -0.431   1.177  0.00  0.00     0.062 A 
ATOM      7  F   UNL d   1      -1.709  -1.407   2.066  0.00  0.00    -0.097 F 
ATOM      8  F1  UNL d   1       0.123  -1.792   0.108  0.00  0.00    -0.096 F 
ATOM      9  I   UNL d   1       1.124   0.102  -2.269  0.00  0.00    -0.060 I 
ATOM     10  F2  UNL d   1      -0.767   2.580  -1.543  0.00  0.00    -0.096 F 
ATOM     11  F3  UNL d   1      -2.592   2.934   0.425  0.00  0.00    -0.097 F 
ATOM     12  F4  UNL d   1      -3.072   0.950   2.235  0.00  0.00    -0.092 F 
ENDROOT
TORSDOF 0
ENDMDL
