MODEL 1
REMARK minimizedAffinity 8.53496552
REMARK minimizedRMSD -1
REMARK  0 active torsions:
REMARK  status: ('A' for Active; 'I' for Inactive)
ROOT
ATOM      1  C   UNL d   1      -1.164  -0.981  -0.111  0.00  0.00     0.124 A 
ATOM      2  C1  UNL d   1      -1.246  -0.039  -1.127  0.00  0.00     0.062 A 
ATOM      3  C2  UNL d   1      -1.714  -0.406  -2.386  0.00  0.00     0.162 A 
ATOM      4  C3  UNL d   1      -2.104  -1.722  -2.635  0.00  0.00    -0.034 A 
ATOM      5  C4  UNL d   1      -2.018  -2.664  -1.608  0.00  0.00     0.162 A 
ATOM      6  C5  UNL d   1      -1.549  -2.292  -0.352  0.00  0.00     0.062 A 
ATOM      7  F   UNL d   1      -1.470  -3.203   0.629  0.00  0.00    -0.097 F 
ATOM      8  F1  UNL d   1      -2.385  -3.937  -1.813  0.00  0.00    -0.096 F 
ATOM      9  I   UNL d   1      -2.804  -2.275  -4.515  0.00  0.00    -0.060 I 
ATOM     10  F2  UNL d   1      -1.783   0.525  -3.349  0.00  0.00    -0.096 F 
ATOM     11  F3  UNL d   1      -0.873   1.228  -0.897  0.00  0.00    -0.097 F 
ATOM     12  F4  UNL d   1      -0.712  -0.625   1.099  0.00  0.00    -0.092 F 
ENDROOT
TORSDOF 0
ENDMDL
