MODEL 1
REMARK minimizedAffinity 8.02392769
REMARK minimizedRMSD -1
REMARK  0 active torsions:
REMARK  status: ('A' for Active; 'I' for Inactive)
ROOT
ATOM      1  C   UNL d   1      -3.171  -2.403  -2.607  0.00  0.00     0.124 A 
ATOM      2  C1  UNL d   1      -4.187  -2.124  -1.704  0.00  0.00     0.062 A 
ATOM      3  C2  UNL d   1      -4.996  -3.149  -1.222  0.00  0.00     0.162 A 
ATOM      4  C3  UNL d   1      -4.792  -4.464  -1.642  0.00  0.00    -0.034 A 
ATOM      5  C4  UNL d   1      -3.769  -4.736  -2.551  0.00  0.00     0.162 A 
ATOM      6  C5  UNL d   1      -2.963  -3.709  -3.030  0.00  0.00     0.062 A 
ATOM      7  F   UNL d   1      -1.981  -3.980  -3.903  0.00  0.00    -0.097 F 
ATOM      8  F1  UNL d   1      -3.545  -5.989  -2.976  0.00  0.00    -0.096 F 
ATOM      9  I   UNL d   1      -6.000  -5.999  -0.924  0.00  0.00    -0.060 I 
ATOM     10  F2  UNL d   1      -5.971  -2.851  -0.350  0.00  0.00    -0.096 F 
ATOM     11  F3  UNL d   1      -4.391  -0.864  -1.294  0.00  0.00    -0.097 F 
ATOM     12  F4  UNL d   1      -2.394  -1.415  -3.070  0.00  0.00    -0.092 F 
ENDROOT
TORSDOF 0
ENDMDL
