MODEL 1
REMARK minimizedAffinity -4.06225014
REMARK minimizedRMSD -1
REMARK  0 active torsions:
REMARK  status: ('A' for Active; 'I' for Inactive)
ROOT
ATOM      1  C   UNL d   1      -5.295   4.808   2.721  0.00  0.00     0.124 A 
ATOM      2  C1  UNL d   1      -5.586   4.671   4.071  0.00  0.00     0.062 A 
ATOM      3  C2  UNL d   1      -5.451   3.434   4.694  0.00  0.00     0.162 A 
ATOM      4  C3  UNL d   1      -5.021   2.323   3.967  0.00  0.00    -0.034 A 
ATOM      5  C4  UNL d   1      -4.732   2.469   2.609  0.00  0.00     0.162 A 
ATOM      6  C5  UNL d   1      -4.869   3.708   1.991  0.00  0.00     0.062 A 
ATOM      7  F   UNL d   1      -4.588   3.839   0.687  0.00  0.00    -0.097 F 
ATOM      8  F1  UNL d   1      -4.317   1.422   1.881  0.00  0.00    -0.096 F 
ATOM      9  I   UNL d   1      -4.818   0.471   4.895  0.00  0.00    -0.060 I 
ATOM     10  F2  UNL d   1      -5.738   3.330   6.000  0.00  0.00    -0.096 F 
ATOM     11  F3  UNL d   1      -5.999   5.733   4.778  0.00  0.00    -0.097 F 
ATOM     12  F4  UNL d   1      -5.428   6.000   2.124  0.00  0.00    -0.092 F 
ENDROOT
TORSDOF 0
ENDMDL
