MODEL 1
REMARK minimizedAffinity 17.2113113
REMARK minimizedRMSD -1
REMARK  0 active torsions:
REMARK  status: ('A' for Active; 'I' for Inactive)
ROOT
ATOM      1  C   UNL d   1       0.964   1.059   4.030  0.00  0.00     0.124 A 
ATOM      2  C1  UNL d   1       1.496   2.334   3.896  0.00  0.00     0.062 A 
ATOM      3  C2  UNL d   1       2.872   2.531   3.980  0.00  0.00     0.162 A 
ATOM      4  C3  UNL d   1       3.725   1.449   4.197  0.00  0.00    -0.034 A 
ATOM      5  C4  UNL d   1       3.182   0.170   4.331  0.00  0.00     0.162 A 
ATOM      6  C5  UNL d   1       1.807  -0.021   4.247  0.00  0.00     0.062 A 
ATOM      7  F   UNL d   1       1.295  -1.254   4.376  0.00  0.00    -0.097 F 
ATOM      8  F1  UNL d   1       3.974  -0.892   4.541  0.00  0.00    -0.096 F 
ATOM      9  I   UNL d   1       5.782   1.739   4.323  0.00  0.00    -0.060 I 
ATOM     10  F2  UNL d   1       3.359   3.774   3.848  0.00  0.00    -0.096 F 
ATOM     11  F3  UNL d   1       0.684   3.380   3.687  0.00  0.00    -0.097 F 
ATOM     12  F4  UNL d   1      -0.360   0.873   3.950  0.00  0.00    -0.092 F 
ENDROOT
TORSDOF 0
ENDMDL
