MODEL 1
REMARK minimizedAffinity -3.31555843
REMARK minimizedRMSD -1
REMARK  0 active torsions:
REMARK  status: ('A' for Active; 'I' for Inactive)
ROOT
ATOM      1  C   UNL d   1      -3.806   2.562   2.642  0.00  0.00     0.124 A 
ATOM      2  C1  UNL d   1      -4.067   3.829   2.140  0.00  0.00     0.062 A 
ATOM      3  C2  UNL d   1      -4.692   4.783   2.938  0.00  0.00     0.162 A 
ATOM      4  C3  UNL d   1      -5.059   4.474   4.248  0.00  0.00    -0.034 A 
ATOM      5  C4  UNL d   1      -4.794   3.197   4.745  0.00  0.00     0.162 A 
ATOM      6  C5  UNL d   1      -4.169   2.247   3.944  0.00  0.00     0.062 A 
ATOM      7  F   UNL d   1      -3.917   1.023   4.430  0.00  0.00    -0.097 F 
ATOM      8  F1  UNL d   1      -5.133   2.865   6.000  0.00  0.00    -0.096 F 
ATOM      9  I   UNL d   1      -5.994   5.897   5.445  0.00  0.00    -0.060 I 
ATOM     10  F2  UNL d   1      -4.933   6.000   2.427  0.00  0.00    -0.096 F 
ATOM     11  F3  UNL d   1      -3.718   4.136   0.882  0.00  0.00    -0.097 F 
ATOM     12  F4  UNL d   1      -3.205   1.646   1.871  0.00  0.00    -0.092 F 
ENDROOT
TORSDOF 0
ENDMDL
