MODEL 1
REMARK minimizedAffinity 1.94719577
REMARK minimizedRMSD -1
REMARK  0 active torsions:
REMARK  status: ('A' for Active; 'I' for Inactive)
ROOT
ATOM      1  C   UNL d   1      -4.853   2.458   2.388  0.00  0.00     0.124 A 
ATOM      2  C1  UNL d   1      -4.876   2.049   3.714  0.00  0.00     0.062 A 
ATOM      3  C2  UNL d   1      -5.119   2.971   4.728  0.00  0.00     0.162 A 
ATOM      4  C3  UNL d   1      -5.343   4.313   4.419  0.00  0.00    -0.034 A 
ATOM      5  C4  UNL d   1      -5.318   4.718   3.083  0.00  0.00     0.162 A 
ATOM      6  C5  UNL d   1      -5.074   3.792   2.074  0.00  0.00     0.062 A 
ATOM      7  F   UNL d   1      -5.052   4.190   0.794  0.00  0.00    -0.097 F 
ATOM      8  F1  UNL d   1      -5.529   6.000   2.752  0.00  0.00    -0.096 F 
ATOM      9  I   UNL d   1      -5.707   5.695   5.932  0.00  0.00    -0.060 I 
ATOM     10  F2  UNL d   1      -5.136   2.547   6.000  0.00  0.00    -0.096 F 
ATOM     11  F3  UNL d   1      -4.662   0.761   4.020  0.00  0.00    -0.097 F 
ATOM     12  F4  UNL d   1      -4.618   1.569   1.415  0.00  0.00    -0.092 F 
ENDROOT
TORSDOF 0
ENDMDL
