MODEL 1
REMARK minimizedAffinity 8.8249464
REMARK minimizedRMSD -1
REMARK  0 active torsions:
REMARK  status: ('A' for Active; 'I' for Inactive)
ROOT
ATOM      1  C   UNL d   1      -5.476   4.884   2.274  0.00  0.00     0.124 A 
ATOM      2  C1  UNL d   1      -5.021   4.878   3.585  0.00  0.00     0.062 A 
ATOM      3  C2  UNL d   1      -4.478   3.719   4.133  0.00  0.00     0.162 A 
ATOM      4  C3  UNL d   1      -4.385   2.556   3.368  0.00  0.00    -0.034 A 
ATOM      5  C4  UNL d   1      -4.846   2.569   2.050  0.00  0.00     0.162 A 
ATOM      6  C5  UNL d   1      -5.388   3.730   1.508  0.00  0.00     0.062 A 
ATOM      7  F   UNL d   1      -5.828   3.733   0.241  0.00  0.00    -0.097 F 
ATOM      8  F1  UNL d   1      -4.772   1.469   1.288  0.00  0.00    -0.096 F 
ATOM      9  I   UNL d   1      -3.573   0.822   4.183  0.00  0.00    -0.060 I 
ATOM     10  F2  UNL d   1      -4.046   3.742   5.402  0.00  0.00    -0.096 F 
ATOM     11  F3  UNL d   1      -5.106   5.991   4.328  0.00  0.00    -0.097 F 
ATOM     12  F4  UNL d   1      -6.000   5.999   1.750  0.00  0.00    -0.092 F 
ENDROOT
TORSDOF 0
ENDMDL
