MODEL 1
REMARK minimizedAffinity 7.89462566
REMARK minimizedRMSD -1
REMARK  0 active torsions:
REMARK  status: ('A' for Active; 'I' for Inactive)
ROOT
ATOM      1  C   UNL d   1      -2.460  -1.627  -2.718  0.00  0.00     0.124 A 
ATOM      2  C1  UNL d   1      -1.919  -0.356  -2.578  0.00  0.00     0.062 A 
ATOM      3  C2  UNL d   1      -1.223  -0.015  -1.422  0.00  0.00     0.162 A 
ATOM      4  C3  UNL d   1      -1.061  -0.947  -0.397  0.00  0.00    -0.034 A 
ATOM      5  C4  UNL d   1      -1.608  -2.223  -0.544  0.00  0.00     0.162 A 
ATOM      6  C5  UNL d   1      -2.304  -2.559  -1.701  0.00  0.00     0.062 A 
ATOM      7  F   UNL d   1      -2.825  -3.787  -1.835  0.00  0.00    -0.097 F 
ATOM      8  F1  UNL d   1      -1.472  -3.143   0.422  0.00  0.00    -0.096 F 
ATOM      9  I   UNL d   1      -0.020  -0.441   1.333  0.00  0.00    -0.060 I 
ATOM     10  F2  UNL d   1      -0.711   1.220  -1.314  0.00  0.00    -0.096 F 
ATOM     11  F3  UNL d   1      -2.069   0.546  -3.558  0.00  0.00    -0.097 F 
ATOM     12  F4  UNL d   1      -3.130  -1.952  -3.830  0.00  0.00    -0.092 F 
ENDROOT
TORSDOF 0
ENDMDL
