MODEL 1
REMARK minimizedAffinity 1.83678973
REMARK minimizedRMSD -1
REMARK  0 active torsions:
REMARK  status: ('A' for Active; 'I' for Inactive)
ROOT
ATOM      1  C4' PXY d   1      -0.663  -0.142   2.213  0.00  0.00     0.077 C 
ATOM      2  C1' PXY d   1       1.840  -0.182  -2.997  0.00  0.00     0.077 C 
ATOM      3  C1  PXY d   1       1.172  -0.168  -1.636  0.00  0.00    -0.082 A 
ATOM      4  C2  PXY d   1       1.913  -0.054  -0.546  0.00  0.00     0.003 A 
ATOM      5  C3  PXY d   1       1.329  -0.071   0.695  0.00  0.00     0.003 A 
ATOM      6  C4  PXY d   1      -0.033  -0.152   0.818  0.00  0.00    -0.082 A 
ATOM      7  C5  PXY d   1      -0.796  -0.258  -0.290  0.00  0.00     0.003 A 
ATOM      8  C6  PXY d   1      -0.180  -0.280  -1.538  0.00  0.00     0.003 A 
ENDROOT
TORSDOF 0
ENDMDL
