MODEL 1
REMARK minimizedAffinity -0.0718558431
REMARK minimizedRMSD -1
REMARK  0 active torsions:
REMARK  status: ('A' for Active; 'I' for Inactive)
ROOT
ATOM      1  C4' PXY d   1       1.840  -2.720   0.716  0.00  0.00     0.077 C 
ATOM      2  C1' PXY d   1      -2.594   0.477   2.596  0.00  0.00     0.077 C 
ATOM      3  C1  PXY d   1      -1.436  -0.360   2.091  0.00  0.00    -0.082 A 
ATOM      4  C2  PXY d   1      -0.826  -1.197   2.914  0.00  0.00     0.003 A 
ATOM      5  C3  PXY d   1       0.244  -1.939   2.482  0.00  0.00     0.003 A 
ATOM      6  C4  PXY d   1       0.660  -1.861   1.180  0.00  0.00    -0.082 A 
ATOM      7  C5  PXY d   1       0.036  -1.017   0.331  0.00  0.00     0.003 A 
ATOM      8  C6  PXY d   1      -1.021  -0.243   0.800  0.00  0.00     0.003 A 
ENDROOT
TORSDOF 0
ENDMDL
