MODEL 1
REMARK minimizedAffinity 7.44532299
REMARK minimizedRMSD -1
REMARK  0 active torsions:
REMARK  status: ('A' for Active; 'I' for Inactive)
ROOT
ATOM      1  C4' PXY d   1      -3.195   0.441   2.661  0.00  0.00     0.077 C 
ATOM      2  C1' PXY d   1       1.371  -1.139  -0.512  0.00  0.00     0.077 C 
ATOM      3  C1  PXY d   1       0.177  -0.733   0.329  0.00  0.00    -0.082 A 
ATOM      4  C2  PXY d   1      -0.901  -0.240  -0.259  0.00  0.00     0.003 A 
ATOM      5  C3  PXY d   1      -1.977   0.162   0.490  0.00  0.00     0.003 A 
ATOM      6  C4  PXY d   1      -1.971   0.009   1.850  0.00  0.00    -0.082 A 
ATOM      7  C5  PXY d   1      -0.879  -0.504   2.457  0.00  0.00     0.003 A 
ATOM      8  C6  PXY d   1       0.219  -0.867   1.683  0.00  0.00     0.003 A 
ENDROOT
TORSDOF 0
ENDMDL
