MODEL 1
REMARK minimizedAffinity 3.37113929
REMARK minimizedRMSD -1
REMARK  0 active torsions:
REMARK  status: ('A' for Active; 'I' for Inactive)
ROOT
ATOM      1  C4' PXY d   1      -1.708  -3.445   4.193  0.00  0.00     0.077 C 
ATOM      2  C1' PXY d   1       1.310  -0.704   0.094  0.00  0.00     0.077 C 
ATOM      3  C1  PXY d   1       0.526  -1.434   1.167  0.00  0.00    -0.082 A 
ATOM      4  C2  PXY d   1      -0.687  -1.014   1.490  0.00  0.00     0.003 A 
ATOM      5  C3  PXY d   1      -1.398  -1.643   2.480  0.00  0.00     0.003 A 
ATOM      6  C4  PXY d   1      -0.883  -2.745   3.109  0.00  0.00    -0.082 A 
ATOM      7  C5  PXY d   1       0.349  -3.185   2.778  0.00  0.00     0.003 A 
ATOM      8  C6  PXY d   1       1.071  -2.508   1.799  0.00  0.00     0.003 A 
ENDROOT
TORSDOF 0
ENDMDL
