MODEL 1
REMARK minimizedAffinity -1.58254087
REMARK minimizedRMSD -1
REMARK  0 active torsions:
REMARK  status: ('A' for Active; 'I' for Inactive)
ROOT
ATOM      1  C4' PXY d   1       1.708  -4.191   2.008  0.00  0.00     0.077 C 
ATOM      2  C1' PXY d   1      -1.696   0.450   1.472  0.00  0.00     0.077 C 
ATOM      3  C1  PXY d   1      -0.805  -0.766   1.625  0.00  0.00    -0.082 A 
ATOM      4  C2  PXY d   1       0.081  -1.051   0.685  0.00  0.00     0.003 A 
ATOM      5  C3  PXY d   1       0.873  -2.165   0.792  0.00  0.00     0.003 A 
ATOM      6  C4  PXY d   1       0.794  -2.967   1.900  0.00  0.00    -0.082 A 
ATOM      7  C5  PXY d   1      -0.100  -2.677   2.869  0.00  0.00     0.003 A 
ATOM      8  C6  PXY d   1      -0.923  -1.565   2.721  0.00  0.00     0.003 A 
ENDROOT
TORSDOF 0
ENDMDL
