MODEL 1
REMARK minimizedAffinity 2.23280406
REMARK minimizedRMSD -1
REMARK  0 active torsions:
REMARK  status: ('A' for Active; 'I' for Inactive)
ROOT
ATOM      1  C4' PXY d   1       2.089  -4.516   2.538  0.00  0.00     0.077 C 
ATOM      2  C1' PXY d   1      -0.976   0.107   0.911  0.00  0.00     0.077 C 
ATOM      3  C1  PXY d   1      -0.177  -1.104   1.350  0.00  0.00    -0.082 A 
ATOM      4  C2  PXY d   1       0.906  -1.453   0.674  0.00  0.00     0.003 A 
ATOM      5  C3  PXY d   1       1.622  -2.564   1.038  0.00  0.00     0.003 A 
ATOM      6  C4  PXY d   1       1.256  -3.295   2.136  0.00  0.00    -0.082 A 
ATOM      7  C5  PXY d   1       0.159  -2.940   2.837  0.00  0.00     0.003 A 
ATOM      8  C6  PXY d   1      -0.578  -1.833   2.427  0.00  0.00     0.003 A 
ENDROOT
TORSDOF 0
ENDMDL
