MODEL 1
REMARK minimizedAffinity -3.71149349
REMARK minimizedRMSD -1
REMARK  0 active torsions:
REMARK  status: ('A' for Active; 'I' for Inactive)
ROOT
ATOM      1  C4' PXY d   1       1.507  -3.921   2.160  0.00  0.00     0.077 C 
ATOM      2  C1' PXY d   1      -2.222   0.430   1.401  0.00  0.00     0.077 C 
ATOM      3  C1  PXY d   1      -1.247  -0.711   1.613  0.00  0.00    -0.082 A 
ATOM      4  C2  PXY d   1      -0.270  -0.907   0.742  0.00  0.00     0.003 A 
ATOM      5  C3  PXY d   1       0.602  -1.953   0.901  0.00  0.00     0.003 A 
ATOM      6  C4  PXY d   1       0.505  -2.776   1.991  0.00  0.00    -0.082 A 
ATOM      7  C5  PXY d   1      -0.483  -2.576   2.890  0.00  0.00     0.003 A 
ATOM      8  C6  PXY d   1      -1.382  -1.533   2.688  0.00  0.00     0.003 A 
ENDROOT
TORSDOF 0
ENDMDL
