MODEL 1
REMARK minimizedAffinity -2.46831512
REMARK minimizedRMSD -1
REMARK  0 active torsions:
REMARK  status: ('A' for Active; 'I' for Inactive)
ROOT
ATOM      1  C4' PXY d   1      -1.516   0.056   1.486  0.00  0.00     0.077 C 
ATOM      2  C1' PXY d   1       1.920  -4.360   2.939  0.00  0.00     0.077 C 
ATOM      3  C1  PXY d   1       1.010  -3.206   2.566  0.00  0.00    -0.082 A 
ATOM      4  C2  PXY d   1       1.165  -2.601   1.400  0.00  0.00     0.003 A 
ATOM      5  C3  PXY d   1       0.372  -1.536   1.060  0.00  0.00     0.003 A 
ATOM      6  C4  PXY d   1      -0.626  -1.119   1.901  0.00  0.00    -0.082 A 
ATOM      7  C5  PXY d   1      -0.798  -1.738   3.088  0.00  0.00     0.003 A 
ATOM      8  C6  PXY d   1       0.045  -2.792   3.432  0.00  0.00     0.003 A 
ENDROOT
TORSDOF 0
ENDMDL
