MODEL 1
REMARK minimizedAffinity 3.73770094
REMARK minimizedRMSD -1
REMARK  0 active torsions:
REMARK  status: ('A' for Active; 'I' for Inactive)
ROOT
ATOM      1  C4' PXY d   1       2.053  -4.037   1.528  0.00  0.00     0.077 C 
ATOM      2  C1' PXY d   1      -1.648   0.404   1.530  0.00  0.00     0.077 C 
ATOM      3  C1  PXY d   1      -0.678  -0.761   1.542  0.00  0.00    -0.082 A 
ATOM      4  C2  PXY d   1       0.145  -0.939   0.521  0.00  0.00     0.003 A 
ATOM      5  C3  PXY d   1       1.006  -2.006   0.501  0.00  0.00     0.003 A 
ATOM      6  C4  PXY d   1       1.063  -2.869   1.562  0.00  0.00    -0.082 A 
ATOM      7  C5  PXY d   1       0.235  -2.689   2.613  0.00  0.00     0.003 A 
ATOM      8  C6  PXY d   1      -0.661  -1.624   2.595  0.00  0.00     0.003 A 
ENDROOT
TORSDOF 0
ENDMDL
