MODEL 1
REMARK minimizedAffinity -0.974790394
REMARK minimizedRMSD -1
REMARK  0 active torsions:
REMARK  status: ('A' for Active; 'I' for Inactive)
ROOT
ATOM      1  C4' PXY d   1       2.934  -3.933   2.327  0.00  0.00     0.077 C 
ATOM      2  C1' PXY d   1      -1.190  -0.055   1.157  0.00  0.00     0.077 C 
ATOM      3  C1  PXY d   1      -0.108  -1.075   1.451  0.00  0.00    -0.082 A 
ATOM      4  C2  PXY d   1      -0.007  -1.590   2.665  0.00  0.00     0.003 A 
ATOM      5  C3  PXY d   1       0.985  -2.490   2.957  0.00  0.00     0.003 A 
ATOM      6  C4  PXY d   1       1.851  -2.907   1.982  0.00  0.00    -0.082 A 
ATOM      7  C5  PXY d   1       1.748  -2.394   0.738  0.00  0.00     0.003 A 
ATOM      8  C6  PXY d   1       0.760  -1.451   0.472  0.00  0.00     0.003 A 
ENDROOT
TORSDOF 0
ENDMDL
