MODEL 1
REMARK minimizedAffinity -2.00023508
REMARK minimizedRMSD -1
REMARK  0 active torsions:
REMARK  status: ('A' for Active; 'I' for Inactive)
ROOT
ATOM      1  C4' PXY d   1      -0.916   2.091  -2.340  0.00  0.00     0.077 C 
ATOM      2  C1' PXY d   1      -0.593  -1.663   2.044  0.00  0.00     0.077 C 
ATOM      3  C1  PXY d   1      -0.684  -0.688   0.887  0.00  0.00    -0.082 A 
ATOM      4  C2  PXY d   1       0.167   0.323   0.815  0.00  0.00     0.003 A 
ATOM      5  C3  PXY d   1       0.079   1.233  -0.207  0.00  0.00     0.003 A 
ATOM      6  C4  PXY d   1      -0.856   1.076  -1.195  0.00  0.00    -0.082 A 
ATOM      7  C5  PXY d   1      -1.721   0.042  -1.134  0.00  0.00     0.003 A 
ATOM      8  C6  PXY d   1      -1.641  -0.847  -0.067  0.00  0.00     0.003 A 
ENDROOT
TORSDOF 0
ENDMDL
