MODEL 1
REMARK minimizedAffinity 2.06328034
REMARK minimizedRMSD -1
REMARK  0 active torsions:
REMARK  status: ('A' for Active; 'I' for Inactive)
ROOT
ATOM      1  C4' PXY d   1      -4.276  -0.038   1.848  0.00  0.00     0.077 C 
ATOM      2  C1' PXY d   1       1.310  -0.013   0.363  0.00  0.00     0.077 C 
ATOM      3  C1  PXY d   1      -0.156  -0.032   0.748  0.00  0.00    -0.082 A 
ATOM      4  C2  PXY d   1      -0.835   1.103   0.793  0.00  0.00     0.003 A 
ATOM      5  C3  PXY d   1      -2.153   1.107   1.171  0.00  0.00     0.003 A 
ATOM      6  C4  PXY d   1      -2.797  -0.068   1.455  0.00  0.00    -0.082 A 
ATOM      7  C5  PXY d   1      -2.113  -1.230   1.400  0.00  0.00     0.003 A 
ATOM      8  C6  PXY d   1      -0.765  -1.209   1.055  0.00  0.00     0.003 A 
ENDROOT
TORSDOF 0
ENDMDL
