MODEL 1
REMARK minimizedAffinity 2.84092474
REMARK minimizedRMSD -1
REMARK  0 active torsions:
REMARK  status: ('A' for Active; 'I' for Inactive)
ROOT
ATOM      1  C4' PXY d   1       2.450  -4.078   1.225  0.00  0.00     0.077 C 
ATOM      2  C1' PXY d   1      -0.989   0.522   0.580  0.00  0.00     0.077 C 
ATOM      3  C1  PXY d   1      -0.088  -0.683   0.762  0.00  0.00    -0.082 A 
ATOM      4  C2  PXY d   1       0.766  -1.011  -0.193  0.00  0.00     0.003 A 
ATOM      5  C3  PXY d   1       1.566  -2.117  -0.059  0.00  0.00     0.003 A 
ATOM      6  C4  PXY d   1       1.528  -2.864   1.088  0.00  0.00    -0.082 A 
ATOM      7  C5  PXY d   1       0.666  -2.530   2.072  0.00  0.00     0.003 A 
ATOM      8  C6  PXY d   1      -0.166  -1.428   1.898  0.00  0.00     0.003 A 
ENDROOT
TORSDOF 0
ENDMDL
