MODEL 1
REMARK minimizedAffinity 0.452415347
REMARK minimizedRMSD -1
REMARK  0 active torsions:
REMARK  status: ('A' for Active; 'I' for Inactive)
ROOT
ATOM      1  C   UNL d   1       1.084  -1.791   0.106  0.00  0.00    -0.002 A 
ATOM      2  C1  UNL d   1       0.309  -1.857  -1.043  0.00  0.00     0.010 A 
ATOM      3  C2  UNL d   1       0.311  -0.806  -1.963  0.00  0.00     0.041 A 
ATOM      4  C3  UNL d   1       1.114   0.323  -1.706  0.00  0.00    -0.075 A 
ATOM      5  S   UNL d   1       1.276   1.729  -2.690  0.00  0.00     0.015 SA
ATOM      6  C4  UNL d   1       2.377   2.451  -1.608  0.00  0.00     0.022 A 
ATOM      7  C5  UNL d   1       2.626   1.652  -0.517  0.00  0.00     0.026 A 
ATOM      8  C6  UNL d   1       1.903   0.413  -0.555  0.00  0.00    -0.082 A 
ATOM      9  C7  UNL d   1       1.878  -0.669   0.358  0.00  0.00     0.045 A 
ENDROOT
TORSDOF 0
ENDMDL
