MODEL 1
REMARK minimizedAffinity 0.706912458
REMARK minimizedRMSD -1
REMARK  0 active torsions:
REMARK  status: ('A' for Active; 'I' for Inactive)
ROOT
ATOM      1  C   UNL d   1       1.139   0.021  -2.196  0.00  0.00    -0.002 A 
ATOM      2  C1  UNL d   1       1.374   1.334  -2.578  0.00  0.00     0.010 A 
ATOM      3  C2  UNL d   1       1.578   2.327  -1.618  0.00  0.00     0.041 A 
ATOM      4  C3  UNL d   1       1.543   1.974  -0.255  0.00  0.00    -0.075 A 
ATOM      5  S   UNL d   1       1.767   3.022   1.096  0.00  0.00     0.015 SA
ATOM      6  C4  UNL d   1       1.557   1.751   2.212  0.00  0.00     0.022 A 
ATOM      7  C5  UNL d   1       1.320   0.550   1.586  0.00  0.00     0.026 A 
ATOM      8  C6  UNL d   1       1.309   0.658   0.155  0.00  0.00    -0.082 A 
ATOM      9  C7  UNL d   1       1.106  -0.325  -0.843  0.00  0.00     0.045 A 
ENDROOT
TORSDOF 0
ENDMDL
