MODEL 1
REMARK minimizedAffinity 7.40807199
REMARK minimizedRMSD -1
REMARK  0 active torsions:
REMARK  status: ('A' for Active; 'I' for Inactive)
ROOT
ATOM      1  C   UNL d   1       0.083   0.337  -1.925  0.00  0.00    -0.002 A 
ATOM      2  C1  UNL d   1       0.841  -0.805  -1.714  0.00  0.00     0.010 A 
ATOM      3  C2  UNL d   1       1.693  -0.899  -0.611  0.00  0.00     0.041 A 
ATOM      4  C3  UNL d   1       1.768   0.185   0.286  0.00  0.00    -0.075 A 
ATOM      5  S   UNL d   1       2.741   0.294   1.705  0.00  0.00     0.015 SA
ATOM      6  C4  UNL d   1       2.171   1.859   2.065  0.00  0.00     0.022 A 
ATOM      7  C5  UNL d   1       1.261   2.303   1.136  0.00  0.00     0.026 A 
ATOM      8  C6  UNL d   1       1.013   1.345   0.095  0.00  0.00    -0.082 A 
ATOM      9  C7  UNL d   1       0.160   1.410  -1.033  0.00  0.00     0.045 A 
ENDROOT
TORSDOF 0
ENDMDL
