MODEL 1
REMARK minimizedAffinity 10.3723459
REMARK minimizedRMSD -1
REMARK  0 active torsions:
REMARK  status: ('A' for Active; 'I' for Inactive)
ROOT
ATOM      1  C   UNL d   1       1.773  -0.077  -0.250  0.00  0.00    -0.002 A 
ATOM      2  C1  UNL d   1       2.656   0.840  -0.802  0.00  0.00     0.010 A 
ATOM      3  C2  UNL d   1       2.194   1.849  -1.650  0.00  0.00     0.041 A 
ATOM      4  C3  UNL d   1       0.816   1.924  -1.933  0.00  0.00    -0.075 A 
ATOM      5  S   UNL d   1       0.024   3.075  -2.942  0.00  0.00     0.015 SA
ATOM      6  C4  UNL d   1      -1.506   2.378  -2.663  0.00  0.00     0.022 A 
ATOM      7  C5  UNL d   1      -1.433   1.293  -1.822  0.00  0.00     0.026 A 
ATOM      8  C6  UNL d   1      -0.093   1.013  -1.388  0.00  0.00    -0.082 A 
ATOM      9  C7  UNL d   1       0.406   0.001  -0.533  0.00  0.00     0.045 A 
ENDROOT
TORSDOF 0
ENDMDL
