MODEL 1
REMARK minimizedAffinity 5.97743082
REMARK minimizedRMSD -1
REMARK  0 active torsions:
REMARK  status: ('A' for Active; 'I' for Inactive)
ROOT
ATOM      1  C   UNL d   1       1.078  -0.817  -0.244  0.00  0.00    -0.002 A 
ATOM      2  C1  UNL d   1       1.650   0.019   0.705  0.00  0.00     0.010 A 
ATOM      3  C2  UNL d   1       1.937   1.351   0.398  0.00  0.00     0.041 A 
ATOM      4  C3  UNL d   1       1.634   1.833  -0.891  0.00  0.00    -0.075 A 
ATOM      5  S   UNL d   1       1.896   3.428  -1.491  0.00  0.00     0.015 SA
ATOM      6  C4  UNL d   1       1.255   3.038  -3.021  0.00  0.00     0.022 A 
ATOM      7  C5  UNL d   1       0.846   1.727  -3.090  0.00  0.00     0.026 A 
ATOM      8  C6  UNL d   1       1.057   1.011  -1.863  0.00  0.00    -0.082 A 
ATOM      9  C7  UNL d   1       0.779  -0.334  -1.521  0.00  0.00     0.045 A 
ENDROOT
TORSDOF 0
ENDMDL
