MODEL 1
REMARK minimizedAffinity -0.44268918
REMARK minimizedRMSD -1
REMARK  0 active torsions:
REMARK  status: ('A' for Active; 'I' for Inactive)
ROOT
ATOM      1  C   UNL d   1       0.909  -0.392  -0.494  0.00  0.00    -0.002 A 
ATOM      2  C1  UNL d   1       0.887   0.047   0.822  0.00  0.00     0.010 A 
ATOM      3  C2  UNL d   1       1.141   1.385   1.129  0.00  0.00     0.041 A 
ATOM      4  C3  UNL d   1       1.418   2.284   0.081  0.00  0.00    -0.075 A 
ATOM      5  S   UNL d   1       1.758   3.969   0.219  0.00  0.00     0.015 SA
ATOM      6  C4  UNL d   1       1.940   4.146  -1.466  0.00  0.00     0.022 A 
ATOM      7  C5  UNL d   1       1.749   2.959  -2.133  0.00  0.00     0.026 A 
ATOM      8  C6  UNL d   1       1.445   1.867  -1.253  0.00  0.00    -0.082 A 
ATOM      9  C7  UNL d   1       1.185   0.503  -1.532  0.00  0.00     0.045 A 
ENDROOT
TORSDOF 0
ENDMDL
