MODEL 1
REMARK minimizedAffinity 13.8615627
REMARK minimizedRMSD -1
REMARK  0 active torsions:
REMARK  status: ('A' for Active; 'I' for Inactive)
ROOT
ATOM      1  C   UNL d   1      -4.062   2.187   0.926  0.00  0.00    -0.002 A 
ATOM      2  C1  UNL d   1      -3.347   3.369   0.804  0.00  0.00     0.010 A 
ATOM      3  C2  UNL d   1      -2.499   3.796   1.828  0.00  0.00     0.041 A 
ATOM      4  C3  UNL d   1      -2.379   3.004   2.987  0.00  0.00    -0.075 A 
ATOM      5  S   UNL d   1      -1.399   3.326   4.369  0.00  0.00     0.015 SA
ATOM      6  C4  UNL d   1      -1.907   1.901   5.154  0.00  0.00     0.022 A 
ATOM      7  C5  UNL d   1      -2.801   1.185   4.395  0.00  0.00     0.026 A 
ATOM      8  C6  UNL d   1      -3.088   1.808   3.133  0.00  0.00    -0.082 A 
ATOM      9  C7  UNL d   1      -3.940   1.404   2.078  0.00  0.00     0.045 A 
ENDROOT
TORSDOF 0
ENDMDL
