MODEL 1
REMARK minimizedAffinity 17.4262466
REMARK minimizedRMSD -1
REMARK  0 active torsions:
REMARK  status: ('A' for Active; 'I' for Inactive)
ROOT
ATOM      1  C   UNL d   1       0.669  -0.122  -0.633  0.00  0.00    -0.002 A 
ATOM      2  C1  UNL d   1       1.506   0.542   0.253  0.00  0.00     0.010 A 
ATOM      3  C2  UNL d   1       1.899   1.859   0.006  0.00  0.00     0.041 A 
ATOM      4  C3  UNL d   1       1.431   2.504  -1.156  0.00  0.00    -0.075 A 
ATOM      5  S   UNL d   1       1.781   4.114  -1.663  0.00  0.00     0.015 SA
ATOM      6  C4  UNL d   1       0.827   3.958  -3.067  0.00  0.00     0.022 A 
ATOM      7  C5  UNL d   1       0.249   2.714  -3.162  0.00  0.00     0.026 A 
ATOM      8  C6  UNL d   1       0.587   1.856  -2.062  0.00  0.00    -0.082 A 
ATOM      9  C7  UNL d   1       0.207   0.521  -1.785  0.00  0.00     0.045 A 
ENDROOT
TORSDOF 0
ENDMDL
