MODEL 1
REMARK minimizedAffinity 0.292017341
REMARK minimizedRMSD -1
REMARK  0 active torsions:
REMARK  status: ('A' for Active; 'I' for Inactive)
ROOT
ATOM      1  C   UNL d   1       1.719  -0.166   0.600  0.00  0.00    -0.002 A 
ATOM      2  C1  UNL d   1       1.713   0.885   1.506  0.00  0.00     0.010 A 
ATOM      3  C2  UNL d   1       1.719   2.208   1.059  0.00  0.00     0.041 A 
ATOM      4  C3  UNL d   1       1.729   2.459  -0.327  0.00  0.00    -0.075 A 
ATOM      5  S   UNL d   1       1.736   3.997  -1.105  0.00  0.00     0.015 SA
ATOM      6  C4  UNL d   1       1.746   3.295  -2.658  0.00  0.00     0.022 A 
ATOM      7  C5  UNL d   1       1.744   1.922  -2.603  0.00  0.00     0.026 A 
ATOM      8  C6  UNL d   1       1.734   1.417  -1.259  0.00  0.00    -0.082 A 
ATOM      9  C7  UNL d   1       1.729   0.087  -0.774  0.00  0.00     0.045 A 
ENDROOT
TORSDOF 0
ENDMDL
