MODEL 1
REMARK minimizedAffinity 6.14586782
REMARK minimizedRMSD -1
REMARK  0 active torsions:
REMARK  status: ('A' for Active; 'I' for Inactive)
ROOT
ATOM      1  C   UNL d   1       0.964   2.169  -0.870  0.00  0.00    -0.002 A 
ATOM      2  C1  UNL d   1       1.526   1.776   0.336  0.00  0.00     0.010 A 
ATOM      3  C2  UNL d   1       1.692   0.422   0.635  0.00  0.00     0.041 A 
ATOM      4  C3  UNL d   1       1.280  -0.540  -0.309  0.00  0.00    -0.075 A 
ATOM      5  S   UNL d   1       1.386  -2.254  -0.160  0.00  0.00     0.015 SA
ATOM      6  C4  UNL d   1       0.688  -2.505  -1.695  0.00  0.00     0.022 A 
ATOM      7  C5  UNL d   1       0.376  -1.321  -2.319  0.00  0.00     0.026 A 
ATOM      8  C6  UNL d   1       0.712  -0.168  -1.531  0.00  0.00    -0.082 A 
ATOM      9  C7  UNL d   1       0.557   1.212  -1.804  0.00  0.00     0.045 A 
ENDROOT
TORSDOF 0
ENDMDL
