MODEL 1
REMARK minimizedAffinity 11.8055019
REMARK minimizedRMSD -1
REMARK  0 active torsions:
REMARK  status: ('A' for Active; 'I' for Inactive)
ROOT
ATOM      1  C   UNL d   1       0.966  -0.433  -0.013  0.00  0.00    -0.002 A 
ATOM      2  C1  UNL d   1       1.520   0.375   0.969  0.00  0.00     0.010 A 
ATOM      3  C2  UNL d   1       1.853   1.702   0.693  0.00  0.00     0.041 A 
ATOM      4  C3  UNL d   1       1.616   2.209  -0.600  0.00  0.00    -0.075 A 
ATOM      5  S   UNL d   1       1.943   3.804  -1.168  0.00  0.00     0.015 SA
ATOM      6  C4  UNL d   1       1.354   3.450  -2.727  0.00  0.00     0.022 A 
ATOM      7  C5  UNL d   1       0.914   2.152  -2.830  0.00  0.00     0.026 A 
ATOM      8  C6  UNL d   1       1.058   1.415  -1.606  0.00  0.00    -0.082 A 
ATOM      9  C7  UNL d   1       0.732   0.073  -1.294  0.00  0.00     0.045 A 
ENDROOT
TORSDOF 0
ENDMDL
