MODEL 1
REMARK minimizedAffinity 10.7910376
REMARK minimizedRMSD -1
REMARK  0 active torsions:
REMARK  status: ('A' for Active; 'I' for Inactive)
ROOT
ATOM      1  O1  BZF d   1       0.687  -5.830  -2.162  0.00  0.00    -0.204 OA
ATOM      2  C2  BZF d   1       1.731  -4.934  -2.287  0.00  0.00     0.174 A 
ATOM      3  C3  BZF d   1       1.541  -3.863  -1.491  0.00  0.00    -0.012 A 
ATOM      4  C3A BZF d   1       0.346  -4.147  -0.756  0.00  0.00    -0.107 A 
ATOM      5  C4  BZF d   1      -0.349  -3.470   0.204  0.00  0.00     0.055 A 
ATOM      6  C5  BZF d   1      -1.517  -3.990   0.664  0.00  0.00    -0.016 A 
ATOM      7  C6  BZF d   1      -2.022  -5.180   0.183  0.00  0.00     0.022 A 
ATOM      8  C7  BZF d   1      -1.365  -5.890  -0.767  0.00  0.00     0.029 A 
ATOM      9  C7A BZF d   1      -0.168  -5.384  -1.210  0.00  0.00     0.058 A 
ENDROOT
TORSDOF 0
ENDMDL
