MODEL 1
REMARK minimizedAffinity 9.08956814
REMARK minimizedRMSD -1
REMARK  0 active torsions:
REMARK  status: ('A' for Active; 'I' for Inactive)
ROOT
ATOM      1  O1  BZF d   1      -1.810  -2.247   0.853  0.00  0.00    -0.204 OA
ATOM      2  C2  BZF d   1      -2.184  -3.392   0.177  0.00  0.00     0.174 A 
ATOM      3  C3  BZF d   1      -1.140  -4.235   0.049  0.00  0.00    -0.012 A 
ATOM      4  C3A BZF d   1      -0.067  -3.616   0.765  0.00  0.00    -0.107 A 
ATOM      5  C4  BZF d   1       1.227  -3.977   1.014  0.00  0.00     0.055 A 
ATOM      6  C5  BZF d   1       2.036  -3.114   1.684  0.00  0.00    -0.016 A 
ATOM      7  C6  BZF d   1       1.586  -1.883   2.115  0.00  0.00     0.022 A 
ATOM      8  C7  BZF d   1       0.310  -1.484   1.896  0.00  0.00     0.029 A 
ATOM      9  C7A BZF d   1      -0.519  -2.367   1.247  0.00  0.00     0.058 A 
ENDROOT
TORSDOF 0
ENDMDL
