MODEL 1
REMARK minimizedAffinity 15.4184713
REMARK minimizedRMSD -1
REMARK  0 active torsions:
REMARK  status: ('A' for Active; 'I' for Inactive)
ROOT
ATOM      1  O1  BZF d   1       0.983  -0.750   3.215  0.00  0.00    -0.204 OA
ATOM      2  C2  BZF d   1       1.461  -1.042   1.953  0.00  0.00     0.174 A 
ATOM      3  C3  BZF d   1       2.187  -2.178   1.967  0.00  0.00    -0.012 A 
ATOM      4  C3A BZF d   1       2.084  -2.674   3.305  0.00  0.00    -0.107 A 
ATOM      5  C4  BZF d   1       2.577  -3.780   3.937  0.00  0.00     0.055 A 
ATOM      6  C5  BZF d   1       2.354  -3.933   5.269  0.00  0.00    -0.016 A 
ATOM      7  C6  BZF d   1       1.647  -3.000   5.999  0.00  0.00     0.022 A 
ATOM      8  C7  BZF d   1       1.134  -1.890   5.415  0.00  0.00     0.029 A 
ATOM      9  C7A BZF d   1       1.330  -1.748   4.063  0.00  0.00     0.058 A 
ENDROOT
TORSDOF 0
ENDMDL
