MODEL 1
REMARK minimizedAffinity 9.01841545
REMARK minimizedRMSD -1
REMARK  0 active torsions:
REMARK  status: ('A' for Active; 'I' for Inactive)
ROOT
ATOM      1  O1  BZF d   1       1.143  -0.550   3.435  0.00  0.00    -0.204 OA
ATOM      2  C2  BZF d   1       1.535  -0.742   2.125  0.00  0.00     0.174 A 
ATOM      3  C3  BZF d   1       2.282  -1.859   2.008  0.00  0.00    -0.012 A 
ATOM      4  C3A BZF d   1       2.285  -2.449   3.311  0.00  0.00    -0.107 A 
ATOM      5  C4  BZF d   1       2.843  -3.583   3.828  0.00  0.00     0.055 A 
ATOM      6  C5  BZF d   1       2.718  -3.834   5.158  0.00  0.00    -0.016 A 
ATOM      7  C6  BZF d   1       2.048  -2.971   6.000  0.00  0.00     0.022 A 
ATOM      8  C7  BZF d   1       1.473  -1.836   5.533  0.00  0.00     0.029 A 
ATOM      9  C7A BZF d   1       1.569  -1.596   4.184  0.00  0.00     0.058 A 
ENDROOT
TORSDOF 0
ENDMDL
