MODEL 1
REMARK minimizedAffinity 10.3786163
REMARK minimizedRMSD -1
REMARK  0 active torsions:
REMARK  status: ('A' for Active; 'I' for Inactive)
ROOT
ATOM      1  O1  BZF d   1      -0.051  -4.786  -2.480  0.00  0.00    -0.204 OA
ATOM      2  C2  BZF d   1       1.219  -5.295  -2.294  0.00  0.00     0.174 A 
ATOM      3  C3  BZF d   1       1.702  -4.945  -1.084  0.00  0.00    -0.012 A 
ATOM      4  C3A BZF d   1       0.632  -4.246  -0.440  0.00  0.00    -0.107 A 
ATOM      5  C4  BZF d   1       0.496  -3.666   0.789  0.00  0.00     0.055 A 
ATOM      6  C5  BZF d   1      -0.653  -3.000   1.080  0.00  0.00    -0.016 A 
ATOM      7  C6  BZF d   1      -1.681  -2.892   0.167  0.00  0.00     0.022 A 
ATOM      8  C7  BZF d   1      -1.594  -3.456  -1.062  0.00  0.00     0.029 A 
ATOM      9  C7A BZF d   1      -0.448  -4.157  -1.348  0.00  0.00     0.058 A 
ENDROOT
TORSDOF 0
ENDMDL
