MODEL 1
REMARK minimizedAffinity 5.74647999
REMARK minimizedRMSD -1
REMARK  0 active torsions:
REMARK  status: ('A' for Active; 'I' for Inactive)
ROOT
ATOM      1  O1  BZF d   1      -4.377   2.100  -2.486  0.00  0.00    -0.204 OA
ATOM      2  C2  BZF d   1      -3.703   1.259  -3.351  0.00  0.00     0.174 A 
ATOM      3  C3  BZF d   1      -3.293   1.929  -4.448  0.00  0.00    -0.012 A 
ATOM      4  C3A BZF d   1      -3.658   3.292  -4.214  0.00  0.00    -0.107 A 
ATOM      5  C4  BZF d   1      -3.502   4.442  -4.934  0.00  0.00     0.055 A 
ATOM      6  C5  BZF d   1      -4.036   5.597  -4.458  0.00  0.00    -0.016 A 
ATOM      7  C6  BZF d   1      -4.735   5.638  -3.269  0.00  0.00     0.022 A 
ATOM      8  C7  BZF d   1      -4.911   4.524  -2.517  0.00  0.00     0.029 A 
ATOM      9  C7A BZF d   1      -4.344   3.362  -2.980  0.00  0.00     0.058 A 
ENDROOT
TORSDOF 0
ENDMDL
