MODEL 1
REMARK minimizedAffinity 10.5680609
REMARK minimizedRMSD -1
REMARK  0 active torsions:
REMARK  status: ('A' for Active; 'I' for Inactive)
ROOT
ATOM      1  O1  BZF d   1       0.921  -1.586   2.049  0.00  0.00    -0.204 OA
ATOM      2  C2  BZF d   1       1.339  -0.381   1.518  0.00  0.00     0.174 A 
ATOM      3  C3  BZF d   1       2.466  -0.542   0.794  0.00  0.00    -0.012 A 
ATOM      4  C3A BZF d   1       2.719  -1.950   0.801  0.00  0.00    -0.107 A 
ATOM      5  C4  BZF d   1       3.688  -2.732   0.240  0.00  0.00     0.055 A 
ATOM      6  C5  BZF d   1       3.692  -4.066   0.499  0.00  0.00    -0.016 A 
ATOM      7  C6  BZF d   1       2.746  -4.650   1.316  0.00  0.00     0.022 A 
ATOM      8  C7  BZF d   1       1.763  -3.916   1.891  0.00  0.00     0.029 A 
ATOM      9  C7A BZF d   1       1.737  -2.573   1.605  0.00  0.00     0.058 A 
ENDROOT
TORSDOF 0
ENDMDL
