MODEL 1
REMARK minimizedAffinity 0.191243619
REMARK minimizedRMSD -1
REMARK  1 active torsions:
REMARK  status: ('A' for Active; 'I' for Inactive)
REMARK    1  A    between atoms: C1_2  and  C2_3 
ROOT
ATOM      1  C2  UNL d   1      -0.160  -0.685   0.970  0.00  0.00    -0.073 A 
ATOM      2  C3  UNL d   1      -0.315  -0.178  -0.325  0.00  0.00    -0.002 A 
ATOM      3  C4  UNL d   1       0.447   0.912  -0.750  0.00  0.00     0.004 A 
ATOM      4  C5  UNL d   1       1.374   1.499   0.111  0.00  0.00    -0.004 A 
ATOM      5  C6  UNL d   1       1.551   0.999   1.405  0.00  0.00    -0.075 A 
ATOM      6  C7  UNL d   1       2.542   1.621   2.344  0.00  0.00     0.076 C 
ATOM      7  C8  UNL d   1       0.780  -0.093   1.825  0.00  0.00     0.001 A 
ENDROOT
BRANCH   1   8
ATOM      8  C1  UNL d   1      -0.976  -1.865   1.432  0.00  0.00     0.053 C 
ATOM      9  C   UNL d   1      -0.144  -2.855   2.233  0.00  0.00     0.018 C 
ENDBRANCH   1   8
TORSDOF 1
ENDMDL
