MODEL 1
REMARK minimizedAffinity 17.3634567
REMARK minimizedRMSD -1
REMARK  1 active torsions:
REMARK  status: ('A' for Active; 'I' for Inactive)
REMARK    1  A    between atoms: C1_2  and  C2_3 
ROOT
ATOM      1  C2  UNL d   1      -4.949   3.865  -1.754  0.00  0.00    -0.073 A 
ATOM      2  C3  UNL d   1      -5.941   3.135  -1.090  0.00  0.00    -0.002 A 
ATOM      3  C4  UNL d   1      -5.844   1.747  -0.984  0.00  0.00     0.004 A 
ATOM      4  C5  UNL d   1      -4.751   1.076  -1.533  0.00  0.00    -0.004 A 
ATOM      5  C6  UNL d   1      -3.743   1.789  -2.190  0.00  0.00    -0.075 A 
ATOM      6  C7  UNL d   1      -2.562   1.082  -2.789  0.00  0.00     0.076 C 
ATOM      7  C8  UNL d   1      -3.850   3.183  -2.295  0.00  0.00     0.001 A 
ENDROOT
BRANCH   1   8
ATOM      8  C1  UNL d   1      -5.047   5.364  -1.866  0.00  0.00     0.053 C 
ATOM      9  C   UNL d   1      -5.998   5.952  -0.835  0.00  0.00     0.018 C 
ENDBRANCH   1   8
TORSDOF 1
ENDMDL
