MODEL 1
REMARK minimizedAffinity -3.59566259
REMARK minimizedRMSD -1
REMARK  1 active torsions:
REMARK  status: ('A' for Active; 'I' for Inactive)
REMARK    1  A    between atoms: C1_2  and  C2_3 
ROOT
ATOM      1  C2  UNL d   1       0.505   0.568  -0.139  0.00  0.00    -0.073 A 
ATOM      2  C3  UNL d   1       1.804   1.053  -0.327  0.00  0.00    -0.002 A 
ATOM      3  C4  UNL d   1       2.905   0.289   0.061  0.00  0.00     0.004 A 
ATOM      4  C5  UNL d   1       2.719  -0.970   0.633  0.00  0.00    -0.004 A 
ATOM      5  C6  UNL d   1       1.429  -1.477   0.819  0.00  0.00    -0.075 A 
ATOM      6  C7  UNL d   1       1.212  -2.827   1.435  0.00  0.00     0.076 C 
ATOM      7  C8  UNL d   1       0.329  -0.702   0.429  0.00  0.00     0.001 A 
ENDROOT
BRANCH   1   8
ATOM      8  C1  UNL d   1      -0.687   1.388  -0.562  0.00  0.00     0.053 C 
ATOM      9  C   UNL d   1      -1.605   0.618  -1.498  0.00  0.00     0.018 C 
ENDBRANCH   1   8
TORSDOF 1
ENDMDL
