MODEL 1
REMARK minimizedAffinity -4.76351213
REMARK minimizedRMSD -1
REMARK  1 active torsions:
REMARK  status: ('A' for Active; 'I' for Inactive)
REMARK    1  A    between atoms: C1_2  and  C2_3 
ROOT
ATOM      1  C2  UNL d   1       0.672  -0.255   0.377  0.00  0.00    -0.073 A 
ATOM      2  C3  UNL d   1       0.220  -1.306   1.183  0.00  0.00    -0.002 A 
ATOM      3  C4  UNL d   1      -1.006  -1.919   0.920  0.00  0.00     0.004 A 
ATOM      4  C5  UNL d   1      -1.787  -1.493  -0.154  0.00  0.00    -0.004 A 
ATOM      5  C6  UNL d   1      -1.347  -0.453  -0.979  0.00  0.00    -0.075 A 
ATOM      6  C7  UNL d   1      -2.176   0.018  -2.137  0.00  0.00     0.076 C 
ATOM      7  C8  UNL d   1      -0.116   0.159  -0.706  0.00  0.00     0.001 A 
ENDROOT
BRANCH   1   8
ATOM      8  C1  UNL d   1       1.998   0.405   0.653  0.00  0.00     0.053 C 
ATOM      9  C   UNL d   1       3.168  -0.519   0.356  0.00  0.00     0.018 C 
ENDBRANCH   1   8
TORSDOF 1
ENDMDL
