MODEL 1
REMARK minimizedAffinity -5.89865637
REMARK minimizedRMSD -1
REMARK  0 active torsions:
REMARK  status: ('A' for Active; 'I' for Inactive)
ROOT
ATOM      1  O1  BZF d   1       0.752   0.281  -2.012  0.00  0.00    -0.204 OA
ATOM      2  C2  BZF d   1       0.365   1.520  -1.538  0.00  0.00     0.174 A 
ATOM      3  C3  BZF d   1      -0.169   1.415  -0.304  0.00  0.00    -0.012 A 
ATOM      4  C3A BZF d   1      -0.028   0.036   0.051  0.00  0.00    -0.107 A 
ATOM      5  C4  BZF d   1      -0.356  -0.685   1.163  0.00  0.00     0.055 A 
ATOM      6  C5  BZF d   1      -0.150  -2.029   1.163  0.00  0.00    -0.016 A 
ATOM      7  C6  BZF d   1       0.375  -2.683   0.068  0.00  0.00     0.022 A 
ATOM      8  C7  BZF d   1       0.720  -2.009  -1.056  0.00  0.00     0.029 A 
ATOM      9  C7A BZF d   1       0.545  -0.647  -1.047  0.00  0.00     0.058 A 
ENDROOT
TORSDOF 0
ENDMDL
