MODEL 1
REMARK minimizedAffinity 4.57085228
REMARK minimizedRMSD -1
REMARK  0 active torsions:
REMARK  status: ('A' for Active; 'I' for Inactive)
ROOT
ATOM      1  O1  BZF d   1      -2.350  -2.512  -0.846  0.00  0.00    -0.204 OA
ATOM      2  C2  BZF d   1      -1.500  -1.431  -0.977  0.00  0.00     0.174 A 
ATOM      3  C3  BZF d   1      -0.734  -1.555  -2.079  0.00  0.00    -0.012 A 
ATOM      4  C3A BZF d   1      -1.194  -2.746  -2.725  0.00  0.00    -0.107 A 
ATOM      5  C4  BZF d   1      -0.835  -3.389  -3.875  0.00  0.00     0.055 A 
ATOM      6  C5  BZF d   1      -1.432  -4.570  -4.185  0.00  0.00    -0.016 A 
ATOM      7  C6  BZF d   1      -2.386  -5.138  -3.367  0.00  0.00     0.022 A 
ATOM      8  C7  BZF d   1      -2.778  -4.535  -2.219  0.00  0.00     0.029 A 
ATOM      9  C7A BZF d   1      -2.201  -3.325  -1.919  0.00  0.00     0.058 A 
ENDROOT
TORSDOF 0
ENDMDL
