MODEL 1
REMARK minimizedAffinity -6.60219383
REMARK minimizedRMSD -1
REMARK  0 active torsions:
REMARK  status: ('A' for Active; 'I' for Inactive)
ROOT
ATOM      1  O1  BZF d   1       0.521   0.154  -0.568  0.00  0.00    -0.204 OA
ATOM      2  C2  BZF d   1      -0.195   0.678   0.491  0.00  0.00     0.174 A 
ATOM      3  C3  BZF d   1      -0.898  -0.288   1.117  0.00  0.00    -0.012 A 
ATOM      4  C3A BZF d   1      -0.531  -1.506   0.462  0.00  0.00    -0.107 A 
ATOM      5  C4  BZF d   1      -0.884  -2.813   0.642  0.00  0.00     0.055 A 
ATOM      6  C5  BZF d   1      -0.402  -3.751  -0.215  0.00  0.00    -0.016 A 
ATOM      7  C6  BZF d   1       0.430  -3.418  -1.264  0.00  0.00     0.022 A 
ATOM      8  C7  BZF d   1       0.811  -2.136  -1.480  0.00  0.00     0.029 A 
ATOM      9  C7A BZF d   1       0.352  -1.190  -0.596  0.00  0.00     0.058 A 
ENDROOT
TORSDOF 0
ENDMDL
