MODEL 1
REMARK minimizedAffinity -5.14116955
REMARK minimizedRMSD -1
REMARK  0 active torsions:
REMARK  status: ('A' for Active; 'I' for Inactive)
ROOT
ATOM      1  O1  BZF d   1      -0.106  -0.477  -2.070  0.00  0.00    -0.204 OA
ATOM      2  C2  BZF d   1      -0.225   0.798  -1.551  0.00  0.00     0.174 A 
ATOM      3  C3  BZF d   1      -0.454   0.754  -0.223  0.00  0.00    -0.012 A 
ATOM      4  C3A BZF d   1      -0.388  -0.632   0.125  0.00  0.00    -0.107 A 
ATOM      5  C4  BZF d   1      -0.517  -1.312   1.302  0.00  0.00     0.055 A 
ATOM      6  C5  BZF d   1      -0.471  -2.670   1.290  0.00  0.00    -0.016 A 
ATOM      7  C6  BZF d   1      -0.303  -3.380   0.119  0.00  0.00     0.022 A 
ATOM      8  C7  BZF d   1      -0.165  -2.749  -1.073  0.00  0.00     0.029 A 
ATOM      9  C7A BZF d   1      -0.178  -1.376  -1.059  0.00  0.00     0.058 A 
ENDROOT
TORSDOF 0
ENDMDL
