MODEL 1
REMARK minimizedAffinity 0.0170424841
REMARK minimizedRMSD -1
REMARK  0 active torsions:
REMARK  status: ('A' for Active; 'I' for Inactive)
ROOT
ATOM      1  O1  BZF d   1       1.317   0.361  -0.204  0.00  0.00    -0.204 OA
ATOM      2  C2  BZF d   1      -0.006  -0.036  -0.207  0.00  0.00     0.174 A 
ATOM      3  C3  BZF d   1      -0.802   0.949   0.258  0.00  0.00    -0.012 A 
ATOM      4  C3A BZF d   1       0.069   2.062   0.483  0.00  0.00    -0.107 A 
ATOM      5  C4  BZF d   1      -0.133   3.337   0.929  0.00  0.00     0.055 A 
ATOM      6  C5  BZF d   1       0.939   4.152   1.105  0.00  0.00    -0.016 A 
ATOM      7  C6  BZF d   1       2.226   3.725   0.852  0.00  0.00     0.022 A 
ATOM      8  C7  BZF d   1       2.476   2.471   0.403  0.00  0.00     0.029 A 
ATOM      9  C7A BZF d   1       1.391   1.655   0.193  0.00  0.00     0.058 A 
ENDROOT
TORSDOF 0
ENDMDL
