MODEL 1
REMARK minimizedAffinity -0.460561872
REMARK minimizedRMSD -1
REMARK  0 active torsions:
REMARK  status: ('A' for Active; 'I' for Inactive)
ROOT
ATOM      1  O1  BZF d   1       0.031  -2.126  -2.181  0.00  0.00    -0.204 OA
ATOM      2  C2  BZF d   1       0.552  -1.140  -2.997  0.00  0.00     0.174 A 
ATOM      3  C3  BZF d   1       0.497   0.062  -2.390  0.00  0.00    -0.012 A 
ATOM      4  C3A BZF d   1      -0.010  -0.201  -1.078  0.00  0.00    -0.107 A 
ATOM      5  C4  BZF d   1      -0.275   0.590   0.003  0.00  0.00     0.055 A 
ATOM      6  C5  BZF d   1      -0.833   0.032   1.109  0.00  0.00    -0.016 A 
ATOM      7  C6  BZF d   1      -1.144  -1.311   1.167  0.00  0.00     0.022 A 
ATOM      8  C7  BZF d   1      -0.895  -2.137   0.122  0.00  0.00     0.029 A 
ATOM      9  C7A BZF d   1      -0.300  -1.582  -0.985  0.00  0.00     0.058 A 
ENDROOT
TORSDOF 0
ENDMDL
