MODEL 1
REMARK minimizedAffinity -5.88792324
REMARK minimizedRMSD -1
REMARK  0 active torsions:
REMARK  status: ('A' for Active; 'I' for Inactive)
ROOT
ATOM      1  O1  BZF d   1      -0.926  -1.829   1.224  0.00  0.00    -0.204 OA
ATOM      2  C2  BZF d   1      -0.982  -0.450   1.269  0.00  0.00     0.174 A 
ATOM      3  C3  BZF d   1      -0.481   0.087   0.139  0.00  0.00    -0.012 A 
ATOM      4  C3A BZF d   1      -0.172  -1.028  -0.703  0.00  0.00    -0.107 A 
ATOM      5  C4  BZF d   1       0.342  -1.140  -1.963  0.00  0.00     0.055 A 
ATOM      6  C5  BZF d   1       0.590  -2.376  -2.468  0.00  0.00    -0.016 A 
ATOM      7  C6  BZF d   1       0.343  -3.521  -1.740  0.00  0.00     0.022 A 
ATOM      8  C7  BZF d   1      -0.171  -3.462  -0.487  0.00  0.00     0.029 A 
ATOM      9  C7A BZF d   1      -0.454  -2.214   0.014  0.00  0.00     0.058 A 
ENDROOT
TORSDOF 0
ENDMDL
