MODEL 1
REMARK minimizedAffinity -6.11408091
REMARK minimizedRMSD -1
REMARK  0 active torsions:
REMARK  status: ('A' for Active; 'I' for Inactive)
ROOT
ATOM      1  O1  BZF d   1      -0.047   0.353  -1.654  0.00  0.00    -0.204 OA
ATOM      2  C2  BZF d   1       0.434  -0.291  -2.778  0.00  0.00     0.174 A 
ATOM      3  C3  BZF d   1       0.691  -1.588  -2.512  0.00  0.00    -0.012 A 
ATOM      4  C3A BZF d   1       0.264  -1.788  -1.162  0.00  0.00    -0.107 A 
ATOM      5  C4  BZF d   1       0.247  -2.873  -0.333  0.00  0.00     0.055 A 
ATOM      6  C5  BZF d   1      -0.168  -2.717   0.952  0.00  0.00    -0.016 A 
ATOM      7  C6  BZF d   1      -0.566  -1.490   1.442  0.00  0.00     0.022 A 
ATOM      8  C7  BZF d   1      -0.571  -0.386   0.657  0.00  0.00     0.029 A 
ATOM      9  C7A BZF d   1      -0.184  -0.547  -0.651  0.00  0.00     0.058 A 
ENDROOT
TORSDOF 0
ENDMDL
