MODEL 1
REMARK minimizedAffinity -6.09046412
REMARK minimizedRMSD -1
REMARK  0 active torsions:
REMARK  status: ('A' for Active; 'I' for Inactive)
ROOT
ATOM      1  O1  BZF d   1      -0.238  -2.889   0.395  0.00  0.00    -0.204 OA
ATOM      2  C2  BZF d   1       0.812  -3.178  -0.454  0.00  0.00     0.174 A 
ATOM      3  C3  BZF d   1       1.242  -2.063  -1.080  0.00  0.00    -0.012 A 
ATOM      4  C3A BZF d   1       0.468  -0.997  -0.523  0.00  0.00    -0.107 A 
ATOM      5  C4  BZF d   1       0.444   0.353  -0.730  0.00  0.00     0.055 A 
ATOM      6  C5  BZF d   1      -0.482   1.105  -0.078  0.00  0.00    -0.016 A 
ATOM      7  C6  BZF d   1      -1.401   0.540   0.782  0.00  0.00     0.022 A 
ATOM      8  C7  BZF d   1      -1.413  -0.794   1.023  0.00  0.00     0.029 A 
ATOM      9  C7A BZF d   1      -0.457  -1.552   0.391  0.00  0.00     0.058 A 
ENDROOT
TORSDOF 0
ENDMDL
