MODEL 1
REMARK minimizedAffinity -5.28354692
REMARK minimizedRMSD -1
REMARK  0 active torsions:
REMARK  status: ('A' for Active; 'I' for Inactive)
ROOT
ATOM      1  O1  BZF d   1      -0.123  -0.301  -1.549  0.00  0.00    -0.204 OA
ATOM      2  C2  BZF d   1      -0.134   0.341  -0.326  0.00  0.00     0.174 A 
ATOM      3  C3  BZF d   1       0.055  -0.539   0.678  0.00  0.00    -0.012 A 
ATOM      4  C3A BZF d   1       0.285  -1.797   0.038  0.00  0.00    -0.107 A 
ATOM      5  C4  BZF d   1       0.551  -3.053   0.503  0.00  0.00     0.055 A 
ATOM      6  C5  BZF d   1       0.650  -4.079  -0.383  0.00  0.00    -0.016 A 
ATOM      7  C6  BZF d   1       0.484  -3.885  -1.739  0.00  0.00     0.022 A 
ATOM      8  C7  BZF d   1       0.224  -2.657  -2.248  0.00  0.00     0.029 A 
ATOM      9  C7A BZF d   1       0.156  -1.613  -1.359  0.00  0.00     0.058 A 
ENDROOT
TORSDOF 0
ENDMDL
