MODEL 1
REMARK minimizedAffinity -6.32144642
REMARK minimizedRMSD -1
REMARK  0 active torsions:
REMARK  status: ('A' for Active; 'I' for Inactive)
ROOT
ATOM      1  O1  BZF d   1       0.219  -0.514  -2.136  0.00  0.00    -0.204 OA
ATOM      2  C2  BZF d   1       0.215   0.524  -1.224  0.00  0.00     0.174 A 
ATOM      3  C3  BZF d   1       0.208   0.051   0.039  0.00  0.00    -0.012 A 
ATOM      4  C3A BZF d   1       0.300  -1.371  -0.091  0.00  0.00    -0.107 A 
ATOM      5  C4  BZF d   1       0.353  -2.394   0.811  0.00  0.00     0.055 A 
ATOM      6  C5  BZF d   1       0.366  -3.675   0.356  0.00  0.00    -0.016 A 
ATOM      7  C6  BZF d   1       0.323  -3.968  -0.991  0.00  0.00     0.022 A 
ATOM      8  C7  BZF d   1       0.275  -2.986  -1.924  0.00  0.00     0.029 A 
ATOM      9  C7A BZF d   1       0.295  -1.690  -1.469  0.00  0.00     0.058 A 
ENDROOT
TORSDOF 0
ENDMDL
