MODEL 1
REMARK minimizedAffinity -5.76308537
REMARK minimizedRMSD -1
REMARK  0 active torsions:
REMARK  status: ('A' for Active; 'I' for Inactive)
ROOT
ATOM      1  O1  BZF d   1      -0.117  -0.143  -1.124  0.00  0.00    -0.204 OA
ATOM      2  C2  BZF d   1      -0.671   0.397   0.021  0.00  0.00     0.174 A 
ATOM      3  C3  BZF d   1      -0.994  -0.573   0.899  0.00  0.00    -0.012 A 
ATOM      4  C3A BZF d   1      -0.534  -1.790   0.303  0.00  0.00    -0.107 A 
ATOM      5  C4  BZF d   1      -0.553  -3.096   0.700  0.00  0.00     0.055 A 
ATOM      6  C5  BZF d   1      -0.089  -4.051  -0.147  0.00  0.00    -0.016 A 
ATOM      7  C6  BZF d   1       0.396  -3.737  -1.400  0.00  0.00     0.022 A 
ATOM      8  C7  BZF d   1       0.439  -2.455  -1.837  0.00  0.00     0.029 A 
ATOM      9  C7A BZF d   1       0.001  -1.484  -0.970  0.00  0.00     0.058 A 
ENDROOT
TORSDOF 0
ENDMDL
