MODEL 1
REMARK minimizedAffinity -5.28170633
REMARK minimizedRMSD -1
REMARK  0 active torsions:
REMARK  status: ('A' for Active; 'I' for Inactive)
ROOT
ATOM      1  O1  BZF d   1       1.841   0.443  -0.611  0.00  0.00    -0.204 OA
ATOM      2  C2  BZF d   1       1.408   1.706  -0.254  0.00  0.00     0.174 A 
ATOM      3  C3  BZF d   1       0.202   1.646   0.345  0.00  0.00    -0.012 A 
ATOM      4  C3A BZF d   1      -0.099   0.251   0.448  0.00  0.00    -0.107 A 
ATOM      5  C4  BZF d   1      -1.153  -0.446   0.966  0.00  0.00     0.055 A 
ATOM      6  C5  BZF d   1      -1.175  -1.799   0.842  0.00  0.00    -0.016 A 
ATOM      7  C6  BZF d   1      -0.164  -2.486   0.201  0.00  0.00     0.022 A 
ATOM      8  C7  BZF d   1       0.904  -1.838  -0.324  0.00  0.00     0.029 A 
ATOM      9  C7A BZF d   1       0.945  -0.473  -0.171  0.00  0.00     0.058 A 
ENDROOT
TORSDOF 0
ENDMDL
