MODEL 1
REMARK minimizedAffinity -4.65040588
REMARK minimizedRMSD -1
REMARK  0 active torsions:
REMARK  status: ('A' for Active; 'I' for Inactive)
ROOT
ATOM      1  O1  BZF d   1       0.456   0.323  -1.332  0.00  0.00    -0.204 OA
ATOM      2  C2  BZF d   1       0.095   0.785  -0.081  0.00  0.00     0.174 A 
ATOM      3  C3  BZF d   1      -0.339  -0.228   0.696  0.00  0.00    -0.012 A 
ATOM      4  C3A BZF d   1      -0.157  -1.410  -0.090  0.00  0.00    -0.107 A 
ATOM      5  C4  BZF d   1      -0.390  -2.736   0.141  0.00  0.00     0.055 A 
ATOM      6  C5  BZF d   1      -0.174  -3.628  -0.861  0.00  0.00    -0.016 A 
ATOM      7  C6  BZF d   1       0.270  -3.229  -2.105  0.00  0.00     0.022 A 
ATOM      8  C7  BZF d   1       0.520  -1.926  -2.379  0.00  0.00     0.029 A 
ATOM      9  C7A BZF d   1       0.333  -1.026  -1.359  0.00  0.00     0.058 A 
ENDROOT
TORSDOF 0
ENDMDL
