MODEL 1
REMARK minimizedAffinity -5.5223279
REMARK minimizedRMSD -1
REMARK  0 active torsions:
REMARK  status: ('A' for Active; 'I' for Inactive)
ROOT
ATOM      1  O1  BZF d   1       0.331   0.339  -0.914  0.00  0.00    -0.204 OA
ATOM      2  C2  BZF d   1      -0.154   0.585   0.356  0.00  0.00     0.174 A 
ATOM      3  C3  BZF d   1      -0.675  -0.537   0.895  0.00  0.00    -0.012 A 
ATOM      4  C3A BZF d   1      -0.421  -1.567  -0.065  0.00  0.00    -0.107 A 
ATOM      5  C4  BZF d   1      -0.687  -2.907  -0.096  0.00  0.00     0.055 A 
ATOM      6  C5  BZF d   1      -0.373  -3.616  -1.212  0.00  0.00    -0.016 A 
ATOM      7  C6  BZF d   1       0.200  -3.018  -2.315  0.00  0.00     0.022 A 
ATOM      8  C7  BZF d   1       0.487  -1.693  -2.329  0.00  0.00     0.029 A 
ATOM      9  C7A BZF d   1       0.202  -0.980  -1.190  0.00  0.00     0.058 A 
ENDROOT
TORSDOF 0
ENDMDL
