MODEL 1
REMARK minimizedAffinity -3.4125638
REMARK minimizedRMSD -1
REMARK  0 active torsions:
REMARK  status: ('A' for Active; 'I' for Inactive)
ROOT
ATOM      1  O1  BZF d   1       1.264  -2.144  -1.840  0.00  0.00    -0.204 OA
ATOM      2  C2  BZF d   1       0.908  -3.475  -1.948  0.00  0.00     0.174 A 
ATOM      3  C3  BZF d   1      -0.027  -3.795  -1.030  0.00  0.00    -0.012 A 
ATOM      4  C3A BZF d   1      -0.337  -2.568  -0.364  0.00  0.00    -0.107 A 
ATOM      5  C4  BZF d   1      -1.205  -2.236   0.637  0.00  0.00     0.055 A 
ATOM      6  C5  BZF d   1      -1.213  -0.961   1.109  0.00  0.00    -0.016 A 
ATOM      7  C6  BZF d   1      -0.364   0.004   0.607  0.00  0.00     0.022 A 
ATOM      8  C7  BZF d   1       0.511  -0.277  -0.389  0.00  0.00     0.029 A 
ATOM      9  C7A BZF d   1       0.498  -1.555  -0.891  0.00  0.00     0.058 A 
ENDROOT
TORSDOF 0
ENDMDL
