MODEL 1
REMARK minimizedAffinity -0.157086685
REMARK minimizedRMSD -1
REMARK  0 active torsions:
REMARK  status: ('A' for Active; 'I' for Inactive)
ROOT
ATOM      1  C1  DEN d   1       0.004   0.553  -1.024  0.00  0.00     0.130 A 
ATOM      2  C2  DEN d   1      -1.359   0.030  -1.067  0.00  0.00    -0.031 A 
ATOM      3  C3  DEN d   1      -1.596  -0.727   0.179  0.00  0.00     0.027 A 
ATOM      4  C4  DEN d   1       0.004  -1.134   2.160  0.00  0.00     0.027 A 
ATOM      5  C5  DEN d   1       1.271  -0.899   2.646  0.00  0.00    -0.003 A 
ATOM      6  C6  DEN d   1       2.208  -0.198   1.934  0.00  0.00     0.001 A 
ATOM      7  C7  DEN d   1       1.878   0.332   0.715  0.00  0.00     0.017 A 
ATOM      8  C8  DEN d   1       0.604   0.092   0.215  0.00  0.00    -0.094 A 
ATOM      9  C9  DEN d   1      -0.333  -0.608   0.955  0.00  0.00    -0.072 A 
ENDROOT
TORSDOF 0
ENDMDL
