MODEL 1
REMARK minimizedAffinity -4.61557388
REMARK minimizedRMSD -1
REMARK  0 active torsions:
REMARK  status: ('A' for Active; 'I' for Inactive)
ROOT
ATOM      1  C1  DEN d   1       1.844  -0.488   1.662  0.00  0.00     0.130 A 
ATOM      2  C2  DEN d   1       1.195  -0.633   2.962  0.00  0.00    -0.031 A 
ATOM      3  C3  DEN d   1      -0.264  -0.520   2.760  0.00  0.00     0.027 A 
ATOM      4  C4  DEN d   1      -1.573  -0.142   0.570  0.00  0.00     0.027 A 
ATOM      5  C5  DEN d   1      -1.457   0.053  -0.788  0.00  0.00    -0.003 A 
ATOM      6  C6  DEN d   1      -0.240   0.115  -1.415  0.00  0.00     0.001 A 
ATOM      7  C7  DEN d   1       0.907  -0.065  -0.689  0.00  0.00     0.017 A 
ATOM      8  C8  DEN d   1       0.798  -0.255   0.682  0.00  0.00    -0.094 A 
ATOM      9  C9  DEN d   1      -0.441  -0.326   1.295  0.00  0.00    -0.072 A 
ENDROOT
TORSDOF 0
ENDMDL
