MODEL 1
REMARK minimizedAffinity 0.872252703
REMARK minimizedRMSD -1
REMARK  0 active torsions:
REMARK  status: ('A' for Active; 'I' for Inactive)
ROOT
ATOM      1  C1  DEN d   1       0.336   0.754  -0.369  0.00  0.00     0.130 A 
ATOM      2  C2  DEN d   1      -0.502  -0.416  -0.123  0.00  0.00    -0.031 A 
ATOM      3  C3  DEN d   1      -1.628  -0.380  -1.078  0.00  0.00     0.027 A 
ATOM      4  C4  DEN d   1      -2.148   1.360  -2.909  0.00  0.00     0.027 A 
ATOM      5  C5  DEN d   1      -1.730   2.537  -3.491  0.00  0.00    -0.003 A 
ATOM      6  C6  DEN d   1      -0.622   3.214  -3.054  0.00  0.00     0.001 A 
ATOM      7  C7  DEN d   1       0.132   2.696  -2.035  0.00  0.00     0.017 A 
ATOM      8  C8  DEN d   1      -0.287   1.514  -1.438  0.00  0.00    -0.094 A 
ATOM      9  C9  DEN d   1      -1.403   0.838  -1.902  0.00  0.00    -0.072 A 
ENDROOT
TORSDOF 0
ENDMDL
