MODEL 1
REMARK minimizedAffinity -2.59154916
REMARK minimizedRMSD -1
REMARK  0 active torsions:
REMARK  status: ('A' for Active; 'I' for Inactive)
ROOT
ATOM      1  C1  DEN d   1       0.905  -0.479   2.881  0.00  0.00     0.130 A 
ATOM      2  C2  DEN d   1       2.202  -0.859   2.327  0.00  0.00    -0.031 A 
ATOM      3  C3  DEN d   1       2.081  -0.878   0.855  0.00  0.00     0.027 A 
ATOM      4  C4  DEN d   1       0.025  -0.355  -0.611  0.00  0.00     0.027 A 
ATOM      5  C5  DEN d   1      -1.305   0.003  -0.593  0.00  0.00    -0.003 A 
ATOM      6  C6  DEN d   1      -1.995   0.191   0.576  0.00  0.00     0.001 A 
ATOM      7  C7  DEN d   1      -1.345   0.065   1.775  0.00  0.00     0.017 A 
ATOM      8  C8  DEN d   1      -0.006  -0.303   1.765  0.00  0.00    -0.094 A 
ATOM      9  C9  DEN d   1       0.677  -0.476   0.573  0.00  0.00    -0.072 A 
ENDROOT
TORSDOF 0
ENDMDL
