MODEL 1
REMARK minimizedAffinity -5.42638874
REMARK minimizedRMSD -1
REMARK  0 active torsions:
REMARK  status: ('A' for Active; 'I' for Inactive)
ROOT
ATOM      1  C1  DEN d   1       2.260  -0.663   1.168  0.00  0.00     0.130 A 
ATOM      2  C2  DEN d   1       1.890  -0.629   2.580  0.00  0.00    -0.031 A 
ATOM      3  C3  DEN d   1       0.447  -0.328   2.667  0.00  0.00     0.027 A 
ATOM      4  C4  DEN d   1      -1.242   0.082   0.761  0.00  0.00     0.027 A 
ATOM      5  C5  DEN d   1      -1.394   0.167  -0.605  0.00  0.00    -0.003 A 
ATOM      6  C6  DEN d   1      -0.341   0.017  -1.468  0.00  0.00     0.001 A 
ATOM      7  C7  DEN d   1       0.904  -0.271  -0.975  0.00  0.00     0.017 A 
ATOM      8  C8  DEN d   1       1.067  -0.352   0.402  0.00  0.00    -0.094 A 
ATOM      9  C9  DEN d   1      -0.013  -0.209   1.257  0.00  0.00    -0.072 A 
ENDROOT
TORSDOF 0
ENDMDL
