MODEL 1
REMARK minimizedAffinity -0.930030107
REMARK minimizedRMSD -1
REMARK  0 active torsions:
REMARK  status: ('A' for Active; 'I' for Inactive)
ROOT
ATOM      1  C1  DEN d   1       1.018   0.399  -1.061  0.00  0.00     0.130 A 
ATOM      2  C2  DEN d   1      -0.217   0.724  -1.770  0.00  0.00    -0.031 A 
ATOM      3  C3  DEN d   1      -1.352   0.400  -0.882  0.00  0.00     0.027 A 
ATOM      4  C4  DEN d   1      -1.317  -0.565   1.510  0.00  0.00     0.027 A 
ATOM      5  C5  DEN d   1      -0.504  -1.014   2.527  0.00  0.00    -0.003 A 
ATOM      6  C6  DEN d   1       0.860  -1.055   2.408  0.00  0.00     0.001 A 
ATOM      7  C7  DEN d   1       1.455  -0.597   1.263  0.00  0.00     0.017 A 
ATOM      8  C8  DEN d   1       0.642  -0.150   0.230  0.00  0.00    -0.094 A 
ATOM      9  C9  DEN d   1      -0.734  -0.105   0.374  0.00  0.00    -0.072 A 
ENDROOT
TORSDOF 0
ENDMDL
