MODEL 1
REMARK minimizedAffinity -2.58494854
REMARK minimizedRMSD -1
REMARK  0 active torsions:
REMARK  status: ('A' for Active; 'I' for Inactive)
ROOT
ATOM      1  C1  DEN d   1       3.502  -1.740   1.691  0.00  0.00     0.130 A 
ATOM      2  C2  DEN d   1       3.659  -2.232   0.325  0.00  0.00    -0.031 A 
ATOM      3  C3  DEN d   1       2.364  -2.079  -0.367  0.00  0.00     0.027 A 
ATOM      4  C4  DEN d   1       0.143  -1.128   0.537  0.00  0.00     0.027 A 
ATOM      5  C5  DEN d   1      -0.483  -0.595   1.642  0.00  0.00    -0.003 A 
ATOM      6  C6  DEN d   1       0.161  -0.440   2.841  0.00  0.00     0.001 A 
ATOM      7  C7  DEN d   1       1.483  -0.779   2.951  0.00  0.00     0.017 A 
ATOM      8  C8  DEN d   1       2.119  -1.324   1.843  0.00  0.00    -0.094 A 
ATOM      9  C9  DEN d   1       1.455  -1.462   0.636  0.00  0.00    -0.072 A 
ENDROOT
TORSDOF 0
ENDMDL
