MODEL 1
REMARK minimizedAffinity 14.9602938
REMARK minimizedRMSD -1
REMARK  2 active torsions:
REMARK  status: ('A' for Active; 'I' for Inactive)
REMARK    1  A    between atoms: C2'_3  and  C1'_4 
REMARK    2  A    between atoms: C1'_4  and  C1_5 
ROOT
ATOM      1  C1  I4B d   1      -4.166   3.473  -5.333  0.00  0.00    -0.075 A 
ATOM      2  C2  I4B d   1      -3.577   4.513  -4.660  0.00  0.00     0.003 A 
ATOM      3  C3  I4B d   1      -4.194   5.787  -4.636  0.00  0.00     0.002 A 
ATOM      4  C4  I4B d   1      -5.366   5.988  -5.335  0.00  0.00    -0.004 A 
ATOM      5  C5  I4B d   1      -5.974   4.926  -5.999  0.00  0.00     0.002 A 
ATOM      6  C6  I4B d   1      -5.377   3.657  -5.988  0.00  0.00     0.003 A 
ENDROOT
BRANCH   1   7
ATOM      7  C1' I4B d   1      -3.471   2.149  -5.366  0.00  0.00     0.060 C 
BRANCH   7   8
ATOM      8  C2' I4B d   1      -2.774   1.954  -4.035  0.00  0.00    -0.013 C 
ATOM      9  C4' I4B d   1      -3.313   0.750  -3.308  0.00  0.00     0.013 C 
ATOM     10  C3' I4B d   1      -1.304   1.815  -4.297  0.00  0.00     0.013 C 
ENDBRANCH   7   8
ENDBRANCH   1   7
TORSDOF 2
ENDMDL
