MODEL 1
REMARK minimizedAffinity 13.0490713
REMARK minimizedRMSD -1
REMARK  2 active torsions:
REMARK  status: ('A' for Active; 'I' for Inactive)
REMARK    1  A    between atoms: C2'_3  and  C1'_4 
REMARK    2  A    between atoms: C1'_4  and  C1_5 
ROOT
ATOM      1  C1  I4B d   1       3.871   2.653   5.348  0.00  0.00    -0.075 A 
ATOM      2  C2  I4B d   1       4.388   2.428   4.097  0.00  0.00     0.003 A 
ATOM      3  C3  I4B d   1       4.205   1.175   3.464  0.00  0.00     0.002 A 
ATOM      4  C4  I4B d   1       3.546   0.165   4.135  0.00  0.00    -0.004 A 
ATOM      5  C5  I4B d   1       3.002   0.402   5.394  0.00  0.00     0.002 A 
ATOM      6  C6  I4B d   1       3.154   1.658   6.000  0.00  0.00     0.003 A 
ENDROOT
BRANCH   1   7
ATOM      7  C1' I4B d   1       4.112   3.978   6.000  0.00  0.00     0.060 C 
BRANCH   7   8
ATOM      8  C2' I4B d   1       4.134   5.035   4.915  0.00  0.00    -0.013 C 
ATOM      9  C4' I4B d   1       2.952   5.961   5.032  0.00  0.00     0.013 C 
ATOM     10  C3' I4B d   1       5.425   5.789   5.029  0.00  0.00     0.013 C 
ENDBRANCH   7   8
ENDBRANCH   1   7
TORSDOF 2
ENDMDL
