MODEL 1
REMARK minimizedAffinity 15.2831364
REMARK minimizedRMSD -1
REMARK  2 active torsions:
REMARK  status: ('A' for Active; 'I' for Inactive)
REMARK    1  A    between atoms: C2'_3  and  C1'_4 
REMARK    2  A    between atoms: C1'_4  and  C1_5 
ROOT
ATOM      1  C1  I4B d   1      -1.245  -0.288  -2.698  0.00  0.00    -0.075 A 
ATOM      2  C2  I4B d   1      -0.452  -1.200  -2.049  0.00  0.00     0.003 A 
ATOM      3  C3  I4B d   1      -0.905  -1.821  -0.860  0.00  0.00     0.002 A 
ATOM      4  C4  I4B d   1      -2.129  -1.464  -0.331  0.00  0.00    -0.004 A 
ATOM      5  C5  I4B d   1      -2.942  -0.556  -1.003  0.00  0.00     0.002 A 
ATOM      6  C6  I4B d   1      -2.503   0.027  -2.201  0.00  0.00     0.003 A 
ENDROOT
BRANCH   1   7
ATOM      7  C1' I4B d   1      -0.722   0.373  -3.934  0.00  0.00     0.060 C 
BRANCH   7   8
ATOM      8  C2' I4B d   1      -0.911   1.868  -3.780  0.00  0.00    -0.013 C 
ATOM      9  C4' I4B d   1       0.222   2.630  -4.415  0.00  0.00     0.013 C 
ATOM     10  C3' I4B d   1      -2.225   2.235  -4.401  0.00  0.00     0.013 C 
ENDBRANCH   7   8
ENDBRANCH   1   7
TORSDOF 2
ENDMDL
