MODEL 1
REMARK minimizedAffinity 6.82673073
REMARK minimizedRMSD -1
REMARK  2 active torsions:
REMARK  status: ('A' for Active; 'I' for Inactive)
REMARK    1  A    between atoms: C2'_3  and  C1'_4 
REMARK    2  A    between atoms: C1'_4  and  C1_5 
ROOT
ATOM      1  C1  I4B d   1       3.812   3.166   3.431  0.00  0.00    -0.075 A 
ATOM      2  C2  I4B d   1       5.015   2.733   2.933  0.00  0.00     0.003 A 
ATOM      3  C3  I4B d   1       5.165   2.486   1.546  0.00  0.00     0.002 A 
ATOM      4  C4  I4B d   1       4.079   2.634   0.708  0.00  0.00    -0.004 A 
ATOM      5  C5  I4B d   1       2.866   3.095   1.212  0.00  0.00     0.002 A 
ATOM      6  C6  I4B d   1       2.734   3.374   2.580  0.00  0.00     0.003 A 
ENDROOT
BRANCH   1   7
ATOM      7  C1' I4B d   1       3.680   3.386   4.905  0.00  0.00     0.060 C 
BRANCH   7   8
ATOM      8  C2' I4B d   1       4.243   4.756   5.225  0.00  0.00    -0.013 C 
ATOM      9  C4' I4B d   1       3.252   5.585   5.999  0.00  0.00     0.013 C 
ATOM     10  C3' I4B d   1       5.512   4.565   6.000  0.00  0.00     0.013 C 
ENDBRANCH   7   8
ENDBRANCH   1   7
TORSDOF 2
ENDMDL
