MODEL 1
REMARK minimizedAffinity 9.27935028
REMARK minimizedRMSD -1
REMARK  2 active torsions:
REMARK  status: ('A' for Active; 'I' for Inactive)
REMARK    1  A    between atoms: C2'_3  and  C1'_4 
REMARK    2  A    between atoms: C1'_4  and  C1_5 
ROOT
ATOM      1  C1  I4B d   1      -1.380  -1.543  -0.182  0.00  0.00    -0.075 A 
ATOM      2  C2  I4B d   1      -2.667  -1.268   0.207  0.00  0.00     0.003 A 
ATOM      3  C3  I4B d   1      -3.253  -1.976   1.285  0.00  0.00     0.002 A 
ATOM      4  C4  I4B d   1      -2.538  -2.979   1.907  0.00  0.00    -0.004 A 
ATOM      5  C5  I4B d   1      -1.225  -3.241   1.526  0.00  0.00     0.002 A 
ATOM      6  C6  I4B d   1      -0.638  -2.510   0.483  0.00  0.00     0.003 A 
ENDROOT
BRANCH   1   7
ATOM      7  C1' I4B d   1      -0.805  -0.800  -1.346  0.00  0.00     0.060 C 
BRANCH   7   8
ATOM      8  C2' I4B d   1      -1.537  -1.247  -2.594  0.00  0.00    -0.013 C 
ATOM      9  C4' I4B d   1      -2.371  -0.131  -3.166  0.00  0.00     0.013 C 
ATOM     10  C3' I4B d   1      -0.516  -1.722  -3.584  0.00  0.00     0.013 C 
ENDBRANCH   7   8
ENDBRANCH   1   7
TORSDOF 2
ENDMDL
