MODEL 1
REMARK minimizedAffinity 16.6397438
REMARK minimizedRMSD -1
REMARK  2 active torsions:
REMARK  status: ('A' for Active; 'I' for Inactive)
REMARK    1  A    between atoms: C2'_3  and  C1'_4 
REMARK    2  A    between atoms: C1'_4  and  C1_5 
ROOT
ATOM      1  C1  I4B d   1       4.413   4.022   4.103  0.00  0.00    -0.075 A 
ATOM      2  C2  I4B d   1       3.388   4.589   4.819  0.00  0.00     0.003 A 
ATOM      3  C3  I4B d   1       3.658   5.606   5.766  0.00  0.00     0.002 A 
ATOM      4  C4  I4B d   1       4.963   5.988   6.000  0.00  0.00    -0.004 A 
ATOM      5  C5  I4B d   1       5.998   5.429   5.256  0.00  0.00     0.002 A 
ATOM      6  C6  I4B d   1       5.721   4.448   4.293  0.00  0.00     0.003 A 
ENDROOT
BRANCH   1   7
ATOM      7  C1' I4B d   1       4.096   2.927   3.134  0.00  0.00     0.060 C 
BRANCH   7   8
ATOM      8  C2' I4B d   1       4.754   3.268   1.813  0.00  0.00    -0.013 C 
ATOM      9  C4' I4B d   1       5.591   2.122   1.309  0.00  0.00     0.013 C 
ATOM     10  C3' I4B d   1       3.673   3.619   0.835  0.00  0.00     0.013 C 
ENDBRANCH   7   8
ENDBRANCH   1   7
TORSDOF 2
ENDMDL
