MODEL 1
REMARK minimizedAffinity 26.6352177
REMARK minimizedRMSD -1
REMARK  2 active torsions:
REMARK  status: ('A' for Active; 'I' for Inactive)
REMARK    1  A    between atoms: C2'_3  and  C1'_4 
REMARK    2  A    between atoms: C1'_4  and  C1_5 
ROOT
ATOM      1  C1  I4B d   1       4.271   3.112   5.969  0.00  0.00    -0.075 A 
ATOM      2  C2  I4B d   1       5.357   3.951   5.940  0.00  0.00     0.003 A 
ATOM      3  C3  I4B d   1       5.173   5.355   5.932  0.00  0.00     0.002 A 
ATOM      4  C4  I4B d   1       3.894   5.873   5.902  0.00  0.00    -0.004 A 
ATOM      5  C5  I4B d   1       2.794   5.021   5.954  0.00  0.00     0.002 A 
ATOM      6  C6  I4B d   1       2.984   3.632   6.000  0.00  0.00     0.003 A 
ENDROOT
BRANCH   1   7
ATOM      7  C1' I4B d   1       4.502   1.634   5.943  0.00  0.00     0.060 C 
BRANCH   7   8
ATOM      8  C2' I4B d   1       3.410   1.006   5.101  0.00  0.00    -0.013 C 
ATOM      9  C4' I4B d   1       3.991   0.199   3.970  0.00  0.00     0.013 C 
ATOM     10  C3' I4B d   1       2.567   0.151   5.999  0.00  0.00     0.013 C 
ENDBRANCH   7   8
ENDBRANCH   1   7
TORSDOF 2
ENDMDL
