MODEL 1
REMARK minimizedAffinity 18.0338974
REMARK minimizedRMSD -1
REMARK  2 active torsions:
REMARK  status: ('A' for Active; 'I' for Inactive)
REMARK    1  A    between atoms: C2'_3  and  C1'_4 
REMARK    2  A    between atoms: C1'_4  and  C1_5 
ROOT
ATOM      1  C1  I4B d   1      -3.786  -1.373   0.284  0.00  0.00    -0.075 A 
ATOM      2  C2  I4B d   1      -2.787  -1.810   1.118  0.00  0.00     0.003 A 
ATOM      3  C3  I4B d   1      -1.451  -1.876   0.655  0.00  0.00     0.002 A 
ATOM      4  C4  I4B d   1      -1.168  -1.546  -0.655  0.00  0.00    -0.004 A 
ATOM      5  C5  I4B d   1      -2.179  -1.081  -1.492  0.00  0.00     0.002 A 
ATOM      6  C6  I4B d   1      -3.494  -0.983  -1.016  0.00  0.00     0.003 A 
ENDROOT
BRANCH   1   7
ATOM      7  C1' I4B d   1      -5.192  -1.348   0.796  0.00  0.00     0.060 C 
BRANCH   7   8
ATOM      8  C2' I4B d   1      -5.284  -2.318   1.956  0.00  0.00    -0.013 C 
ATOM      9  C4' I4B d   1      -6.000  -1.699   3.128  0.00  0.00     0.013 C 
ATOM     10  C3' I4B d   1      -5.994  -3.548   1.476  0.00  0.00     0.013 C 
ENDBRANCH   7   8
ENDBRANCH   1   7
TORSDOF 2
ENDMDL
