MODEL 1
REMARK minimizedAffinity 12.9565477
REMARK minimizedRMSD -1
REMARK  2 active torsions:
REMARK  status: ('A' for Active; 'I' for Inactive)
REMARK    1  A    between atoms: C2'_3  and  C1'_4 
REMARK    2  A    between atoms: C1'_4  and  C1_5 
ROOT
ATOM      1  C1  I4B d   1       4.544   3.351   5.154  0.00  0.00    -0.075 A 
ATOM      2  C2  I4B d   1       5.775   3.856   5.488  0.00  0.00     0.003 A 
ATOM      3  C3  I4B d   1       5.899   5.191   5.943  0.00  0.00     0.002 A 
ATOM      4  C4  I4B d   1       4.779   5.996   6.000  0.00  0.00    -0.004 A 
ATOM      5  C5  I4B d   1       3.528   5.475   5.683  0.00  0.00     0.002 A 
ATOM      6  C6  I4B d   1       3.407   4.141   5.269  0.00  0.00     0.003 A 
ENDROOT
BRANCH   1   7
ATOM      7  C1' I4B d   1       4.454   1.947   4.646  0.00  0.00     0.060 C 
BRANCH   7   8
ATOM      8  C2' I4B d   1       3.620   1.148   5.626  0.00  0.00    -0.013 C 
ATOM      9  C4' I4B d   1       2.361   1.886   5.998  0.00  0.00     0.013 C 
ATOM     10  C3' I4B d   1       3.305  -0.176   4.995  0.00  0.00     0.013 C 
ENDBRANCH   7   8
ENDBRANCH   1   7
TORSDOF 2
ENDMDL
