MODEL 1
REMARK minimizedAffinity 16.4216442
REMARK minimizedRMSD -1
REMARK  2 active torsions:
REMARK  status: ('A' for Active; 'I' for Inactive)
REMARK    1  A    between atoms: C2'_3  and  C1'_4 
REMARK    2  A    between atoms: C1'_4  and  C1_5 
ROOT
ATOM      1  C1  I4B d   1       0.146  -1.248  -1.539  0.00  0.00    -0.075 A 
ATOM      2  C2  I4B d   1       0.399  -1.900  -0.358  0.00  0.00     0.003 A 
ATOM      3  C3  I4B d   1      -0.638  -2.091   0.587  0.00  0.00     0.002 A 
ATOM      4  C4  I4B d   1      -1.892  -1.572   0.334  0.00  0.00    -0.004 A 
ATOM      5  C5  I4B d   1      -2.152  -0.932  -0.874  0.00  0.00     0.002 A 
ATOM      6  C6  I4B d   1      -1.130  -0.779  -1.822  0.00  0.00     0.003 A 
ENDROOT
BRANCH   1   7
ATOM      7  C1' I4B d   1       1.273  -1.035  -2.500  0.00  0.00     0.060 C 
BRANCH   7   8
ATOM      8  C2' I4B d   1       2.459  -0.506  -1.719  0.00  0.00    -0.013 C 
ATOM      9  C4' I4B d   1       3.716  -1.261  -2.059  0.00  0.00     0.013 C 
ATOM     10  C3' I4B d   1       2.603   0.954  -2.029  0.00  0.00     0.013 C 
ENDBRANCH   7   8
ENDBRANCH   1   7
TORSDOF 2
ENDMDL
