MODEL 1
REMARK minimizedAffinity 11.3514557
REMARK minimizedRMSD -1
REMARK  2 active torsions:
REMARK  status: ('A' for Active; 'I' for Inactive)
REMARK    1  A    between atoms: C2'_3  and  C1'_4 
REMARK    2  A    between atoms: C1'_4  and  C1_5 
ROOT
ATOM      1  C1  I4B d   1       0.996  -0.445  -1.296  0.00  0.00    -0.075 A 
ATOM      2  C2  I4B d   1       0.647  -0.754  -2.587  0.00  0.00     0.003 A 
ATOM      3  C3  I4B d   1      -0.683  -1.129  -2.895  0.00  0.00     0.002 A 
ATOM      4  C4  I4B d   1      -1.613  -1.231  -1.881  0.00  0.00    -0.004 A 
ATOM      5  C5  I4B d   1      -1.263  -0.896  -0.576  0.00  0.00     0.002 A 
ATOM      6  C6  I4B d   1       0.046  -0.489  -0.283  0.00  0.00     0.003 A 
ENDROOT
BRANCH   1   7
ATOM      7  C1' I4B d   1       2.417  -0.085  -1.000  0.00  0.00     0.060 C 
BRANCH   7   8
ATOM      8  C2' I4B d   1       2.625   1.362  -1.401  0.00  0.00    -0.013 C 
ATOM      9  C4' I4B d   1       2.602   2.269  -0.199  0.00  0.00     0.013 C 
ATOM     10  C3' I4B d   1       3.933   1.458  -2.127  0.00  0.00     0.013 C 
ENDBRANCH   7   8
ENDBRANCH   1   7
TORSDOF 2
ENDMDL
