MODEL 1
REMARK minimizedAffinity 1.87967515
REMARK minimizedRMSD -1
REMARK  2 active torsions:
REMARK  status: ('A' for Active; 'I' for Inactive)
REMARK    1  A    between atoms: C2'_3  and  C1'_4 
REMARK    2  A    between atoms: C1'_4  and  C1_5 
ROOT
ATOM      1  C1  I4B d   1       3.879   3.473   4.005  0.00  0.00    -0.075 A 
ATOM      2  C2  I4B d   1       5.137   3.717   4.496  0.00  0.00     0.003 A 
ATOM      3  C3  I4B d   1       5.327   4.669   5.528  0.00  0.00     0.002 A 
ATOM      4  C4  I4B d   1       4.245   5.384   6.000  0.00  0.00    -0.004 A 
ATOM      5  C5  I4B d   1       2.967   5.119   5.516  0.00  0.00     0.002 A 
ATOM      6  C6  I4B d   1       2.781   4.148   4.521  0.00  0.00     0.003 A 
ENDROOT
BRANCH   1   7
ATOM      7  C1' I4B d   1       3.719   2.486   2.892  0.00  0.00     0.060 C 
BRANCH   7   8
ATOM      8  C2' I4B d   1       3.275   3.242   1.657  0.00  0.00    -0.013 C 
ATOM      9  C4' I4B d   1       4.454   3.805   0.908  0.00  0.00     0.013 C 
ATOM     10  C3' I4B d   1       2.486   2.300   0.796  0.00  0.00     0.013 C 
ENDBRANCH   7   8
ENDBRANCH   1   7
TORSDOF 2
ENDMDL
