MODEL 1
REMARK minimizedAffinity 8.23073101
REMARK minimizedRMSD -1
REMARK  2 active torsions:
REMARK  status: ('A' for Active; 'I' for Inactive)
REMARK    1  A    between atoms: C2'_3  and  C1'_4 
REMARK    2  A    between atoms: C1'_4  and  C1_5 
ROOT
ATOM      1  C1  I4B d   1       4.526   3.033   3.418  0.00  0.00    -0.075 A 
ATOM      2  C2  I4B d   1       3.387   3.001   4.183  0.00  0.00     0.003 A 
ATOM      3  C3  I4B d   1       3.387   3.555   5.486  0.00  0.00     0.002 A 
ATOM      4  C4  I4B d   1       4.555   4.083   6.000  0.00  0.00    -0.004 A 
ATOM      5  C5  I4B d   1       5.702   4.135   5.214  0.00  0.00     0.002 A 
ATOM      6  C6  I4B d   1       5.685   3.619   3.911  0.00  0.00     0.003 A 
ENDROOT
BRANCH   1   7
ATOM      7  C1' I4B d   1       4.499   2.409   2.059  0.00  0.00     0.060 C 
BRANCH   7   8
ATOM      8  C2' I4B d   1       3.735   3.335   1.135  0.00  0.00    -0.013 C 
ATOM      9  C4' I4B d   1       4.618   3.858   0.033  0.00  0.00     0.013 C 
ATOM     10  C3' I4B d   1       2.568   2.575   0.579  0.00  0.00     0.013 C 
ENDBRANCH   7   8
ENDBRANCH   1   7
TORSDOF 2
ENDMDL
