MODEL 1
REMARK minimizedAffinity 5.61581182
REMARK minimizedRMSD -1
REMARK  0 active torsions:
REMARK  status: ('A' for Active; 'I' for Inactive)
ROOT
ATOM      1  C4' PXY d   1       4.916   3.757   2.318  0.00  0.00     0.077 C 
ATOM      2  C1' PXY d   1       3.407  -0.386  -1.420  0.00  0.00     0.077 C 
ATOM      3  C1  PXY d   1       3.815   0.699  -0.443  0.00  0.00    -0.082 A 
ATOM      4  C2  PXY d   1       3.028   0.987   0.581  0.00  0.00     0.003 A 
ATOM      5  C3  PXY d   1       3.367   1.987   1.456  0.00  0.00     0.003 A 
ATOM      6  C4  PXY d   1       4.548   2.663   1.312  0.00  0.00    -0.082 A 
ATOM      7  C5  PXY d   1       5.362   2.368   0.275  0.00  0.00     0.003 A 
ATOM      8  C6  PXY d   1       4.980   1.378  -0.625  0.00  0.00     0.003 A 
ENDROOT
TORSDOF 0
ENDMDL
