MODEL 1
REMARK minimizedAffinity 6.66690969
REMARK minimizedRMSD -1
REMARK  0 active torsions:
REMARK  status: ('A' for Active; 'I' for Inactive)
ROOT
ATOM      1  C4' PXY d   1      -5.997   0.071  -4.465  0.00  0.00     0.077 C 
ATOM      2  C1' PXY d   1      -0.978   1.346  -1.898  0.00  0.00     0.077 C 
ATOM      3  C1  PXY d   1      -2.293   1.023  -2.578  0.00  0.00    -0.082 A 
ATOM      4  C2  PXY d   1      -3.153   0.209  -1.986  0.00  0.00     0.003 A 
ATOM      5  C3  PXY d   1      -4.334  -0.119  -2.602  0.00  0.00     0.003 A 
ATOM      6  C4  PXY d   1      -4.661   0.433  -3.811  0.00  0.00    -0.082 A 
ATOM      7  C5  PXY d   1      -3.794   1.272  -4.417  0.00  0.00     0.003 A 
ATOM      8  C6  PXY d   1      -2.583   1.560  -3.795  0.00  0.00     0.003 A 
ENDROOT
TORSDOF 0
ENDMDL
