MODEL 1
REMARK minimizedAffinity 14.9443331
REMARK minimizedRMSD -1
REMARK  0 active torsions:
REMARK  status: ('A' for Active; 'I' for Inactive)
ROOT
ATOM      1  C4' PXY d   1       6.000   2.258  -2.580  0.00  0.00     0.077 C 
ATOM      2  C1' PXY d   1       1.600  -1.272  -1.315  0.00  0.00     0.077 C 
ATOM      3  C1  PXY d   1       2.759  -0.355  -1.654  0.00  0.00    -0.082 A 
ATOM      4  C2  PXY d   1       3.093   0.615  -0.819  0.00  0.00     0.003 A 
ATOM      5  C3  PXY d   1       4.117   1.472  -1.125  0.00  0.00     0.003 A 
ATOM      6  C4  PXY d   1       4.843   1.303  -2.274  0.00  0.00    -0.082 A 
ATOM      7  C5  PXY d   1       4.516   0.309  -3.127  0.00  0.00     0.003 A 
ATOM      8  C6  PXY d   1       3.446  -0.526  -2.817  0.00  0.00     0.003 A 
ENDROOT
TORSDOF 0
ENDMDL
