MODEL 1
REMARK minimizedAffinity 12.4011517
REMARK minimizedRMSD -1
REMARK  0 active torsions:
REMARK  status: ('A' for Active; 'I' for Inactive)
ROOT
ATOM      1  C4' PXY d   1      -5.997  -1.804  -4.467  0.00  0.00     0.077 C 
ATOM      2  C1' PXY d   1      -3.766   3.525  -4.656  0.00  0.00     0.077 C 
ATOM      3  C1  PXY d   1      -4.352   2.129  -4.593  0.00  0.00    -0.082 A 
ATOM      4  C2  PXY d   1      -4.133   1.282  -5.587  0.00  0.00     0.003 A 
ATOM      5  C3  PXY d   1      -4.681   0.026  -5.561  0.00  0.00     0.003 A 
ATOM      6  C4  PXY d   1      -5.418  -0.387  -4.483  0.00  0.00    -0.082 A 
ATOM      7  C5  PXY d   1      -5.637   0.467  -3.461  0.00  0.00     0.003 A 
ATOM      8  C6  PXY d   1      -5.105   1.752  -3.525  0.00  0.00     0.003 A 
ENDROOT
TORSDOF 0
ENDMDL
