MODEL 1
REMARK minimizedAffinity 10.7671089
REMARK minimizedRMSD -1
REMARK  0 active torsions:
REMARK  status: ('A' for Active; 'I' for Inactive)
ROOT
ATOM      1  C4' PXY d   1       1.785  -1.577  -1.134  0.00  0.00     0.077 C 
ATOM      2  C1' PXY d   1       5.998   2.201  -2.313  0.00  0.00     0.077 C 
ATOM      3  C1  PXY d   1       4.897   1.210  -1.991  0.00  0.00    -0.082 A 
ATOM      4  C2  PXY d   1       4.421   0.427  -2.946  0.00  0.00     0.003 A 
ATOM      5  C3  PXY d   1       3.403  -0.452  -2.680  0.00  0.00     0.003 A 
ATOM      6  C4  PXY d   1       2.903  -0.569  -1.411  0.00  0.00    -0.082 A 
ATOM      7  C5  PXY d   1       3.391   0.218  -0.429  0.00  0.00     0.003 A 
ATOM      8  C6  PXY d   1       4.396   1.133  -0.729  0.00  0.00     0.003 A 
ENDROOT
TORSDOF 0
ENDMDL
