MODEL 1
REMARK minimizedAffinity 4.8587923
REMARK minimizedRMSD -1
REMARK  0 active torsions:
REMARK  status: ('A' for Active; 'I' for Inactive)
ROOT
ATOM      1  C4' PXY d   1       4.332  -0.987  -4.182  0.00  0.00     0.077 C 
ATOM      2  C1' PXY d   1       2.841   0.601   1.172  0.00  0.00     0.077 C 
ATOM      3  C1  PXY d   1       3.241   0.194  -0.233  0.00  0.00    -0.082 A 
ATOM      4  C2  PXY d   1       2.386  -0.477  -0.987  0.00  0.00     0.003 A 
ATOM      5  C3  PXY d   1       2.743  -0.881  -2.248  0.00  0.00     0.003 A 
ATOM      6  C4  PXY d   1       3.968  -0.548  -2.762  0.00  0.00    -0.082 A 
ATOM      7  C5  PXY d   1       4.841   0.146  -2.002  0.00  0.00     0.003 A 
ATOM      8  C6  PXY d   1       4.475   0.511  -0.710  0.00  0.00     0.003 A 
ENDROOT
TORSDOF 0
ENDMDL
