MODEL 1
REMARK minimizedAffinity 0.414651334
REMARK minimizedRMSD -1
REMARK  0 active torsions:
REMARK  status: ('A' for Active; 'I' for Inactive)
ROOT
ATOM      1  C4' PXY d   1      -5.885   0.944   1.070  0.00  0.00     0.077 C 
ATOM      2  C1' PXY d   1      -0.716   3.497   0.650  0.00  0.00     0.077 C 
ATOM      3  C1  PXY d   1      -2.071   2.829   0.773  0.00  0.00    -0.082 A 
ATOM      4  C2  PXY d   1      -2.473   1.988  -0.165  0.00  0.00     0.003 A 
ATOM      5  C3  PXY d   1      -3.709   1.399  -0.086  0.00  0.00     0.003 A 
ATOM      6  C4  PXY d   1      -4.520   1.634   0.992  0.00  0.00    -0.082 A 
ATOM      7  C5  PXY d   1      -4.113   2.483   1.959  0.00  0.00     0.003 A 
ATOM      8  C6  PXY d   1      -2.872   3.102   1.839  0.00  0.00     0.003 A 
ENDROOT
TORSDOF 0
ENDMDL
