MODEL 1
REMARK minimizedAffinity 3.17388225
REMARK minimizedRMSD -1
REMARK  0 active torsions:
REMARK  status: ('A' for Active; 'I' for Inactive)
ROOT
ATOM      1  C4' PXY d   1       3.002   1.890  -0.309  0.00  0.00     0.077 C 
ATOM      2  C1' PXY d   1      -0.657  -2.584  -0.410  0.00  0.00     0.077 C 
ATOM      3  C1  PXY d   1       0.293  -1.403  -0.389  0.00  0.00    -0.082 A 
ATOM      4  C2  PXY d   1       1.599  -1.613  -0.436  0.00  0.00     0.003 A 
ATOM      5  C3  PXY d   1       2.473  -0.558  -0.385  0.00  0.00     0.003 A 
ATOM      6  C4  PXY d   1       2.005   0.728  -0.339  0.00  0.00    -0.082 A 
ATOM      7  C5  PXY d   1       0.674   0.951  -0.300  0.00  0.00     0.003 A 
ATOM      8  C6  PXY d   1      -0.196  -0.135  -0.311  0.00  0.00     0.003 A 
ENDROOT
TORSDOF 0
ENDMDL
