MODEL 1
REMARK minimizedAffinity 2.58779478
REMARK minimizedRMSD -1
REMARK  0 active torsions:
REMARK  status: ('A' for Active; 'I' for Inactive)
ROOT
ATOM      1  C4' PXY d   1       0.261   2.579   1.948  0.00  0.00     0.077 C 
ATOM      2  C1' PXY d   1      -0.330  -1.862  -1.705  0.00  0.00     0.077 C 
ATOM      3  C1  PXY d   1      -0.164  -0.694  -0.753  0.00  0.00    -0.082 A 
ATOM      4  C2  PXY d   1      -0.693  -0.757   0.458  0.00  0.00     0.003 A 
ATOM      5  C3  PXY d   1      -0.580   0.304   1.320  0.00  0.00     0.003 A 
ATOM      6  C4  PXY d   1       0.126   1.419   0.957  0.00  0.00    -0.082 A 
ATOM      7  C5  PXY d   1       0.678   1.487  -0.273  0.00  0.00     0.003 A 
ATOM      8  C6  PXY d   1       0.516   0.416  -1.148  0.00  0.00     0.003 A 
ENDROOT
TORSDOF 0
ENDMDL
