MODEL 1
REMARK minimizedAffinity 0.456840187
REMARK minimizedRMSD -1
REMARK  2 active torsions:
REMARK  status: ('A' for Active; 'I' for Inactive)
REMARK    1  A    between atoms: C1_2  and  C2_3 
REMARK    2  A    between atoms: C2_3  and  C3_4 
ROOT
ATOM      1  C3  UNL d   1       0.757  -0.671  -1.144  0.00  0.00    -0.075 A 
ATOM      2  C4  UNL d   1       1.078  -0.724   0.220  0.00  0.00     0.002 A 
ATOM      3  C5  UNL d   1       1.369   0.445   0.925  0.00  0.00     0.002 A 
ATOM      4  C6  UNL d   1       1.352   1.677   0.275  0.00  0.00    -0.004 A 
ATOM      5  C7  UNL d   1       1.052   1.739  -1.084  0.00  0.00     0.002 A 
ATOM      6  C8  UNL d   1       0.756   0.572  -1.791  0.00  0.00     0.002 A 
ENDROOT
BRANCH   1   7
ATOM      7  C2  UNL d   1       0.413  -1.928  -1.907  0.00  0.00     0.056 C 
BRANCH   7   8
ATOM      8  C1  UNL d   1      -1.077  -2.285  -1.880  0.00  0.00     0.007 C 
ATOM      9  C   UNL d   1      -1.367  -3.597  -1.164  0.00  0.00     0.009 C 
ENDBRANCH   7   8
ENDBRANCH   1   7
TORSDOF 2
ENDMDL
