MODEL 1
REMARK minimizedAffinity 7.06634951
REMARK minimizedRMSD -1
REMARK  2 active torsions:
REMARK  status: ('A' for Active; 'I' for Inactive)
REMARK    1  A    between atoms: C1_2  and  C2_3 
REMARK    2  A    between atoms: C2_3  and  C3_4 
ROOT
ATOM      1  C3  UNL d   1       1.353   2.339  -1.248  0.00  0.00    -0.075 A 
ATOM      2  C4  UNL d   1       1.644   2.089   0.101  0.00  0.00     0.002 A 
ATOM      3  C5  UNL d   1       1.503   0.806   0.630  0.00  0.00     0.002 A 
ATOM      4  C6  UNL d   1       1.061  -0.240  -0.178  0.00  0.00    -0.004 A 
ATOM      5  C7  UNL d   1       0.753   0.000  -1.515  0.00  0.00     0.002 A 
ATOM      6  C8  UNL d   1       0.898   1.282  -2.049  0.00  0.00     0.002 A 
ENDROOT
BRANCH   1   7
ATOM      7  C2  UNL d   1       1.531   3.719  -1.835  0.00  0.00     0.056 C 
BRANCH   7   8
ATOM      8  C1  UNL d   1       1.909   4.790  -0.806  0.00  0.00     0.007 C 
ATOM      9  C   UNL d   1       2.596   6.000  -1.424  0.00  0.00     0.009 C 
ENDBRANCH   7   8
ENDBRANCH   1   7
TORSDOF 2
ENDMDL
