MODEL 1
REMARK minimizedAffinity 2.10956025
REMARK minimizedRMSD -1
REMARK  2 active torsions:
REMARK  status: ('A' for Active; 'I' for Inactive)
REMARK    1  A    between atoms: C1_2  and  C2_3 
REMARK    2  A    between atoms: C2_3  and  C3_4 
ROOT
ATOM      1  C3  UNL d   1       1.367   0.648  -1.989  0.00  0.00    -0.075 A 
ATOM      2  C4  UNL d   1       0.768  -0.253  -1.096  0.00  0.00     0.002 A 
ATOM      3  C5  UNL d   1       0.647   0.065   0.257  0.00  0.00     0.002 A 
ATOM      4  C6  UNL d   1       1.130   1.280   0.736  0.00  0.00    -0.004 A 
ATOM      5  C7  UNL d   1       1.742   2.176  -0.139  0.00  0.00     0.002 A 
ATOM      6  C8  UNL d   1       1.861   1.862  -1.494  0.00  0.00     0.002 A 
ENDROOT
BRANCH   1   7
ATOM      7  C2  UNL d   1       1.475   0.323  -3.459  0.00  0.00     0.056 C 
BRANCH   7   8
ATOM      8  C1  UNL d   1       1.775  -1.151  -3.752  0.00  0.00     0.007 C 
ATOM      9  C   UNL d   1       2.193  -1.404  -5.194  0.00  0.00     0.009 C 
ENDBRANCH   7   8
ENDBRANCH   1   7
TORSDOF 2
ENDMDL
