MODEL 1
REMARK minimizedAffinity 8.29201126
REMARK minimizedRMSD -1
REMARK  2 active torsions:
REMARK  status: ('A' for Active; 'I' for Inactive)
REMARK    1  A    between atoms: C1_2  and  C2_3 
REMARK    2  A    between atoms: C2_3  and  C3_4 
ROOT
ATOM      1  C3  UNL d   1      -3.238   1.826   2.538  0.00  0.00    -0.075 A 
ATOM      2  C4  UNL d   1      -2.573   3.015   2.871  0.00  0.00     0.002 A 
ATOM      3  C5  UNL d   1      -2.398   4.019   1.919  0.00  0.00     0.002 A 
ATOM      4  C6  UNL d   1      -2.875   3.845   0.622  0.00  0.00    -0.004 A 
ATOM      5  C7  UNL d   1      -3.522   2.661   0.275  0.00  0.00     0.002 A 
ATOM      6  C8  UNL d   1      -3.703   1.656   1.227  0.00  0.00     0.002 A 
ENDROOT
BRANCH   1   7
ATOM      7  C2  UNL d   1      -3.456   0.747   3.572  0.00  0.00     0.056 C 
BRANCH   7   8
ATOM      8  C1  UNL d   1      -2.311   0.609   4.581  0.00  0.00     0.007 C 
ATOM      9  C   UNL d   1      -2.711   0.994   5.999  0.00  0.00     0.009 C 
ENDBRANCH   7   8
ENDBRANCH   1   7
TORSDOF 2
ENDMDL
