MODEL 1
REMARK minimizedAffinity 3.04774022
REMARK minimizedRMSD -1
REMARK  2 active torsions:
REMARK  status: ('A' for Active; 'I' for Inactive)
REMARK    1  A    between atoms: C1_2  and  C2_3 
REMARK    2  A    between atoms: C2_3  and  C3_4 
ROOT
ATOM      1  C3  UNL d   1       1.119   1.213   0.441  0.00  0.00    -0.075 A 
ATOM      2  C4  UNL d   1       1.208   2.001  -0.716  0.00  0.00     0.002 A 
ATOM      3  C5  UNL d   1       1.151   1.413  -1.980  0.00  0.00     0.002 A 
ATOM      4  C6  UNL d   1       1.014   0.032  -2.103  0.00  0.00    -0.004 A 
ATOM      5  C7  UNL d   1       0.942  -0.762  -0.961  0.00  0.00     0.002 A 
ATOM      6  C8  UNL d   1       0.994  -0.176   0.305  0.00  0.00     0.002 A 
ENDROOT
BRANCH   1   7
ATOM      7  C2  UNL d   1       1.150   1.847   1.811  0.00  0.00     0.056 C 
BRANCH   7   8
ATOM      8  C1  UNL d   1       2.561   2.164   2.319  0.00  0.00     0.007 C 
ATOM      9  C   UNL d   1       2.695   3.575   2.876  0.00  0.00     0.009 C 
ENDBRANCH   7   8
ENDBRANCH   1   7
TORSDOF 2
ENDMDL
