MODEL 1
REMARK minimizedAffinity 3.22293591
REMARK minimizedRMSD -1
REMARK  2 active torsions:
REMARK  status: ('A' for Active; 'I' for Inactive)
REMARK    1  A    between atoms: C1_2  and  C2_3 
REMARK    2  A    between atoms: C2_3  and  C3_4 
ROOT
ATOM      1  C3  UNL d   1       1.383  -0.022  -0.044  0.00  0.00    -0.075 A 
ATOM      2  C4  UNL d   1       1.476   0.150  -1.432  0.00  0.00     0.002 A 
ATOM      3  C5  UNL d   1       1.381   1.422  -1.996  0.00  0.00     0.002 A 
ATOM      4  C6  UNL d   1       1.182   2.535  -1.183  0.00  0.00    -0.004 A 
ATOM      5  C7  UNL d   1       1.071   2.374   0.197  0.00  0.00     0.002 A 
ATOM      6  C8  UNL d   1       1.170   1.102   0.764  0.00  0.00     0.002 A 
ENDROOT
BRANCH   1   7
ATOM      7  C2  UNL d   1       1.515  -1.393   0.576  0.00  0.00     0.056 C 
BRANCH   7   8
ATOM      8  C1  UNL d   1       2.839  -2.096   0.259  0.00  0.00     0.007 C 
ATOM      9  C   UNL d   1       4.062  -1.257   0.605  0.00  0.00     0.009 C 
ENDBRANCH   7   8
ENDBRANCH   1   7
TORSDOF 2
ENDMDL
