MODEL 1
REMARK minimizedAffinity 0.80852145
REMARK minimizedRMSD -1
REMARK  2 active torsions:
REMARK  status: ('A' for Active; 'I' for Inactive)
REMARK    1  A    between atoms: C1_2  and  C2_3 
REMARK    2  A    between atoms: C2_3  and  C3_4 
ROOT
ATOM      1  C3  UNL d   1       1.317   1.054   0.532  0.00  0.00    -0.075 A 
ATOM      2  C4  UNL d   1       0.855  -0.192   0.982  0.00  0.00     0.002 A 
ATOM      3  C5  UNL d   1       0.913  -1.311   0.152  0.00  0.00     0.002 A 
ATOM      4  C6  UNL d   1       1.423  -1.198  -1.140  0.00  0.00    -0.004 A 
ATOM      5  C7  UNL d   1       1.869   0.038  -1.604  0.00  0.00     0.002 A 
ATOM      6  C8  UNL d   1       1.816   1.159  -0.773  0.00  0.00     0.002 A 
ENDROOT
BRANCH   1   7
ATOM      7  C2  UNL d   1       1.284   2.263   1.436  0.00  0.00     0.056 C 
BRANCH   7   8
ATOM      8  C1  UNL d   1       2.667   2.734   1.898  0.00  0.00     0.007 C 
ATOM      9  C   UNL d   1       2.654   4.130   2.506  0.00  0.00     0.009 C 
ENDBRANCH   7   8
ENDBRANCH   1   7
TORSDOF 2
ENDMDL
