MODEL 1
REMARK minimizedAffinity 5.73659801
REMARK minimizedRMSD -1
REMARK  2 active torsions:
REMARK  status: ('A' for Active; 'I' for Inactive)
REMARK    1  A    between atoms: C1_2  and  C2_3 
REMARK    2  A    between atoms: C2_3  and  C3_4 
ROOT
ATOM      1  C3  UNL d   1      -4.759   1.432   2.591  0.00  0.00    -0.075 A 
ATOM      2  C4  UNL d   1      -3.953   1.870   3.651  0.00  0.00     0.002 A 
ATOM      3  C5  UNL d   1      -3.112   2.972   3.492  0.00  0.00     0.002 A 
ATOM      4  C6  UNL d   1      -3.058   3.641   2.272  0.00  0.00    -0.004 A 
ATOM      5  C7  UNL d   1      -3.842   3.204   1.207  0.00  0.00     0.002 A 
ATOM      6  C8  UNL d   1      -4.688   2.105   1.364  0.00  0.00     0.002 A 
ENDROOT
BRANCH   1   7
ATOM      7  C2  UNL d   1      -5.694   0.258   2.765  0.00  0.00     0.056 C 
BRANCH   7   8
ATOM      8  C1  UNL d   1      -5.032  -1.105   2.538  0.00  0.00     0.007 C 
ATOM      9  C   UNL d   1      -5.995  -2.274   2.700  0.00  0.00     0.009 C 
ENDBRANCH   7   8
ENDBRANCH   1   7
TORSDOF 2
ENDMDL
