MODEL 1
REMARK minimizedAffinity 3.78000426
REMARK minimizedRMSD -1
REMARK  2 active torsions:
REMARK  status: ('A' for Active; 'I' for Inactive)
REMARK    1  A    between atoms: C1_2  and  C2_3 
REMARK    2  A    between atoms: C2_3  and  C3_4 
ROOT
ATOM      1  C3  UNL d   1       1.406  -0.561  -0.236  0.00  0.00    -0.075 A 
ATOM      2  C4  UNL d   1       1.098  -0.454  -1.600  0.00  0.00     0.002 A 
ATOM      3  C5  UNL d   1       0.885   0.797  -2.182  0.00  0.00     0.002 A 
ATOM      4  C6  UNL d   1       0.967   1.952  -1.407  0.00  0.00    -0.004 A 
ATOM      5  C7  UNL d   1       1.256   1.855  -0.047  0.00  0.00     0.002 A 
ATOM      6  C8  UNL d   1       1.474   0.606   0.536  0.00  0.00     0.002 A 
ENDROOT
BRANCH   1   7
ATOM      7  C2  UNL d   1       1.667  -1.909   0.393  0.00  0.00     0.056 C 
BRANCH   7   8
ATOM      8  C1  UNL d   1       3.131  -2.356   0.324  0.00  0.00     0.007 C 
ATOM      9  C   UNL d   1       3.292  -3.847   0.054  0.00  0.00     0.009 C 
ENDBRANCH   7   8
ENDBRANCH   1   7
TORSDOF 2
ENDMDL
