MODEL 1
REMARK minimizedAffinity 3.98387527
REMARK minimizedRMSD -1
REMARK  2 active torsions:
REMARK  status: ('A' for Active; 'I' for Inactive)
REMARK    1  A    between atoms: C1_2  and  C2_3 
REMARK    2  A    between atoms: C2_3  and  C3_4 
ROOT
ATOM      1  C3  UNL d   1       0.724   1.772   0.685  0.00  0.00    -0.075 A 
ATOM      2  C4  UNL d   1       0.220   1.379  -0.563  0.00  0.00     0.002 A 
ATOM      3  C5  UNL d   1       0.773   0.292  -1.240  0.00  0.00     0.002 A 
ATOM      4  C6  UNL d   1       1.841  -0.409  -0.685  0.00  0.00    -0.004 A 
ATOM      5  C7  UNL d   1       2.361  -0.017   0.547  0.00  0.00     0.002 A 
ATOM      6  C8  UNL d   1       1.807   1.068   1.229  0.00  0.00     0.002 A 
ENDROOT
BRANCH   1   7
ATOM      7  C2  UNL d   1       0.111   2.930   1.436  0.00  0.00     0.056 C 
BRANCH   7   8
ATOM      8  C1  UNL d   1      -1.410   3.036   1.285  0.00  0.00     0.007 C 
ATOM      9  C   UNL d   1      -2.072   3.816   2.413  0.00  0.00     0.009 C 
ENDBRANCH   7   8
ENDBRANCH   1   7
TORSDOF 2
ENDMDL
