MODEL 1
REMARK minimizedAffinity 19.6278343
REMARK minimizedRMSD -1
REMARK  0 active torsions:
REMARK  status: ('A' for Active; 'I' for Inactive)
ROOT
ATOM      1  C   UNL d   1      -3.248   2.276   1.179  0.00  0.00     0.124 A 
ATOM      2  C1  UNL d   1      -4.287   3.136   0.853  0.00  0.00     0.062 A 
ATOM      3  C2  UNL d   1      -4.714   3.250  -0.467  0.00  0.00     0.162 A 
ATOM      4  C3  UNL d   1      -4.102   2.501  -1.472  0.00  0.00    -0.034 A 
ATOM      5  C4  UNL d   1      -3.056   1.639  -1.137  0.00  0.00     0.162 A 
ATOM      6  C5  UNL d   1      -2.633   1.528   0.184  0.00  0.00     0.062 A 
ATOM      7  F   UNL d   1      -1.629   0.697   0.496  0.00  0.00    -0.097 F 
ATOM      8  F1  UNL d   1      -2.446   0.904  -2.078  0.00  0.00    -0.096 F 
ATOM      9  I   UNL d   1      -4.738   2.669  -3.446  0.00  0.00    -0.060 I 
ATOM     10  F2  UNL d   1      -5.721   4.089  -0.752  0.00  0.00    -0.096 F 
ATOM     11  F3  UNL d   1      -4.882   3.860   1.813  0.00  0.00    -0.097 F 
ATOM     12  F4  UNL d   1      -2.838   2.168   2.449  0.00  0.00    -0.092 F 
ENDROOT
TORSDOF 0
ENDMDL
