MODEL 1
REMARK minimizedAffinity 22.197731
REMARK minimizedRMSD -1
REMARK  0 active torsions:
REMARK  status: ('A' for Active; 'I' for Inactive)
ROOT
ATOM      1  C   UNL d   1       2.497  -1.898   3.667  0.00  0.00     0.124 A 
ATOM      2  C1  UNL d   1       3.053  -1.700   2.411  0.00  0.00     0.062 A 
ATOM      3  C2  UNL d   1       3.065  -0.429   1.844  0.00  0.00     0.162 A 
ATOM      4  C3  UNL d   1       2.519   0.655   2.533  0.00  0.00    -0.034 A 
ATOM      5  C4  UNL d   1       1.960   0.447   3.795  0.00  0.00     0.162 A 
ATOM      6  C5  UNL d   1       1.950  -0.825   4.357  0.00  0.00     0.062 A 
ATOM      7  F   UNL d   1       1.412  -1.015   5.571  0.00  0.00    -0.097 F 
ATOM      8  F1  UNL d   1       1.426   1.466   4.484  0.00  0.00    -0.096 F 
ATOM      9  I   UNL d   1       2.535   2.556   1.688  0.00  0.00    -0.060 I 
ATOM     10  F2  UNL d   1       3.610  -0.266   0.629  0.00  0.00    -0.096 F 
ATOM     11  F3  UNL d   1       3.581  -2.735   1.742  0.00  0.00    -0.097 F 
ATOM     12  F4  UNL d   1       2.486  -3.122   4.210  0.00  0.00    -0.092 F 
ENDROOT
TORSDOF 0
ENDMDL
