MODEL 1
REMARK minimizedAffinity 23.0051956
REMARK minimizedRMSD -1
REMARK  0 active torsions:
REMARK  status: ('A' for Active; 'I' for Inactive)
ROOT
ATOM      1  C   UNL d   1       0.775  -1.852  -0.289  0.00  0.00     0.124 A 
ATOM      2  C1  UNL d   1       1.186  -0.931   0.666  0.00  0.00     0.062 A 
ATOM      3  C2  UNL d   1       0.350   0.120   1.030  0.00  0.00     0.162 A 
ATOM      4  C3  UNL d   1      -0.906   0.257   0.440  0.00  0.00    -0.034 A 
ATOM      5  C4  UNL d   1      -1.312  -0.672  -0.520  0.00  0.00     0.162 A 
ATOM      6  C5  UNL d   1      -0.473  -1.721  -0.880  0.00  0.00     0.062 A 
ATOM      7  F   UNL d   1      -0.872  -2.609  -1.803  0.00  0.00    -0.097 F 
ATOM      8  F1  UNL d   1      -2.514  -0.570  -1.107  0.00  0.00    -0.096 F 
ATOM      9  I   UNL d   1      -2.159   1.828   0.981  0.00  0.00    -0.060 I 
ATOM     10  F2  UNL d   1       0.773   0.995   1.955  0.00  0.00    -0.096 F 
ATOM     11  F3  UNL d   1       2.392  -1.055   1.238  0.00  0.00    -0.097 F 
ATOM     12  F4  UNL d   1       1.582  -2.862  -0.638  0.00  0.00    -0.092 F 
ENDROOT
TORSDOF 0
ENDMDL
