MODEL 1
REMARK minimizedAffinity 19.9130516
REMARK minimizedRMSD -1
REMARK  0 active torsions:
REMARK  status: ('A' for Active; 'I' for Inactive)
ROOT
ATOM      1  C   UNL d   1       2.356  -2.426   2.580  0.00  0.00     0.124 A 
ATOM      2  C1  UNL d   1       2.676  -3.750   2.310  0.00  0.00     0.062 A 
ATOM      3  C2  UNL d   1       2.495  -4.727   3.285  0.00  0.00     0.162 A 
ATOM      4  C3  UNL d   1       1.992  -4.384   4.539  0.00  0.00    -0.034 A 
ATOM      5  C4  UNL d   1       1.673  -3.051   4.804  0.00  0.00     0.162 A 
ATOM      6  C5  UNL d   1       1.855  -2.078   3.826  0.00  0.00     0.062 A 
ATOM      7  F   UNL d   1       1.545  -0.800   4.089  0.00  0.00    -0.097 F 
ATOM      8  F1  UNL d   1       1.187  -2.687   6.000  0.00  0.00    -0.096 F 
ATOM      9  I   UNL d   1       1.721  -5.842   6.000  0.00  0.00    -0.060 I 
ATOM     10  F2  UNL d   1       2.813  -5.997   2.996  0.00  0.00    -0.096 F 
ATOM     11  F3  UNL d   1       3.161  -4.089   1.106  0.00  0.00    -0.097 F 
ATOM     12  F4  UNL d   1       2.531  -1.488   1.640  0.00  0.00    -0.092 F 
ENDROOT
TORSDOF 0
ENDMDL
