MODEL 1
REMARK minimizedAffinity 18.2818241
REMARK minimizedRMSD -1
REMARK  0 active torsions:
REMARK  status: ('A' for Active; 'I' for Inactive)
ROOT
ATOM      1  C   UNL d   1       3.707  -1.199   2.606  0.00  0.00     0.124 A 
ATOM      2  C1  UNL d   1       4.683  -2.138   2.908  0.00  0.00     0.062 A 
ATOM      3  C2  UNL d   1       4.357  -3.278   3.637  0.00  0.00     0.162 A 
ATOM      4  C3  UNL d   1       3.048  -3.486   4.069  0.00  0.00    -0.034 A 
ATOM      5  C4  UNL d   1       2.071  -2.537   3.763  0.00  0.00     0.162 A 
ATOM      6  C5  UNL d   1       2.402  -1.399   3.034  0.00  0.00     0.062 A 
ATOM      7  F   UNL d   1       1.457  -0.494   2.743  0.00  0.00    -0.097 F 
ATOM      8  F1  UNL d   1       0.802  -2.706   4.163  0.00  0.00    -0.096 F 
ATOM      9  I   UNL d   1       2.556  -5.189   5.160  0.00  0.00    -0.060 I 
ATOM     10  F2  UNL d   1       5.322  -4.168   3.915  0.00  0.00    -0.096 F 
ATOM     11  F3  UNL d   1       5.945  -1.946   2.497  0.00  0.00    -0.097 F 
ATOM     12  F4  UNL d   1       4.023  -0.103   1.905  0.00  0.00    -0.092 F 
ENDROOT
TORSDOF 0
ENDMDL
