MODEL 1
REMARK minimizedAffinity 26.5061741
REMARK minimizedRMSD -1
REMARK  0 active torsions:
REMARK  status: ('A' for Active; 'I' for Inactive)
ROOT
ATOM      1  C   UNL d   1       2.285  -4.722   4.074  0.00  0.00     0.124 A 
ATOM      2  C1  UNL d   1       3.370  -3.983   3.623  0.00  0.00     0.062 A 
ATOM      3  C2  UNL d   1       3.202  -2.655   3.241  0.00  0.00     0.162 A 
ATOM      4  C3  UNL d   1       1.944  -2.056   3.310  0.00  0.00    -0.034 A 
ATOM      5  C4  UNL d   1       0.858  -2.806   3.764  0.00  0.00     0.162 A 
ATOM      6  C5  UNL d   1       1.030  -4.133   4.144  0.00  0.00     0.062 A 
ATOM      7  F   UNL d   1      -0.019  -4.845   4.580  0.00  0.00    -0.097 F 
ATOM      8  F1  UNL d   1      -0.366  -2.262   3.843  0.00  0.00    -0.096 F 
ATOM      9  I   UNL d   1       1.690  -0.071   2.741  0.00  0.00    -0.060 I 
ATOM     10  F2  UNL d   1       4.268  -1.965   2.809  0.00  0.00    -0.096 F 
ATOM     11  F3  UNL d   1       4.583  -4.550   3.553  0.00  0.00    -0.097 F 
ATOM     12  F4  UNL d   1       2.449  -6.000   4.439  0.00  0.00    -0.092 F 
ENDROOT
TORSDOF 0
ENDMDL
