MODEL 1
REMARK minimizedAffinity 11.8022242
REMARK minimizedRMSD -1
REMARK  0 active torsions:
REMARK  status: ('A' for Active; 'I' for Inactive)
ROOT
ATOM      1  C   UNL d   1       2.707   0.958   2.662  0.00  0.00     0.124 A 
ATOM      2  C1  UNL d   1       2.599  -0.221   1.937  0.00  0.00     0.062 A 
ATOM      3  C2  UNL d   1       2.237  -1.404   2.575  0.00  0.00     0.162 A 
ATOM      4  C3  UNL d   1       1.981  -1.414   3.946  0.00  0.00    -0.034 A 
ATOM      5  C4  UNL d   1       2.093  -0.225   4.668  0.00  0.00     0.162 A 
ATOM      6  C5  UNL d   1       2.454   0.955   4.026  0.00  0.00     0.062 A 
ATOM      7  F   UNL d   1       2.559   2.093   4.728  0.00  0.00    -0.097 F 
ATOM      8  F1  UNL d   1       1.854  -0.199   5.988  0.00  0.00    -0.096 F 
ATOM      9  I   UNL d   1       1.441  -3.181   4.904  0.00  0.00    -0.060 I 
ATOM     10  F2  UNL d   1       2.140  -2.528   1.850  0.00  0.00    -0.096 F 
ATOM     11  F3  UNL d   1       2.843  -0.221   0.619  0.00  0.00    -0.097 F 
ATOM     12  F4  UNL d   1       3.056   2.095   2.045  0.00  0.00    -0.092 F 
ENDROOT
TORSDOF 0
ENDMDL
