MODEL 1
REMARK minimizedAffinity 19.8498096
REMARK minimizedRMSD -1
REMARK  0 active torsions:
REMARK  status: ('A' for Active; 'I' for Inactive)
ROOT
ATOM      1  C   UNL d   1       2.172  -2.508   4.266  0.00  0.00     0.124 A 
ATOM      2  C1  UNL d   1       2.087  -2.231   2.908  0.00  0.00     0.062 A 
ATOM      3  C2  UNL d   1       2.361  -3.224   1.972  0.00  0.00     0.162 A 
ATOM      4  C3  UNL d   1       2.721  -4.505   2.391  0.00  0.00    -0.034 A 
ATOM      5  C4  UNL d   1       2.805  -4.776   3.758  0.00  0.00     0.162 A 
ATOM      6  C5  UNL d   1       2.531  -3.780   4.689  0.00  0.00     0.062 A 
ATOM      7  F   UNL d   1       2.614  -4.050   6.000  0.00  0.00    -0.097 F 
ATOM      8  F1  UNL d   1       3.148  -5.997   4.194  0.00  0.00    -0.096 F 
ATOM      9  I   UNL d   1       3.130  -5.993   0.994  0.00  0.00    -0.060 I 
ATOM     10  F2  UNL d   1       2.270  -2.928   0.667  0.00  0.00    -0.096 F 
ATOM     11  F3  UNL d   1       1.742  -1.002   2.497  0.00  0.00    -0.097 F 
ATOM     12  F4  UNL d   1       1.910  -1.550   5.164  0.00  0.00    -0.092 F 
ENDROOT
TORSDOF 0
ENDMDL
