MODEL 1
REMARK minimizedAffinity 23.4433994
REMARK minimizedRMSD -1
REMARK  0 active torsions:
REMARK  status: ('A' for Active; 'I' for Inactive)
ROOT
ATOM      1  C   UNL d   1      -0.744  -1.153  -0.404  0.00  0.00     0.124 A 
ATOM      2  C1  UNL d   1       0.171  -2.183  -0.576  0.00  0.00     0.062 A 
ATOM      3  C2  UNL d   1       1.301  -2.257   0.233  0.00  0.00     0.162 A 
ATOM      4  C3  UNL d   1       1.523  -1.298   1.222  0.00  0.00    -0.034 A 
ATOM      5  C4  UNL d   1       0.599  -0.265   1.388  0.00  0.00     0.162 A 
ATOM      6  C5  UNL d   1      -0.530  -0.196   0.577  0.00  0.00     0.062 A 
ATOM      7  F   UNL d   1      -1.412   0.800   0.744  0.00  0.00    -0.097 F 
ATOM      8  F1  UNL d   1       0.781   0.673   2.329  0.00  0.00    -0.096 F 
ATOM      9  I   UNL d   1       3.212  -1.405   2.433  0.00  0.00    -0.060 I 
ATOM     10  F2  UNL d   1       2.168  -3.262   0.045  0.00  0.00    -0.096 F 
ATOM     11  F3  UNL d   1      -0.034  -3.109  -1.524  0.00  0.00    -0.097 F 
ATOM     12  F4  UNL d   1      -1.831  -1.084  -1.185  0.00  0.00    -0.092 F 
ENDROOT
TORSDOF 0
ENDMDL
