MODEL 1
REMARK minimizedAffinity 14.6805677
REMARK minimizedRMSD -1
REMARK  0 active torsions:
REMARK  status: ('A' for Active; 'I' for Inactive)
ROOT
ATOM      1  C   UNL d   1       4.486  -2.384  -3.374  0.00  0.00     0.124 A 
ATOM      2  C1  UNL d   1       4.887  -3.702  -3.542  0.00  0.00     0.062 A 
ATOM      3  C2  UNL d   1       4.154  -4.735  -2.966  0.00  0.00     0.162 A 
ATOM      4  C3  UNL d   1       3.011  -4.455  -2.217  0.00  0.00    -0.034 A 
ATOM      5  C4  UNL d   1       2.614  -3.127  -2.053  0.00  0.00     0.162 A 
ATOM      6  C5  UNL d   1       3.350  -2.097  -2.630  0.00  0.00     0.062 A 
ATOM      7  F   UNL d   1       2.961  -0.824  -2.468  0.00  0.00    -0.097 F 
ATOM      8  F1  UNL d   1       1.520  -2.822  -1.339  0.00  0.00    -0.096 F 
ATOM      9  I   UNL d   1       1.912  -5.997  -1.354  0.00  0.00    -0.060 I 
ATOM     10  F2  UNL d   1       4.565  -5.999  -3.144  0.00  0.00    -0.096 F 
ATOM     11  F3  UNL d   1       5.985  -3.981  -4.259  0.00  0.00    -0.097 F 
ATOM     12  F4  UNL d   1       5.194  -1.391  -3.929  0.00  0.00    -0.092 F 
ENDROOT
TORSDOF 0
ENDMDL
