MODEL 1
REMARK minimizedAffinity 26.3995914
REMARK minimizedRMSD -1
REMARK  0 active torsions:
REMARK  status: ('A' for Active; 'I' for Inactive)
ROOT
ATOM      1  C   UNL d   1       2.316  -2.405   2.391  0.00  0.00     0.124 A 
ATOM      2  C1  UNL d   1       2.564  -3.740   2.106  0.00  0.00     0.062 A 
ATOM      3  C2  UNL d   1       2.627  -4.676   3.135  0.00  0.00     0.162 A 
ATOM      4  C3  UNL d   1       2.441  -4.279   4.459  0.00  0.00    -0.034 A 
ATOM      5  C4  UNL d   1       2.192  -2.934   4.738  0.00  0.00     0.162 A 
ATOM      6  C5  UNL d   1       2.130  -2.003   3.706  0.00  0.00     0.062 A 
ATOM      7  F   UNL d   1       1.890  -0.713   3.984  0.00  0.00    -0.097 F 
ATOM      8  F1  UNL d   1       2.008  -2.519   6.000  0.00  0.00    -0.096 F 
ATOM      9  I   UNL d   1       2.534  -5.675   6.000  0.00  0.00    -0.060 I 
ATOM     10  F2  UNL d   1       2.869  -5.960   2.830  0.00  0.00    -0.096 F 
ATOM     11  F3  UNL d   1       2.745  -4.131   0.836  0.00  0.00    -0.097 F 
ATOM     12  F4  UNL d   1       2.256  -1.507   1.399  0.00  0.00    -0.092 F 
ENDROOT
TORSDOF 0
ENDMDL
