MODEL 1
REMARK minimizedAffinity -2.289855
REMARK minimizedRMSD -1
REMARK  1 active torsions:
REMARK  status: ('A' for Active; 'I' for Inactive)
REMARK    1  A    between atoms: C1_2  and  C2_3 
ROOT
ATOM      1  C2  UNL d   1      -3.744   5.275   3.202  0.00  0.00    -0.073 A 
ATOM      2  C3  UNL d   1      -3.558   5.990   4.390  0.00  0.00    -0.002 A 
ATOM      3  C4  UNL d   1      -3.396   5.314   5.601  0.00  0.00     0.004 A 
ATOM      4  C5  UNL d   1      -3.412   3.920   5.634  0.00  0.00    -0.004 A 
ATOM      5  C6  UNL d   1      -3.585   3.188   4.455  0.00  0.00    -0.075 A 
ATOM      6  C7  UNL d   1      -3.607   1.688   4.474  0.00  0.00     0.076 C 
ATOM      7  C8  UNL d   1      -3.749   3.873   3.244  0.00  0.00     0.001 A 
ENDROOT
BRANCH   1   8
ATOM      8  C1  UNL d   1      -3.912   6.000   1.891  0.00  0.00     0.053 C 
ATOM      9  C   UNL d   1      -5.358   5.999   1.421  0.00  0.00     0.018 C 
ENDBRANCH   1   8
TORSDOF 1
ENDMDL
