MODEL 1
REMARK minimizedAffinity 2.68948293
REMARK minimizedRMSD -1
REMARK  1 active torsions:
REMARK  status: ('A' for Active; 'I' for Inactive)
REMARK    1  A    between atoms: C1_2  and  C2_3 
ROOT
ATOM      1  C2  UNL d   1      -4.093   5.994   4.193  0.00  0.00    -0.073 A 
ATOM      2  C3  UNL d   1      -5.428   5.961   3.774  0.00  0.00    -0.002 A 
ATOM      3  C4  UNL d   1      -5.741   5.950   2.415  0.00  0.00     0.004 A 
ATOM      4  C5  UNL d   1      -4.724   5.963   1.460  0.00  0.00    -0.004 A 
ATOM      5  C6  UNL d   1      -3.383   5.983   1.858  0.00  0.00    -0.075 A 
ATOM      6  C7  UNL d   1      -2.277   5.999   0.844  0.00  0.00     0.076 C 
ATOM      7  C8  UNL d   1      -3.077   5.997   3.226  0.00  0.00     0.001 A 
ENDROOT
BRANCH   1   8
ATOM      8  C1  UNL d   1      -3.750   6.000   5.660  0.00  0.00     0.053 C 
ATOM      9  C   UNL d   1      -2.248   5.995   5.895  0.00  0.00     0.018 C 
ENDBRANCH   1   8
TORSDOF 1
ENDMDL
