MODEL 1
REMARK minimizedAffinity 6.73706675
REMARK minimizedRMSD -1
REMARK  1 active torsions:
REMARK  status: ('A' for Active; 'I' for Inactive)
REMARK    1  A    between atoms: C1_2  and  C2_3 
ROOT
ATOM      1  C2  UNL d   1      -3.163   3.919   3.317  0.00  0.00    -0.073 A 
ATOM      2  C3  UNL d   1      -3.116   4.522   4.579  0.00  0.00    -0.002 A 
ATOM      3  C4  UNL d   1      -3.994   5.559   4.898  0.00  0.00     0.004 A 
ATOM      4  C5  UNL d   1      -4.929   6.000   3.962  0.00  0.00    -0.004 A 
ATOM      5  C6  UNL d   1      -4.999   5.403   2.700  0.00  0.00    -0.075 A 
ATOM      6  C7  UNL d   1      -5.999   5.867   1.681  0.00  0.00     0.076 C 
ATOM      7  C8  UNL d   1      -4.113   4.363   2.386  0.00  0.00     0.001 A 
ENDROOT
BRANCH   1   8
ATOM      8  C1  UNL d   1      -2.222   2.795   2.970  0.00  0.00     0.053 C 
ATOM      9  C   UNL d   1      -2.885   1.433   3.109  0.00  0.00     0.018 C 
ENDBRANCH   1   8
TORSDOF 1
ENDMDL
