MODEL 1
REMARK minimizedAffinity -1.74806762
REMARK minimizedRMSD -1
REMARK  1 active torsions:
REMARK  status: ('A' for Active; 'I' for Inactive)
REMARK    1  A    between atoms: C1_2  and  C2_3 
ROOT
ATOM      1  C2  UNL d   1      -4.090   5.129   2.974  0.00  0.00    -0.073 A 
ATOM      2  C3  UNL d   1      -4.152   5.680   4.259  0.00  0.00    -0.002 A 
ATOM      3  C4  UNL d   1      -3.968   4.872   5.382  0.00  0.00     0.004 A 
ATOM      4  C5  UNL d   1      -3.714   3.509   5.232  0.00  0.00    -0.004 A 
ATOM      5  C6  UNL d   1      -3.636   2.942   3.956  0.00  0.00    -0.075 A 
ATOM      6  C7  UNL d   1      -3.366   1.477   3.777  0.00  0.00     0.076 C 
ATOM      7  C8  UNL d   1      -3.825   3.759   2.833  0.00  0.00     0.001 A 
ENDROOT
BRANCH   1   8
ATOM      8  C1  UNL d   1      -4.282   5.999   1.759  0.00  0.00     0.053 C 
ATOM      9  C   UNL d   1      -3.057   5.999   0.859  0.00  0.00     0.018 C 
ENDBRANCH   1   8
TORSDOF 1
ENDMDL
