MODEL 1
REMARK minimizedAffinity 6.24154854
REMARK minimizedRMSD -1
REMARK  1 active torsions:
REMARK  status: ('A' for Active; 'I' for Inactive)
REMARK    1  A    between atoms: C1_2  and  C2_3 
ROOT
ATOM      1  C2  UNL d   1      -3.168   3.452   2.998  0.00  0.00    -0.073 A 
ATOM      2  C3  UNL d   1      -3.809   4.120   1.948  0.00  0.00    -0.002 A 
ATOM      3  C4  UNL d   1      -4.359   5.386   2.150  0.00  0.00     0.004 A 
ATOM      4  C5  UNL d   1      -4.268   6.000   3.400  0.00  0.00    -0.004 A 
ATOM      5  C6  UNL d   1      -3.621   5.353   4.458  0.00  0.00    -0.075 A 
ATOM      6  C7  UNL d   1      -3.516   5.999   5.808  0.00  0.00     0.076 C 
ATOM      7  C8  UNL d   1      -3.073   4.081   4.247  0.00  0.00     0.001 A 
ENDROOT
BRANCH   1   8
ATOM      8  C1  UNL d   1      -2.566   2.087   2.782  0.00  0.00     0.053 C 
ATOM      9  C   UNL d   1      -3.428   0.984   3.378  0.00  0.00     0.018 C 
ENDBRANCH   1   8
TORSDOF 1
ENDMDL
