MODEL 1
REMARK minimizedAffinity -0.546540082
REMARK minimizedRMSD -1
REMARK  1 active torsions:
REMARK  status: ('A' for Active; 'I' for Inactive)
REMARK    1  A    between atoms: C1_2  and  C2_3 
ROOT
ATOM      1  C2  UNL d   1      -4.390   5.869   4.179  0.00  0.00    -0.073 A 
ATOM      2  C3  UNL d   1      -5.692   5.617   3.730  0.00  0.00    -0.002 A 
ATOM      3  C4  UNL d   1      -5.955   5.495   2.365  0.00  0.00     0.004 A 
ATOM      4  C5  UNL d   1      -4.921   5.618   1.437  0.00  0.00    -0.004 A 
ATOM      5  C6  UNL d   1      -3.612   5.858   1.867  0.00  0.00    -0.075 A 
ATOM      6  C7  UNL d   1      -2.489   5.995   0.881  0.00  0.00     0.076 C 
ATOM      7  C8  UNL d   1      -3.356   5.981   3.239  0.00  0.00     0.001 A 
ENDROOT
BRANCH   1   8
ATOM      8  C1  UNL d   1      -4.100   5.995   5.652  0.00  0.00     0.053 C 
ATOM      9  C   UNL d   1      -2.608   5.977   5.943  0.00  0.00     0.018 C 
ENDBRANCH   1   8
TORSDOF 1
ENDMDL
