MODEL 1
REMARK minimizedAffinity -2.08231664
REMARK minimizedRMSD -1
REMARK  1 active torsions:
REMARK  status: ('A' for Active; 'I' for Inactive)
REMARK    1  A    between atoms: C1_2  and  C2_3 
ROOT
ATOM      1  C2  UNL d   1      -3.001   3.180   3.314  0.00  0.00    -0.073 A 
ATOM      2  C3  UNL d   1      -3.614   3.746   2.190  0.00  0.00    -0.002 A 
ATOM      3  C4  UNL d   1      -4.152   5.032   2.253  0.00  0.00     0.004 A 
ATOM      4  C5  UNL d   1      -4.077   5.767   3.436  0.00  0.00    -0.004 A 
ATOM      5  C6  UNL d   1      -3.458   5.223   4.566  0.00  0.00    -0.075 A 
ATOM      6  C7  UNL d   1      -3.372   6.000   5.847  0.00  0.00     0.076 C 
ATOM      7  C8  UNL d   1      -2.923   3.930   4.496  0.00  0.00     0.001 A 
ENDROOT
BRANCH   1   8
ATOM      8  C1  UNL d   1      -2.413   1.794   3.248  0.00  0.00     0.053 C 
ATOM      9  C   UNL d   1      -3.383   0.739   3.755  0.00  0.00     0.018 C 
ENDBRANCH   1   8
TORSDOF 1
ENDMDL
