MODEL 1
REMARK minimizedAffinity 3.92128491
REMARK minimizedRMSD -1
REMARK  1 active torsions:
REMARK  status: ('A' for Active; 'I' for Inactive)
REMARK    1  A    between atoms: C1_2  and  C2_3 
ROOT
ATOM      1  C2  UNL d   1      -4.119   5.994   4.291  0.00  0.00    -0.073 A 
ATOM      2  C3  UNL d   1      -5.454   5.987   3.871  0.00  0.00    -0.002 A 
ATOM      3  C4  UNL d   1      -5.765   5.992   2.511  0.00  0.00     0.004 A 
ATOM      4  C5  UNL d   1      -4.746   5.996   1.558  0.00  0.00    -0.004 A 
ATOM      5  C6  UNL d   1      -3.406   5.992   1.958  0.00  0.00    -0.075 A 
ATOM      6  C7  UNL d   1      -2.298   5.999   0.946  0.00  0.00     0.076 C 
ATOM      7  C8  UNL d   1      -3.102   5.990   3.326  0.00  0.00     0.001 A 
ENDROOT
BRANCH   1   8
ATOM      8  C1  UNL d   1      -3.779   5.983   5.759  0.00  0.00     0.053 C 
ATOM      9  C   UNL d   1      -2.295   5.749   5.999  0.00  0.00     0.018 C 
ENDBRANCH   1   8
TORSDOF 1
ENDMDL
