MODEL 1
REMARK minimizedAffinity -0.314742237
REMARK minimizedRMSD -1
REMARK  1 active torsions:
REMARK  status: ('A' for Active; 'I' for Inactive)
REMARK    1  A    between atoms: C1_2  and  C2_3 
ROOT
ATOM      1  C2  UNL d   1      -3.878   5.268   2.395  0.00  0.00    -0.073 A 
ATOM      2  C3  UNL d   1      -3.551   3.911   2.297  0.00  0.00    -0.002 A 
ATOM      3  C4  UNL d   1      -3.006   3.236   3.390  0.00  0.00     0.004 A 
ATOM      4  C5  UNL d   1      -2.789   3.908   4.593  0.00  0.00    -0.004 A 
ATOM      5  C6  UNL d   1      -3.119   5.262   4.714  0.00  0.00    -0.075 A 
ATOM      6  C7  UNL d   1      -2.889   6.000   6.000  0.00  0.00     0.076 C 
ATOM      7  C8  UNL d   1      -3.664   5.933   3.611  0.00  0.00     0.001 A 
ENDROOT
BRANCH   1   8
ATOM      8  C1  UNL d   1      -4.472   5.999   1.219  0.00  0.00     0.053 C 
ATOM      9  C   UNL d   1      -5.992   5.980   1.246  0.00  0.00     0.018 C 
ENDBRANCH   1   8
TORSDOF 1
ENDMDL
