MODEL 1
REMARK minimizedAffinity 0.644760072
REMARK minimizedRMSD -1
REMARK  1 active torsions:
REMARK  status: ('A' for Active; 'I' for Inactive)
REMARK    1  A    between atoms: C1_2  and  C2_3 
ROOT
ATOM      1  C2  UNL d   1       1.779   2.522  -4.164  0.00  0.00    -0.073 A 
ATOM      2  C3  UNL d   1       2.958   3.172  -3.783  0.00  0.00    -0.002 A 
ATOM      3  C4  UNL d   1       3.168   4.509  -4.124  0.00  0.00     0.004 A 
ATOM      4  C5  UNL d   1       2.199   5.210  -4.842  0.00  0.00    -0.004 A 
ATOM      5  C6  UNL d   1       1.009   4.581  -5.222  0.00  0.00    -0.075 A 
ATOM      6  C7  UNL d   1      -0.042   5.321  -5.996  0.00  0.00     0.076 C 
ATOM      7  C8  UNL d   1       0.807   3.238  -4.877  0.00  0.00     0.001 A 
ENDROOT
BRANCH   1   8
ATOM      8  C1  UNL d   1       1.545   1.080  -3.792  0.00  0.00     0.053 C 
ATOM      9  C   UNL d   1       1.551   0.872  -2.286  0.00  0.00     0.018 C 
ENDBRANCH   1   8
TORSDOF 1
ENDMDL
