MODEL 1
REMARK minimizedAffinity -4.44324589
REMARK minimizedRMSD -1
REMARK  1 active torsions:
REMARK  status: ('A' for Active; 'I' for Inactive)
REMARK    1  A    between atoms: N_2  and  C1_3 
ROOT
ATOM      1  C1  UNL d   1      -3.760  -3.673  -5.403  0.00  0.00     0.143 A 
ATOM      2  C2  UNL d   1      -3.104  -4.843  -5.801  0.00  0.00    -0.057 A 
ATOM      3  C3  UNL d   1      -1.807  -5.135  -5.361  0.00  0.00     0.033 A 
ATOM      4  C4  UNL d   1      -1.130  -4.244  -4.535  0.00  0.00    -0.042 A 
ATOM      5  C5  UNL d   1      -1.752  -3.062  -4.147  0.00  0.00     0.033 A 
ATOM      6  C6  UNL d   1      -3.050  -2.780  -4.584  0.00  0.00    -0.057 A 
ENDROOT
BRANCH   1   7
ATOM      7  N   UNL d   1      -5.010  -3.280  -5.885  0.00  0.00    -0.732 N 
ATOM      8  C   UNL d   1      -5.687  -2.129  -5.326  0.00  0.00     0.284 C 
ATOM      9  H3  UNL d   1      -5.076  -3.350  -6.898  0.00  0.00     0.395 HD
ENDBRANCH   1   7
TORSDOF 1
ENDMDL
