MODEL 1
REMARK minimizedAffinity 0.7784729
REMARK minimizedRMSD -1
REMARK  1 active torsions:
REMARK  status: ('A' for Active; 'I' for Inactive)
REMARK    1  A    between atoms: N_2  and  C1_3 
ROOT
ATOM      1  C1  UNL d   1       2.323   0.073  -1.505  0.00  0.00     0.143 A 
ATOM      2  C2  UNL d   1       1.524  -0.836  -0.803  0.00  0.00    -0.057 A 
ATOM      3  C3  UNL d   1       0.507  -0.399   0.054  0.00  0.00     0.033 A 
ATOM      4  C4  UNL d   1       0.290   0.962   0.247  0.00  0.00    -0.042 A 
ATOM      5  C5  UNL d   1       1.088   1.884  -0.421  0.00  0.00     0.033 A 
ATOM      6  C6  UNL d   1       2.098   1.440  -1.280  0.00  0.00    -0.057 A 
ENDROOT
BRANCH   1   7
ATOM      7  N   UNL d   1       3.414  -0.298  -2.295  0.00  0.00    -0.732 N 
ATOM      8  C   UNL d   1       4.113  -1.541  -2.049  0.00  0.00     0.284 C 
ATOM      9  H3  UNL d   1       3.268  -0.091  -3.280  0.00  0.00     0.395 HD
ENDBRANCH   1   7
TORSDOF 1
ENDMDL
