MODEL 1
REMARK minimizedAffinity 2.47963023
REMARK minimizedRMSD -1
REMARK  1 active torsions:
REMARK  status: ('A' for Active; 'I' for Inactive)
REMARK    1  A    between atoms: N_2  and  C1_3 
ROOT
ATOM      1  C1  UNL d   1      -3.281  -3.327  -4.661  0.00  0.00     0.143 A 
ATOM      2  C2  UNL d   1      -2.689  -4.579  -4.465  0.00  0.00    -0.057 A 
ATOM      3  C3  UNL d   1      -1.359  -4.695  -4.043  0.00  0.00     0.033 A 
ATOM      4  C4  UNL d   1      -0.587  -3.556  -3.837  0.00  0.00    -0.042 A 
ATOM      5  C5  UNL d   1      -1.147  -2.302  -4.051  0.00  0.00     0.033 A 
ATOM      6  C6  UNL d   1      -2.478  -2.193  -4.466  0.00  0.00    -0.057 A 
ENDROOT
BRANCH   1   7
ATOM      7  N   UNL d   1      -4.568  -3.147  -5.175  0.00  0.00    -0.732 N 
ATOM      8  C   UNL d   1      -5.183  -4.167  -5.997  0.00  0.00     0.284 C 
ATOM      9  H3  UNL d   1      -5.199  -2.721  -4.500  0.00  0.00     0.395 HD
ENDBRANCH   1   7
TORSDOF 1
ENDMDL
