MODEL 1
REMARK minimizedAffinity -0.711088777
REMARK minimizedRMSD -1
REMARK  1 active torsions:
REMARK  status: ('A' for Active; 'I' for Inactive)
REMARK    1  A    between atoms: N_2  and  C1_3 
ROOT
ATOM      1  C1  UNL d   1      -3.595   4.565  -5.894  0.00  0.00     0.143 A 
ATOM      2  C2  UNL d   1      -4.920   5.013  -5.885  0.00  0.00    -0.057 A 
ATOM      3  C3  UNL d   1      -5.991   4.112  -5.901  0.00  0.00     0.033 A 
ATOM      4  C4  UNL d   1      -5.755   2.742  -5.957  0.00  0.00    -0.042 A 
ATOM      5  C5  UNL d   1      -4.446   2.275  -5.992  0.00  0.00     0.033 A 
ATOM      6  C6  UNL d   1      -3.380   3.180  -5.968  0.00  0.00    -0.057 A 
ENDROOT
BRANCH   1   7
ATOM      7  N   UNL d   1      -2.488   5.413  -5.978  0.00  0.00    -0.732 N 
ATOM      8  C   UNL d   1      -1.145   4.885  -5.873  0.00  0.00     0.284 C 
ATOM      9  H3  UNL d   1      -2.599   6.127  -6.694  0.00  0.00     0.395 HD
ENDBRANCH   1   7
TORSDOF 1
ENDMDL
