MODEL 1
REMARK minimizedAffinity 0.26584813
REMARK minimizedRMSD -1
REMARK  1 active torsions:
REMARK  status: ('A' for Active; 'I' for Inactive)
REMARK    1  A    between atoms: N_2  and  C1_3 
ROOT
ATOM      1  C1  UNL d   1      -3.307  -4.386  -4.766  0.00  0.00     0.143 A 
ATOM      2  C2  UNL d   1      -2.098  -4.930  -4.321  0.00  0.00    -0.057 A 
ATOM      3  C3  UNL d   1      -1.065  -4.112  -3.846  0.00  0.00     0.033 A 
ATOM      4  C4  UNL d   1      -1.214  -2.729  -3.837  0.00  0.00    -0.042 A 
ATOM      5  C5  UNL d   1      -2.398  -2.165  -4.299  0.00  0.00     0.033 A 
ATOM      6  C6  UNL d   1      -3.428  -2.988  -4.765  0.00  0.00    -0.057 A 
ENDROOT
BRANCH   1   7
ATOM      7  N   UNL d   1      -4.334  -5.140  -5.341  0.00  0.00    -0.732 N 
ATOM      8  C   UNL d   1      -5.446  -4.489  -6.000  0.00  0.00     0.284 C 
ATOM      9  H3  UNL d   1      -3.986  -5.962  -5.828  0.00  0.00     0.395 HD
ENDBRANCH   1   7
TORSDOF 1
ENDMDL
