MODEL 1
REMARK minimizedAffinity -2.19097853
REMARK minimizedRMSD -1
REMARK  1 active torsions:
REMARK  status: ('A' for Active; 'I' for Inactive)
REMARK    1  A    between atoms: N_2  and  C1_3 
ROOT
ATOM      1  C1  UNL d   1      -3.750  -3.395  -5.356  0.00  0.00     0.143 A 
ATOM      2  C2  UNL d   1      -3.925  -4.753  -5.643  0.00  0.00    -0.057 A 
ATOM      3  C3  UNL d   1      -3.004  -5.712  -5.204  0.00  0.00     0.033 A 
ATOM      4  C4  UNL d   1      -1.873  -5.326  -4.493  0.00  0.00    -0.042 A 
ATOM      5  C5  UNL d   1      -1.665  -3.979  -4.219  0.00  0.00     0.033 A 
ATOM      6  C6  UNL d   1      -2.592  -3.026  -4.654  0.00  0.00    -0.057 A 
ENDROOT
BRANCH   1   7
ATOM      7  N   UNL d   1      -4.577  -2.383  -5.848  0.00  0.00    -0.732 N 
ATOM      8  C   UNL d   1      -6.000  -2.602  -6.000  0.00  0.00     0.284 C 
ATOM      9  H3  UNL d   1      -4.335  -1.468  -5.476  0.00  0.00     0.395 HD
ENDBRANCH   1   7
TORSDOF 1
ENDMDL
