MODEL 1
REMARK minimizedAffinity 3.99200654
REMARK minimizedRMSD -1
REMARK  1 active torsions:
REMARK  status: ('A' for Active; 'I' for Inactive)
REMARK    1  A    between atoms: N_2  and  C1_3 
ROOT
ATOM      1  C1  UNL d   1      -3.256  -2.734  -4.945  0.00  0.00     0.143 A 
ATOM      2  C2  UNL d   1      -3.755  -3.828  -5.660  0.00  0.00    -0.057 A 
ATOM      3  C3  UNL d   1      -5.111  -3.917  -5.999  0.00  0.00     0.033 A 
ATOM      4  C4  UNL d   1      -6.000  -2.924  -5.600  0.00  0.00    -0.042 A 
ATOM      5  C5  UNL d   1      -5.531  -1.840  -4.867  0.00  0.00     0.033 A 
ATOM      6  C6  UNL d   1      -4.174  -1.754  -4.538  0.00  0.00    -0.057 A 
ENDROOT
BRANCH   1   7
ATOM      7  N   UNL d   1      -1.938  -2.637  -4.493  0.00  0.00    -0.732 N 
ATOM      8  C   UNL d   1      -1.653  -2.271  -3.122  0.00  0.00     0.284 C 
ATOM      9  H3  UNL d   1      -1.347  -3.381  -4.856  0.00  0.00     0.395 HD
ENDBRANCH   1   7
TORSDOF 1
ENDMDL
