MODEL 1
REMARK minimizedAffinity -1.71307695
REMARK minimizedRMSD -1
REMARK  1 active torsions:
REMARK  status: ('A' for Active; 'I' for Inactive)
REMARK    1  A    between atoms: N_2  and  C1_3 
ROOT
ATOM      1  C1  UNL d   1       2.103   2.227   2.100  0.00  0.00     0.143 A 
ATOM      2  C2  UNL d   1       1.571   3.518   2.016  0.00  0.00    -0.057 A 
ATOM      3  C3  UNL d   1       2.213   4.609   2.614  0.00  0.00     0.033 A 
ATOM      4  C4  UNL d   1       3.387   4.422   3.335  0.00  0.00    -0.042 A 
ATOM      5  C5  UNL d   1       3.921   3.144   3.454  0.00  0.00     0.033 A 
ATOM      6  C6  UNL d   1       3.279   2.059   2.848  0.00  0.00    -0.057 A 
ENDROOT
BRANCH   1   7
ATOM      7  N   UNL d   1       1.461   1.087   1.611  0.00  0.00    -0.732 N 
ATOM      8  C   UNL d   1       1.016   1.025   0.235  0.00  0.00     0.284 C 
ATOM      9  H3  UNL d   1       1.884   0.226   1.950  0.00  0.00     0.395 HD
ENDBRANCH   1   7
TORSDOF 1
ENDMDL
