MODEL 1
REMARK minimizedAffinity -0.570431828
REMARK minimizedRMSD -1
REMARK  1 active torsions:
REMARK  status: ('A' for Active; 'I' for Inactive)
REMARK    1  A    between atoms: N_2  and  C1_3 
ROOT
ATOM      1  C1  UNL d   1      -3.394   4.802  -5.813  0.00  0.00     0.143 A 
ATOM      2  C2  UNL d   1      -4.522   5.623  -5.922  0.00  0.00    -0.057 A 
ATOM      3  C3  UNL d   1      -5.810   5.081  -5.999  0.00  0.00     0.033 A 
ATOM      4  C4  UNL d   1      -5.992   3.702  -5.999  0.00  0.00    -0.042 A 
ATOM      5  C5  UNL d   1      -4.884   2.866  -5.917  0.00  0.00     0.033 A 
ATOM      6  C6  UNL d   1      -3.600   3.414  -5.833  0.00  0.00    -0.057 A 
ENDROOT
BRANCH   1   7
ATOM      7  N   UNL d   1      -2.081   5.278  -5.832  0.00  0.00    -0.732 N 
ATOM      8  C   UNL d   1      -1.002   4.486  -5.282  0.00  0.00     0.284 C 
ATOM      9  H3  UNL d   1      -1.850   5.747  -6.705  0.00  0.00     0.395 HD
ENDBRANCH   1   7
TORSDOF 1
ENDMDL
