MODEL 1
REMARK minimizedAffinity -2.80076528
REMARK minimizedRMSD -1
REMARK  1 active torsions:
REMARK  status: ('A' for Active; 'I' for Inactive)
REMARK    1  A    between atoms: N_2  and  C1_3 
ROOT
ATOM      1  C1  UNL d   1      -3.659  -4.220  -5.190  0.00  0.00     0.143 A 
ATOM      2  C2  UNL d   1      -2.473  -4.882  -4.858  0.00  0.00    -0.057 A 
ATOM      3  C3  UNL d   1      -1.447  -4.230  -4.163  0.00  0.00     0.033 A 
ATOM      4  C4  UNL d   1      -1.579  -2.891  -3.813  0.00  0.00    -0.042 A 
ATOM      5  C5  UNL d   1      -2.739  -2.205  -4.154  0.00  0.00     0.033 A 
ATOM      6  C6  UNL d   1      -3.763  -2.864  -4.842  0.00  0.00    -0.057 A 
ENDROOT
BRANCH   1   7
ATOM      7  N   UNL d   1      -4.675  -4.785  -5.966  0.00  0.00    -0.732 N 
ATOM      8  C   UNL d   1      -5.995  -4.193  -5.996  0.00  0.00     0.284 C 
ATOM      9  H3  UNL d   1      -4.340  -5.102  -6.873  0.00  0.00     0.395 HD
ENDBRANCH   1   7
TORSDOF 1
ENDMDL
