MODEL 1
REMARK minimizedAffinity 3.00825119
REMARK minimizedRMSD -1
REMARK  1 active torsions:
REMARK  status: ('A' for Active; 'I' for Inactive)
REMARK    1  A    between atoms: N_2  and  C1_3 
ROOT
ATOM      1  C1  UNL d   1      -3.199  -2.651  -5.240  0.00  0.00     0.143 A 
ATOM      2  C2  UNL d   1      -3.794  -3.832  -5.698  0.00  0.00    -0.057 A 
ATOM      3  C3  UNL d   1      -5.162  -3.889  -5.991  0.00  0.00     0.033 A 
ATOM      4  C4  UNL d   1      -5.967  -2.771  -5.802  0.00  0.00    -0.042 A 
ATOM      5  C5  UNL d   1      -5.403  -1.594  -5.324  0.00  0.00     0.033 A 
ATOM      6  C6  UNL d   1      -4.035  -1.541  -5.039  0.00  0.00    -0.057 A 
ENDROOT
BRANCH   1   7
ATOM      7  N   UNL d   1      -1.865  -2.558  -4.838  0.00  0.00    -0.732 N 
ATOM      8  C   UNL d   1      -1.515  -2.569  -3.433  0.00  0.00     0.284 C 
ATOM      9  H3  UNL d   1      -1.243  -3.109  -5.425  0.00  0.00     0.395 HD
ENDBRANCH   1   7
TORSDOF 1
ENDMDL
