MODEL 1
REMARK minimizedAffinity 0.441625327
REMARK minimizedRMSD -1
REMARK  1 active torsions:
REMARK  status: ('A' for Active; 'I' for Inactive)
REMARK    1  A    between atoms: N_2  and  C1_3 
ROOT
ATOM      1  C1  UNL d   1      -3.236   4.148  -5.943  0.00  0.00     0.143 A 
ATOM      2  C2  UNL d   1      -4.195   3.130  -5.921  0.00  0.00    -0.057 A 
ATOM      3  C3  UNL d   1      -5.564   3.421  -5.962  0.00  0.00     0.033 A 
ATOM      4  C4  UNL d   1      -6.000   4.741  -5.998  0.00  0.00    -0.042 A 
ATOM      5  C5  UNL d   1      -5.065   5.770  -5.996  0.00  0.00     0.033 A 
ATOM      6  C6  UNL d   1      -3.699   5.473  -5.961  0.00  0.00    -0.057 A 
ENDROOT
BRANCH   1   7
ATOM      7  N   UNL d   1      -1.863   3.927  -5.805  0.00  0.00    -0.732 N 
ATOM      8  C   UNL d   1      -1.031   4.881  -5.103  0.00  0.00     0.284 C 
ATOM      9  H3  UNL d   1      -1.645   2.955  -5.600  0.00  0.00     0.395 HD
ENDBRANCH   1   7
TORSDOF 1
ENDMDL
