MODEL 1
REMARK minimizedAffinity -3.59693503
REMARK minimizedRMSD -1
REMARK  0 active torsions:
REMARK  status: ('A' for Active; 'I' for Inactive)
ROOT
ATOM      1  O1  BZF d   1      -3.185   3.847  -2.226  0.00  0.00    -0.204 OA
ATOM      2  C2  BZF d   1      -4.170   2.889  -2.371  0.00  0.00     0.174 A 
ATOM      3  C3  BZF d   1      -3.629   1.689  -2.664  0.00  0.00    -0.012 A 
ATOM      4  C3A BZF d   1      -2.214   1.891  -2.614  0.00  0.00    -0.107 A 
ATOM      5  C4  BZF d   1      -1.140   1.067  -2.800  0.00  0.00     0.055 A 
ATOM      6  C5  BZF d   1       0.112   1.593  -2.753  0.00  0.00    -0.016 A 
ATOM      7  C6  BZF d   1       0.327   2.937  -2.527  0.00  0.00     0.022 A 
ATOM      8  C7  BZF d   1      -0.706   3.792  -2.332  0.00  0.00     0.029 A 
ATOM      9  C7A BZF d   1      -1.971   3.258  -2.347  0.00  0.00     0.058 A 
ENDROOT
TORSDOF 0
ENDMDL
