MODEL 1
REMARK minimizedAffinity -0.351047754
REMARK minimizedRMSD -1
REMARK  0 active torsions:
REMARK  status: ('A' for Active; 'I' for Inactive)
ROOT
ATOM      1  O1  BZF d   1       1.679  -0.639   2.500  0.00  0.00    -0.204 OA
ATOM      2  C2  BZF d   1       1.184  -1.608   3.351  0.00  0.00     0.174 A 
ATOM      3  C3  BZF d   1      -0.081  -1.936   3.017  0.00  0.00    -0.012 A 
ATOM      4  C3A BZF d   1      -0.364  -1.188   1.831  0.00  0.00    -0.107 A 
ATOM      5  C4  BZF d   1      -1.454  -1.100   1.014  0.00  0.00     0.055 A 
ATOM      6  C5  BZF d   1      -1.434  -0.221  -0.022  0.00  0.00    -0.016 A 
ATOM      7  C6  BZF d   1      -0.344   0.588  -0.267  0.00  0.00     0.022 A 
ATOM      8  C7  BZF d   1       0.763   0.533   0.513  0.00  0.00     0.029 A 
ATOM      9  C7A BZF d   1       0.759  -0.378   1.541  0.00  0.00     0.058 A 
ENDROOT
TORSDOF 0
ENDMDL
