MODEL 1
REMARK minimizedAffinity -3.12343478
REMARK minimizedRMSD -1
REMARK  0 active torsions:
REMARK  status: ('A' for Active; 'I' for Inactive)
ROOT
ATOM      1  O1  BZF d   1       0.568  -0.450   2.991  0.00  0.00    -0.204 OA
ATOM      2  C2  BZF d   1       1.875  -0.709   2.627  0.00  0.00     0.174 A 
ATOM      3  C3  BZF d   1       1.999  -0.750   1.285  0.00  0.00    -0.012 A 
ATOM      4  C3A BZF d   1       0.705  -0.410   0.777  0.00  0.00    -0.107 A 
ATOM      5  C4  BZF d   1       0.198  -0.268  -0.483  0.00  0.00     0.055 A 
ATOM      6  C5  BZF d   1      -1.125  -0.000  -0.637  0.00  0.00    -0.016 A 
ATOM      7  C6  BZF d   1      -1.971   0.127   0.446  0.00  0.00     0.022 A 
ATOM      8  C7  BZF d   1      -1.513  -0.000   1.715  0.00  0.00     0.029 A 
ATOM      9  C7A BZF d   1      -0.170  -0.238   1.875  0.00  0.00     0.058 A 
ENDROOT
TORSDOF 0
ENDMDL
