MODEL 1
REMARK minimizedAffinity 4.20581102
REMARK minimizedRMSD -1
REMARK  0 active torsions:
REMARK  status: ('A' for Active; 'I' for Inactive)
ROOT
ATOM      1  O1  BZF d   1       1.103  -1.292   1.373  0.00  0.00    -0.204 OA
ATOM      2  C2  BZF d   1       1.849  -0.682   2.362  0.00  0.00     0.174 A 
ATOM      3  C3  BZF d   1       1.074   0.121   3.119  0.00  0.00    -0.012 A 
ATOM      4  C3A BZF d   1      -0.256  -0.065   2.626  0.00  0.00    -0.107 A 
ATOM      5  C4  BZF d   1      -1.470   0.449   2.981  0.00  0.00     0.055 A 
ATOM      6  C5  BZF d   1      -2.567   0.118   2.250  0.00  0.00    -0.016 A 
ATOM      7  C6  BZF d   1      -2.486  -0.718   1.156  0.00  0.00     0.022 A 
ATOM      8  C7  BZF d   1      -1.304  -1.256   0.768  0.00  0.00     0.029 A 
ATOM      9  C7A BZF d   1      -0.199  -0.950   1.524  0.00  0.00     0.058 A 
ENDROOT
TORSDOF 0
ENDMDL
