MODEL 1
REMARK minimizedAffinity -4.30491638
REMARK minimizedRMSD -1
REMARK  0 active torsions:
REMARK  status: ('A' for Active; 'I' for Inactive)
ROOT
ATOM      1  O1  BZF d   1       0.691  -0.376  -1.265  0.00  0.00    -0.204 OA
ATOM      2  C2  BZF d   1      -0.507   0.298  -1.133  0.00  0.00     0.174 A 
ATOM      3  C3  BZF d   1      -0.888   0.348   0.160  0.00  0.00    -0.012 A 
ATOM      4  C3A BZF d   1       0.183  -0.257   0.891  0.00  0.00    -0.107 A 
ATOM      5  C4  BZF d   1       0.400  -0.489   2.219  0.00  0.00     0.055 A 
ATOM      6  C5  BZF d   1       1.515  -1.167   2.598  0.00  0.00    -0.016 A 
ATOM      7  C6  BZF d   1       2.430  -1.633   1.676  0.00  0.00     0.022 A 
ATOM      8  C7  BZF d   1       2.260  -1.423   0.348  0.00  0.00     0.029 A 
ATOM      9  C7A BZF d   1       1.151  -0.709  -0.035  0.00  0.00     0.058 A 
ENDROOT
TORSDOF 0
ENDMDL
