MODEL 1
REMARK minimizedAffinity -2.03748202
REMARK minimizedRMSD -1
REMARK  0 active torsions:
REMARK  status: ('A' for Active; 'I' for Inactive)
ROOT
ATOM      1  O1  BZF d   1       1.784  -0.655   1.570  0.00  0.00    -0.204 OA
ATOM      2  C2  BZF d   1       1.402  -0.988   2.855  0.00  0.00     0.174 A 
ATOM      3  C3  BZF d   1       0.110  -0.665   3.069  0.00  0.00    -0.012 A 
ATOM      4  C3A BZF d   1      -0.370  -0.179   1.812  0.00  0.00    -0.107 A 
ATOM      5  C4  BZF d   1      -1.582   0.281   1.385  0.00  0.00     0.055 A 
ATOM      6  C5  BZF d   1      -1.700   0.749   0.115  0.00  0.00    -0.016 A 
ATOM      7  C6  BZF d   1      -0.627   0.778  -0.752  0.00  0.00     0.022 A 
ATOM      8  C7  BZF d   1       0.594   0.328  -0.374  0.00  0.00     0.029 A 
ATOM      9  C7A BZF d   1       0.709  -0.177   0.898  0.00  0.00     0.058 A 
ENDROOT
TORSDOF 0
ENDMDL
