MODEL 1
REMARK minimizedAffinity -5.01471424
REMARK minimizedRMSD -1
REMARK  0 active torsions:
REMARK  status: ('A' for Active; 'I' for Inactive)
ROOT
ATOM      1  O1  BZF d   1       0.093  -0.381   2.715  0.00  0.00    -0.204 OA
ATOM      2  C2  BZF d   1       1.447  -0.605   2.880  0.00  0.00     0.174 A 
ATOM      3  C3  BZF d   1       2.073  -0.650   1.687  0.00  0.00    -0.012 A 
ATOM      4  C3A BZF d   1       1.062  -0.349   0.720  0.00  0.00    -0.107 A 
ATOM      5  C4  BZF d   1       1.071  -0.228  -0.640  0.00  0.00     0.055 A 
ATOM      6  C5  BZF d   1      -0.100   0.002  -1.290  0.00  0.00    -0.016 A 
ATOM      7  C6  BZF d   1      -1.297   0.111  -0.613  0.00  0.00     0.022 A 
ATOM      8  C7  BZF d   1      -1.355   0.004   0.737  0.00  0.00     0.029 A 
ATOM      9  C7A BZF d   1      -0.168  -0.196   1.399  0.00  0.00     0.058 A 
ENDROOT
TORSDOF 0
ENDMDL
