MODEL 1
REMARK minimizedAffinity -2.39403415
REMARK minimizedRMSD -1
REMARK  0 active torsions:
REMARK  status: ('A' for Active; 'I' for Inactive)
ROOT
ATOM      1  O1  BZF d   1       2.061  -2.104  -0.256  0.00  0.00    -0.204 OA
ATOM      2  C2  BZF d   1       3.358  -2.295   0.180  0.00  0.00     0.174 A 
ATOM      3  C3  BZF d   1       3.526  -1.788   1.419  0.00  0.00    -0.012 A 
ATOM      4  C3A BZF d   1       2.231  -1.328   1.816  0.00  0.00    -0.107 A 
ATOM      5  C4  BZF d   1       1.751  -0.740   2.951  0.00  0.00     0.055 A 
ATOM      6  C5  BZF d   1       0.451  -0.346   2.992  0.00  0.00    -0.016 A 
ATOM      7  C6  BZF d   1      -0.395  -0.521   1.916  0.00  0.00     0.022 A 
ATOM      8  C7  BZF d   1       0.034  -1.104   0.771  0.00  0.00     0.029 A 
ATOM      9  C7A BZF d   1       1.339  -1.533   0.738  0.00  0.00     0.058 A 
ENDROOT
TORSDOF 0
ENDMDL
