MODEL 1
REMARK minimizedAffinity -2.64017034
REMARK minimizedRMSD -1
REMARK  0 active torsions:
REMARK  status: ('A' for Active; 'I' for Inactive)
ROOT
ATOM      1  O1  BZF d   1      -0.086   1.249   1.833  0.00  0.00    -0.204 OA
ATOM      2  C2  BZF d   1       0.326   0.201   2.634  0.00  0.00     0.174 A 
ATOM      3  C3  BZF d   1       0.578  -0.897   1.893  0.00  0.00    -0.012 A 
ATOM      4  C3A BZF d   1       0.394  -0.485   0.535  0.00  0.00    -0.107 A 
ATOM      5  C4  BZF d   1       0.514  -1.126  -0.665  0.00  0.00     0.055 A 
ATOM      6  C5  BZF d   1       0.193  -0.459  -1.805  0.00  0.00    -0.016 A 
ATOM      7  C6  BZF d   1      -0.257   0.845  -1.781  0.00  0.00     0.022 A 
ATOM      8  C7  BZF d   1      -0.387   1.523  -0.615  0.00  0.00     0.029 A 
ATOM      9  C7A BZF d   1      -0.031   0.863   0.536  0.00  0.00     0.058 A 
ENDROOT
TORSDOF 0
ENDMDL
