MODEL 1
REMARK minimizedAffinity -1.87918234
REMARK minimizedRMSD -1
REMARK  1 active torsions:
REMARK  status: ('A' for Active; 'I' for Inactive)
REMARK    1  A    between atoms: C1_2  and  C2_3 
ROOT
ATOM      1  C2  UNL d   1       5.952  -2.733   3.569  0.00  0.00    -0.081 A 
ATOM      2  C3  UNL d   1       5.971  -2.123   2.308  0.00  0.00     0.006 A 
ATOM      3  C4  UNL d   1       5.998  -2.899   1.147  0.00  0.00     0.002 A 
ATOM      4  C5  UNL d   1       6.000  -4.295   1.226  0.00  0.00    -0.080 A 
ATOM      5  C6  UNL d   1       5.998  -5.140  -0.014  0.00  0.00     0.076 C 
ATOM      6  C7  UNL d   1       5.999  -4.905   2.485  0.00  0.00     0.002 A 
ATOM      7  C8  UNL d   1       5.972  -4.130   3.647  0.00  0.00     0.006 A 
ENDROOT
BRANCH   1   8
ATOM      8  C1  UNL d   1       5.857  -1.900   4.822  0.00  0.00     0.054 C 
ATOM      9  C   UNL d   1       5.257  -2.697   5.971  0.00  0.00     0.018 C 
ENDBRANCH   1   8
TORSDOF 1
ENDMDL
