MODEL 1
REMARK minimizedAffinity -3.63422441
REMARK minimizedRMSD -1
REMARK  1 active torsions:
REMARK  status: ('A' for Active; 'I' for Inactive)
REMARK    1  A    between atoms: C1_2  and  C2_3 
ROOT
ATOM      1  C2  UNL d   1       5.919  -3.038   3.714  0.00  0.00    -0.081 A 
ATOM      2  C3  UNL d   1       5.952  -2.369   2.484  0.00  0.00     0.006 A 
ATOM      3  C4  UNL d   1       5.991  -3.088   1.287  0.00  0.00     0.002 A 
ATOM      4  C5  UNL d   1       5.989  -4.486   1.299  0.00  0.00    -0.080 A 
ATOM      5  C6  UNL d   1       6.000  -5.270   0.020  0.00  0.00     0.076 C 
ATOM      6  C7  UNL d   1       5.974  -5.156   2.527  0.00  0.00     0.002 A 
ATOM      7  C8  UNL d   1       5.936  -4.437   3.725  0.00  0.00     0.006 A 
ENDROOT
BRANCH   1   8
ATOM      8  C1  UNL d   1       5.812  -2.267   5.004  0.00  0.00     0.054 C 
ATOM      9  C   UNL d   1       4.536  -2.619   5.755  0.00  0.00     0.018 C 
ENDBRANCH   1   8
TORSDOF 1
ENDMDL
