MODEL 1
REMARK minimizedAffinity 0.0218098294
REMARK minimizedRMSD -1
REMARK  1 active torsions:
REMARK  status: ('A' for Active; 'I' for Inactive)
REMARK    1  A    between atoms: C1_2  and  C2_3 
ROOT
ATOM      1  C2  UNL d   1       5.847  -5.011   3.883  0.00  0.00    -0.081 A 
ATOM      2  C3  UNL d   1       5.653  -3.646   4.124  0.00  0.00     0.006 A 
ATOM      3  C4  UNL d   1       5.603  -2.739   3.063  0.00  0.00     0.002 A 
ATOM      4  C5  UNL d   1       5.737  -3.183   1.743  0.00  0.00    -0.080 A 
ATOM      5  C6  UNL d   1       5.655  -2.224   0.592  0.00  0.00     0.076 C 
ATOM      6  C7  UNL d   1       5.948  -4.545   1.503  0.00  0.00     0.002 A 
ATOM      7  C8  UNL d   1       6.000  -5.452   2.564  0.00  0.00     0.006 A 
ENDROOT
BRANCH   1   8
ATOM      8  C1  UNL d   1       5.837  -6.000   5.021  0.00  0.00     0.054 C 
ATOM      9  C   UNL d   1       4.506  -5.982   5.758  0.00  0.00     0.018 C 
ENDBRANCH   1   8
TORSDOF 1
ENDMDL
