MODEL 1
REMARK minimizedAffinity -1.85482419
REMARK minimizedRMSD -1
REMARK  1 active torsions:
REMARK  status: ('A' for Active; 'I' for Inactive)
REMARK    1  A    between atoms: C1_2  and  C2_3 
ROOT
ATOM      1  C2  UNL d   1       4.661  -4.691   5.089  0.00  0.00    -0.081 A 
ATOM      2  C3  UNL d   1       4.864  -3.396   5.582  0.00  0.00     0.006 A 
ATOM      3  C4  UNL d   1       5.308  -2.378   4.735  0.00  0.00     0.002 A 
ATOM      4  C5  UNL d   1       5.549  -2.634   3.382  0.00  0.00    -0.080 A 
ATOM      5  C6  UNL d   1       5.997  -1.543   2.456  0.00  0.00     0.076 C 
ATOM      6  C7  UNL d   1       5.363  -3.932   2.893  0.00  0.00     0.002 A 
ATOM      7  C8  UNL d   1       4.920  -4.951   3.739  0.00  0.00     0.006 A 
ENDROOT
BRANCH   1   8
ATOM      8  C1  UNL d   1       4.120  -5.776   5.984  0.00  0.00     0.054 C 
ATOM      9  C   UNL d   1       2.633  -5.999   5.749  0.00  0.00     0.018 C 
ENDBRANCH   1   8
TORSDOF 1
ENDMDL
