MODEL 1
REMARK minimizedAffinity -2.78910351
REMARK minimizedRMSD -1
REMARK  1 active torsions:
REMARK  status: ('A' for Active; 'I' for Inactive)
REMARK    1  A    between atoms: C1_2  and  C2_3 
ROOT
ATOM      1  C2  UNL d   1       5.651  -2.964   2.893  0.00  0.00    -0.081 A 
ATOM      2  C3  UNL d   1       5.837  -2.601   4.233  0.00  0.00     0.006 A 
ATOM      3  C4  UNL d   1       5.937  -3.579   5.224  0.00  0.00     0.002 A 
ATOM      4  C5  UNL d   1       5.862  -4.936   4.892  0.00  0.00    -0.080 A 
ATOM      5  C6  UNL d   1       5.999  -5.998   5.943  0.00  0.00     0.076 C 
ATOM      6  C7  UNL d   1       5.659  -5.299   3.556  0.00  0.00     0.002 A 
ATOM      7  C8  UNL d   1       5.558  -4.321   2.565  0.00  0.00     0.006 A 
ENDROOT
BRANCH   1   8
ATOM      8  C1  UNL d   1       5.607  -1.913   1.813  0.00  0.00     0.054 C 
ATOM      9  C   UNL d   1       4.373  -2.071   0.937  0.00  0.00     0.018 C 
ENDBRANCH   1   8
TORSDOF 1
ENDMDL
