MODEL 1
REMARK minimizedAffinity -3.78283334
REMARK minimizedRMSD -1
REMARK  1 active torsions:
REMARK  status: ('A' for Active; 'I' for Inactive)
REMARK    1  A    between atoms: C1_2  and  C2_3 
ROOT
ATOM      1  C2  UNL d   1       5.529  -3.293   4.433  0.00  0.00    -0.081 A 
ATOM      2  C3  UNL d   1       5.772  -2.619   3.229  0.00  0.00     0.006 A 
ATOM      3  C4  UNL d   1       5.937  -3.332   2.039  0.00  0.00     0.002 A 
ATOM      4  C5  UNL d   1       5.854  -4.729   2.031  0.00  0.00    -0.080 A 
ATOM      5  C6  UNL d   1       5.998  -5.504   0.756  0.00  0.00     0.076 C 
ATOM      6  C7  UNL d   1       5.629  -5.403   3.236  0.00  0.00     0.002 A 
ATOM      7  C8  UNL d   1       5.465  -4.691   4.426  0.00  0.00     0.006 A 
ENDROOT
BRANCH   1   8
ATOM      8  C1  UNL d   1       5.287  -2.524   5.706  0.00  0.00     0.054 C 
ATOM      9  C   UNL d   1       3.799  -2.395   6.000  0.00  0.00     0.018 C 
ENDBRANCH   1   8
TORSDOF 1
ENDMDL
