MODEL 1
REMARK minimizedAffinity -2.51083469
REMARK minimizedRMSD -1
REMARK  1 active torsions:
REMARK  status: ('A' for Active; 'I' for Inactive)
REMARK    1  A    between atoms: C1_2  and  C2_3 
ROOT
ATOM      1  C2  UNL d   1       5.679  -4.122   4.627  0.00  0.00    -0.081 A 
ATOM      2  C3  UNL d   1       5.655  -2.734   4.442  0.00  0.00     0.006 A 
ATOM      3  C4  UNL d   1       5.771  -2.188   3.161  0.00  0.00     0.002 A 
ATOM      4  C5  UNL d   1       5.905  -3.020   2.044  0.00  0.00    -0.080 A 
ATOM      5  C6  UNL d   1       5.999  -2.448   0.661  0.00  0.00     0.076 C 
ATOM      6  C7  UNL d   1       5.946  -4.406   2.231  0.00  0.00     0.002 A 
ATOM      7  C8  UNL d   1       5.831  -4.953   3.511  0.00  0.00     0.006 A 
ENDROOT
BRANCH   1   8
ATOM      8  C1  UNL d   1       5.489  -4.716   5.999  0.00  0.00     0.054 C 
ATOM      9  C   UNL d   1       4.649  -5.983   5.942  0.00  0.00     0.018 C 
ENDBRANCH   1   8
TORSDOF 1
ENDMDL
