MODEL 1
REMARK minimizedAffinity -0.712120593
REMARK minimizedRMSD -1
REMARK  1 active torsions:
REMARK  status: ('A' for Active; 'I' for Inactive)
REMARK    1  A    between atoms: C1_2  and  C2_3 
ROOT
ATOM      1  C2  UNL d   1       5.160  -5.133   4.345  0.00  0.00    -0.081 A 
ATOM      2  C3  UNL d   1       5.683  -5.729   3.191  0.00  0.00     0.006 A 
ATOM      3  C4  UNL d   1       5.944  -4.961   2.054  0.00  0.00     0.002 A 
ATOM      4  C5  UNL d   1       5.694  -3.585   2.054  0.00  0.00    -0.080 A 
ATOM      5  C6  UNL d   1       5.998  -2.744   0.850  0.00  0.00     0.076 C 
ATOM      6  C7  UNL d   1       5.155  -2.992   3.201  0.00  0.00     0.002 A 
ATOM      7  C8  UNL d   1       4.893  -3.760   4.338  0.00  0.00     0.006 A 
ENDROOT
BRANCH   1   8
ATOM      8  C1  UNL d   1       4.938  -5.947   5.595  0.00  0.00     0.054 C 
ATOM      9  C   UNL d   1       3.464  -5.991   5.972  0.00  0.00     0.018 C 
ENDBRANCH   1   8
TORSDOF 1
ENDMDL
