MODEL 1
REMARK minimizedAffinity -3.7176218
REMARK minimizedRMSD -1
REMARK  1 active torsions:
REMARK  status: ('A' for Active; 'I' for Inactive)
REMARK    1  A    between atoms: C1_2  and  C2_3 
ROOT
ATOM      1  C2  UNL d   1       5.521  -4.093   4.571  0.00  0.00    -0.081 A 
ATOM      2  C3  UNL d   1       5.397  -2.729   4.278  0.00  0.00     0.006 A 
ATOM      3  C4  UNL d   1       5.563  -2.267   2.970  0.00  0.00     0.002 A 
ATOM      4  C5  UNL d   1       5.848  -3.161   1.933  0.00  0.00    -0.080 A 
ATOM      5  C6  UNL d   1       5.999  -2.683   0.520  0.00  0.00     0.076 C 
ATOM      6  C7  UNL d   1       5.990  -4.521   2.228  0.00  0.00     0.002 A 
ATOM      7  C8  UNL d   1       5.825  -4.984   3.536  0.00  0.00     0.006 A 
ENDROOT
BRANCH   1   8
ATOM      8  C1  UNL d   1       5.279  -4.602   5.969  0.00  0.00     0.054 C 
ATOM      9  C   UNL d   1       4.141  -5.612   6.000  0.00  0.00     0.018 C 
ENDBRANCH   1   8
TORSDOF 1
ENDMDL
