MODEL 1
REMARK minimizedAffinity -2.26184273
REMARK minimizedRMSD -1
REMARK  1 active torsions:
REMARK  status: ('A' for Active; 'I' for Inactive)
REMARK    1  A    between atoms: C1_2  and  C2_3 
ROOT
ATOM      1  C2  UNL d   1       5.801  -4.352   4.543  0.00  0.00    -0.081 A 
ATOM      2  C3  UNL d   1       5.756  -2.960   4.394  0.00  0.00     0.006 A 
ATOM      3  C4  UNL d   1       5.828  -2.381   3.125  0.00  0.00     0.002 A 
ATOM      4  C5  UNL d   1       5.937  -3.184   1.984  0.00  0.00    -0.080 A 
ATOM      5  C6  UNL d   1       5.984  -2.576   0.614  0.00  0.00     0.076 C 
ATOM      6  C7  UNL d   1       6.000  -4.573   2.134  0.00  0.00     0.002 A 
ATOM      7  C8  UNL d   1       5.929  -5.152   3.403  0.00  0.00     0.006 A 
ENDROOT
BRANCH   1   8
ATOM      8  C1  UNL d   1       5.659  -4.982   5.906  0.00  0.00     0.054 C 
ATOM      9  C   UNL d   1       4.394  -5.822   5.997  0.00  0.00     0.018 C 
ENDBRANCH   1   8
TORSDOF 1
ENDMDL
