MODEL 1
REMARK minimizedAffinity -2.4969213
REMARK minimizedRMSD -1
REMARK  1 active torsions:
REMARK  status: ('A' for Active; 'I' for Inactive)
REMARK    1  A    between atoms: C1_2  and  C2_3 
ROOT
ATOM      1  C2  UNL d   1       5.865  -4.346   4.722  0.00  0.00    -0.081 A 
ATOM      2  C3  UNL d   1       5.814  -2.958   4.896  0.00  0.00     0.006 A 
ATOM      3  C4  UNL d   1       5.848  -2.104   3.791  0.00  0.00     0.002 A 
ATOM      4  C5  UNL d   1       5.926  -2.624   2.494  0.00  0.00    -0.080 A 
ATOM      5  C6  UNL d   1       5.932  -1.719   1.298  0.00  0.00     0.076 C 
ATOM      6  C7  UNL d   1       5.995  -4.010   2.321  0.00  0.00     0.002 A 
ATOM      7  C8  UNL d   1       5.961  -4.864   3.426  0.00  0.00     0.006 A 
ENDROOT
BRANCH   1   8
ATOM      8  C1  UNL d   1       5.763  -5.271   5.908  0.00  0.00     0.054 C 
ATOM      9  C   UNL d   1       4.396  -5.937   5.974  0.00  0.00     0.018 C 
ENDBRANCH   1   8
TORSDOF 1
ENDMDL
