MODEL 1
REMARK minimizedAffinity 0.265533268
REMARK minimizedRMSD -1
REMARK  1 active torsions:
REMARK  status: ('A' for Active; 'I' for Inactive)
REMARK    1  A    between atoms: C1_2  and  C2_3 
ROOT
ATOM      1  C2  UNL d   1       5.600  -4.601   2.434  0.00  0.00    -0.081 A 
ATOM      2  C3  UNL d   1       5.933  -3.241   2.403  0.00  0.00     0.006 A 
ATOM      3  C4  UNL d   1       5.759  -2.444   3.537  0.00  0.00     0.002 A 
ATOM      4  C5  UNL d   1       5.257  -2.994   4.721  0.00  0.00    -0.080 A 
ATOM      5  C6  UNL d   1       5.094  -2.155   5.954  0.00  0.00     0.076 C 
ATOM      6  C7  UNL d   1       4.908  -4.348   4.747  0.00  0.00     0.002 A 
ATOM      7  C8  UNL d   1       5.081  -5.146   3.614  0.00  0.00     0.006 A 
ENDROOT
BRANCH   1   8
ATOM      8  C1  UNL d   1       5.847  -5.478   1.233  0.00  0.00     0.054 C 
ATOM      9  C   UNL d   1       6.000  -4.650  -0.035  0.00  0.00     0.018 C 
ENDBRANCH   1   8
TORSDOF 1
ENDMDL
