MODEL 1
REMARK minimizedAffinity -1.0781194
REMARK minimizedRMSD -1
REMARK  1 active torsions:
REMARK  status: ('A' for Active; 'I' for Inactive)
REMARK    1  A    between atoms: C1_2  and  C2_3 
ROOT
ATOM      1  C2  UNL d   1       5.187  -4.830   4.578  0.00  0.00    -0.081 A 
ATOM      2  C3  UNL d   1       5.739  -5.265   3.366  0.00  0.00     0.006 A 
ATOM      3  C4  UNL d   1       5.992  -4.356   2.336  0.00  0.00     0.002 A 
ATOM      4  C5  UNL d   1       5.705  -2.997   2.503  0.00  0.00    -0.080 A 
ATOM      5  C6  UNL d   1       6.000  -2.006   1.416  0.00  0.00     0.076 C 
ATOM      6  C7  UNL d   1       5.137  -2.565   3.706  0.00  0.00     0.002 A 
ATOM      7  C8  UNL d   1       4.884  -3.474   4.736  0.00  0.00     0.006 A 
ENDROOT
BRANCH   1   8
ATOM      8  C1  UNL d   1       4.973  -5.797   5.714  0.00  0.00     0.054 C 
ATOM      9  C   UNL d   1       3.492  -5.998   5.998  0.00  0.00     0.018 C 
ENDBRANCH   1   8
TORSDOF 1
ENDMDL
