MODEL 1
REMARK minimizedAffinity -3.76357222
REMARK minimizedRMSD -1
REMARK  1 active torsions:
REMARK  status: ('A' for Active; 'I' for Inactive)
REMARK    1  A    between atoms: C1_2  and  C2_3 
ROOT
ATOM      1  C2  UNL d   1       5.501  -4.974   4.470  0.00  0.00    -0.081 A 
ATOM      2  C3  UNL d   1       5.570  -3.575   4.481  0.00  0.00     0.006 A 
ATOM      3  C4  UNL d   1       5.743  -2.865   3.291  0.00  0.00     0.002 A 
ATOM      4  C5  UNL d   1       5.843  -3.540   2.069  0.00  0.00    -0.080 A 
ATOM      5  C6  UNL d   1       5.999  -2.789   0.781  0.00  0.00     0.076 C 
ATOM      6  C7  UNL d   1       5.792  -4.938   2.060  0.00  0.00     0.002 A 
ATOM      7  C8  UNL d   1       5.620  -5.649   3.250  0.00  0.00     0.006 A 
ENDROOT
BRANCH   1   8
ATOM      8  C1  UNL d   1       5.250  -5.739   5.744  0.00  0.00     0.054 C 
ATOM      9  C   UNL d   1       3.764  -6.000   5.948  0.00  0.00     0.018 C 
ENDBRANCH   1   8
TORSDOF 1
ENDMDL
