MODEL 1
REMARK minimizedAffinity -2.77825975
REMARK minimizedRMSD -1
REMARK  1 active torsions:
REMARK  status: ('A' for Active; 'I' for Inactive)
REMARK    1  A    between atoms: C1_2  and  C2_3 
ROOT
ATOM      1  C2  UNL d   1       5.272  -4.184   4.788  0.00  0.00    -0.081 A 
ATOM      2  C3  UNL d   1       5.353  -2.827   5.124  0.00  0.00     0.006 A 
ATOM      3  C4  UNL d   1       5.588  -1.866   4.137  0.00  0.00     0.002 A 
ATOM      4  C5  UNL d   1       5.739  -2.245   2.799  0.00  0.00    -0.080 A 
ATOM      5  C6  UNL d   1       5.962  -1.221   1.726  0.00  0.00     0.076 C 
ATOM      6  C7  UNL d   1       5.675  -3.603   2.466  0.00  0.00     0.002 A 
ATOM      7  C8  UNL d   1       5.440  -4.564   3.452  0.00  0.00     0.006 A 
ENDROOT
BRANCH   1   8
ATOM      8  C1  UNL d   1       4.953  -5.216   5.840  0.00  0.00     0.054 C 
ATOM      9  C   UNL d   1       3.698  -6.000   5.484  0.00  0.00     0.018 C 
ENDBRANCH   1   8
TORSDOF 1
ENDMDL
