MODEL 1
REMARK minimizedAffinity 11.825758
REMARK minimizedRMSD -1
REMARK  2 active torsions:
REMARK  status: ('A' for Active; 'I' for Inactive)
REMARK    1  A    between atoms: C1_2  and  C2_3 
REMARK    2  A    between atoms: C2_3  and  C3_4 
ROOT
ATOM      1  C3  UNL d   1       3.642   1.200  -0.377  0.00  0.00    -0.075 A 
ATOM      2  C4  UNL d   1       2.554   2.002  -0.002  0.00  0.00     0.002 A 
ATOM      3  C5  UNL d   1       1.343   1.421   0.377  0.00  0.00     0.002 A 
ATOM      4  C6  UNL d   1       1.202   0.035   0.376  0.00  0.00    -0.004 A 
ATOM      5  C7  UNL d   1       2.270  -0.770  -0.012  0.00  0.00     0.002 A 
ATOM      6  C8  UNL d   1       3.484  -0.192  -0.387  0.00  0.00     0.002 A 
ENDROOT
BRANCH   1   7
ATOM      7  C2  UNL d   1       4.964   1.822  -0.760  0.00  0.00     0.056 C 
BRANCH   7   8
ATOM      8  C1  UNL d   1       5.989   1.856   0.378  0.00  0.00     0.007 C 
ATOM      9  C   UNL d   1       6.000   3.176   1.138  0.00  0.00     0.009 C 
ENDBRANCH   7   8
ENDBRANCH   1   7
TORSDOF 2
ENDMDL
