MODEL 1
REMARK minimizedAffinity 5.46164703
REMARK minimizedRMSD -1
REMARK  2 active torsions:
REMARK  status: ('A' for Active; 'I' for Inactive)
REMARK    1  A    between atoms: C1_2  and  C2_3 
REMARK    2  A    between atoms: C2_3  and  C3_4 
ROOT
ATOM      1  C3  UNL d   1       1.728   3.042   3.187  0.00  0.00    -0.075 A 
ATOM      2  C4  UNL d   1       3.090   3.294   3.404  0.00  0.00     0.002 A 
ATOM      3  C5  UNL d   1       3.548   4.598   3.591  0.00  0.00     0.002 A 
ATOM      4  C6  UNL d   1       2.654   5.666   3.552  0.00  0.00    -0.004 A 
ATOM      5  C7  UNL d   1       1.301   5.429   3.320  0.00  0.00     0.002 A 
ATOM      6  C8  UNL d   1       0.839   4.124   3.138  0.00  0.00     0.002 A 
ENDROOT
BRANCH   1   7
ATOM      7  C2  UNL d   1       1.222   1.630   3.013  0.00  0.00     0.056 C 
BRANCH   7   8
ATOM      8  C1  UNL d   1       0.504   1.069   4.246  0.00  0.00     0.007 C 
ATOM      9  C   UNL d   1       1.161  -0.185   4.805  0.00  0.00     0.009 C 
ENDBRANCH   7   8
ENDBRANCH   1   7
TORSDOF 2
ENDMDL
