MODEL 1
REMARK minimizedAffinity 6.93419456
REMARK minimizedRMSD -1
REMARK  2 active torsions:
REMARK  status: ('A' for Active; 'I' for Inactive)
REMARK    1  A    between atoms: C1_2  and  C2_3 
REMARK    2  A    between atoms: C2_3  and  C3_4 
ROOT
ATOM      1  C3  UNL d   1       0.385  -3.792   5.244  0.00  0.00    -0.075 A 
ATOM      2  C4  UNL d   1      -0.788  -3.720   4.478  0.00  0.00     0.002 A 
ATOM      3  C5  UNL d   1      -1.704  -4.772   4.486  0.00  0.00     0.002 A 
ATOM      4  C6  UNL d   1      -1.456  -5.911   5.249  0.00  0.00    -0.004 A 
ATOM      5  C7  UNL d   1      -0.286  -6.000   6.000  0.00  0.00     0.002 A 
ATOM      6  C8  UNL d   1       0.631  -4.947   5.998  0.00  0.00     0.002 A 
ENDROOT
BRANCH   1   7
ATOM      7  C2  UNL d   1       1.366  -2.644   5.263  0.00  0.00     0.056 C 
BRANCH   7   8
ATOM      8  C1  UNL d   1       1.460  -1.881   3.938  0.00  0.00     0.007 C 
ATOM      9  C   UNL d   1       0.742  -0.538   3.966  0.00  0.00     0.009 C 
ENDBRANCH   7   8
ENDBRANCH   1   7
TORSDOF 2
ENDMDL
