MODEL 1
REMARK minimizedAffinity -1.20323312
REMARK minimizedRMSD -1
REMARK  2 active torsions:
REMARK  status: ('A' for Active; 'I' for Inactive)
REMARK    1  A    between atoms: C1_2  and  C2_3 
REMARK    2  A    between atoms: C2_3  and  C3_4 
ROOT
ATOM      1  C3  UNL d   1       0.089  -2.517   4.618  0.00  0.00    -0.075 A 
ATOM      2  C4  UNL d   1      -0.984  -3.349   4.268  0.00  0.00     0.002 A 
ATOM      3  C5  UNL d   1      -1.079  -4.640   4.790  0.00  0.00     0.002 A 
ATOM      4  C6  UNL d   1      -0.099  -5.117   5.658  0.00  0.00    -0.004 A 
ATOM      5  C7  UNL d   1       0.980  -4.305   5.999  0.00  0.00     0.002 A 
ATOM      6  C8  UNL d   1       1.075  -3.011   5.482  0.00  0.00     0.002 A 
ENDROOT
BRANCH   1   7
ATOM      7  C2  UNL d   1       0.182  -1.109   4.080  0.00  0.00     0.056 C 
BRANCH   7   8
ATOM      8  C1  UNL d   1       0.900  -0.130   5.015  0.00  0.00     0.007 C 
ATOM      9  C   UNL d   1       1.505   1.062   4.286  0.00  0.00     0.009 C 
ENDBRANCH   7   8
ENDBRANCH   1   7
TORSDOF 2
ENDMDL
