MODEL 1
REMARK minimizedAffinity 6.01386404
REMARK minimizedRMSD -1
REMARK  2 active torsions:
REMARK  status: ('A' for Active; 'I' for Inactive)
REMARK    1  A    between atoms: C1_2  and  C2_3 
REMARK    2  A    between atoms: C2_3  and  C3_4 
ROOT
ATOM      1  C3  UNL d   1       1.021  -2.065   5.253  0.00  0.00    -0.075 A 
ATOM      2  C4  UNL d   1      -0.341  -2.400   5.240  0.00  0.00     0.002 A 
ATOM      3  C5  UNL d   1      -0.760  -3.676   5.616  0.00  0.00     0.002 A 
ATOM      4  C6  UNL d   1       0.175  -4.635   5.999  0.00  0.00    -0.004 A 
ATOM      5  C7  UNL d   1       1.532  -4.318   5.999  0.00  0.00     0.002 A 
ATOM      6  C8  UNL d   1       1.954  -3.041   5.628  0.00  0.00     0.002 A 
ENDROOT
BRANCH   1   7
ATOM      7  C2  UNL d   1       1.479  -0.676   4.875  0.00  0.00     0.056 C 
BRANCH   7   8
ATOM      8  C1  UNL d   1       0.338   0.334   4.713  0.00  0.00     0.007 C 
ATOM      9  C   UNL d   1       0.825   1.754   4.457  0.00  0.00     0.009 C 
ENDBRANCH   7   8
ENDBRANCH   1   7
TORSDOF 2
ENDMDL
