MODEL 1
REMARK minimizedAffinity -0.980445325
REMARK minimizedRMSD -1
REMARK  2 active torsions:
REMARK  status: ('A' for Active; 'I' for Inactive)
REMARK    1  A    between atoms: C1_2  and  C2_3 
REMARK    2  A    between atoms: C2_3  and  C3_4 
ROOT
ATOM      1  C3  UNL d   1      -4.661   5.879   2.749  0.00  0.00    -0.075 A 
ATOM      2  C4  UNL d   1      -5.681   5.655   3.685  0.00  0.00     0.002 A 
ATOM      3  C5  UNL d   1      -5.388   5.571   5.046  0.00  0.00     0.002 A 
ATOM      4  C6  UNL d   1      -4.073   5.700   5.488  0.00  0.00    -0.004 A 
ATOM      5  C7  UNL d   1      -3.049   5.907   4.566  0.00  0.00     0.002 A 
ATOM      6  C8  UNL d   1      -3.340   5.995   3.203  0.00  0.00     0.002 A 
ENDROOT
BRANCH   1   7
ATOM      7  C2  UNL d   1      -4.975   6.000   1.277  0.00  0.00     0.056 C 
BRANCH   7   8
ATOM      8  C1  UNL d   1      -4.093   5.128   0.377  0.00  0.00     0.007 C 
ATOM      9  C   UNL d   1      -4.542   3.674   0.323  0.00  0.00     0.009 C 
ENDBRANCH   7   8
ENDBRANCH   1   7
TORSDOF 2
ENDMDL
