MODEL 1
REMARK minimizedAffinity -0.0642841905
REMARK minimizedRMSD -1
REMARK  2 active torsions:
REMARK  status: ('A' for Active; 'I' for Inactive)
REMARK    1  A    between atoms: C1_2  and  C2_3 
REMARK    2  A    between atoms: C2_3  and  C3_4 
ROOT
ATOM      1  C3  UNL d   1       0.564  -3.493   4.953  0.00  0.00    -0.075 A 
ATOM      2  C4  UNL d   1       1.331  -4.519   5.523  0.00  0.00     0.002 A 
ATOM      3  C5  UNL d   1       0.721  -5.679   5.999  0.00  0.00     0.002 A 
ATOM      4  C6  UNL d   1      -0.663  -5.825   5.920  0.00  0.00    -0.004 A 
ATOM      5  C7  UNL d   1      -1.437  -4.805   5.371  0.00  0.00     0.002 A 
ATOM      6  C8  UNL d   1      -0.828  -3.645   4.890  0.00  0.00     0.002 A 
ENDROOT
BRANCH   1   7
ATOM      7  C2  UNL d   1       1.221  -2.247   4.409  0.00  0.00     0.056 C 
BRANCH   7   8
ATOM      8  C1  UNL d   1       0.324  -1.006   4.435  0.00  0.00     0.007 C 
ATOM      9  C   UNL d   1       1.106   0.301   4.445  0.00  0.00     0.009 C 
ENDBRANCH   7   8
ENDBRANCH   1   7
TORSDOF 2
ENDMDL
