MODEL 1
REMARK minimizedAffinity -3.99528813
REMARK minimizedRMSD -1
REMARK  0 active torsions:
REMARK  status: ('A' for Active; 'I' for Inactive)
ROOT
ATOM      1  C   UNL d   1       1.236   0.588  -1.341  0.00  0.00     0.020 A 
ATOM      2  C1  UNL d   1       0.596   1.823  -1.438  0.00  0.00     0.020 A 
ATOM      3  C2  UNL d   1      -0.508   2.102  -0.629  0.00  0.00     0.034 A 
ATOM      4  C3  UNL d   1      -0.975   1.146   0.279  0.00  0.00     0.017 A 
ATOM      5  C4  UNL d   1      -0.331  -0.093   0.376  0.00  0.00     0.017 A 
ATOM      6  C5  UNL d   1       0.774  -0.368  -0.436  0.00  0.00     0.034 A 
ATOM      7 Cl   UNL d   1      -0.849  -1.324   1.474  0.00  0.00    -0.070 Cl
ATOM      8 Cl1  UNL d   1      -2.344   1.559   1.248  0.00  0.00    -0.070 Cl
ENDROOT
TORSDOF 0
ENDMDL
