MODEL 1
REMARK minimizedAffinity -2.62681508
REMARK minimizedRMSD -1
REMARK  0 active torsions:
REMARK  status: ('A' for Active; 'I' for Inactive)
ROOT
ATOM      1  C   UNL d   1      -0.635  -0.533   1.647  0.00  0.00     0.020 A 
ATOM      2  C1  UNL d   1      -1.386   0.595   1.974  0.00  0.00     0.020 A 
ATOM      3  C2  UNL d   1      -1.131   1.812   1.338  0.00  0.00     0.034 A 
ATOM      4  C3  UNL d   1      -0.122   1.903   0.372  0.00  0.00     0.017 A 
ATOM      5  C4  UNL d   1       0.630   0.770   0.044  0.00  0.00     0.017 A 
ATOM      6  C5  UNL d   1       0.371  -0.446   0.684  0.00  0.00     0.034 A 
ATOM      7 Cl   UNL d   1       1.891   0.805  -1.138  0.00  0.00    -0.070 Cl
ATOM      8 Cl1  UNL d   1       0.138   3.440  -0.375  0.00  0.00    -0.070 Cl
ENDROOT
TORSDOF 0
ENDMDL
