MODEL 1
REMARK minimizedAffinity 0.296387255
REMARK minimizedRMSD -1
REMARK  0 active torsions:
REMARK  status: ('A' for Active; 'I' for Inactive)
ROOT
ATOM      1  C   UNL d   1       0.901  -1.083  -0.036  0.00  0.00     0.020 A 
ATOM      2  C1  UNL d   1       0.246  -1.214   1.188  0.00  0.00     0.020 A 
ATOM      3  C2  UNL d   1      -0.342  -0.098   1.788  0.00  0.00     0.034 A 
ATOM      4  C3  UNL d   1      -0.275   1.153   1.165  0.00  0.00     0.017 A 
ATOM      5  C4  UNL d   1       0.383   1.284  -0.064  0.00  0.00     0.017 A 
ATOM      6  C5  UNL d   1       0.969   0.163  -0.660  0.00  0.00     0.034 A 
ATOM      7 Cl   UNL d   1       0.506   2.795  -0.894  0.00  0.00    -0.070 Cl
ATOM      8 Cl1  UNL d   1      -1.024   2.490   1.964  0.00  0.00    -0.070 Cl
ENDROOT
TORSDOF 0
ENDMDL
