MODEL 1
REMARK minimizedAffinity -3.81354308
REMARK minimizedRMSD -1
REMARK  0 active torsions:
REMARK  status: ('A' for Active; 'I' for Inactive)
ROOT
ATOM      1  C   UNL d   1      -1.236   2.345   0.131  0.00  0.00     0.020 A 
ATOM      2  C1  UNL d   1      -1.647   2.210   1.457  0.00  0.00     0.020 A 
ATOM      3  C2  UNL d   1      -1.293   1.071   2.184  0.00  0.00     0.034 A 
ATOM      4  C3  UNL d   1      -0.527   0.064   1.586  0.00  0.00     0.017 A 
ATOM      5  C4  UNL d   1      -0.115   0.201   0.256  0.00  0.00     0.017 A 
ATOM      6  C5  UNL d   1      -0.472   1.343  -0.468  0.00  0.00     0.034 A 
ATOM      7 Cl   UNL d   1       0.832  -1.000  -0.550  0.00  0.00    -0.070 Cl
ATOM      8 Cl1  UNL d   1      -0.127  -1.317   2.545  0.00  0.00    -0.070 Cl
ENDROOT
TORSDOF 0
ENDMDL
