MODEL 1
REMARK minimizedAffinity -5.29229832
REMARK minimizedRMSD -1
REMARK  0 active torsions:
REMARK  status: ('A' for Active; 'I' for Inactive)
ROOT
ATOM      1  C   UNL d   1      -1.967   1.427   1.646  0.00  0.00     0.020 A 
ATOM      2  C1  UNL d   1      -2.119   2.757   1.257  0.00  0.00     0.020 A 
ATOM      3  C2  UNL d   1      -1.231   3.321   0.338  0.00  0.00     0.034 A 
ATOM      4  C3  UNL d   1      -0.188   2.555  -0.194  0.00  0.00     0.017 A 
ATOM      5  C4  UNL d   1      -0.036   1.219   0.197  0.00  0.00     0.017 A 
ATOM      6  C5  UNL d   1      -0.928   0.660   1.117  0.00  0.00     0.034 A 
ATOM      7 Cl   UNL d   1       1.226   0.211  -0.416  0.00  0.00    -0.070 Cl
ATOM      8 Cl1  UNL d   1       0.873   3.317  -1.326  0.00  0.00    -0.070 Cl
ENDROOT
TORSDOF 0
ENDMDL
