MODEL 1
REMARK minimizedAffinity -5.35940886
REMARK minimizedRMSD -1
REMARK  0 active torsions:
REMARK  status: ('A' for Active; 'I' for Inactive)
ROOT
ATOM      1  C   UNL d   1      -0.990   4.256   0.710  0.00  0.00     0.020 A 
ATOM      2  C1  UNL d   1      -1.691   3.260   1.390  0.00  0.00     0.020 A 
ATOM      3  C2  UNL d   1      -1.460   1.916   1.092  0.00  0.00     0.034 A 
ATOM      4  C3  UNL d   1      -0.525   1.563   0.112  0.00  0.00     0.017 A 
ATOM      5  C4  UNL d   1       0.178   2.563  -0.570  0.00  0.00     0.017 A 
ATOM      6  C5  UNL d   1      -0.058   3.907  -0.268  0.00  0.00     0.034 A 
ATOM      7 Cl   UNL d   1       1.346   2.205  -1.792  0.00  0.00    -0.070 Cl
ATOM      8 Cl1  UNL d   1      -0.290  -0.119  -0.205  0.00  0.00    -0.070 Cl
ENDROOT
TORSDOF 0
ENDMDL
