MODEL 1
REMARK minimizedAffinity -4.49063158
REMARK minimizedRMSD -1
REMARK  0 active torsions:
REMARK  status: ('A' for Active; 'I' for Inactive)
ROOT
ATOM      1  C   UNL d   1       1.447   0.491  -0.669  0.00  0.00     0.020 A 
ATOM      2  C1  UNL d   1       0.982   1.783  -0.908  0.00  0.00     0.020 A 
ATOM      3  C2  UNL d   1      -0.237   2.198  -0.368  0.00  0.00     0.034 A 
ATOM      4  C3  UNL d   1      -0.996   1.319   0.414  0.00  0.00     0.017 A 
ATOM      5  C4  UNL d   1      -0.528   0.022   0.654  0.00  0.00     0.017 A 
ATOM      6  C5  UNL d   1       0.693  -0.388   0.111  0.00  0.00     0.034 A 
ATOM      7 Cl   UNL d   1      -1.408  -1.119   1.609  0.00  0.00    -0.070 Cl
ATOM      8 Cl1  UNL d   1      -2.494   1.899   1.051  0.00  0.00    -0.070 Cl
ENDROOT
TORSDOF 0
ENDMDL
