MODEL 1
REMARK minimizedAffinity -1.83511043
REMARK minimizedRMSD -1
REMARK  0 active torsions:
REMARK  status: ('A' for Active; 'I' for Inactive)
ROOT
ATOM      1  C   UNL d   1      -0.872  -0.280   2.125  0.00  0.00     0.020 A 
ATOM      2  C1  UNL d   1      -0.827   1.109   2.017  0.00  0.00     0.020 A 
ATOM      3  C2  UNL d   1      -0.241   1.704   0.898  0.00  0.00     0.034 A 
ATOM      4  C3  UNL d   1       0.304   0.909  -0.117  0.00  0.00     0.017 A 
ATOM      5  C4  UNL d   1       0.259  -0.485  -0.008  0.00  0.00     0.017 A 
ATOM      6  C5  UNL d   1      -0.330  -1.075   1.115  0.00  0.00     0.034 A 
ATOM      7 Cl   UNL d   1       0.909  -1.532  -1.220  0.00  0.00    -0.070 Cl
ATOM      8 Cl1  UNL d   1       1.014   1.712  -1.472  0.00  0.00    -0.070 Cl
ENDROOT
TORSDOF 0
ENDMDL
