MODEL 1
REMARK minimizedAffinity -5.66006517
REMARK minimizedRMSD -1
REMARK  0 active torsions:
REMARK  status: ('A' for Active; 'I' for Inactive)
ROOT
ATOM      1  C   UNL d   1      -1.955   2.978   1.024  0.00  0.00     0.020 A 
ATOM      2  C1  UNL d   1      -1.333   3.318  -0.177  0.00  0.00     0.020 A 
ATOM      3  C2  UNL d   1      -0.380   2.463  -0.737  0.00  0.00     0.034 A 
ATOM      4  C3  UNL d   1      -0.047   1.265  -0.096  0.00  0.00     0.017 A 
ATOM      5  C4  UNL d   1      -0.673   0.924   1.109  0.00  0.00     0.017 A 
ATOM      6  C5  UNL d   1      -1.625   1.783   1.665  0.00  0.00     0.034 A 
ATOM      7 Cl   UNL d   1      -0.314  -0.538   1.958  0.00  0.00    -0.070 Cl
ATOM      8 Cl1  UNL d   1       1.138   0.255  -0.845  0.00  0.00    -0.070 Cl
ENDROOT
TORSDOF 0
ENDMDL
