MODEL 1
REMARK minimizedAffinity -3.30567408
REMARK minimizedRMSD -1
REMARK  0 active torsions:
REMARK  status: ('A' for Active; 'I' for Inactive)
ROOT
ATOM      1  C   UNL d   1      -0.258  -0.504   0.796  0.00  0.00     0.020 A 
ATOM      2  C1  UNL d   1      -1.095   0.079   1.747  0.00  0.00     0.020 A 
ATOM      3  C2  UNL d   1      -1.251   1.467   1.781  0.00  0.00     0.034 A 
ATOM      4  C3  UNL d   1      -0.569   2.275   0.865  0.00  0.00     0.017 A 
ATOM      5  C4  UNL d   1       0.270   1.688  -0.089  0.00  0.00     0.017 A 
ATOM      6  C5  UNL d   1       0.423   0.298  -0.119  0.00  0.00     0.034 A 
ATOM      7 Cl   UNL d   1       1.145   2.620  -1.253  0.00  0.00    -0.070 Cl
ATOM      8 Cl1  UNL d   1      -0.810   3.983   0.965  0.00  0.00    -0.070 Cl
ENDROOT
TORSDOF 0
ENDMDL
