MODEL 1
REMARK minimizedAffinity -2.8314774
REMARK minimizedRMSD -1
REMARK  0 active torsions:
REMARK  status: ('A' for Active; 'I' for Inactive)
ROOT
ATOM      1  C   UNL d   1      -1.046  -0.197   2.204  0.00  0.00     0.020 A 
ATOM      2  C1  UNL d   1      -1.200   1.186   2.116  0.00  0.00     0.020 A 
ATOM      3  C2  UNL d   1      -0.570   1.895   1.091  0.00  0.00     0.034 A 
ATOM      4  C3  UNL d   1       0.218   1.222   0.151  0.00  0.00     0.017 A 
ATOM      5  C4  UNL d   1       0.372  -0.167   0.240  0.00  0.00     0.017 A 
ATOM      6  C5  UNL d   1      -0.262  -0.872   1.268  0.00  0.00     0.034 A 
ATOM      7 Cl   UNL d   1       1.328  -1.067  -0.884  0.00  0.00    -0.070 Cl
ATOM      8 Cl1  UNL d   1       0.968   2.162  -1.090  0.00  0.00    -0.070 Cl
ENDROOT
TORSDOF 0
ENDMDL
