MODEL 1
REMARK minimizedAffinity -5.4007988
REMARK minimizedRMSD -1
REMARK  0 active torsions:
REMARK  status: ('A' for Active; 'I' for Inactive)
ROOT
ATOM      1  C   UNL d   1      -0.990   2.885  -0.160  0.00  0.00     0.020 A 
ATOM      2  C1  UNL d   1      -1.317   2.867   1.195  0.00  0.00     0.020 A 
ATOM      3  C2  UNL d   1      -1.025   1.740   1.968  0.00  0.00     0.034 A 
ATOM      4  C3  UNL d   1      -0.405   0.629   1.386  0.00  0.00     0.017 A 
ATOM      5  C4  UNL d   1      -0.078   0.649   0.025  0.00  0.00     0.017 A 
ATOM      6  C5  UNL d   1      -0.372   1.779  -0.744  0.00  0.00     0.034 A 
ATOM      7 Cl   UNL d   1       0.688  -0.685  -0.763  0.00  0.00    -0.070 Cl
ATOM      8 Cl1  UNL d   1      -0.074  -0.730   2.401  0.00  0.00    -0.070 Cl
ENDROOT
TORSDOF 0
ENDMDL
