MODEL 1
REMARK minimizedAffinity -3.53558278
REMARK minimizedRMSD -1
REMARK  0 active torsions:
REMARK  status: ('A' for Active; 'I' for Inactive)
ROOT
ATOM      1  C   UNL d   1       0.680  -0.241  -0.443  0.00  0.00     0.020 A 
ATOM      2  C1  UNL d   1      -0.110  -0.574   0.656  0.00  0.00     0.020 A 
ATOM      3  C2  UNL d   1      -0.979   0.373   1.204  0.00  0.00     0.034 A 
ATOM      4  C3  UNL d   1      -1.060   1.656   0.652  0.00  0.00     0.017 A 
ATOM      5  C4  UNL d   1      -0.266   1.990  -0.451  0.00  0.00     0.017 A 
ATOM      6  C5  UNL d   1       0.602   1.038  -0.995  0.00  0.00     0.034 A 
ATOM      7 Cl   UNL d   1      -0.310   3.553  -1.186  0.00  0.00    -0.070 Cl
ATOM      8 Cl1  UNL d   1      -2.156   2.776   1.380  0.00  0.00    -0.070 Cl
ENDROOT
TORSDOF 0
ENDMDL
