MODEL 1
REMARK minimizedAffinity -2.52857566
REMARK minimizedRMSD -1
REMARK  0 active torsions:
REMARK  status: ('A' for Active; 'I' for Inactive)
ROOT
ATOM      1  C   UNL d   1      -0.251  -0.392  -0.702  0.00  0.00     0.020 A 
ATOM      2  C1  UNL d   1       0.729  -0.717   0.235  0.00  0.00     0.020 A 
ATOM      3  C2  UNL d   1       0.774  -0.046   1.459  0.00  0.00     0.034 A 
ATOM      4  C3  UNL d   1      -0.162   0.953   1.750  0.00  0.00     0.017 A 
ATOM      5  C4  UNL d   1      -1.145   1.278   0.808  0.00  0.00     0.017 A 
ATOM      6  C5  UNL d   1      -1.186   0.603  -0.415  0.00  0.00     0.034 A 
ATOM      7 Cl   UNL d   1      -2.335   2.499   1.095  0.00  0.00    -0.070 Cl
ATOM      8 Cl1  UNL d   1      -0.047   1.741   3.283  0.00  0.00    -0.070 Cl
ENDROOT
TORSDOF 0
ENDMDL
