MODEL 1
REMARK minimizedAffinity -3.37489319
REMARK minimizedRMSD -1
REMARK  0 active torsions:
REMARK  status: ('A' for Active; 'I' for Inactive)
ROOT
ATOM      1  C   UNL d   1      -1.105   0.304   1.863  0.00  0.00     0.020 A 
ATOM      2  C1  UNL d   1      -1.588   1.608   1.757  0.00  0.00     0.020 A 
ATOM      3  C2  UNL d   1      -1.032   2.485   0.824  0.00  0.00     0.034 A 
ATOM      4  C3  UNL d   1       0.010   2.059  -0.008  0.00  0.00     0.017 A 
ATOM      5  C4  UNL d   1       0.494   0.750   0.098  0.00  0.00     0.017 A 
ATOM      6  C5  UNL d   1      -0.067  -0.124   1.035  0.00  0.00     0.034 A 
ATOM      7 Cl   UNL d   1       1.777   0.152  -0.894  0.00  0.00    -0.070 Cl
ATOM      8 Cl1  UNL d   1       0.651   3.196  -1.140  0.00  0.00    -0.070 Cl
ENDROOT
TORSDOF 0
ENDMDL
