MODEL 1
REMARK minimizedAffinity -2.75836277
REMARK minimizedRMSD -1
REMARK  0 active torsions:
REMARK  status: ('A' for Active; 'I' for Inactive)
ROOT
ATOM      1  C   UNL d   1      -1.298   2.447   1.605  0.00  0.00     0.020 A 
ATOM      2  C1  UNL d   1      -1.450   1.104   1.949  0.00  0.00     0.020 A 
ATOM      3  C2  UNL d   1      -0.828   0.114   1.186  0.00  0.00     0.034 A 
ATOM      4  C3  UNL d   1      -0.052   0.464   0.076  0.00  0.00     0.017 A 
ATOM      5  C4  UNL d   1       0.100   1.812  -0.269  0.00  0.00     0.017 A 
ATOM      6  C5  UNL d   1      -0.525   2.800   0.498  0.00  0.00     0.034 A 
ATOM      7 Cl   UNL d   1       1.043   2.321  -1.625  0.00  0.00    -0.070 Cl
ATOM      8 Cl1  UNL d   1       0.689  -0.814  -0.822  0.00  0.00    -0.070 Cl
ENDROOT
TORSDOF 0
ENDMDL
