MODEL 1
REMARK minimizedAffinity -3.57953572
REMARK minimizedRMSD -1
REMARK  0 active torsions:
REMARK  status: ('A' for Active; 'I' for Inactive)
ROOT
ATOM      1  C   UNL d   1      -1.087   2.830   1.902  0.00  0.00     0.020 A 
ATOM      2  C1  UNL d   1      -1.151   1.487   2.269  0.00  0.00     0.020 A 
ATOM      3  C2  UNL d   1      -0.669   0.503   1.402  0.00  0.00     0.034 A 
ATOM      4  C3  UNL d   1      -0.122   0.862   0.165  0.00  0.00     0.017 A 
ATOM      5  C4  UNL d   1      -0.059   2.211  -0.202  0.00  0.00     0.017 A 
ATOM      6  C5  UNL d   1      -0.542   3.192   0.670  0.00  0.00     0.034 A 
ATOM      7 Cl   UNL d   1       0.603   2.731  -1.712  0.00  0.00    -0.070 Cl
ATOM      8 Cl1  UNL d   1       0.454  -0.407  -0.857  0.00  0.00    -0.070 Cl
ENDROOT
TORSDOF 0
ENDMDL
