MODEL 1
REMARK minimizedAffinity 8.2581377
REMARK minimizedRMSD -1
REMARK  3 active torsions:
REMARK  status: ('A' for Active; 'I' for Inactive)
REMARK    1  A    between atoms: C3'_2  and  C2'_3 
REMARK    2  A    between atoms: C2'_3  and  C1'_4 
REMARK    3  A    between atoms: C1'_4  and  C1_5 
ROOT
ATOM      1  C1  N4B d   1       0.969  -1.155   3.442  0.00  0.00    -0.075 A 
ATOM      2  C2  N4B d   1       1.046   0.255   3.397  0.00  0.00     0.002 A 
ATOM      3  C3  N4B d   1      -0.003   0.984   2.894  0.00  0.00     0.002 A 
ATOM      4  C4  N4B d   1      -1.127   0.327   2.415  0.00  0.00    -0.004 A 
ATOM      5  C5  N4B d   1      -1.204  -1.033   2.485  0.00  0.00     0.002 A 
ATOM      6  C6  N4B d   1      -0.158  -1.778   2.992  0.00  0.00     0.002 A 
ENDROOT
BRANCH   1   7
ATOM      7  C1' N4B d   1       2.126  -1.999   3.904  0.00  0.00     0.057 C 
BRANCH   7   8
ATOM      8  C2' N4B d   1       1.735  -2.724   5.188  0.00  0.00     0.009 C 
BRANCH   8   9
ATOM      9  C3' N4B d   1       2.951  -3.159   5.988  0.00  0.00     0.004 C 
ATOM     10  C4' N4B d   1       4.195  -2.414   5.605  0.00  0.00     0.003 C 
ENDBRANCH   8   9
ENDBRANCH   7   8
ENDBRANCH   1   7
TORSDOF 3
ENDMDL
