MODEL 1
REMARK minimizedAffinity 17.8198204
REMARK minimizedRMSD -1
REMARK  3 active torsions:
REMARK  status: ('A' for Active; 'I' for Inactive)
REMARK    1  A    between atoms: C3'_2  and  C2'_3 
REMARK    2  A    between atoms: C2'_3  and  C1'_4 
REMARK    3  A    between atoms: C1'_4  and  C1_5 
ROOT
ATOM      1  C1  N4B d   1       3.474  -2.937   5.158  0.00  0.00    -0.075 A 
ATOM      2  C2  N4B d   1       2.270  -3.504   5.631  0.00  0.00     0.002 A 
ATOM      3  C3  N4B d   1       1.107  -3.333   4.922  0.00  0.00     0.002 A 
ATOM      4  C4  N4B d   1       1.118  -2.587   3.753  0.00  0.00    -0.004 A 
ATOM      5  C5  N4B d   1       2.290  -2.065   3.290  0.00  0.00     0.002 A 
ATOM      6  C6  N4B d   1       3.468  -2.232   3.990  0.00  0.00     0.002 A 
ENDROOT
BRANCH   1   7
ATOM      7  C1' N4B d   1       4.755  -3.024   5.942  0.00  0.00     0.057 C 
BRANCH   7   8
ATOM      8  C2' N4B d   1       5.902  -3.357   4.993  0.00  0.00     0.009 C 
BRANCH   8   9
ATOM      9  C3' N4B d   1       5.948  -4.837   4.653  0.00  0.00     0.004 C 
ATOM     10  C4' N4B d   1       5.999  -5.711   5.871  0.00  0.00     0.003 C 
ENDBRANCH   8   9
ENDBRANCH   7   8
ENDBRANCH   1   7
TORSDOF 3
ENDMDL
