MODEL 1
REMARK minimizedAffinity 15.638567
REMARK minimizedRMSD -1
REMARK  3 active torsions:
REMARK  status: ('A' for Active; 'I' for Inactive)
REMARK    1  A    between atoms: C3'_2  and  C2'_3 
REMARK    2  A    between atoms: C2'_3  and  C1'_4 
REMARK    3  A    between atoms: C1'_4  and  C1_5 
ROOT
ATOM      1  C1  N4B d   1      -1.184  -3.543  -3.554  0.00  0.00    -0.075 A 
ATOM      2  C2  N4B d   1      -1.211  -3.633  -4.963  0.00  0.00     0.002 A 
ATOM      3  C3  N4B d   1      -1.098  -4.858  -5.575  0.00  0.00     0.002 A 
ATOM      4  C4  N4B d   1      -0.940  -5.999  -4.801  0.00  0.00    -0.004 A 
ATOM      5  C5  N4B d   1      -0.941  -5.905  -3.440  0.00  0.00     0.002 A 
ATOM      6  C6  N4B d   1      -1.057  -4.681  -2.813  0.00  0.00     0.002 A 
ENDROOT
BRANCH   1   7
ATOM      7  C1' N4B d   1      -1.217  -2.217  -2.843  0.00  0.00     0.057 C 
BRANCH   7   8
ATOM      8  C2' N4B d   1      -1.152  -1.094  -3.874  0.00  0.00     0.009 C 
BRANCH   8   9
ATOM      9  C3' N4B d   1       0.215  -1.005  -4.531  0.00  0.00     0.004 C 
ATOM     10  C4' N4B d   1       0.148  -0.508  -5.945  0.00  0.00     0.003 C 
ENDBRANCH   8   9
ENDBRANCH   7   8
ENDBRANCH   1   7
TORSDOF 3
ENDMDL
