MODEL 1
REMARK minimizedAffinity -3.47912717
REMARK minimizedRMSD -1
REMARK  0 active torsions:
REMARK  status: ('A' for Active; 'I' for Inactive)
ROOT
ATOM      1  C2' OXE d   1      -0.918  -1.702  -1.970  0.00  0.00     0.078 C 
ATOM      2  C1' OXE d   1       1.419  -1.375  -0.451  0.00  0.00     0.078 C 
ATOM      3  C1  OXE d   1       0.110  -0.961   0.174  0.00  0.00    -0.078 A 
ATOM      4  C2  OXE d   1      -1.023  -1.081  -0.594  0.00  0.00    -0.078 A 
ATOM      5  C3  OXE d   1      -2.263  -0.764  -0.047  0.00  0.00     0.003 A 
ATOM      6  C4  OXE d   1      -2.350  -0.181   1.223  0.00  0.00    -0.002 A 
ATOM      7  C5  OXE d   1      -1.203  -0.013   2.006  0.00  0.00    -0.002 A 
ATOM      8  C6  OXE d   1       0.027  -0.436   1.515  0.00  0.00     0.003 A 
ENDROOT
TORSDOF 0
ENDMDL
