MODEL 1
REMARK minimizedAffinity 0.311050951
REMARK minimizedRMSD -1
REMARK  0 active torsions:
REMARK  status: ('A' for Active; 'I' for Inactive)
ROOT
ATOM      1  C2' OXE d   1       3.000  -0.373  -5.626  0.00  0.00     0.078 C 
ATOM      2  C1' OXE d   1       0.239  -0.718  -5.997  0.00  0.00     0.078 C 
ATOM      3  C1  OXE d   1       0.884  -1.417  -4.827  0.00  0.00    -0.078 A 
ATOM      4  C2  OXE d   1       2.243  -1.280  -4.680  0.00  0.00    -0.078 A 
ATOM      5  C3  OXE d   1       2.880  -1.860  -3.586  0.00  0.00     0.003 A 
ATOM      6  C4  OXE d   1       2.175  -2.706  -2.721  0.00  0.00    -0.002 A 
ATOM      7  C5  OXE d   1       0.797  -2.890  -2.876  0.00  0.00    -0.002 A 
ATOM      8  C6  OXE d   1       0.130  -2.221  -3.896  0.00  0.00     0.003 A 
ENDROOT
TORSDOF 0
ENDMDL
