MODEL 1
REMARK minimizedAffinity -0.41062364
REMARK minimizedRMSD -1
REMARK  0 active torsions:
REMARK  status: ('A' for Active; 'I' for Inactive)
ROOT
ATOM      1  C2' OXE d   1       0.880   0.813   1.551  0.00  0.00     0.078 C 
ATOM      2  C1' OXE d   1       1.444  -1.315   3.294  0.00  0.00     0.078 C 
ATOM      3  C1  OXE d   1       0.024  -1.160   2.808  0.00  0.00    -0.078 A 
ATOM      4  C2  OXE d   1      -0.252  -0.089   1.992  0.00  0.00    -0.078 A 
ATOM      5  C3  OXE d   1      -1.533   0.068   1.472  0.00  0.00     0.003 A 
ATOM      6  C4  OXE d   1      -2.577  -0.764   1.893  0.00  0.00    -0.002 A 
ATOM      7  C5  OXE d   1      -2.326  -1.837   2.755  0.00  0.00    -0.002 A 
ATOM      8  C6  OXE d   1      -1.025  -2.074   3.186  0.00  0.00     0.003 A 
ENDROOT
TORSDOF 0
ENDMDL
