MODEL 1
REMARK minimizedAffinity 2.98650193
REMARK minimizedRMSD -1
REMARK  0 active torsions:
REMARK  status: ('A' for Active; 'I' for Inactive)
ROOT
ATOM      1  C2' OXE d   1       1.782  -1.682   3.620  0.00  0.00     0.078 C 
ATOM      2  C1' OXE d   1      -0.373  -3.441   3.996  0.00  0.00     0.078 C 
ATOM      3  C1  OXE d   1      -0.616  -2.195   3.181  0.00  0.00    -0.078 A 
ATOM      4  C2  OXE d   1       0.432  -1.317   3.042  0.00  0.00    -0.078 A 
ATOM      5  C3  OXE d   1       0.278  -0.180   2.254  0.00  0.00     0.003 A 
ATOM      6  C4  OXE d   1      -0.977   0.155   1.731  0.00  0.00    -0.002 A 
ATOM      7  C5  OXE d   1      -2.068  -0.705   1.894  0.00  0.00    -0.002 A 
ATOM      8  C6  OXE d   1      -1.894  -1.903   2.579  0.00  0.00     0.003 A 
ENDROOT
TORSDOF 0
ENDMDL
