MODEL 1
REMARK minimizedAffinity 7.78005505
REMARK minimizedRMSD -1
REMARK  0 active torsions:
REMARK  status: ('A' for Active; 'I' for Inactive)
ROOT
ATOM      1  C2' OXE d   1      -1.429  -0.768  -5.239  0.00  0.00     0.078 C 
ATOM      2  C1' OXE d   1      -0.088  -2.320  -3.322  0.00  0.00     0.078 C 
ATOM      3  C1  OXE d   1       0.741  -1.419  -4.204  0.00  0.00    -0.078 A 
ATOM      4  C2  OXE d   1       0.082  -0.699  -5.170  0.00  0.00    -0.078 A 
ATOM      5  C3  OXE d   1       0.792   0.188  -5.974  0.00  0.00     0.003 A 
ATOM      6  C4  OXE d   1       2.190   0.238  -5.910  0.00  0.00    -0.002 A 
ATOM      7  C5  OXE d   1       2.885  -0.517  -4.960  0.00  0.00    -0.002 A 
ATOM      8  C6  OXE d   1       2.174  -1.317  -4.073  0.00  0.00     0.003 A 
ENDROOT
TORSDOF 0
ENDMDL
