MODEL 1
REMARK minimizedAffinity -1.64488232
REMARK minimizedRMSD -1
REMARK  0 active torsions:
REMARK  status: ('A' for Active; 'I' for Inactive)
ROOT
ATOM      1  C2' OXE d   1      -1.709   0.466   2.863  0.00  0.00     0.078 C 
ATOM      2  C1' OXE d   1       0.533  -0.769   1.710  0.00  0.00     0.078 C 
ATOM      3  C1  OXE d   1      -0.771  -0.831   0.954  0.00  0.00    -0.078 A 
ATOM      4  C2  OXE d   1      -1.873  -0.264   1.547  0.00  0.00    -0.078 A 
ATOM      5  C3  OXE d   1      -3.088  -0.245   0.868  0.00  0.00     0.003 A 
ATOM      6  C4  OXE d   1      -3.234  -0.931  -0.343  0.00  0.00    -0.002 A 
ATOM      7  C5  OXE d   1      -2.133  -1.549  -0.946  0.00  0.00    -0.002 A 
ATOM      8  C6  OXE d   1      -0.888  -1.472  -0.332  0.00  0.00     0.003 A 
ENDROOT
TORSDOF 0
ENDMDL
