MODEL 1
REMARK minimizedAffinity -1.17556012
REMARK minimizedRMSD -1
REMARK  0 active torsions:
REMARK  status: ('A' for Active; 'I' for Inactive)
ROOT
ATOM      1  C   UNL d   1      -1.136   1.381  -0.451  0.00  0.00     0.172 C 
ATOM      2  N   UNL d   1       0.023   0.535  -0.290  0.00  0.00    -0.070 N 
ATOM      3  C1  UNL d   1       1.289   0.824  -0.724  0.00  0.00    -0.004 A 
ATOM      4  C2  UNL d   1       2.105  -0.231  -0.379  0.00  0.00    -0.047 A 
ATOM      5  C3  UNL d   1       1.302  -1.189   0.285  0.00  0.00    -0.047 A 
ATOM      6  C4  UNL d   1       0.017  -0.689   0.326  0.00  0.00    -0.004 A 
ENDROOT
TORSDOF 0
ENDMDL
