MODEL 1
REMARK minimizedAffinity -1.936777
REMARK minimizedRMSD -1
REMARK  0 active torsions:
REMARK  status: ('A' for Active; 'I' for Inactive)
ROOT
ATOM      1  C   UNL d   1      -0.614   0.853  -0.558  0.00  0.00     0.172 C 
ATOM      2  N   UNL d   1       0.304  -0.076   0.058  0.00  0.00    -0.070 N 
ATOM      3  C1  UNL d   1       1.548  -0.401  -0.414  0.00  0.00    -0.004 A 
ATOM      4  C2  UNL d   1       2.103  -1.316   0.454  0.00  0.00    -0.047 A 
ATOM      5  C3  UNL d   1       1.160  -1.550   1.482  0.00  0.00    -0.047 A 
ATOM      6  C4  UNL d   1       0.055  -0.770   1.213  0.00  0.00    -0.004 A 
ENDROOT
TORSDOF 0
ENDMDL
