MODEL 1
REMARK minimizedAffinity -1.48085368
REMARK minimizedRMSD -1
REMARK  0 active torsions:
REMARK  status: ('A' for Active; 'I' for Inactive)
ROOT
ATOM      1  C   UNL d   1      -0.517   0.357  -0.166  0.00  0.00     0.172 C 
ATOM      2  N   UNL d   1      -1.190   1.183  -1.141  0.00  0.00    -0.070 N 
ATOM      3  C1  UNL d   1      -1.090   2.545  -1.238  0.00  0.00    -0.004 A 
ATOM      4  C2  UNL d   1      -1.880   2.952  -2.292  0.00  0.00    -0.047 A 
ATOM      5  C3  UNL d   1      -2.476   1.794  -2.846  0.00  0.00    -0.047 A 
ATOM      6  C4  UNL d   1      -2.032   0.713  -2.114  0.00  0.00    -0.004 A 
ENDROOT
TORSDOF 0
ENDMDL
