MODEL 1
REMARK minimizedAffinity -1.19086409
REMARK minimizedRMSD -1
REMARK  0 active torsions:
REMARK  status: ('A' for Active; 'I' for Inactive)
ROOT
ATOM      1  C   UNL d   1      -0.934   1.427  -0.918  0.00  0.00     0.172 C 
ATOM      2  N   UNL d   1      -0.791   0.494   0.175  0.00  0.00    -0.070 N 
ATOM      3  C1  UNL d   1      -1.556   0.471   1.310  0.00  0.00    -0.004 A 
ATOM      4  C2  UNL d   1      -1.106  -0.564   2.101  0.00  0.00    -0.047 A 
ATOM      5  C3  UNL d   1      -0.032  -1.183   1.418  0.00  0.00    -0.047 A 
ATOM      6  C4  UNL d   1       0.142  -0.508   0.229  0.00  0.00    -0.004 A 
ENDROOT
TORSDOF 0
ENDMDL
