MODEL 1
REMARK minimizedAffinity 0.0841231123
REMARK minimizedRMSD -1
REMARK  0 active torsions:
REMARK  status: ('A' for Active; 'I' for Inactive)
ROOT
ATOM      1  C   UNL d   1       0.491  -5.918  -6.000  0.00  0.00     0.172 C 
ATOM      2  N   UNL d   1      -0.801  -5.783  -5.370  0.00  0.00    -0.070 N 
ATOM      3  C1  UNL d   1      -2.012  -5.897  -5.999  0.00  0.00    -0.004 A 
ATOM      4  C2  UNL d   1      -2.998  -5.704  -5.055  0.00  0.00    -0.047 A 
ATOM      5  C3  UNL d   1      -2.357  -5.466  -3.816  0.00  0.00    -0.047 A 
ATOM      6  C4  UNL d   1      -0.997  -5.520  -4.040  0.00  0.00    -0.004 A 
ENDROOT
TORSDOF 0
ENDMDL
