MODEL 1
REMARK minimizedAffinity -2.89268351
REMARK minimizedRMSD -1
REMARK  0 active torsions:
REMARK  status: ('A' for Active; 'I' for Inactive)
ROOT
ATOM      1  C   UNL d   1      -0.665   0.916  -0.440  0.00  0.00     0.172 C 
ATOM      2  N   UNL d   1       0.302  -0.052   0.023  0.00  0.00    -0.070 N 
ATOM      3  C1  UNL d   1       0.111  -0.945   1.044  0.00  0.00    -0.004 A 
ATOM      4  C2  UNL d   1       1.264  -1.689   1.174  0.00  0.00    -0.047 A 
ATOM      5  C3  UNL d   1       2.179  -1.226   0.199  0.00  0.00    -0.047 A 
ATOM      6  C4  UNL d   1       1.558  -0.213  -0.500  0.00  0.00    -0.004 A 
ENDROOT
TORSDOF 0
ENDMDL
