MODEL 1
REMARK minimizedAffinity -2.78944612
REMARK minimizedRMSD -1
REMARK  0 active torsions:
REMARK  status: ('A' for Active; 'I' for Inactive)
ROOT
ATOM      1  C   UNL d   1      -0.449   1.042  -0.356  0.00  0.00     0.172 C 
ATOM      2  N   UNL d   1       0.531   0.096   0.121  0.00  0.00    -0.070 N 
ATOM      3  C1  UNL d   1       1.615  -0.356  -0.584  0.00  0.00    -0.004 A 
ATOM      4  C2  UNL d   1       2.300  -1.243   0.217  0.00  0.00    -0.047 A 
ATOM      5  C3  UNL d   1       1.604  -1.328   1.446  0.00  0.00    -0.047 A 
ATOM      6  C4  UNL d   1       0.513  -0.490   1.360  0.00  0.00    -0.004 A 
ENDROOT
TORSDOF 0
ENDMDL
