MODEL 1
REMARK minimizedAffinity -1.77934372
REMARK minimizedRMSD -1
REMARK  0 active torsions:
REMARK  status: ('A' for Active; 'I' for Inactive)
ROOT
ATOM      1  C   UNL d   1      -1.009   2.271  -1.742  0.00  0.00     0.172 C 
ATOM      2  N   UNL d   1      -0.465   1.290  -0.833  0.00  0.00    -0.070 N 
ATOM      3  C1  UNL d   1       0.747   0.668  -0.963  0.00  0.00    -0.004 A 
ATOM      4  C2  UNL d   1       0.896  -0.193   0.103  0.00  0.00    -0.047 A 
ATOM      5  C3  UNL d   1      -0.268  -0.085   0.900  0.00  0.00    -0.047 A 
ATOM      6  C4  UNL d   1      -1.094   0.840   0.297  0.00  0.00    -0.004 A 
ENDROOT
TORSDOF 0
ENDMDL
