MODEL 1
REMARK minimizedAffinity -2.23720717
REMARK minimizedRMSD -1
REMARK  0 active torsions:
REMARK  status: ('A' for Active; 'I' for Inactive)
ROOT
ATOM      1  C   UNL d   1      -1.505  -0.642   2.047  0.00  0.00     0.172 C 
ATOM      2  N   UNL d   1      -0.312  -0.664   1.233  0.00  0.00    -0.070 N 
ATOM      3  C1  UNL d   1      -0.100   0.086   0.107  0.00  0.00    -0.004 A 
ATOM      4  C2  UNL d   1       1.153  -0.222  -0.376  0.00  0.00    -0.047 A 
ATOM      5  C3  UNL d   1       1.714  -1.192   0.489  0.00  0.00    -0.047 A 
ATOM      6  C4  UNL d   1       0.785  -1.447   1.476  0.00  0.00    -0.004 A 
ENDROOT
TORSDOF 0
ENDMDL
