MODEL 1
REMARK minimizedAffinity -1.63125527
REMARK minimizedRMSD -1
REMARK  0 active torsions:
REMARK  status: ('A' for Active; 'I' for Inactive)
ROOT
ATOM      1  C   UNL d   1       0.912  -5.685  -3.780  0.00  0.00     0.172 C 
ATOM      2  N   UNL d   1      -0.529  -5.767  -3.756  0.00  0.00    -0.070 N 
ATOM      3  C1  UNL d   1      -1.335  -5.993  -4.840  0.00  0.00    -0.004 A 
ATOM      4  C2  UNL d   1      -2.641  -5.999  -4.402  0.00  0.00    -0.047 A 
ATOM      5  C3  UNL d   1      -2.621  -5.767  -3.006  0.00  0.00    -0.047 A 
ATOM      6  C4  UNL d   1      -1.301  -5.627  -2.633  0.00  0.00    -0.004 A 
ENDROOT
TORSDOF 0
ENDMDL
