MODEL 1
REMARK minimizedAffinity -3.08273029
REMARK minimizedRMSD -1
REMARK  0 active torsions:
REMARK  status: ('A' for Active; 'I' for Inactive)
ROOT
ATOM      1  C   UNL d   1      -0.881   3.376  -3.333  0.00  0.00     0.172 C 
ATOM      2  N   UNL d   1      -1.752   2.271  -3.005  0.00  0.00    -0.070 N 
ATOM      3  C1  UNL d   1      -1.483   0.948  -3.231  0.00  0.00    -0.004 A 
ATOM      4  C2  UNL d   1      -2.558   0.215  -2.778  0.00  0.00    -0.047 A 
ATOM      5  C3  UNL d   1      -3.507   1.130  -2.263  0.00  0.00    -0.047 A 
ATOM      6  C4  UNL d   1      -2.983   2.396  -2.416  0.00  0.00    -0.004 A 
ENDROOT
TORSDOF 0
ENDMDL
