MODEL 1
REMARK minimizedAffinity -2.51420498
REMARK minimizedRMSD -1
REMARK  0 active torsions:
REMARK  status: ('A' for Active; 'I' for Inactive)
ROOT
ATOM      1  C   UNL d   1      -0.142   0.932  -0.648  0.00  0.00     0.172 C 
ATOM      2  N   UNL d   1       0.859  -0.045  -0.289  0.00  0.00    -0.070 N 
ATOM      3  C1  UNL d   1       1.765  -0.611  -1.145  0.00  0.00    -0.004 A 
ATOM      4  C2  UNL d   1       2.541  -1.489  -0.418  0.00  0.00    -0.047 A 
ATOM      5  C3  UNL d   1       2.085  -1.449   0.921  0.00  0.00    -0.047 A 
ATOM      6  C4  UNL d   1       1.043  -0.547   0.973  0.00  0.00    -0.004 A 
ENDROOT
TORSDOF 0
ENDMDL
