MODEL 1
REMARK minimizedAffinity -2.18363547
REMARK minimizedRMSD -1
REMARK  0 active torsions:
REMARK  status: ('A' for Active; 'I' for Inactive)
ROOT
ATOM      1  C   UNL d   1      -1.125  -1.475   2.983  0.00  0.00     0.172 C 
ATOM      2  N   UNL d   1      -0.058  -1.445   2.010  0.00  0.00    -0.070 N 
ATOM      3  C1  UNL d   1       1.155  -2.069   2.135  0.00  0.00    -0.004 A 
ATOM      4  C2  UNL d   1       1.887  -1.799   1.000  0.00  0.00    -0.047 A 
ATOM      5  C3  UNL d   1       1.088  -0.984   0.164  0.00  0.00    -0.047 A 
ATOM      6  C4  UNL d   1      -0.111  -0.780   0.813  0.00  0.00    -0.004 A 
ENDROOT
TORSDOF 0
ENDMDL
