MODEL 1
REMARK minimizedAffinity -2.74283814
REMARK minimizedRMSD -1
REMARK  0 active torsions:
REMARK  status: ('A' for Active; 'I' for Inactive)
ROOT
ATOM      1  C   UNL d   1      -0.507   0.850  -1.162  0.00  0.00     0.172 C 
ATOM      2  N   UNL d   1       0.493   0.074  -0.467  0.00  0.00    -0.070 N 
ATOM      3  C1  UNL d   1       0.556  -0.117   0.887  0.00  0.00    -0.004 A 
ATOM      4  C2  UNL d   1       1.649  -0.914   1.150  0.00  0.00    -0.047 A 
ATOM      5  C3  UNL d   1       2.265  -1.211  -0.089  0.00  0.00    -0.047 A 
ATOM      6  C4  UNL d   1       1.529  -0.587  -1.073  0.00  0.00    -0.004 A 
ENDROOT
TORSDOF 0
ENDMDL
