MODEL 1
REMARK minimizedAffinity -3.02403665
REMARK minimizedRMSD -1
REMARK  0 active torsions:
REMARK  status: ('A' for Active; 'I' for Inactive)
ROOT
ATOM      1  C   UNL d   1       0.387  -2.580   1.755  0.00  0.00     0.172 C 
ATOM      2  N   UNL d   1       0.651  -1.357   1.035  0.00  0.00    -0.070 N 
ATOM      3  C1  UNL d   1      -0.252  -0.353   0.809  0.00  0.00    -0.004 A 
ATOM      4  C2  UNL d   1       0.386   0.634   0.089  0.00  0.00    -0.047 A 
ATOM      5  C3  UNL d   1       1.719   0.209  -0.124  0.00  0.00    -0.047 A 
ATOM      6  C4  UNL d   1       1.856  -1.027   0.472  0.00  0.00    -0.004 A 
ENDROOT
TORSDOF 0
ENDMDL
