MODEL 1
REMARK minimizedAffinity -1.80967104
REMARK minimizedRMSD -1
REMARK  0 active torsions:
REMARK  status: ('A' for Active; 'I' for Inactive)
ROOT
ATOM      1  C   UNL d   1       1.187  -0.315  -0.203  0.00  0.00     0.172 C 
ATOM      2  N   UNL d   1      -0.124   0.255   0.000  0.00  0.00    -0.070 N 
ATOM      3  C1  UNL d   1      -0.767   1.106  -0.858  0.00  0.00    -0.004 A 
ATOM      4  C2  UNL d   1      -1.989   1.420  -0.306  0.00  0.00    -0.047 A 
ATOM      5  C3  UNL d   1      -2.085   0.734   0.928  0.00  0.00    -0.047 A 
ATOM      6  C4  UNL d   1      -0.917   0.020   1.093  0.00  0.00    -0.004 A 
ENDROOT
TORSDOF 0
ENDMDL
