MODEL 1
REMARK minimizedAffinity -2.69875336
REMARK minimizedRMSD -1
REMARK  0 active torsions:
REMARK  status: ('A' for Active; 'I' for Inactive)
ROOT
ATOM      1  C   UNL d   1      -1.574  -0.292   0.601  0.00  0.00     0.172 C 
ATOM      2  N   UNL d   1      -1.777   0.591  -0.524  0.00  0.00    -0.070 N 
ATOM      3  C1  UNL d   1      -2.901   0.643  -1.304  0.00  0.00    -0.004 A 
ATOM      4  C2  UNL d   1      -2.702   1.611  -2.265  0.00  0.00    -0.047 A 
ATOM      5  C3  UNL d   1      -1.413   2.157  -2.056  0.00  0.00    -0.047 A 
ATOM      6  C4  UNL d   1      -0.863   1.507  -0.972  0.00  0.00    -0.004 A 
ENDROOT
TORSDOF 0
ENDMDL
