MODEL 1
REMARK minimizedAffinity 3.07108808
REMARK minimizedRMSD -1
REMARK  3 active torsions:
REMARK  status: ('A' for Active; 'I' for Inactive)
REMARK    1  A    between atoms: C3'_2  and  C2'_3 
REMARK    2  A    between atoms: C2'_3  and  C1'_4 
REMARK    3  A    between atoms: C1'_4  and  C1_5 
ROOT
ATOM      1  C1  N4B d   1       4.614   5.664  -3.677  0.00  0.00    -0.075 A 
ATOM      2  C2  N4B d   1       5.831   5.998  -3.043  0.00  0.00     0.002 A 
ATOM      3  C3  N4B d   1       5.999   5.746  -1.704  0.00  0.00     0.002 A 
ATOM      4  C4  N4B d   1       4.963   5.179  -0.977  0.00  0.00    -0.004 A 
ATOM      5  C5  N4B d   1       3.800   4.835  -1.603  0.00  0.00     0.002 A 
ATOM      6  C6  N4B d   1       3.619   5.079  -2.949  0.00  0.00     0.002 A 
ENDROOT
BRANCH   1   7
ATOM      7  C1' N4B d   1       4.352   5.999  -5.120  0.00  0.00     0.057 C 
BRANCH   7   8
ATOM      8  C2' N4B d   1       5.603   5.698  -5.940  0.00  0.00     0.009 C 
BRANCH   8   9
ATOM      9  C3' N4B d   1       6.000   4.234  -5.853  0.00  0.00     0.004 C 
ATOM     10  C4' N4B d   1       4.972   3.394  -5.154  0.00  0.00     0.003 C 
ENDBRANCH   8   9
ENDBRANCH   7   8
ENDBRANCH   1   7
TORSDOF 3
ENDMDL
