MODEL 1
REMARK minimizedAffinity 6.95396996
REMARK minimizedRMSD -1
REMARK  3 active torsions:
REMARK  status: ('A' for Active; 'I' for Inactive)
REMARK    1  A    between atoms: C3'_2  and  C2'_3 
REMARK    2  A    between atoms: C2'_3  and  C1'_4 
REMARK    3  A    between atoms: C1'_4  and  C1_5 
ROOT
ATOM      1  C1  N4B d   1       2.202  -2.166  -3.106  0.00  0.00    -0.075 A 
ATOM      2  C2  N4B d   1       1.135  -1.725  -2.293  0.00  0.00     0.002 A 
ATOM      3  C3  N4B d   1      -0.161  -1.998  -2.654  0.00  0.00     0.002 A 
ATOM      4  C4  N4B d   1      -0.415  -2.692  -3.828  0.00  0.00    -0.004 A 
ATOM      5  C5  N4B d   1       0.623  -3.137  -4.595  0.00  0.00     0.002 A 
ATOM      6  C6  N4B d   1       1.931  -2.873  -4.242  0.00  0.00     0.002 A 
ENDROOT
BRANCH   1   7
ATOM      7  C1' N4B d   1       3.633  -1.817  -2.798  0.00  0.00     0.057 C 
BRANCH   7   8
ATOM      8  C2' N4B d   1       4.377  -1.553  -4.104  0.00  0.00     0.009 C 
BRANCH   8   9
ATOM      9  C3' N4B d   1       5.243  -0.308  -4.022  0.00  0.00     0.004 C 
ATOM     10  C4' N4B d   1       5.958  -0.013  -5.307  0.00  0.00     0.003 C 
ENDBRANCH   8   9
ENDBRANCH   7   8
ENDBRANCH   1   7
TORSDOF 3
ENDMDL
