MODEL 1
REMARK minimizedAffinity -0.533182442
REMARK minimizedRMSD -1
REMARK  3 active torsions:
REMARK  status: ('A' for Active; 'I' for Inactive)
REMARK    1  A    between atoms: C3'_2  and  C2'_3 
REMARK    2  A    between atoms: C2'_3  and  C1'_4 
REMARK    3  A    between atoms: C1'_4  and  C1_5 
ROOT
ATOM      1  C1  N4B d   1      -2.073  -4.323  -4.597  0.00  0.00    -0.075 A 
ATOM      2  C2  N4B d   1      -1.960  -2.980  -4.175  0.00  0.00     0.002 A 
ATOM      3  C3  N4B d   1      -0.916  -2.600  -3.368  0.00  0.00     0.002 A 
ATOM      4  C4  N4B d   1       0.013  -3.544  -2.957  0.00  0.00    -0.004 A 
ATOM      5  C5  N4B d   1      -0.089  -4.834  -3.391  0.00  0.00     0.002 A 
ATOM      6  C6  N4B d   1      -1.131  -5.229  -4.205  0.00  0.00     0.002 A 
ENDROOT
BRANCH   1   7
ATOM      7  C1' N4B d   1      -3.244  -4.804  -5.409  0.00  0.00     0.057 C 
BRANCH   7   8
ATOM      8  C2' N4B d   1      -4.474  -3.972  -5.056  0.00  0.00     0.009 C 
BRANCH   8   9
ATOM      9  C3' N4B d   1      -5.730  -4.501  -5.728  0.00  0.00     0.004 C 
ATOM     10  C4' N4B d   1      -5.998  -5.941  -5.406  0.00  0.00     0.003 C 
ENDBRANCH   8   9
ENDBRANCH   7   8
ENDBRANCH   1   7
TORSDOF 3
ENDMDL
