MODEL 1
REMARK minimizedAffinity -2.08378482
REMARK minimizedRMSD -1
REMARK  3 active torsions:
REMARK  status: ('A' for Active; 'I' for Inactive)
REMARK    1  A    between atoms: C3'_2  and  C2'_3 
REMARK    2  A    between atoms: C2'_3  and  C1'_4 
REMARK    3  A    between atoms: C1'_4  and  C1_5 
ROOT
ATOM      1  C1  N4B d   1       4.898   3.846  -5.357  0.00  0.00    -0.075 A 
ATOM      2  C2  N4B d   1       4.123   3.548  -4.214  0.00  0.00     0.002 A 
ATOM      3  C3  N4B d   1       3.250   4.483  -3.714  0.00  0.00     0.002 A 
ATOM      4  C4  N4B d   1       3.148   5.723  -4.326  0.00  0.00    -0.004 A 
ATOM      5  C5  N4B d   1       3.881   5.994  -5.444  0.00  0.00     0.002 A 
ATOM      6  C6  N4B d   1       4.760   5.063  -5.961  0.00  0.00     0.002 A 
ENDROOT
BRANCH   1   7
ATOM      7  C1' N4B d   1       5.929   2.889  -5.890  0.00  0.00     0.057 C 
BRANCH   7   8
ATOM      8  C2' N4B d   1       5.901   1.610  -5.059  0.00  0.00     0.009 C 
BRANCH   8   9
ATOM      9  C3' N4B d   1       5.915   0.366  -5.930  0.00  0.00     0.004 C 
ATOM     10  C4' N4B d   1       5.230  -0.803  -5.285  0.00  0.00     0.003 C 
ENDBRANCH   8   9
ENDBRANCH   7   8
ENDBRANCH   1   7
TORSDOF 3
ENDMDL
