MODEL 1
REMARK minimizedAffinity 6.42546749
REMARK minimizedRMSD -1
REMARK  3 active torsions:
REMARK  status: ('A' for Active; 'I' for Inactive)
REMARK    1  A    between atoms: C3'_2  and  C2'_3 
REMARK    2  A    between atoms: C2'_3  and  C1'_4 
REMARK    3  A    between atoms: C1'_4  and  C1_5 
ROOT
ATOM      1  C1  N4B d   1       4.202   4.951  -1.698  0.00  0.00    -0.075 A 
ATOM      2  C2  N4B d   1       3.492   4.879  -2.916  0.00  0.00     0.002 A 
ATOM      3  C3  N4B d   1       4.053   5.373  -4.068  0.00  0.00     0.002 A 
ATOM      4  C4  N4B d   1       5.310   5.957  -4.023  0.00  0.00    -0.004 A 
ATOM      5  C5  N4B d   1       6.000   5.999  -2.847  0.00  0.00     0.002 A 
ATOM      6  C6  N4B d   1       5.450   5.503  -1.683  0.00  0.00     0.002 A 
ENDROOT
BRANCH   1   7
ATOM      7  C1' N4B d   1       3.595   4.502  -0.397  0.00  0.00     0.057 C 
BRANCH   7   8
ATOM      8  C2' N4B d   1       2.074   4.528  -0.519  0.00  0.00     0.009 C 
BRANCH   8   9
ATOM      9  C3' N4B d   1       1.394   4.404   0.834  0.00  0.00     0.004 C 
ATOM     10  C4' N4B d   1       0.252   3.431   0.822  0.00  0.00     0.003 C 
ENDBRANCH   8   9
ENDBRANCH   7   8
ENDBRANCH   1   7
TORSDOF 3
ENDMDL
