MODEL 1
REMARK minimizedAffinity 1.87101245
REMARK minimizedRMSD -1
REMARK  3 active torsions:
REMARK  status: ('A' for Active; 'I' for Inactive)
REMARK    1  A    between atoms: C3'_2  and  C2'_3 
REMARK    2  A    between atoms: C2'_3  and  C1'_4 
REMARK    3  A    between atoms: C1'_4  and  C1_5 
ROOT
ATOM      1  C1  N4B d   1       5.313   3.803  -4.593  0.00  0.00    -0.075 A 
ATOM      2  C2  N4B d   1       3.965   4.130  -4.855  0.00  0.00     0.002 A 
ATOM      3  C3  N4B d   1       3.352   5.136  -4.148  0.00  0.00     0.002 A 
ATOM      4  C4  N4B d   1       4.060   5.812  -3.165  0.00  0.00    -0.004 A 
ATOM      5  C5  N4B d   1       5.370   5.508  -2.937  0.00  0.00     0.002 A 
ATOM      6  C6  N4B d   1       5.999   4.502  -3.643  0.00  0.00     0.002 A 
ENDROOT
BRANCH   1   7
ATOM      7  C1' N4B d   1       6.000   2.655  -5.281  0.00  0.00     0.057 C 
BRANCH   7   8
ATOM      8  C2' N4B d   1       5.998   1.443  -4.354  0.00  0.00     0.009 C 
BRANCH   8   9
ATOM      9  C3' N4B d   1       5.778   0.146  -5.114  0.00  0.00     0.004 C 
ATOM     10  C4' N4B d   1       5.077  -0.895  -4.294  0.00  0.00     0.003 C 
ENDBRANCH   8   9
ENDBRANCH   7   8
ENDBRANCH   1   7
TORSDOF 3
ENDMDL
