MODEL 1
REMARK minimizedAffinity 1.75056398
REMARK minimizedRMSD -1
REMARK  3 active torsions:
REMARK  status: ('A' for Active; 'I' for Inactive)
REMARK    1  A    between atoms: C3'_2  and  C2'_3 
REMARK    2  A    between atoms: C2'_3  and  C1'_4 
REMARK    3  A    between atoms: C1'_4  and  C1_5 
ROOT
ATOM      1  C1  N4B d   1       5.057   4.804  -3.827  0.00  0.00    -0.075 A 
ATOM      2  C2  N4B d   1       4.774   4.815  -5.210  0.00  0.00     0.002 A 
ATOM      3  C3  N4B d   1       5.111   3.735  -5.988  0.00  0.00     0.002 A 
ATOM      4  C4  N4B d   1       5.745   2.645  -5.411  0.00  0.00    -0.004 A 
ATOM      5  C5  N4B d   1       5.991   2.631  -4.069  0.00  0.00     0.002 A 
ATOM      6  C6  N4B d   1       5.655   3.709  -3.274  0.00  0.00     0.002 A 
ENDROOT
BRANCH   1   7
ATOM      7  C1' N4B d   1       4.785   5.997  -2.951  0.00  0.00     0.057 C 
BRANCH   7   8
ATOM      8  C2' N4B d   1       5.745   5.976  -1.765  0.00  0.00     0.009 C 
BRANCH   8   9
ATOM      9  C3' N4B d   1       5.821   4.603  -1.120  0.00  0.00     0.004 C 
ATOM     10  C4' N4B d   1       5.996   4.670   0.368  0.00  0.00     0.003 C 
ENDBRANCH   8   9
ENDBRANCH   7   8
ENDBRANCH   1   7
TORSDOF 3
ENDMDL
