MODEL 1
REMARK minimizedAffinity 5.66289711
REMARK minimizedRMSD -1
REMARK  3 active torsions:
REMARK  status: ('A' for Active; 'I' for Inactive)
REMARK    1  A    between atoms: C3'_2  and  C2'_3 
REMARK    2  A    between atoms: C2'_3  and  C1'_4 
REMARK    3  A    between atoms: C1'_4  and  C1_5 
ROOT
ATOM      1  C1  N4B d   1      -0.378  -3.056  -2.186  0.00  0.00    -0.075 A 
ATOM      2  C2  N4B d   1      -1.500  -2.223  -1.986  0.00  0.00     0.002 A 
ATOM      3  C3  N4B d   1      -1.816  -1.788  -0.722  0.00  0.00     0.002 A 
ATOM      4  C4  N4B d   1      -1.038  -2.186   0.355  0.00  0.00    -0.004 A 
ATOM      5  C5  N4B d   1       0.059  -2.971   0.150  0.00  0.00     0.002 A 
ATOM      6  C6  N4B d   1       0.390  -3.412  -1.116  0.00  0.00     0.002 A 
ENDROOT
BRANCH   1   7
ATOM      7  C1' N4B d   1      -0.043  -3.626  -3.537  0.00  0.00     0.057 C 
BRANCH   7   8
ATOM      8  C2' N4B d   1      -0.290  -5.132  -3.520  0.00  0.00     0.009 C 
BRANCH   8   9
ATOM      9  C3' N4B d   1      -0.846  -5.632  -4.842  0.00  0.00     0.004 C 
ATOM     10  C4' N4B d   1      -2.298  -6.000  -4.760  0.00  0.00     0.003 C 
ENDBRANCH   8   9
ENDBRANCH   7   8
ENDBRANCH   1   7
TORSDOF 3
ENDMDL
