MODEL 1
REMARK minimizedAffinity 2.22176051
REMARK minimizedRMSD -1
REMARK  3 active torsions:
REMARK  status: ('A' for Active; 'I' for Inactive)
REMARK    1  A    between atoms: C3'_2  and  C2'_3 
REMARK    2  A    between atoms: C2'_3  and  C1'_4 
REMARK    3  A    between atoms: C1'_4  and  C1_5 
ROOT
ATOM      1  C1  N4B d   1       5.927   4.758  -3.618  0.00  0.00    -0.075 A 
ATOM      2  C2  N4B d   1       5.948   5.248  -4.943  0.00  0.00     0.002 A 
ATOM      3  C3  N4B d   1       5.973   4.371  -5.999  0.00  0.00     0.002 A 
ATOM      4  C4  N4B d   1       5.997   3.006  -5.756  0.00  0.00    -0.004 A 
ATOM      5  C5  N4B d   1       5.951   2.540  -4.474  0.00  0.00     0.002 A 
ATOM      6  C6  N4B d   1       5.921   3.411  -3.403  0.00  0.00     0.002 A 
ENDROOT
BRANCH   1   7
ATOM      7  C1' N4B d   1       5.985   5.679  -2.430  0.00  0.00     0.057 C 
BRANCH   7   8
ATOM      8  C2' N4B d   1       4.571   5.914  -1.908  0.00  0.00     0.009 C 
BRANCH   8   9
ATOM      9  C3' N4B d   1       3.536   5.135  -2.701  0.00  0.00     0.004 C 
ATOM     10  C4' N4B d   1       3.003   5.904  -3.873  0.00  0.00     0.003 C 
ENDBRANCH   8   9
ENDBRANCH   7   8
ENDBRANCH   1   7
TORSDOF 3
ENDMDL
