MODEL 1
REMARK minimizedAffinity 1.95736814
REMARK minimizedRMSD -1
REMARK  3 active torsions:
REMARK  status: ('A' for Active; 'I' for Inactive)
REMARK    1  A    between atoms: C3'_2  and  C2'_3 
REMARK    2  A    between atoms: C2'_3  and  C1'_4 
REMARK    3  A    between atoms: C1'_4  and  C1_5 
ROOT
ATOM      1  C1  N4B d   1       5.993   5.242  -3.570  0.00  0.00    -0.075 A 
ATOM      2  C2  N4B d   1       5.999   3.831  -3.613  0.00  0.00     0.002 A 
ATOM      3  C3  N4B d   1       5.999   3.181  -4.823  0.00  0.00     0.002 A 
ATOM      4  C4  N4B d   1       5.975   3.917  -5.997  0.00  0.00    -0.004 A 
ATOM      5  C5  N4B d   1       5.995   5.281  -5.947  0.00  0.00     0.002 A 
ATOM      6  C6  N4B d   1       5.999   5.947  -4.738  0.00  0.00     0.002 A 
ENDROOT
BRANCH   1   7
ATOM      7  C1' N4B d   1       5.906   5.997  -2.271  0.00  0.00     0.057 C 
BRANCH   7   8
ATOM      8  C2' N4B d   1       4.579   5.672  -1.592  0.00  0.00     0.009 C 
BRANCH   8   9
ATOM      9  C3' N4B d   1       3.605   4.995  -2.541  0.00  0.00     0.004 C 
ATOM     10  C4' N4B d   1       2.847   5.972  -3.389  0.00  0.00     0.003 C 
ENDBRANCH   8   9
ENDBRANCH   7   8
ENDBRANCH   1   7
TORSDOF 3
ENDMDL
