MODEL 1
REMARK minimizedAffinity 0.478661746
REMARK minimizedRMSD -1
REMARK  3 active torsions:
REMARK  status: ('A' for Active; 'I' for Inactive)
REMARK    1  A    between atoms: C3'_2  and  C2'_3 
REMARK    2  A    between atoms: C2'_3  and  C1'_4 
REMARK    3  A    between atoms: C1'_4  and  C1_5 
ROOT
ATOM      1  C1  N4B d   1       4.933   5.368  -3.468  0.00  0.00    -0.075 A 
ATOM      2  C2  N4B d   1       5.825   4.294  -3.679  0.00  0.00     0.002 A 
ATOM      3  C3  N4B d   1       5.946   3.737  -4.929  0.00  0.00     0.002 A 
ATOM      4  C4  N4B d   1       5.173   4.222  -5.974  0.00  0.00    -0.004 A 
ATOM      5  C5  N4B d   1       4.332   5.276  -5.767  0.00  0.00     0.002 A 
ATOM      6  C6  N4B d   1       4.204   5.848  -4.518  0.00  0.00     0.002 A 
ENDROOT
BRANCH   1   7
ATOM      7  C1' N4B d   1       4.703   5.953  -2.102  0.00  0.00     0.057 C 
BRANCH   7   8
ATOM      8  C2' N4B d   1       5.986   5.834  -1.284  0.00  0.00     0.009 C 
BRANCH   8   9
ATOM      9  C3' N4B d   1       5.924   4.684  -0.293  0.00  0.00     0.004 C 
ATOM     10  C4' N4B d   1       4.526   4.377   0.152  0.00  0.00     0.003 C 
ENDBRANCH   8   9
ENDBRANCH   7   8
ENDBRANCH   1   7
TORSDOF 3
ENDMDL
