MODEL 1
REMARK minimizedAffinity 0.0376361012
REMARK minimizedRMSD -1
REMARK  0 active torsions:
REMARK  status: ('A' for Active; 'I' for Inactive)
ROOT
ATOM      1  C4' PXY d   1       3.114  -1.485  -1.915  0.00  0.00     0.077 C 
ATOM      2  C1' PXY d   1      -2.551  -2.614  -2.132  0.00  0.00     0.077 C 
ATOM      3  C1  PXY d   1      -1.063  -2.327  -2.084  0.00  0.00    -0.082 A 
ATOM      4  C2  PXY d   1      -0.538  -1.773  -1.003  0.00  0.00     0.003 A 
ATOM      5  C3  PXY d   1       0.800  -1.478  -0.955  0.00  0.00     0.003 A 
ATOM      6  C4  PXY d   1       1.619  -1.801  -2.004  0.00  0.00    -0.082 A 
ATOM      7  C5  PXY d   1       1.093  -2.376  -3.106  0.00  0.00     0.003 A 
ATOM      8  C6  PXY d   1      -0.275  -2.630  -3.151  0.00  0.00     0.003 A 
ENDROOT
TORSDOF 0
ENDMDL
