MODEL 1
REMARK minimizedAffinity 8.34891033
REMARK minimizedRMSD -1
REMARK  0 active torsions:
REMARK  status: ('A' for Active; 'I' for Inactive)
ROOT
ATOM      1  C4' PXY d   1      -0.660  -2.746  -1.504  0.00  0.00     0.077 C 
ATOM      2  C1' PXY d   1      -2.629  -2.314   3.914  0.00  0.00     0.077 C 
ATOM      3  C1  PXY d   1      -2.100  -2.430   2.498  0.00  0.00    -0.082 A 
ATOM      4  C2  PXY d   1      -2.726  -1.806   1.513  0.00  0.00     0.003 A 
ATOM      5  C3  PXY d   1      -2.281  -1.926   0.222  0.00  0.00     0.003 A 
ATOM      6  C4  PXY d   1      -1.152  -2.649  -0.057  0.00  0.00    -0.082 A 
ATOM      7  C5  PXY d   1      -0.501  -3.280   0.944  0.00  0.00     0.003 A 
ATOM      8  C6  PXY d   1      -0.994  -3.179   2.242  0.00  0.00     0.003 A 
ENDROOT
TORSDOF 0
ENDMDL
