MODEL 1
REMARK minimizedAffinity 3.23812008
REMARK minimizedRMSD -1
REMARK  0 active torsions:
REMARK  status: ('A' for Active; 'I' for Inactive)
ROOT
ATOM      1  C4' PXY d   1      -3.294  -2.261   0.155  0.00  0.00     0.077 C 
ATOM      2  C1' PXY d   1       1.437  -1.855  -3.142  0.00  0.00     0.077 C 
ATOM      3  C1  PXY d   1       0.204  -1.961  -2.267  0.00  0.00    -0.082 A 
ATOM      4  C2  PXY d   1      -0.881  -2.559  -2.733  0.00  0.00     0.003 A 
ATOM      5  C3  PXY d   1      -2.015  -2.634  -1.967  0.00  0.00     0.003 A 
ATOM      6  C4  PXY d   1      -2.023  -2.140  -0.690  0.00  0.00    -0.082 A 
ATOM      7  C5  PXY d   1      -0.917  -1.538  -0.203  0.00  0.00     0.003 A 
ATOM      8  C6  PXY d   1       0.211  -1.435  -1.012  0.00  0.00     0.003 A 
ENDROOT
TORSDOF 0
ENDMDL
