MODEL 1
REMARK minimizedAffinity -3.71927047
REMARK minimizedRMSD -1
REMARK  0 active torsions:
REMARK  status: ('A' for Active; 'I' for Inactive)
ROOT
ATOM      1  C4' PXY d   1      -1.906  -2.900   1.105  0.00  0.00     0.077 C 
ATOM      2  C1' PXY d   1       0.288  -2.282  -4.207  0.00  0.00     0.077 C 
ATOM      3  C1  PXY d   1      -0.298  -2.449  -2.819  0.00  0.00    -0.082 A 
ATOM      4  C2  PXY d   1       0.115  -1.666  -1.836  0.00  0.00     0.003 A 
ATOM      5  C3  PXY d   1      -0.382  -1.825  -0.568  0.00  0.00     0.003 A 
ATOM      6  C4  PXY d   1      -1.349  -2.760  -0.315  0.00  0.00    -0.082 A 
ATOM      7  C5  PXY d   1      -1.783  -3.556  -1.315  0.00  0.00     0.003 A 
ATOM      8  C6  PXY d   1      -1.236  -3.407  -2.586  0.00  0.00     0.003 A 
ENDROOT
TORSDOF 0
ENDMDL
