MODEL 1
REMARK minimizedAffinity 0.332577139
REMARK minimizedRMSD -1
REMARK  0 active torsions:
REMARK  status: ('A' for Active; 'I' for Inactive)
ROOT
ATOM      1  C4' PXY d   1       5.941   5.697  -0.687  0.00  0.00     0.077 C 
ATOM      2  C1' PXY d   1       4.118   4.158  -5.953  0.00  0.00     0.077 C 
ATOM      3  C1  PXY d   1       4.600   4.550  -4.570  0.00  0.00    -0.082 A 
ATOM      4  C2  PXY d   1       4.086   5.614  -3.974  0.00  0.00     0.003 A 
ATOM      5  C3  PXY d   1       4.533   6.000  -2.737  0.00  0.00     0.003 A 
ATOM      6  C4  PXY d   1       5.478   5.259  -2.080  0.00  0.00    -0.082 A 
ATOM      7  C5  PXY d   1       6.000   4.166  -2.676  0.00  0.00     0.003 A 
ATOM      8  C6  PXY d   1       5.562   3.814  -3.949  0.00  0.00     0.003 A 
ENDROOT
TORSDOF 0
ENDMDL
