MODEL 1
REMARK minimizedAffinity -0.239826873
REMARK minimizedRMSD -1
REMARK  0 active torsions:
REMARK  status: ('A' for Active; 'I' for Inactive)
ROOT
ATOM      1  C4' PXY d   1       4.469   4.934  -5.997  0.00  0.00     0.077 C 
ATOM      2  C1' PXY d   1       5.995   4.723  -0.425  0.00  0.00     0.077 C 
ATOM      3  C1  PXY d   1       5.605   4.771  -1.889  0.00  0.00    -0.082 A 
ATOM      4  C2  PXY d   1       4.912   5.800  -2.349  0.00  0.00     0.003 A 
ATOM      5  C3  PXY d   1       4.523   5.844  -3.663  0.00  0.00     0.003 A 
ATOM      6  C4  PXY d   1       4.893   4.849  -4.528  0.00  0.00    -0.082 A 
ATOM      7  C5  PXY d   1       5.609   3.800  -4.069  0.00  0.00     0.003 A 
ATOM      8  C6  PXY d   1       5.958   3.755  -2.723  0.00  0.00     0.003 A 
ENDROOT
TORSDOF 0
ENDMDL
