MODEL 1
REMARK minimizedAffinity -0.439950645
REMARK minimizedRMSD -1
REMARK  0 active torsions:
REMARK  status: ('A' for Active; 'I' for Inactive)
ROOT
ATOM      1  C4' PXY d   1       5.992   6.000  -0.700  0.00  0.00     0.077 C 
ATOM      2  C1' PXY d   1       4.735   3.049  -5.509  0.00  0.00     0.077 C 
ATOM      3  C1  PXY d   1       5.060   3.813  -4.240  0.00  0.00    -0.082 A 
ATOM      4  C2  PXY d   1       5.123   5.134  -4.270  0.00  0.00     0.003 A 
ATOM      5  C3  PXY d   1       5.447   5.839  -3.140  0.00  0.00     0.003 A 
ATOM      6  C4  PXY d   1       5.657   5.188  -1.954  0.00  0.00    -0.082 A 
ATOM      7  C5  PXY d   1       5.585   3.841  -1.913  0.00  0.00     0.003 A 
ATOM      8  C6  PXY d   1       5.295   3.141  -3.081  0.00  0.00     0.003 A 
ENDROOT
TORSDOF 0
ENDMDL
