MODEL 1
REMARK minimizedAffinity 4.61897182
REMARK minimizedRMSD -1
REMARK  0 active torsions:
REMARK  status: ('A' for Active; 'I' for Inactive)
ROOT
ATOM      1  C4' PXY d   1      -1.305  -2.668  -4.030  0.00  0.00     0.077 C 
ATOM      2  C1' PXY d   1       3.796  -1.306  -1.677  0.00  0.00     0.077 C 
ATOM      3  C1  PXY d   1       2.453  -1.665  -2.282  0.00  0.00    -0.082 A 
ATOM      4  C2  PXY d   1       2.394  -2.102  -3.529  0.00  0.00     0.003 A 
ATOM      5  C3  PXY d   1       1.185  -2.401  -4.103  0.00  0.00     0.003 A 
ATOM      6  C4  PXY d   1       0.030  -2.302  -3.375  0.00  0.00    -0.082 A 
ATOM      7  C5  PXY d   1       0.083  -1.867  -2.098  0.00  0.00     0.003 A 
ATOM      8  C6  PXY d   1       1.316  -1.530  -1.548  0.00  0.00     0.003 A 
ENDROOT
TORSDOF 0
ENDMDL
