MODEL 1
REMARK minimizedAffinity 0.760274291
REMARK minimizedRMSD -1
REMARK  0 active torsions:
REMARK  status: ('A' for Active; 'I' for Inactive)
ROOT
ATOM      1  C4' PXY d   1       4.945   5.994  -0.461  0.00  0.00     0.077 C 
ATOM      2  C1' PXY d   1       5.222   3.934  -5.855  0.00  0.00     0.077 C 
ATOM      3  C1  PXY d   1       5.154   4.463  -4.436  0.00  0.00    -0.082 A 
ATOM      4  C2  PXY d   1       4.285   5.414  -4.132  0.00  0.00     0.003 A 
ATOM      5  C3  PXY d   1       4.232   5.926  -2.862  0.00  0.00     0.003 A 
ATOM      6  C4  PXY d   1       5.042   5.423  -1.878  0.00  0.00    -0.082 A 
ATOM      7  C5  PXY d   1       5.924   4.446  -2.177  0.00  0.00     0.003 A 
ATOM      8  C6  PXY d   1       5.990   3.969  -3.483  0.00  0.00     0.003 A 
ENDROOT
TORSDOF 0
ENDMDL
