MODEL 1
REMARK minimizedAffinity -1.23710465
REMARK minimizedRMSD -1
REMARK  0 active torsions:
REMARK  status: ('A' for Active; 'I' for Inactive)
ROOT
ATOM      1  C4' PXY d   1      -3.067  -3.487   0.467  0.00  0.00     0.077 C 
ATOM      2  C1' PXY d   1       0.350  -1.156  -3.571  0.00  0.00     0.077 C 
ATOM      3  C1  PXY d   1      -0.557  -1.765  -2.520  0.00  0.00    -0.082 A 
ATOM      4  C2  PXY d   1      -0.156  -1.813  -1.260  0.00  0.00     0.003 A 
ATOM      5  C3  PXY d   1      -0.950  -2.389  -0.301  0.00  0.00     0.003 A 
ATOM      6  C4  PXY d   1      -2.189  -2.873  -0.627  0.00  0.00    -0.082 A 
ATOM      7  C5  PXY d   1      -2.609  -2.817  -1.909  0.00  0.00     0.003 A 
ATOM      8  C6  PXY d   1      -1.771  -2.266  -2.874  0.00  0.00     0.003 A 
ENDROOT
TORSDOF 0
ENDMDL
