MODEL 1
REMARK minimizedAffinity -1.9250896
REMARK minimizedRMSD -1
REMARK  0 active torsions:
REMARK  status: ('A' for Active; 'I' for Inactive)
ROOT
ATOM      1  C4' PXY d   1       5.010   4.054  -5.997  0.00  0.00     0.077 C 
ATOM      2  C1' PXY d   1       6.000   5.396  -0.462  0.00  0.00     0.077 C 
ATOM      3  C1  PXY d   1       5.738   5.056  -1.917  0.00  0.00    -0.082 A 
ATOM      4  C2  PXY d   1       5.342   3.837  -2.243  0.00  0.00     0.003 A 
ATOM      5  C3  PXY d   1       5.132   3.504  -3.556  0.00  0.00     0.003 A 
ATOM      6  C4  PXY d   1       5.277   4.444  -4.541  0.00  0.00    -0.082 A 
ATOM      7  C5  PXY d   1       5.671   5.694  -4.215  0.00  0.00     0.003 A 
ATOM      8  C6  PXY d   1       5.919   6.000  -2.880  0.00  0.00     0.003 A 
ENDROOT
TORSDOF 0
ENDMDL
