MODEL 1
REMARK minimizedAffinity -0.422125697
REMARK minimizedRMSD -1
REMARK  0 active torsions:
REMARK  status: ('A' for Active; 'I' for Inactive)
ROOT
ATOM      1  C4' PXY d   1       5.856   5.197  -0.359  0.00  0.00     0.077 C 
ATOM      2  C1' PXY d   1       4.442   4.984  -5.960  0.00  0.00     0.077 C 
ATOM      3  C1  PXY d   1       4.802   5.034  -4.488  0.00  0.00    -0.082 A 
ATOM      4  C2  PXY d   1       5.639   5.960  -4.050  0.00  0.00     0.003 A 
ATOM      5  C3  PXY d   1       6.000   6.000  -2.728  0.00  0.00     0.003 A 
ATOM      6  C4  PXY d   1       5.457   5.115  -1.835  0.00  0.00    -0.082 A 
ATOM      7  C5  PXY d   1       4.594   4.174  -2.272  0.00  0.00     0.003 A 
ATOM      8  C6  PXY d   1       4.272   4.125  -3.625  0.00  0.00     0.003 A 
ENDROOT
TORSDOF 0
ENDMDL
