MODEL 1
REMARK minimizedAffinity 2.73145056
REMARK minimizedRMSD -1
REMARK  0 active torsions:
REMARK  status: ('A' for Active; 'I' for Inactive)
ROOT
ATOM      1  C4' PXY d   1      -1.344  -3.667  -3.051  0.00  0.00     0.077 C 
ATOM      2  C1' PXY d   1      -1.802  -2.435   2.578  0.00  0.00     0.077 C 
ATOM      3  C1  PXY d   1      -1.695  -2.761   1.101  0.00  0.00    -0.082 A 
ATOM      4  C2  PXY d   1      -0.530  -3.133   0.597  0.00  0.00     0.003 A 
ATOM      5  C3  PXY d   1      -0.407  -3.401  -0.743  0.00  0.00     0.003 A 
ATOM      6  C4  PXY d   1      -1.501  -3.338  -1.564  0.00  0.00    -0.082 A 
ATOM      7  C5  PXY d   1      -2.695  -2.969  -1.055  0.00  0.00     0.003 A 
ATOM      8  C6  PXY d   1      -2.790  -2.662   0.299  0.00  0.00     0.003 A 
ENDROOT
TORSDOF 0
ENDMDL
