MODEL 1
REMARK minimizedAffinity 0.592627466
REMARK minimizedRMSD -1
REMARK  0 active torsions:
REMARK  status: ('A' for Active; 'I' for Inactive)
ROOT
ATOM      1  C4' PXY d   1      -1.750   0.703   4.654  0.00  0.00     0.077 C 
ATOM      2  C1' PXY d   1      -1.574  -2.574  -0.105  0.00  0.00     0.077 C 
ATOM      3  C1  PXY d   1      -1.613  -1.706   1.137  0.00  0.00    -0.082 A 
ATOM      4  C2  PXY d   1      -1.795  -2.266   2.322  0.00  0.00     0.003 A 
ATOM      5  C3  PXY d   1      -1.865  -1.492   3.451  0.00  0.00     0.003 A 
ATOM      6  C4  PXY d   1      -1.694  -0.136   3.374  0.00  0.00    -0.082 A 
ATOM      7  C5  PXY d   1      -1.497   0.442   2.170  0.00  0.00     0.003 A 
ATOM      8  C6  PXY d   1      -1.471  -0.357   1.031  0.00  0.00     0.003 A 
ENDROOT
TORSDOF 0
ENDMDL
