MODEL 1
REMARK minimizedAffinity 6.30466843
REMARK minimizedRMSD -1
REMARK  0 active torsions:
REMARK  status: ('A' for Active; 'I' for Inactive)
ROOT
ATOM      1  C4' PXY d   1       1.823  -2.577   1.788  0.00  0.00     0.077 C 
ATOM      2  C1' PXY d   1      -3.564  -3.136  -0.233  0.00  0.00     0.077 C 
ATOM      3  C1  PXY d   1      -2.147  -2.987   0.285  0.00  0.00    -0.082 A 
ATOM      4  C2  PXY d   1      -1.786  -3.613   1.393  0.00  0.00     0.003 A 
ATOM      5  C3  PXY d   1      -0.518  -3.463   1.893  0.00  0.00     0.003 A 
ATOM      6  C4  PXY d   1       0.406  -2.707   1.223  0.00  0.00    -0.082 A 
ATOM      7  C5  PXY d   1       0.048  -2.073   0.086  0.00  0.00     0.003 A 
ATOM      8  C6  PXY d   1      -1.256  -2.205  -0.382  0.00  0.00     0.003 A 
ENDROOT
TORSDOF 0
ENDMDL
