MODEL 1
REMARK minimizedAffinity -1.62186611
REMARK minimizedRMSD -1
REMARK  0 active torsions:
REMARK  status: ('A' for Active; 'I' for Inactive)
ROOT
ATOM      1  C4' PXY d   1      -1.739  -2.374   1.576  0.00  0.00     0.077 C 
ATOM      2  C1' PXY d   1      -2.247   1.313   6.000  0.00  0.00     0.077 C 
ATOM      3  C1  PXY d   1      -2.113   0.336   4.848  0.00  0.00    -0.082 A 
ATOM      4  C2  PXY d   1      -1.605   0.747   3.697  0.00  0.00     0.003 A 
ATOM      5  C3  PXY d   1      -1.507  -0.115   2.635  0.00  0.00     0.003 A 
ATOM      6  C4  PXY d   1      -1.883  -1.425   2.769  0.00  0.00    -0.082 A 
ATOM      7  C5  PXY d   1      -2.393  -1.854   3.943  0.00  0.00     0.003 A 
ATOM      8  C6  PXY d   1      -2.522  -0.953   4.996  0.00  0.00     0.003 A 
ENDROOT
TORSDOF 0
ENDMDL
