MODEL 1
REMARK minimizedAffinity -1.44456029
REMARK minimizedRMSD -1
REMARK  0 active torsions:
REMARK  status: ('A' for Active; 'I' for Inactive)
ROOT
ATOM      1  C4' PXY d   1      -0.734  -2.888  -2.971  0.00  0.00     0.077 C 
ATOM      2  C1' PXY d   1      -1.659  -2.375   2.712  0.00  0.00     0.077 C 
ATOM      3  C1  PXY d   1      -1.427  -2.518   1.220  0.00  0.00    -0.082 A 
ATOM      4  C2  PXY d   1      -0.213  -2.332   0.726  0.00  0.00     0.003 A 
ATOM      5  C3  PXY d   1       0.008  -2.426  -0.624  0.00  0.00     0.003 A 
ATOM      6  C4  PXY d   1      -1.013  -2.764  -1.471  0.00  0.00    -0.082 A 
ATOM      7  C5  PXY d   1      -2.252  -2.965  -0.974  0.00  0.00     0.003 A 
ATOM      8  C6  PXY d   1      -2.464  -2.825   0.395  0.00  0.00     0.003 A 
ENDROOT
TORSDOF 0
ENDMDL
