MODEL 1
REMARK minimizedAffinity 0.698042274
REMARK minimizedRMSD -1
REMARK  0 active torsions:
REMARK  status: ('A' for Active; 'I' for Inactive)
ROOT
ATOM      1  C4' PXY d   1      -0.671  -3.518  -5.571  0.00  0.00     0.077 C 
ATOM      2  C1' PXY d   1      -2.258  -2.984  -0.038  0.00  0.00     0.077 C 
ATOM      3  C1  PXY d   1      -1.840  -3.111  -1.490  0.00  0.00    -0.082 A 
ATOM      4  C2  PXY d   1      -2.255  -4.146  -2.202  0.00  0.00     0.003 A 
ATOM      5  C3  PXY d   1      -1.861  -4.293  -3.507  0.00  0.00     0.003 A 
ATOM      6  C4  PXY d   1      -1.076  -3.344  -4.105  0.00  0.00    -0.082 A 
ATOM      7  C5  PXY d   1      -0.657  -2.279  -3.388  0.00  0.00     0.003 A 
ATOM      8  C6  PXY d   1      -1.035  -2.170  -2.053  0.00  0.00     0.003 A 
ENDROOT
TORSDOF 0
ENDMDL
