MODEL 1
REMARK minimizedAffinity 1.16481662
REMARK minimizedRMSD -1
REMARK  0 active torsions:
REMARK  status: ('A' for Active; 'I' for Inactive)
ROOT
ATOM      1  C4' PXY d   1       0.099  -1.907  -2.885  0.00  0.00     0.077 C 
ATOM      2  C1' PXY d   1      -2.092  -2.938   2.363  0.00  0.00     0.077 C 
ATOM      3  C1  PXY d   1      -1.520  -2.680   0.984  0.00  0.00    -0.082 A 
ATOM      4  C2  PXY d   1      -0.656  -1.693   0.808  0.00  0.00     0.003 A 
ATOM      5  C3  PXY d   1      -0.153  -1.426  -0.440  0.00  0.00     0.003 A 
ATOM      6  C4  PXY d   1      -0.497  -2.210  -1.508  0.00  0.00    -0.082 A 
ATOM      7  C5  PXY d   1      -1.369  -3.226  -1.335  0.00  0.00     0.003 A 
ATOM      8  C6  PXY d   1      -1.900  -3.455  -0.068  0.00  0.00     0.003 A 
ENDROOT
TORSDOF 0
ENDMDL
