MODEL 1
REMARK minimizedAffinity 4.11165762
REMARK minimizedRMSD -1
REMARK  0 active torsions:
REMARK  status: ('A' for Active; 'I' for Inactive)
ROOT
ATOM      1  C   UNL d   1       5.499   2.266   1.651  0.00  0.00     0.023 A 
ATOM      2  C1  UNL d   1       4.445   2.827   0.929  0.00  0.00     0.003 A 
ATOM      3  C2  UNL d   1       3.424   2.013   0.436  0.00  0.00     0.048 A 
ATOM      4  C3  UNL d   1       3.461   0.638   0.669  0.00  0.00     0.023 A 
ATOM      5  C4  UNL d   1       4.513   0.073   1.392  0.00  0.00     0.048 A 
ATOM      6  C5  UNL d   1       5.532   0.891   1.882  0.00  0.00     0.003 A 
ATOM      7  I   UNL d   1       1.942  -0.575  -0.064  0.00  0.00    -0.146 I 
ENDROOT
TORSDOF 0
ENDMDL
