MODEL 1
REMARK minimizedAffinity -1.3751483
REMARK minimizedRMSD -1
REMARK  0 active torsions:
REMARK  status: ('A' for Active; 'I' for Inactive)
ROOT
ATOM      1  C   UNL d   1       5.630   3.455  -5.997  0.00  0.00     0.023 A 
ATOM      2  C1  UNL d   1       5.318   4.814  -6.000  0.00  0.00     0.003 A 
ATOM      3  C2  UNL d   1       3.997   5.229  -5.817  0.00  0.00     0.048 A 
ATOM      4  C3  UNL d   1       2.993   4.280  -5.631  0.00  0.00     0.023 A 
ATOM      5  C4  UNL d   1       3.301   2.918  -5.626  0.00  0.00     0.048 A 
ATOM      6  C5  UNL d   1       4.622   2.508  -5.811  0.00  0.00     0.003 A 
ATOM      7  I   UNL d   1       1.027   4.895  -5.358  0.00  0.00    -0.146 I 
ENDROOT
TORSDOF 0
ENDMDL
