MODEL 1
REMARK minimizedAffinity -2.55105805
REMARK minimizedRMSD -1
REMARK  0 active torsions:
REMARK  status: ('A' for Active; 'I' for Inactive)
ROOT
ATOM      1  C   UNL d   1       5.972   3.500  -5.627  0.00  0.00     0.023 A 
ATOM      2  C1  UNL d   1       5.104   2.471  -5.261  0.00  0.00     0.003 A 
ATOM      3  C2  UNL d   1       3.724   2.686  -5.262  0.00  0.00     0.048 A 
ATOM      4  C3  UNL d   1       3.219   3.932  -5.632  0.00  0.00     0.023 A 
ATOM      5  C4  UNL d   1       4.083   4.964  -6.000  0.00  0.00     0.048 A 
ATOM      6  C5  UNL d   1       5.462   4.745  -5.996  0.00  0.00     0.003 A 
ATOM      7  I   UNL d   1       1.166   4.254  -5.635  0.00  0.00    -0.146 I 
ENDROOT
TORSDOF 0
ENDMDL
