MODEL 1
REMARK minimizedAffinity -2.50073504
REMARK minimizedRMSD -1
REMARK  0 active torsions:
REMARK  status: ('A' for Active; 'I' for Inactive)
ROOT
ATOM      1  C   UNL d   1       5.849   3.360  -5.625  0.00  0.00     0.023 A 
ATOM      2  C1  UNL d   1       5.436   4.640  -5.996  0.00  0.00     0.003 A 
ATOM      3  C2  UNL d   1       4.078   4.963  -5.999  0.00  0.00     0.048 A 
ATOM      4  C3  UNL d   1       3.138   4.002  -5.629  0.00  0.00     0.023 A 
ATOM      5  C4  UNL d   1       3.546   2.720  -5.257  0.00  0.00     0.048 A 
ATOM      6  C5  UNL d   1       4.906   2.402  -5.256  0.00  0.00     0.003 A 
ATOM      7  I   UNL d   1       1.115   4.480  -5.633  0.00  0.00    -0.146 I 
ENDROOT
TORSDOF 0
ENDMDL
