MODEL 1
REMARK minimizedAffinity -1.14170623
REMARK minimizedRMSD -1
REMARK  0 active torsions:
REMARK  status: ('A' for Active; 'I' for Inactive)
ROOT
ATOM      1  C   UNL d   1       5.316   3.344  -5.999  0.00  0.00     0.023 A 
ATOM      2  C1  UNL d   1       4.892   4.673  -6.000  0.00  0.00     0.003 A 
ATOM      3  C2  UNL d   1       3.528   4.972  -5.997  0.00  0.00     0.048 A 
ATOM      4  C3  UNL d   1       2.593   3.936  -5.992  0.00  0.00     0.023 A 
ATOM      5  C4  UNL d   1       3.014   2.605  -5.991  0.00  0.00     0.048 A 
ATOM      6  C5  UNL d   1       4.379   2.312  -5.995  0.00  0.00     0.003 A 
ATOM      7  I   UNL d   1       0.562   4.378  -5.987  0.00  0.00    -0.146 I 
ENDROOT
TORSDOF 0
ENDMDL
