MODEL 1
REMARK minimizedAffinity -1.7943778
REMARK minimizedRMSD -1
REMARK  0 active torsions:
REMARK  status: ('A' for Active; 'I' for Inactive)
ROOT
ATOM      1  C   UNL d   1       5.328   3.462  -5.988  0.00  0.00     0.023 A 
ATOM      2  C1  UNL d   1       4.235   2.596  -5.983  0.00  0.00     0.003 A 
ATOM      3  C2  UNL d   1       2.936   3.109  -5.985  0.00  0.00     0.048 A 
ATOM      4  C3  UNL d   1       2.738   4.489  -5.993  0.00  0.00     0.023 A 
ATOM      5  C4  UNL d   1       3.830   5.360  -6.000  0.00  0.00     0.048 A 
ATOM      6  C5  UNL d   1       5.126   4.842  -5.996  0.00  0.00     0.003 A 
ATOM      7  I   UNL d   1       0.807   5.256  -5.997  0.00  0.00    -0.146 I 
ENDROOT
TORSDOF 0
ENDMDL
