MODEL 1
REMARK minimizedAffinity -3.20469308
REMARK minimizedRMSD -1
REMARK  0 active torsions:
REMARK  status: ('A' for Active; 'I' for Inactive)
ROOT
ATOM      1  C   UNL d   1       0.748   4.642  -5.249  0.00  0.00     0.023 A 
ATOM      2  C1  UNL d   1       1.575   5.766  -5.251  0.00  0.00     0.003 A 
ATOM      3  C2  UNL d   1       2.947   5.624  -5.466  0.00  0.00     0.048 A 
ATOM      4  C3  UNL d   1       3.486   4.356  -5.679  0.00  0.00     0.023 A 
ATOM      5  C4  UNL d   1       2.663   3.229  -5.679  0.00  0.00     0.048 A 
ATOM      6  C5  UNL d   1       1.292   3.375  -5.462  0.00  0.00     0.003 A 
ATOM      7  I   UNL d   1       5.529   4.143  -6.000  0.00  0.00    -0.146 I 
ENDROOT
TORSDOF 0
ENDMDL
