MODEL 1
REMARK minimizedAffinity 4.44829178
REMARK minimizedRMSD -1
REMARK  0 active torsions:
REMARK  status: ('A' for Active; 'I' for Inactive)
ROOT
ATOM      1  C   UNL d   1       0.738   4.198  -4.117  0.00  0.00     0.023 A 
ATOM      2  C1  UNL d   1       0.979   4.517  -5.453  0.00  0.00     0.003 A 
ATOM      3  C2  UNL d   1       2.254   4.342  -5.995  0.00  0.00     0.048 A 
ATOM      4  C3  UNL d   1       3.283   3.847  -5.195  0.00  0.00     0.023 A 
ATOM      5  C4  UNL d   1       3.046   3.525  -3.858  0.00  0.00     0.048 A 
ATOM      6  C5  UNL d   1       1.770   3.702  -3.320  0.00  0.00     0.003 A 
ATOM      7  I   UNL d   1       5.181   3.585  -6.000  0.00  0.00    -0.146 I 
ENDROOT
TORSDOF 0
ENDMDL
