MODEL 1
REMARK minimizedAffinity -0.96501106
REMARK minimizedRMSD -1
REMARK  0 active torsions:
REMARK  status: ('A' for Active; 'I' for Inactive)
ROOT
ATOM      1  C   UNL d   1       0.857   4.848  -5.973  0.00  0.00     0.023 A 
ATOM      2  C1  UNL d   1       1.405   3.565  -5.960  0.00  0.00     0.003 A 
ATOM      3  C2  UNL d   1       2.791   3.396  -5.968  0.00  0.00     0.048 A 
ATOM      4  C3  UNL d   1       3.623   4.515  -5.986  0.00  0.00     0.023 A 
ATOM      5  C4  UNL d   1       3.080   5.800  -5.998  0.00  0.00     0.048 A 
ATOM      6  C5  UNL d   1       1.694   5.964  -5.992  0.00  0.00     0.003 A 
ATOM      7  I   UNL d   1       5.687   4.266  -5.997  0.00  0.00    -0.146 I 
ENDROOT
TORSDOF 0
ENDMDL
