MODEL 1
REMARK minimizedAffinity -2.03092718
REMARK minimizedRMSD -1
REMARK  0 active torsions:
REMARK  status: ('A' for Active; 'I' for Inactive)
ROOT
ATOM      1  C   UNL d   1       1.636   6.000  -6.000  0.00  0.00     0.023 A 
ATOM      2  C1  UNL d   1       0.938   4.807  -5.813  0.00  0.00     0.003 A 
ATOM      3  C2  UNL d   1       1.633   3.611  -5.626  0.00  0.00     0.048 A 
ATOM      4  C3  UNL d   1       3.028   3.615  -5.626  0.00  0.00     0.023 A 
ATOM      5  C4  UNL d   1       3.731   4.806  -5.812  0.00  0.00     0.048 A 
ATOM      6  C5  UNL d   1       3.031   5.999  -6.000  0.00  0.00     0.003 A 
ATOM      7  I   UNL d   1       4.065   1.835  -5.348  0.00  0.00    -0.146 I 
ENDROOT
TORSDOF 0
ENDMDL
