MODEL 1
REMARK minimizedAffinity -0.963640273
REMARK minimizedRMSD -1
REMARK  0 active torsions:
REMARK  status: ('A' for Active; 'I' for Inactive)
ROOT
ATOM      1  C   UNL d   1       5.244   3.006  -5.511  0.00  0.00     0.023 A 
ATOM      2  C1  UNL d   1       4.063   2.323  -5.221  0.00  0.00     0.003 A 
ATOM      3  C2  UNL d   1       2.834   2.979  -5.318  0.00  0.00     0.048 A 
ATOM      4  C3  UNL d   1       2.794   4.318  -5.707  0.00  0.00     0.023 A 
ATOM      5  C4  UNL d   1       3.973   5.005  -5.999  0.00  0.00     0.048 A 
ATOM      6  C5  UNL d   1       5.199   4.345  -5.900  0.00  0.00     0.003 A 
ATOM      7  I   UNL d   1       0.966   5.296  -5.852  0.00  0.00    -0.146 I 
ENDROOT
TORSDOF 0
ENDMDL
