MODEL 1
REMARK minimizedAffinity 0.250408262
REMARK minimizedRMSD -1
REMARK  0 active torsions:
REMARK  status: ('A' for Active; 'I' for Inactive)
ROOT
ATOM      1  C   UNL d   1       5.024   2.908  -5.703  0.00  0.00     0.023 A 
ATOM      2  C1  UNL d   1       4.034   1.933  -5.575  0.00  0.00     0.003 A 
ATOM      3  C2  UNL d   1       2.686   2.289  -5.658  0.00  0.00     0.048 A 
ATOM      4  C3  UNL d   1       2.335   3.622  -5.870  0.00  0.00     0.023 A 
ATOM      5  C4  UNL d   1       3.322   4.601  -6.000  0.00  0.00     0.048 A 
ATOM      6  C5  UNL d   1       4.668   4.240  -5.915  0.00  0.00     0.003 A 
ATOM      7  I   UNL d   1       0.330   4.154  -5.994  0.00  0.00    -0.146 I 
ENDROOT
TORSDOF 0
ENDMDL
