MODEL 1
REMARK minimizedAffinity 2.63053727
REMARK minimizedRMSD -1
REMARK  0 active torsions:
REMARK  status: ('A' for Active; 'I' for Inactive)
ROOT
ATOM      1  C   UNL d   1       3.645   3.322  -4.378  0.00  0.00     0.023 A 
ATOM      2  C1  UNL d   1       3.048   2.817  -5.534  0.00  0.00     0.003 A 
ATOM      3  C2  UNL d   1       1.852   3.367  -6.000  0.00  0.00     0.048 A 
ATOM      4  C3  UNL d   1       1.259   4.422  -5.307  0.00  0.00     0.023 A 
ATOM      5  C4  UNL d   1       1.854   4.930  -4.151  0.00  0.00     0.048 A 
ATOM      6  C5  UNL d   1       3.049   4.377  -3.688  0.00  0.00     0.003 A 
ATOM      7  I   UNL d   1      -0.521   5.241  -5.999  0.00  0.00    -0.146 I 
ENDROOT
TORSDOF 0
ENDMDL
