MODEL 1
REMARK minimizedAffinity 0.907548428
REMARK minimizedRMSD -1
REMARK  0 active torsions:
REMARK  status: ('A' for Active; 'I' for Inactive)
ROOT
ATOM      1  C   UNL d   1       0.764   5.568  -4.632  0.00  0.00     0.023 A 
ATOM      2  C1  UNL d   1       0.575   4.692  -5.701  0.00  0.00     0.003 A 
ATOM      3  C2  UNL d   1       1.540   3.726  -5.993  0.00  0.00     0.048 A 
ATOM      4  C3  UNL d   1       2.692   3.641  -5.211  0.00  0.00     0.023 A 
ATOM      5  C4  UNL d   1       2.885   4.515  -4.140  0.00  0.00     0.048 A 
ATOM      6  C5  UNL d   1       1.918   5.479  -3.852  0.00  0.00     0.003 A 
ATOM      7  I   UNL d   1       4.130   2.204  -5.643  0.00  0.00    -0.146 I 
ENDROOT
TORSDOF 0
ENDMDL
