MODEL 1
REMARK minimizedAffinity -1.23678863
REMARK minimizedRMSD -1
REMARK  0 active torsions:
REMARK  status: ('A' for Active; 'I' for Inactive)
ROOT
ATOM      1  C   UNL d   1       5.353   3.050  -5.999  0.00  0.00     0.023 A 
ATOM      2  C1  UNL d   1       5.354   4.445  -6.000  0.00  0.00     0.003 A 
ATOM      3  C2  UNL d   1       4.145   5.144  -5.976  0.00  0.00     0.048 A 
ATOM      4  C3  UNL d   1       2.941   4.443  -5.951  0.00  0.00     0.023 A 
ATOM      5  C4  UNL d   1       2.936   3.047  -5.949  0.00  0.00     0.048 A 
ATOM      6  C5  UNL d   1       4.146   2.352  -5.974  0.00  0.00     0.003 A 
ATOM      7  I   UNL d   1       1.141   5.482  -5.915  0.00  0.00    -0.146 I 
ENDROOT
TORSDOF 0
ENDMDL
