MODEL 1
REMARK minimizedAffinity -1.28859055
REMARK minimizedRMSD -1
REMARK  0 active torsions:
REMARK  status: ('A' for Active; 'I' for Inactive)
ROOT
ATOM      1  C   UNL d   1       5.985   2.628  -5.624  0.00  0.00     0.023 A 
ATOM      2  C1  UNL d   1       5.798   3.974  -5.942  0.00  0.00     0.003 A 
ATOM      3  C2  UNL d   1       4.508   4.506  -6.000  0.00  0.00     0.048 A 
ATOM      4  C3  UNL d   1       3.410   3.687  -5.737  0.00  0.00     0.023 A 
ATOM      5  C4  UNL d   1       3.593   2.341  -5.417  0.00  0.00     0.048 A 
ATOM      6  C5  UNL d   1       4.884   1.813  -5.361  0.00  0.00     0.003 A 
ATOM      7  I   UNL d   1       1.489   4.477  -5.822  0.00  0.00    -0.146 I 
ENDROOT
TORSDOF 0
ENDMDL
