MODEL 1
REMARK minimizedAffinity -1.57156491
REMARK minimizedRMSD -1
REMARK  0 active torsions:
REMARK  status: ('A' for Active; 'I' for Inactive)
ROOT
ATOM      1  C   UNL d   1       2.199   2.911  -5.538  0.00  0.00     0.023 A 
ATOM      2  C1  UNL d   1       1.990   4.250  -5.867  0.00  0.00     0.003 A 
ATOM      3  C2  UNL d   1       3.078   5.116  -6.000  0.00  0.00     0.048 A 
ATOM      4  C3  UNL d   1       4.372   4.635  -5.803  0.00  0.00     0.023 A 
ATOM      5  C4  UNL d   1       4.586   3.296  -5.474  0.00  0.00     0.048 A 
ATOM      6  C5  UNL d   1       3.495   2.434  -5.342  0.00  0.00     0.003 A 
ATOM      7  I   UNL d   1       5.992   5.922  -6.000  0.00  0.00    -0.146 I 
ENDROOT
TORSDOF 0
ENDMDL
