MODEL 1
REMARK minimizedAffinity -0.841137469
REMARK minimizedRMSD -1
REMARK  0 active torsions:
REMARK  status: ('A' for Active; 'I' for Inactive)
ROOT
ATOM      1  C   UNL d   1       2.457   2.648  -5.310  0.00  0.00     0.023 A 
ATOM      2  C1  UNL d   1       2.150   3.918  -5.799  0.00  0.00     0.003 A 
ATOM      3  C2  UNL d   1       3.166   4.856  -5.997  0.00  0.00     0.048 A 
ATOM      4  C3  UNL d   1       4.486   4.517  -5.705  0.00  0.00     0.023 A 
ATOM      5  C4  UNL d   1       4.798   3.247  -5.217  0.00  0.00     0.048 A 
ATOM      6  C5  UNL d   1       3.779   2.313  -5.019  0.00  0.00     0.003 A 
ATOM      7  I   UNL d   1       6.000   5.910  -6.000  0.00  0.00    -0.146 I 
ENDROOT
TORSDOF 0
ENDMDL
