MODEL 1
REMARK minimizedAffinity -0.72245729
REMARK minimizedRMSD -1
REMARK  0 active torsions:
REMARK  status: ('A' for Active; 'I' for Inactive)
ROOT
ATOM      1  C   UNL d   1       2.428   2.871  -4.930  0.00  0.00     0.023 A 
ATOM      2  C1  UNL d   1       2.123   4.192  -5.258  0.00  0.00     0.003 A 
ATOM      3  C2  UNL d   1       3.147   5.091  -5.565  0.00  0.00     0.048 A 
ATOM      4  C3  UNL d   1       4.473   4.661  -5.543  0.00  0.00     0.023 A 
ATOM      5  C4  UNL d   1       4.783   3.340  -5.216  0.00  0.00     0.048 A 
ATOM      6  C5  UNL d   1       3.757   2.446  -4.909  0.00  0.00     0.003 A 
ATOM      7  I   UNL d   1       5.999   5.997  -6.000  0.00  0.00    -0.146 I 
ENDROOT
TORSDOF 0
ENDMDL
