MODEL 1
REMARK minimizedAffinity -4.61508703
REMARK minimizedRMSD -1
REMARK  0 active torsions:
REMARK  status: ('A' for Active; 'I' for Inactive)
ROOT
ATOM      1  N1  IND d   1       1.697   2.325   0.224  0.00  0.00    -0.196 N 
ATOM      2  C2  IND d   1       1.331   3.066   1.313  0.00  0.00     0.054 A 
ATOM      3  C3  IND d   1       0.218   2.551   1.880  0.00  0.00    -0.031 A 
ATOM      4  C4  IND d   1      -1.112   0.439   1.249  0.00  0.00     0.051 A 
ATOM      5  C5  IND d   1      -1.183  -0.547   0.305  0.00  0.00    -0.031 A 
ATOM      6  C6  IND d   1      -0.279  -0.629  -0.734  0.00  0.00     0.015 A 
ATOM      7  C7  IND d   1       0.743   0.270  -0.861  0.00  0.00    -0.016 A 
ATOM      8  C8  IND d   1       0.815   1.276   0.092  0.00  0.00    -0.047 A 
ATOM      9  C9  IND d   1      -0.126   1.389   1.124  0.00  0.00    -0.096 A 
ATOM     10  HN1 IND d   1       2.367   2.487  -0.291  0.00  0.00     0.298 HD
ENDROOT
TORSDOF 0
ENDMDL
