MODEL 1
REMARK minimizedAffinity -1.70462906
REMARK minimizedRMSD -1
REMARK  0 active torsions:
REMARK  status: ('A' for Active; 'I' for Inactive)
ROOT
ATOM      1  N1  IND d   1      -0.312   2.029   0.963  0.00  0.00    -0.196 N 
ATOM      2  C2  IND d   1       0.711   2.923   1.115  0.00  0.00     0.054 A 
ATOM      3  C3  IND d   1       1.878   2.377   0.705  0.00  0.00    -0.031 A 
ATOM      4  C4  IND d   1       2.324   0.069  -0.344  0.00  0.00     0.051 A 
ATOM      5  C5  IND d   1       1.708  -1.112  -0.651  0.00  0.00    -0.031 A 
ATOM      6  C6  IND d   1       0.360  -1.309  -0.434  0.00  0.00     0.015 A 
ATOM      7  C7  IND d   1      -0.429  -0.325   0.090  0.00  0.00    -0.016 A 
ATOM      8  C8  IND d   1       0.195   0.873   0.410  0.00  0.00    -0.047 A 
ATOM      9  C9  IND d   1       1.571   1.065   0.231  0.00  0.00    -0.096 A 
ATOM     10  HN1 IND d   1      -1.133   2.165   1.177  0.00  0.00     0.298 HD
ENDROOT
TORSDOF 0
ENDMDL
