MODEL 1
REMARK minimizedAffinity -4.88217926
REMARK minimizedRMSD -1
REMARK  0 active torsions:
REMARK  status: ('A' for Active; 'I' for Inactive)
ROOT
ATOM      1  N1  IND d   1      -0.916   0.863   1.516  0.00  0.00    -0.196 N 
ATOM      2  C2  IND d   1      -0.133   1.891   1.962  0.00  0.00     0.054 A 
ATOM      3  C3  IND d   1       1.028   1.932   1.271  0.00  0.00    -0.031 A 
ATOM      4  C4  IND d   1       1.810   0.475  -0.702  0.00  0.00     0.051 A 
ATOM      5  C5  IND d   1       1.454  -0.618  -1.442  0.00  0.00    -0.031 A 
ATOM      6  C6  IND d   1       0.264  -1.285  -1.231  0.00  0.00     0.015 A 
ATOM      7  C7  IND d   1      -0.623  -0.875  -0.276  0.00  0.00    -0.016 A 
ATOM      8  C8  IND d   1      -0.261   0.230   0.482  0.00  0.00    -0.047 A 
ATOM      9  C9  IND d   1       0.964   0.885   0.301  0.00  0.00    -0.096 A 
ATOM     10  HN1 IND d   1      -1.687   0.647   1.829  0.00  0.00     0.298 HD
ENDROOT
TORSDOF 0
ENDMDL
