MODEL 1
REMARK minimizedAffinity -3.76190567
REMARK minimizedRMSD -1
REMARK  0 active torsions:
REMARK  status: ('A' for Active; 'I' for Inactive)
ROOT
ATOM      1  N1  IND d   1       1.108  -1.072  -0.350  0.00  0.00    -0.196 N 
ATOM      2  C2  IND d   1       2.330  -0.691  -0.830  0.00  0.00     0.054 A 
ATOM      3  C3  IND d   1       2.519   0.634  -0.636  0.00  0.00    -0.031 A 
ATOM      4  C4  IND d   1       0.999   2.348   0.538  0.00  0.00     0.051 A 
ATOM      5  C5  IND d   1      -0.236   2.481   1.107  0.00  0.00    -0.031 A 
ATOM      6  C6  IND d   1      -1.103   1.413   1.225  0.00  0.00     0.015 A 
ATOM      7  C7  IND d   1      -0.761   0.166   0.785  0.00  0.00    -0.016 A 
ATOM      8  C8  IND d   1       0.490   0.029   0.200  0.00  0.00    -0.047 A 
ATOM      9  C9  IND d   1       1.357   1.118   0.040  0.00  0.00    -0.096 A 
ATOM     10  HN1 IND d   1       0.781  -1.866  -0.386  0.00  0.00     0.298 HD
ENDROOT
TORSDOF 0
ENDMDL
