MODEL 1
REMARK minimizedAffinity -5.67217875
REMARK minimizedRMSD -1
REMARK  0 active torsions:
REMARK  status: ('A' for Active; 'I' for Inactive)
ROOT
ATOM      1  N1  IND d   1       0.415  -0.541  -0.928  0.00  0.00    -0.196 N 
ATOM      2  C2  IND d   1      -0.792  -0.946  -0.432  0.00  0.00     0.054 A 
ATOM      3  C3  IND d   1      -1.192  -0.123   0.564  0.00  0.00    -0.031 A 
ATOM      4  C4  IND d   1      -0.070   2.008   1.474  0.00  0.00     0.051 A 
ATOM      5  C5  IND d   1       1.066   2.758   1.362  0.00  0.00    -0.031 A 
ATOM      6  C6  IND d   1       2.063   2.443   0.461  0.00  0.00     0.015 A 
ATOM      7  C7  IND d   1       1.954   1.367  -0.373  0.00  0.00    -0.016 A 
ATOM      8  C8  IND d   1       0.805   0.598  -0.257  0.00  0.00    -0.047 A 
ATOM      9  C9  IND d   1      -0.190   0.889   0.685  0.00  0.00    -0.096 A 
ATOM     10  HN1 IND d   1       0.858  -0.932  -1.553  0.00  0.00     0.298 HD
ENDROOT
TORSDOF 0
ENDMDL
