MODEL 1
REMARK minimizedAffinity -1.57781434
REMARK minimizedRMSD -1
REMARK  0 active torsions:
REMARK  status: ('A' for Active; 'I' for Inactive)
ROOT
ATOM      1  N1  IND d   1      -2.391  -0.446  -2.134  0.00  0.00    -0.196 N 
ATOM      2  C2  IND d   1      -1.830  -1.457  -2.864  0.00  0.00     0.054 A 
ATOM      3  C3  IND d   1      -0.616  -1.780  -2.364  0.00  0.00    -0.031 A 
ATOM      4  C4  IND d   1       0.600  -0.851  -0.294  0.00  0.00     0.051 A 
ATOM      5  C5  IND d   1       0.502   0.110   0.673  0.00  0.00    -0.031 A 
ATOM      6  C6  IND d   1      -0.590   0.951   0.756  0.00  0.00     0.015 A 
ATOM      7  C7  IND d   1      -1.633   0.853  -0.121  0.00  0.00    -0.016 A 
ATOM      8  C8  IND d   1      -1.533  -0.118  -1.108  0.00  0.00    -0.047 A 
ATOM      9  C9  IND d   1      -0.408  -0.945  -1.223  0.00  0.00    -0.096 A 
ATOM     10  HN1 IND d   1      -3.152  -0.077  -2.290  0.00  0.00     0.298 HD
ENDROOT
TORSDOF 0
ENDMDL
