MODEL 1
REMARK minimizedAffinity -4.49545717
REMARK minimizedRMSD -1
REMARK  0 active torsions:
REMARK  status: ('A' for Active; 'I' for Inactive)
ROOT
ATOM      1  N1  IND d   1      -0.463   0.273  -1.010  0.00  0.00    -0.196 N 
ATOM      2  C2  IND d   1      -1.775   0.170  -0.641  0.00  0.00     0.054 A 
ATOM      3  C3  IND d   1      -1.974   0.761   0.558  0.00  0.00    -0.031 A 
ATOM      4  C4  IND d   1      -0.310   2.048   2.043  0.00  0.00     0.051 A 
ATOM      5  C5  IND d   1       1.012   2.378   2.144  0.00  0.00    -0.031 A 
ATOM      6  C6  IND d   1       1.929   2.018   1.177  0.00  0.00     0.015 A 
ATOM      7  C7  IND d   1       1.553   1.322   0.063  0.00  0.00    -0.016 A 
ATOM      8  C8  IND d   1       0.212   0.979  -0.038  0.00  0.00    -0.047 A 
ATOM      9  C9  IND d   1      -0.715   1.304   0.960  0.00  0.00    -0.096 A 
ATOM     10  HN1 IND d   1      -0.117  -0.049  -1.729  0.00  0.00     0.298 HD
ENDROOT
TORSDOF 0
ENDMDL
