MODEL 1
REMARK minimizedAffinity -4.15638351
REMARK minimizedRMSD -1
REMARK  0 active torsions:
REMARK  status: ('A' for Active; 'I' for Inactive)
ROOT
ATOM      1  N1  IND d   1       0.537  -0.321  -0.828  0.00  0.00    -0.196 N 
ATOM      2  C2  IND d   1      -0.706  -0.281  -0.262  0.00  0.00     0.054 A 
ATOM      3  C3  IND d   1      -0.751   0.659   0.708  0.00  0.00    -0.031 A 
ATOM      4  C4  IND d   1       1.067   2.317   1.465  0.00  0.00     0.051 A 
ATOM      5  C5  IND d   1       2.380   2.639   1.268  0.00  0.00    -0.031 A 
ATOM      6  C6  IND d   1       3.162   1.979   0.342  0.00  0.00     0.015 A 
ATOM      7  C7  IND d   1       2.653   0.976  -0.434  0.00  0.00    -0.016 A 
ATOM      8  C8  IND d   1       1.322   0.642  -0.232  0.00  0.00    -0.047 A 
ATOM      9  C9  IND d   1       0.535   1.279   0.737  0.00  0.00    -0.096 A 
ATOM     10  HN1 IND d   1       0.788  -0.857  -1.452  0.00  0.00     0.298 HD
ENDROOT
TORSDOF 0
ENDMDL
