MODEL 1
REMARK minimizedAffinity -0.56228888
REMARK minimizedRMSD -1
REMARK  0 active torsions:
REMARK  status: ('A' for Active; 'I' for Inactive)
ROOT
ATOM      1  N1  IND d   1       0.973  -0.860  -0.725  0.00  0.00    -0.196 N 
ATOM      2  C2  IND d   1      -0.325  -0.897  -0.299  0.00  0.00     0.054 A 
ATOM      3  C3  IND d   1      -0.497  -0.073   0.759  0.00  0.00    -0.031 A 
ATOM      4  C4  IND d   1       1.190   1.508   1.891  0.00  0.00     0.051 A 
ATOM      5  C5  IND d   1       2.510   1.864   1.877  0.00  0.00    -0.031 A 
ATOM      6  C6  IND d   1       3.402   1.321   0.975  0.00  0.00     0.015 A 
ATOM      7  C7  IND d   1       3.004   0.406   0.042  0.00  0.00    -0.016 A 
ATOM      8  C8  IND d   1       1.666   0.037   0.058  0.00  0.00    -0.047 A 
ATOM      9  C9  IND d   1       0.765   0.553   0.998  0.00  0.00    -0.096 A 
ATOM     10  HN1 IND d   1       1.302  -1.320  -1.373  0.00  0.00     0.298 HD
ENDROOT
TORSDOF 0
ENDMDL
