MODEL 1
REMARK minimizedAffinity -2.06028152
REMARK minimizedRMSD -1
REMARK  0 active torsions:
REMARK  status: ('A' for Active; 'I' for Inactive)
ROOT
ATOM      1  N1  IND d   1      -0.001   2.575   1.855  0.00  0.00    -0.196 N 
ATOM      2  C2  IND d   1       1.186   2.807   1.217  0.00  0.00     0.054 A 
ATOM      3  C3  IND d   1       1.392   1.879   0.256  0.00  0.00    -0.031 A 
ATOM      4  C4  IND d   1      -0.134  -0.047  -0.512  0.00  0.00     0.051 A 
ATOM      5  C5  IND d   1      -1.305  -0.681  -0.205  0.00  0.00    -0.031 A 
ATOM      6  C6  IND d   1      -2.120  -0.251   0.822  0.00  0.00     0.015 A 
ATOM      7  C7  IND d   1      -1.797   0.840   1.578  0.00  0.00    -0.016 A 
ATOM      8  C8  IND d   1      -0.605   1.482   1.275  0.00  0.00    -0.047 A 
ATOM      9  C9  IND d   1       0.247   1.025   0.261  0.00  0.00    -0.096 A 
ATOM     10  HN1 IND d   1      -0.317   3.036   2.509  0.00  0.00     0.298 HD
ENDROOT
TORSDOF 0
ENDMDL
