MODEL 1
REMARK minimizedAffinity -4.08261681
REMARK minimizedRMSD -1
REMARK  0 active torsions:
REMARK  status: ('A' for Active; 'I' for Inactive)
ROOT
ATOM      1  N1  IND d   1       0.116  -0.459  -1.349  0.00  0.00    -0.196 N 
ATOM      2  C2  IND d   1      -0.933  -1.247  -0.967  0.00  0.00     0.054 A 
ATOM      3  C3  IND d   1      -1.378  -0.879   0.255  0.00  0.00    -0.031 A 
ATOM      4  C4  IND d   1      -0.598   1.054   1.766  0.00  0.00     0.051 A 
ATOM      5  C5  IND d   1       0.356   2.028   1.863  0.00  0.00    -0.031 A 
ATOM      6  C6  IND d   1       1.295   2.229   0.872  0.00  0.00     0.015 A 
ATOM      7  C7  IND d   1       1.310   1.467  -0.262  0.00  0.00    -0.016 A 
ATOM      8  C8  IND d   1       0.347   0.472  -0.360  0.00  0.00    -0.047 A 
ATOM      9  C9  IND d   1      -0.582   0.236   0.661  0.00  0.00    -0.096 A 
ATOM     10  HN1 IND d   1       0.558  -0.532  -2.083  0.00  0.00     0.298 HD
ENDROOT
TORSDOF 0
ENDMDL
