MODEL 1
REMARK minimizedAffinity -1.57450128
REMARK minimizedRMSD -1
REMARK  0 active torsions:
REMARK  status: ('A' for Active; 'I' for Inactive)
ROOT
ATOM      1  N1  IND d   1       0.697  -1.270  -2.068  0.00  0.00    -0.196 N 
ATOM      2  C2  IND d   1       0.870  -1.550  -0.741  0.00  0.00     0.054 A 
ATOM      3  C3  IND d   1      -0.295  -1.955  -0.189  0.00  0.00    -0.031 A 
ATOM      4  C4  IND d   1      -2.587  -2.330  -1.300  0.00  0.00     0.051 A 
ATOM      5  C5  IND d   1      -3.248  -2.175  -2.486  0.00  0.00    -0.031 A 
ATOM      6  C6  IND d   1      -2.614  -1.703  -3.617  0.00  0.00     0.015 A 
ATOM      7  C7  IND d   1      -1.287  -1.378  -3.607  0.00  0.00    -0.016 A 
ATOM      8  C8  IND d   1      -0.615  -1.528  -2.402  0.00  0.00    -0.047 A 
ATOM      9  C9  IND d   1      -1.263  -1.966  -1.240  0.00  0.00    -0.096 A 
ATOM     10  HN1 IND d   1       1.304  -0.982  -2.604  0.00  0.00     0.298 HD
ENDROOT
TORSDOF 0
ENDMDL
