MODEL 1
REMARK minimizedAffinity -0.694373965
REMARK minimizedRMSD -1
REMARK  0 active torsions:
REMARK  status: ('A' for Active; 'I' for Inactive)
ROOT
ATOM      1  N1  IND d   1       0.386  -1.352  -1.094  0.00  0.00    -0.196 N 
ATOM      2  C2  IND d   1      -0.727  -1.615  -0.344  0.00  0.00     0.054 A 
ATOM      3  C3  IND d   1      -0.909  -0.646   0.581  0.00  0.00    -0.031 A 
ATOM      4  C4  IND d   1       0.436   1.513   0.977  0.00  0.00     0.051 A 
ATOM      5  C5  IND d   1       1.560   2.172   0.565  0.00  0.00    -0.031 A 
ATOM      6  C6  IND d   1       2.365   1.682  -0.443  0.00  0.00     0.015 A 
ATOM      7  C7  IND d   1       2.068   0.515  -1.087  0.00  0.00    -0.016 A 
ATOM      8  C8  IND d   1       0.931  -0.161  -0.667  0.00  0.00    -0.047 A 
ATOM      9  C9  IND d   1       0.134   0.310   0.384  0.00  0.00    -0.096 A 
ATOM     10  HN1 IND d   1       0.693  -1.847  -1.726  0.00  0.00     0.298 HD
ENDROOT
TORSDOF 0
ENDMDL
