MODEL 1
REMARK minimizedAffinity -0.952093184
REMARK minimizedRMSD -1
REMARK  0 active torsions:
REMARK  status: ('A' for Active; 'I' for Inactive)
ROOT
ATOM      1  N1  IND d   1       0.240  -0.208  -1.512  0.00  0.00    -0.196 N 
ATOM      2  C2  IND d   1       0.310  -0.619  -0.210  0.00  0.00     0.054 A 
ATOM      3  C3  IND d   1      -0.661  -1.523   0.050  0.00  0.00    -0.031 A 
ATOM      4  C4  IND d   1      -2.408  -2.549  -1.538  0.00  0.00     0.051 A 
ATOM      5  C5  IND d   1      -2.888  -2.460  -2.814  0.00  0.00    -0.031 A 
ATOM      6  C6  IND d   1      -2.336  -1.600  -3.742  0.00  0.00     0.015 A 
ATOM      7  C7  IND d   1      -1.272  -0.802  -3.429  0.00  0.00    -0.016 A 
ATOM      8  C8  IND d   1      -0.787  -0.885  -2.131  0.00  0.00    -0.047 A 
ATOM      9  C9  IND d   1      -1.370  -1.725  -1.173  0.00  0.00    -0.096 A 
ATOM     10  HN1 IND d   1       0.752   0.375  -1.882  0.00  0.00     0.298 HD
ENDROOT
TORSDOF 0
ENDMDL
