MODEL 1
REMARK minimizedAffinity 0.629285872
REMARK minimizedRMSD -1
REMARK  0 active torsions:
REMARK  status: ('A' for Active; 'I' for Inactive)
ROOT
ATOM      1  N1  IND d   1       1.549   0.338   0.512  0.00  0.00    -0.196 N 
ATOM      2  C2  IND d   1       0.267   0.239   0.045  0.00  0.00     0.054 A 
ATOM      3  C3  IND d   1      -0.615   0.489   1.038  0.00  0.00    -0.031 A 
ATOM      4  C4  IND d   1      -0.179   1.180   3.479  0.00  0.00     0.051 A 
ATOM      5  C5  IND d   1       0.830   1.365   4.382  0.00  0.00    -0.031 A 
ATOM      6  C6  IND d   1       2.157   1.216   4.034  0.00  0.00     0.015 A 
ATOM      7  C7  IND d   1       2.526   0.887   2.760  0.00  0.00    -0.016 A 
ATOM      8  C8  IND d   1       1.504   0.692   1.842  0.00  0.00    -0.047 A 
ATOM      9  C9  IND d   1       0.154   0.800   2.201  0.00  0.00    -0.096 A 
ATOM     10  HN1 IND d   1       2.262   0.202   0.051  0.00  0.00     0.298 HD
ENDROOT
TORSDOF 0
ENDMDL
