MODEL 1
REMARK minimizedAffinity 6.66818476
REMARK minimizedRMSD -1
REMARK  0 active torsions:
REMARK  status: ('A' for Active; 'I' for Inactive)
ROOT
ATOM      1  N1  IND d   1       0.911   0.161   0.585  0.00  0.00    -0.196 N 
ATOM      2  C2  IND d   1      -0.407   0.129   0.224  0.00  0.00     0.054 A 
ATOM      3  C3  IND d   1      -1.180   0.615   1.221  0.00  0.00    -0.031 A 
ATOM      4  C4  IND d   1      -0.486   1.612   3.490  0.00  0.00     0.051 A 
ATOM      5  C5  IND d   1       0.606   1.823   4.286  0.00  0.00    -0.031 A 
ATOM      6  C6  IND d   1       1.880   1.486   3.879  0.00  0.00     0.015 A 
ATOM      7  C7  IND d   1       2.114   0.934   2.651  0.00  0.00    -0.016 A 
ATOM      8  C8  IND d   1       1.008   0.712   1.844  0.00  0.00    -0.047 A 
ATOM      9  C9  IND d   1      -0.293   1.013   2.268  0.00  0.00    -0.096 A 
ATOM     10  HN1 IND d   1       1.570  -0.116   0.106  0.00  0.00     0.298 HD
ENDROOT
TORSDOF 0
ENDMDL
