MODEL 1
REMARK minimizedAffinity -4.56243277
REMARK minimizedRMSD -1
REMARK  2 active torsions:
REMARK  status: ('A' for Active; 'I' for Inactive)
REMARK    1  A    between atoms: C2'_3  and  C1'_4 
REMARK    2  A    between atoms: C1'_4  and  C1_5 
ROOT
ATOM      1  C1  I4B d   1       0.235  -0.123   0.212  0.00  0.00    -0.075 A 
ATOM      2  C2  I4B d   1       0.715  -1.207  -0.481  0.00  0.00     0.003 A 
ATOM      3  C3  I4B d   1       0.367  -2.520  -0.079  0.00  0.00     0.002 A 
ATOM      4  C4  I4B d   1      -0.415  -2.702   1.043  0.00  0.00    -0.004 A 
ATOM      5  C5  I4B d   1      -0.918  -1.602   1.730  0.00  0.00     0.002 A 
ATOM      6  C6  I4B d   1      -0.602  -0.303   1.305  0.00  0.00     0.003 A 
ENDROOT
BRANCH   1   7
ATOM      7  C1' I4B d   1       0.649   1.248  -0.221  0.00  0.00     0.060 C 
BRANCH   7   8
ATOM      8  C2' I4B d   1       1.718   1.736   0.735  0.00  0.00    -0.013 C 
ATOM      9  C4' I4B d   1       3.097   1.492   0.181  0.00  0.00     0.013 C 
ATOM     10  C3' I4B d   1       1.486   3.196   0.984  0.00  0.00     0.013 C 
ENDBRANCH   7   8
ENDBRANCH   1   7
TORSDOF 2
ENDMDL
