MODEL 1
REMARK minimizedAffinity -2.76819849
REMARK minimizedRMSD -1
REMARK  2 active torsions:
REMARK  status: ('A' for Active; 'I' for Inactive)
REMARK    1  A    between atoms: C2'_3  and  C1'_4 
REMARK    2  A    between atoms: C1'_4  and  C1_5 
ROOT
ATOM      1  C1  I4B d   1       0.597   1.070  -0.042  0.00  0.00    -0.075 A 
ATOM      2  C2  I4B d   1      -0.053   2.230   0.299  0.00  0.00     0.003 A 
ATOM      3  C3  I4B d   1       0.686   3.398   0.605  0.00  0.00     0.002 A 
ATOM      4  C4  I4B d   1       2.065   3.349   0.608  0.00  0.00    -0.004 A 
ATOM      5  C5  I4B d   1       2.723   2.179   0.240  0.00  0.00     0.002 A 
ATOM      6  C6  I4B d   1       1.985   1.035  -0.099  0.00  0.00     0.003 A 
ENDROOT
BRANCH   1   7
ATOM      7  C1' I4B d   1      -0.213  -0.154  -0.327  0.00  0.00     0.060 C 
BRANCH   7   8
ATOM      8  C2' I4B d   1      -0.301  -0.964   0.950  0.00  0.00    -0.013 C 
ATOM      9  C4' I4B d   1      -1.198  -0.297   1.959  0.00  0.00     0.013 C 
ATOM     10  C3' I4B d   1      -0.805  -2.332   0.598  0.00  0.00     0.013 C 
ENDBRANCH   7   8
ENDBRANCH   1   7
TORSDOF 2
ENDMDL
