MODEL 1
REMARK minimizedAffinity -4.52627563
REMARK minimizedRMSD -1
REMARK  2 active torsions:
REMARK  status: ('A' for Active; 'I' for Inactive)
REMARK    1  A    between atoms: C2'_3  and  C1'_4 
REMARK    2  A    between atoms: C1'_4  and  C1_5 
ROOT
ATOM      1  C1  I4B d   1      -0.365  -0.747   0.745  0.00  0.00    -0.075 A 
ATOM      2  C2  I4B d   1      -1.375  -1.634   1.022  0.00  0.00     0.003 A 
ATOM      3  C3  I4B d   1      -1.114  -3.026   1.043  0.00  0.00     0.002 A 
ATOM      4  C4  I4B d   1       0.149  -3.486   0.732  0.00  0.00    -0.004 A 
ATOM      5  C5  I4B d   1       1.177  -2.583   0.473  0.00  0.00     0.002 A 
ATOM      6  C6  I4B d   1       0.921  -1.204   0.492  0.00  0.00     0.003 A 
ENDROOT
BRANCH   1   7
ATOM      7  C1' I4B d   1      -0.683   0.715   0.699  0.00  0.00     0.060 C 
BRANCH   7   8
ATOM      8  C2' I4B d   1       0.256   1.365  -0.297  0.00  0.00    -0.013 C 
ATOM      9  C4' I4B d   1      -0.276   1.254  -1.701  0.00  0.00     0.013 C 
ATOM     10  C3' I4B d   1       0.433   2.800   0.104  0.00  0.00     0.013 C 
ENDBRANCH   7   8
ENDBRANCH   1   7
TORSDOF 2
ENDMDL
