MODEL 1
REMARK minimizedAffinity -2.70138502
REMARK minimizedRMSD -1
REMARK  2 active torsions:
REMARK  status: ('A' for Active; 'I' for Inactive)
REMARK    1  A    between atoms: C2'_3  and  C1'_4 
REMARK    2  A    between atoms: C1'_4  and  C1_5 
ROOT
ATOM      1  C1  I4B d   1       0.257  -0.183   0.368  0.00  0.00    -0.075 A 
ATOM      2  C2  I4B d   1       0.713  -1.218  -0.410  0.00  0.00     0.003 A 
ATOM      3  C3  I4B d   1      -0.002  -2.439  -0.462  0.00  0.00     0.002 A 
ATOM      4  C4  I4B d   1      -1.132  -2.599   0.314  0.00  0.00    -0.004 A 
ATOM      5  C5  I4B d   1      -1.605  -1.541   1.084  0.00  0.00     0.002 A 
ATOM      6  C6  I4B d   1      -0.913  -0.321   1.102  0.00  0.00     0.003 A 
ENDROOT
BRANCH   1   7
ATOM      7  C1' I4B d   1       1.055   1.081   0.424  0.00  0.00     0.060 C 
BRANCH   7   8
ATOM      8  C2' I4B d   1       0.177   2.210  -0.076  0.00  0.00    -0.013 C 
ATOM      9  C4' I4B d   1       0.749   3.552   0.296  0.00  0.00     0.013 C 
ATOM     10  C3' I4B d   1       0.047   2.070  -1.564  0.00  0.00     0.013 C 
ENDBRANCH   7   8
ENDBRANCH   1   7
TORSDOF 2
ENDMDL
