MODEL 1
REMARK minimizedAffinity -1.06426787
REMARK minimizedRMSD -1
REMARK  2 active torsions:
REMARK  status: ('A' for Active; 'I' for Inactive)
REMARK    1  A    between atoms: C2'_3  and  C1'_4 
REMARK    2  A    between atoms: C1'_4  and  C1_5 
ROOT
ATOM      1  C1  I4B d   1       0.525  -0.102   0.595  0.00  0.00    -0.075 A 
ATOM      2  C2  I4B d   1       0.831  -1.367   0.161  0.00  0.00     0.003 A 
ATOM      3  C3  I4B d   1       0.741  -1.690  -1.215  0.00  0.00     0.002 A 
ATOM      4  C4  I4B d   1       0.296  -0.738  -2.108  0.00  0.00    -0.004 A 
ATOM      5  C5  I4B d   1       0.008   0.551  -1.670  0.00  0.00     0.002 A 
ATOM      6  C6  I4B d   1       0.135   0.875  -0.311  0.00  0.00     0.003 A 
ENDROOT
BRANCH   1   7
ATOM      7  C1' I4B d   1       0.599   0.196   2.059  0.00  0.00     0.060 C 
BRANCH   7   8
ATOM      8  C2' I4B d   1      -0.578  -0.480   2.733  0.00  0.00    -0.013 C 
ATOM      9  C4' I4B d   1      -0.451  -0.428   4.233  0.00  0.00     0.013 C 
ATOM     10  C3' I4B d   1      -1.830   0.204   2.271  0.00  0.00     0.013 C 
ENDBRANCH   7   8
ENDBRANCH   1   7
TORSDOF 2
ENDMDL
