MODEL 1
REMARK minimizedAffinity -2.50999808
REMARK minimizedRMSD -1
REMARK  2 active torsions:
REMARK  status: ('A' for Active; 'I' for Inactive)
REMARK    1  A    between atoms: C2'_3  and  C1'_4 
REMARK    2  A    between atoms: C1'_4  and  C1_5 
ROOT
ATOM      1  C1  I4B d   1       0.892   1.695   0.084  0.00  0.00    -0.075 A 
ATOM      2  C2  I4B d   1       0.157   2.560   0.856  0.00  0.00     0.003 A 
ATOM      3  C3  I4B d   1       0.701   3.808   1.243  0.00  0.00     0.002 A 
ATOM      4  C4  I4B d   1       1.994   4.128   0.882  0.00  0.00    -0.004 A 
ATOM      5  C5  I4B d   1       2.730   3.259   0.081  0.00  0.00     0.002 A 
ATOM      6  C6  I4B d   1       2.171   2.040  -0.331  0.00  0.00     0.003 A 
ENDROOT
BRANCH   1   7
ATOM      7  C1' I4B d   1       0.299   0.371  -0.279  0.00  0.00     0.060 C 
BRANCH   7   8
ATOM      8  C2' I4B d   1      -0.293  -0.236   0.977  0.00  0.00    -0.013 C 
ATOM      9  C4' I4B d   1      -1.647  -0.837   0.706  0.00  0.00     0.013 C 
ATOM     10  C3' I4B d   1       0.666  -1.269   1.488  0.00  0.00     0.013 C 
ENDBRANCH   7   8
ENDBRANCH   1   7
TORSDOF 2
ENDMDL
