MODEL 1
REMARK minimizedAffinity -3.52178836
REMARK minimizedRMSD -1
REMARK  2 active torsions:
REMARK  status: ('A' for Active; 'I' for Inactive)
REMARK    1  A    between atoms: C2'_3  and  C1'_4 
REMARK    2  A    between atoms: C1'_4  and  C1_5 
ROOT
ATOM      1  C1  I4B d   1       0.055  -1.424   0.490  0.00  0.00    -0.075 A 
ATOM      2  C2  I4B d   1      -1.090  -1.230   1.222  0.00  0.00     0.003 A 
ATOM      3  C3  I4B d   1      -1.648   0.066   1.341  0.00  0.00     0.002 A 
ATOM      4  C4  I4B d   1      -1.005   1.139   0.759  0.00  0.00    -0.004 A 
ATOM      5  C5  I4B d   1       0.143   0.937  -0.002  0.00  0.00     0.002 A 
ATOM      6  C6  I4B d   1       0.670  -0.355  -0.147  0.00  0.00     0.003 A 
ENDROOT
BRANCH   1   7
ATOM      7  C1' I4B d   1       0.636  -2.801   0.413  0.00  0.00     0.060 C 
BRANCH   7   8
ATOM      8  C2' I4B d   1      -0.445  -3.735  -0.091  0.00  0.00    -0.013 C 
ATOM      9  C4' I4B d   1      -0.788  -3.447  -1.529  0.00  0.00     0.013 C 
ATOM     10  C3' I4B d   1       0.044  -5.143   0.077  0.00  0.00     0.013 C 
ENDBRANCH   7   8
ENDBRANCH   1   7
TORSDOF 2
ENDMDL
