MODEL 1
REMARK minimizedAffinity -3.04954672
REMARK minimizedRMSD -1
REMARK  2 active torsions:
REMARK  status: ('A' for Active; 'I' for Inactive)
REMARK    1  A    between atoms: C2'_3  and  C1'_4 
REMARK    2  A    between atoms: C1'_4  and  C1_5 
ROOT
ATOM      1  C1  I4B d   1      -0.199   0.592   0.220  0.00  0.00    -0.075 A 
ATOM      2  C2  I4B d   1       0.810  -0.195   0.716  0.00  0.00     0.003 A 
ATOM      3  C3  I4B d   1       0.505  -1.379   1.430  0.00  0.00     0.002 A 
ATOM      4  C4  I4B d   1      -0.813  -1.710   1.667  0.00  0.00    -0.004 A 
ATOM      5  C5  I4B d   1      -1.835  -0.923   1.143  0.00  0.00     0.002 A 
ATOM      6  C6  I4B d   1      -1.527   0.229   0.405  0.00  0.00     0.003 A 
ENDROOT
BRANCH   1   7
ATOM      7  C1' I4B d   1       0.159   1.853  -0.500  0.00  0.00     0.060 C 
BRANCH   7   8
ATOM      8  C2' I4B d   1       0.982   2.711   0.439  0.00  0.00    -0.013 C 
ATOM      9  C4' I4B d   1       2.233   3.211  -0.234  0.00  0.00     0.013 C 
ATOM     10  C3' I4B d   1       0.122   3.850   0.900  0.00  0.00     0.013 C 
ENDBRANCH   7   8
ENDBRANCH   1   7
TORSDOF 2
ENDMDL
