MODEL 1
REMARK minimizedAffinity -0.350818664
REMARK minimizedRMSD -1
REMARK  2 active torsions:
REMARK  status: ('A' for Active; 'I' for Inactive)
REMARK    1  A    between atoms: C2'_3  and  C1'_4 
REMARK    2  A    between atoms: C1'_4  and  C1_5 
ROOT
ATOM      1  C1  I4B d   1       0.438   0.866  -0.121  0.00  0.00    -0.075 A 
ATOM      2  C2  I4B d   1       0.534   0.410  -1.412  0.00  0.00     0.003 A 
ATOM      3  C3  I4B d   1       0.441  -0.976  -1.687  0.00  0.00     0.002 A 
ATOM      4  C4  I4B d   1       0.305  -1.869  -0.643  0.00  0.00    -0.004 A 
ATOM      5  C5  I4B d   1       0.185  -1.403   0.663  0.00  0.00     0.002 A 
ATOM      6  C6  I4B d   1       0.239  -0.026   0.925  0.00  0.00     0.003 A 
ENDROOT
BRANCH   1   7
ATOM      7  C1' I4B d   1       0.573   2.333   0.137  0.00  0.00     0.060 C 
BRANCH   7   8
ATOM      8  C2' I4B d   1       1.891   2.562   0.848  0.00  0.00    -0.013 C 
ATOM      9  C4' I4B d   1       3.055   2.379  -0.089  0.00  0.00     0.013 C 
ATOM     10  C3' I4B d   1       1.872   3.947   1.423  0.00  0.00     0.013 C 
ENDBRANCH   7   8
ENDBRANCH   1   7
TORSDOF 2
ENDMDL
