MODEL 1
REMARK minimizedAffinity -5.59616661
REMARK minimizedRMSD -1
REMARK  2 active torsions:
REMARK  status: ('A' for Active; 'I' for Inactive)
REMARK    1  A    between atoms: C2'_3  and  C1'_4 
REMARK    2  A    between atoms: C1'_4  and  C1_5 
ROOT
ATOM      1  C1  I4B d   1       0.216  -0.155   0.724  0.00  0.00    -0.075 A 
ATOM      2  C2  I4B d   1       1.068  -0.950  -0.002  0.00  0.00     0.003 A 
ATOM      3  C3  I4B d   1       0.669  -2.251  -0.394  0.00  0.00     0.002 A 
ATOM      4  C4  I4B d   1      -0.562  -2.732   0.001  0.00  0.00    -0.004 A 
ATOM      5  C5  I4B d   1      -1.434  -1.917   0.717  0.00  0.00     0.002 A 
ATOM      6  C6  I4B d   1      -1.048  -0.616   1.070  0.00  0.00     0.003 A 
ENDROOT
BRANCH   1   7
ATOM      7  C1' I4B d   1       0.682   1.201   1.150  0.00  0.00     0.060 C 
BRANCH   7   8
ATOM      8  C2' I4B d   1       0.480   2.150  -0.014  0.00  0.00    -0.013 C 
ATOM      9  C4' I4B d   1       0.040   3.510   0.463  0.00  0.00     0.013 C 
ATOM     10  C3' I4B d   1       1.771   2.234  -0.772  0.00  0.00     0.013 C 
ENDBRANCH   7   8
ENDBRANCH   1   7
TORSDOF 2
ENDMDL
