MODEL 1
REMARK minimizedAffinity -5.16936255
REMARK minimizedRMSD -1
REMARK  2 active torsions:
REMARK  status: ('A' for Active; 'I' for Inactive)
REMARK    1  A    between atoms: C2'_3  and  C1'_4 
REMARK    2  A    between atoms: C1'_4  and  C1_5 
ROOT
ATOM      1  C1  I4B d   1       0.898   0.591  -0.216  0.00  0.00    -0.075 A 
ATOM      2  C2  I4B d   1       2.098   0.900   0.375  0.00  0.00     0.003 A 
ATOM      3  C3  I4B d   1       2.415   2.244   0.685  0.00  0.00     0.002 A 
ATOM      4  C4  I4B d   1       1.531   3.247   0.343  0.00  0.00    -0.004 A 
ATOM      5  C5  I4B d   1       0.305   2.930  -0.235  0.00  0.00     0.002 A 
ATOM      6  C6  I4B d   1      -0.019   1.593  -0.506  0.00  0.00     0.003 A 
ENDROOT
BRANCH   1   7
ATOM      7  C1' I4B d   1       0.610  -0.836  -0.560  0.00  0.00     0.060 C 
BRANCH   7   8
ATOM      8  C2' I4B d   1       0.193  -1.547   0.711  0.00  0.00    -0.013 C 
ATOM      9  C4' I4B d   1      -1.187  -1.126   1.144  0.00  0.00     0.013 C 
ATOM     10  C3' I4B d   1       0.253  -3.024   0.456  0.00  0.00     0.013 C 
ENDBRANCH   7   8
ENDBRANCH   1   7
TORSDOF 2
ENDMDL
