MODEL 1
REMARK minimizedAffinity 3.07841372
REMARK minimizedRMSD -1
REMARK  1 active torsions:
REMARK  status: ('A' for Active; 'I' for Inactive)
REMARK    1  A    between atoms: N_2  and  C1_3 
ROOT
ATOM      1  C1  UNL d   1       4.659  -3.353  -1.683  0.00  0.00     0.143 A 
ATOM      2  C2  UNL d   1       4.246  -4.677  -1.497  0.00  0.00    -0.057 A 
ATOM      3  C3  UNL d   1       4.096  -5.550  -2.581  0.00  0.00     0.033 A 
ATOM      4  C4  UNL d   1       4.330  -5.104  -3.878  0.00  0.00    -0.042 A 
ATOM      5  C5  UNL d   1       4.718  -3.786  -4.089  0.00  0.00     0.033 A 
ATOM      6  C6  UNL d   1       4.872  -2.921  -3.001  0.00  0.00    -0.057 A 
ENDROOT
BRANCH   1   7
ATOM      7  N   UNL d   1       4.731  -2.409  -0.656  0.00  0.00    -0.732 N 
ATOM      8  C   UNL d   1       3.526  -1.891  -0.044  0.00  0.00     0.284 C 
ATOM      9  H3  UNL d   1       5.479  -2.610   0.004  0.00  0.00     0.395 HD
ENDBRANCH   1   7
TORSDOF 1
ENDMDL
