MODEL 1
REMARK minimizedAffinity 8.20364857
REMARK minimizedRMSD -1
REMARK  1 active torsions:
REMARK  status: ('A' for Active; 'I' for Inactive)
REMARK    1  A    between atoms: N_2  and  C1_3 
ROOT
ATOM      1  C1  UNL d   1      -2.042   5.071   0.790  0.00  0.00     0.143 A 
ATOM      2  C2  UNL d   1      -1.047   5.305  -0.166  0.00  0.00    -0.057 A 
ATOM      3  C3  UNL d   1      -0.021   4.379  -0.387  0.00  0.00     0.033 A 
ATOM      4  C4  UNL d   1       0.045   3.212   0.368  0.00  0.00    -0.042 A 
ATOM      5  C5  UNL d   1      -0.918   2.971   1.340  0.00  0.00     0.033 A 
ATOM      6  C6  UNL d   1      -1.945   3.896   1.551  0.00  0.00    -0.057 A 
ENDROOT
BRANCH   1   7
ATOM      7  N   UNL d   1      -3.032   5.999   1.124  0.00  0.00    -0.732 N 
ATOM      8  C   UNL d   1      -4.304   6.000   0.435  0.00  0.00     0.284 C 
ATOM      9  H3  UNL d   1      -3.103   6.145   2.129  0.00  0.00     0.395 HD
ENDBRANCH   1   7
TORSDOF 1
ENDMDL
