MODEL 1
REMARK minimizedAffinity -2.94168758
REMARK minimizedRMSD -1
REMARK  1 active torsions:
REMARK  status: ('A' for Active; 'I' for Inactive)
REMARK    1  A    between atoms: N_2  and  C1_3 
ROOT
ATOM      1  C1  UNL d   1      -4.807   3.122  -1.758  0.00  0.00     0.143 A 
ATOM      2  C2  UNL d   1      -5.995   2.578  -1.258  0.00  0.00    -0.057 A 
ATOM      3  C3  UNL d   1      -5.979   1.553  -0.304  0.00  0.00     0.033 A 
ATOM      4  C4  UNL d   1      -4.770   1.032   0.146  0.00  0.00    -0.042 A 
ATOM      5  C5  UNL d   1      -3.577   1.540  -0.356  0.00  0.00     0.033 A 
ATOM      6  C6  UNL d   1      -3.600   2.568  -1.304  0.00  0.00    -0.057 A 
ENDROOT
BRANCH   1   7
ATOM      7  N   UNL d   1      -4.757   4.073  -2.780  0.00  0.00    -0.732 N 
ATOM      8  C   UNL d   1      -5.658   3.991  -3.909  0.00  0.00     0.284 C 
ATOM      9  H3  UNL d   1      -4.620   5.017  -2.425  0.00  0.00     0.395 HD
ENDBRANCH   1   7
TORSDOF 1
ENDMDL
