MODEL 1
REMARK minimizedAffinity -2.71214199
REMARK minimizedRMSD -1
REMARK  1 active torsions:
REMARK  status: ('A' for Active; 'I' for Inactive)
REMARK    1  A    between atoms: N_2  and  C1_3 
ROOT
ATOM      1  C1  UNL d   1      -4.835   3.402  -3.467  0.00  0.00     0.143 A 
ATOM      2  C2  UNL d   1      -3.854   3.190  -4.443  0.00  0.00    -0.057 A 
ATOM      3  C3  UNL d   1      -3.923   3.822  -5.690  0.00  0.00     0.033 A 
ATOM      4  C4  UNL d   1      -4.992   4.656  -5.996  0.00  0.00    -0.042 A 
ATOM      5  C5  UNL d   1      -5.991   4.862  -5.052  0.00  0.00     0.033 A 
ATOM      6  C6  UNL d   1      -5.914   4.234  -3.805  0.00  0.00    -0.057 A 
ENDROOT
BRANCH   1   7
ATOM      7  N   UNL d   1      -4.875   2.727  -2.245  0.00  0.00    -0.732 N 
ATOM      8  C   UNL d   1      -6.000   1.883  -1.906  0.00  0.00     0.284 C 
ATOM      9  H3  UNL d   1      -3.971   2.338  -1.986  0.00  0.00     0.395 HD
ENDBRANCH   1   7
TORSDOF 1
ENDMDL
