MODEL 1
REMARK minimizedAffinity -3.37727237
REMARK minimizedRMSD -1
REMARK  1 active torsions:
REMARK  status: ('A' for Active; 'I' for Inactive)
REMARK    1  A    between atoms: N_2  and  C1_3 
ROOT
ATOM      1  C1  UNL d   1      -5.653   3.981  -2.621  0.00  0.00     0.143 A 
ATOM      2  C2  UNL d   1      -5.986   3.440  -3.868  0.00  0.00    -0.057 A 
ATOM      3  C3  UNL d   1      -5.709   4.129  -5.055  0.00  0.00     0.033 A 
ATOM      4  C4  UNL d   1      -5.119   5.387  -5.015  0.00  0.00    -0.042 A 
ATOM      5  C5  UNL d   1      -4.802   5.955  -3.786  0.00  0.00     0.033 A 
ATOM      6  C6  UNL d   1      -5.075   5.260  -2.604  0.00  0.00    -0.057 A 
ENDROOT
BRANCH   1   7
ATOM      7  N   UNL d   1      -5.992   3.389  -1.401  0.00  0.00    -0.732 N 
ATOM      8  C   UNL d   1      -5.692   1.996  -1.149  0.00  0.00     0.284 C 
ATOM      9  H3  UNL d   1      -5.814   4.003  -0.610  0.00  0.00     0.395 HD
ENDBRANCH   1   7
TORSDOF 1
ENDMDL
