MODEL 1
REMARK minimizedAffinity -3.74884057
REMARK minimizedRMSD -1
REMARK  1 active torsions:
REMARK  status: ('A' for Active; 'I' for Inactive)
REMARK    1  A    between atoms: N_2  and  C1_3 
ROOT
ATOM      1  C1  UNL d   1      -5.640   4.456  -3.761  0.00  0.00     0.143 A 
ATOM      2  C2  UNL d   1      -5.996   3.154  -4.129  0.00  0.00    -0.057 A 
ATOM      3  C3  UNL d   1      -5.583   2.048  -3.376  0.00  0.00     0.033 A 
ATOM      4  C4  UNL d   1      -4.779   2.224  -2.254  0.00  0.00    -0.042 A 
ATOM      5  C5  UNL d   1      -4.393   3.507  -1.884  0.00  0.00     0.033 A 
ATOM      6  C6  UNL d   1      -4.814   4.608  -2.636  0.00  0.00    -0.057 A 
ENDROOT
BRANCH   1   7
ATOM      7  N   UNL d   1      -5.937   5.588  -4.523  0.00  0.00    -0.732 N 
ATOM      8  C   UNL d   1      -5.999   5.509  -5.967  0.00  0.00     0.284 C 
ATOM      9  H3  UNL d   1      -6.671   6.156  -4.106  0.00  0.00     0.395 HD
ENDBRANCH   1   7
TORSDOF 1
ENDMDL
