MODEL 1
REMARK minimizedAffinity -1.70633972
REMARK minimizedRMSD -1
REMARK  1 active torsions:
REMARK  status: ('A' for Active; 'I' for Inactive)
REMARK    1  A    between atoms: N_2  and  C1_3 
ROOT
ATOM      1  C1  UNL d   1       0.313  -1.279  -1.910  0.00  0.00     0.143 A 
ATOM      2  C2  UNL d   1      -0.251  -1.886  -3.038  0.00  0.00    -0.057 A 
ATOM      3  C3  UNL d   1      -0.440  -3.272  -3.099  0.00  0.00     0.033 A 
ATOM      4  C4  UNL d   1      -0.040  -4.081  -2.041  0.00  0.00    -0.042 A 
ATOM      5  C5  UNL d   1       0.546  -3.503  -0.920  0.00  0.00     0.033 A 
ATOM      6  C6  UNL d   1       0.726  -2.118  -0.863  0.00  0.00    -0.057 A 
ENDROOT
BRANCH   1   7
ATOM      7  N   UNL d   1       0.617   0.082  -1.830  0.00  0.00    -0.732 N 
ATOM      8  C   UNL d   1       0.352   0.826  -0.617  0.00  0.00     0.284 C 
ATOM      9  H3  UNL d   1       1.507   0.308  -2.270  0.00  0.00     0.395 HD
ENDBRANCH   1   7
TORSDOF 1
ENDMDL
