MODEL 1
REMARK minimizedAffinity 3.34985256
REMARK minimizedRMSD -1
REMARK  0 active torsions:
REMARK  status: ('A' for Active; 'I' for Inactive)
ROOT
ATOM      1  C1  BNZ d   1       3.455  -3.986  -0.394  0.00  0.00     0.000 A 
ATOM      2  C2  BNZ d   1       4.355  -4.390   0.556  0.00  0.00     0.000 A 
ATOM      3  C3  BNZ d   1       4.351  -3.835   1.805  0.00  0.00     0.000 A 
ATOM      4  C4  BNZ d   1       3.475  -2.850   2.089  0.00  0.00     0.000 A 
ATOM      5  C5  BNZ d   1       2.567  -2.425   1.140  0.00  0.00     0.000 A 
ATOM      6  C6  BNZ d   1       2.549  -3.013  -0.104  0.00  0.00     0.000 A 
ENDROOT
TORSDOF 0
ENDMDL
