MODEL 1
REMARK minimizedAffinity -0.0283043571
REMARK minimizedRMSD -1
REMARK  0 active torsions:
REMARK  status: ('A' for Active; 'I' for Inactive)
ROOT
ATOM      1  C1  BNZ d   1       3.771  -4.099  -0.103  0.00  0.00     0.000 A 
ATOM      2  C2  BNZ d   1       4.742  -4.533   0.760  0.00  0.00     0.000 A 
ATOM      3  C3  BNZ d   1       4.582  -4.413   2.112  0.00  0.00     0.000 A 
ATOM      4  C4  BNZ d   1       3.470  -3.824   2.598  0.00  0.00     0.000 A 
ATOM      5  C5  BNZ d   1       2.486  -3.373   1.741  0.00  0.00     0.000 A 
ATOM      6  C6  BNZ d   1       2.634  -3.531   0.382  0.00  0.00     0.000 A 
ENDROOT
TORSDOF 0
ENDMDL
