MODEL 1
REMARK minimizedAffinity 3.79983187
REMARK minimizedRMSD -1
REMARK  0 active torsions:
REMARK  status: ('A' for Active; 'I' for Inactive)
ROOT
ATOM      1  C1  BNZ d   1       3.925   6.000  -5.999  0.00  0.00     0.000 A 
ATOM      2  C2  BNZ d   1       4.683   4.860  -5.976  0.00  0.00     0.000 A 
ATOM      3  C3  BNZ d   1       4.093   3.627  -5.965  0.00  0.00     0.000 A 
ATOM      4  C4  BNZ d   1       2.748   3.536  -5.935  0.00  0.00     0.000 A 
ATOM      5  C5  BNZ d   1       1.970   4.677  -5.947  0.00  0.00     0.000 A 
ATOM      6  C6  BNZ d   1       2.567   5.915  -5.999  0.00  0.00     0.000 A 
ENDROOT
TORSDOF 0
ENDMDL
