MODEL 1
REMARK minimizedAffinity -1.68742931
REMARK minimizedRMSD -1
REMARK  0 active torsions:
REMARK  status: ('A' for Active; 'I' for Inactive)
ROOT
ATOM      1  C1  BNZ d   1       3.499   3.623  -5.944  0.00  0.00     0.000 A 
ATOM      2  C2  BNZ d   1       2.881   4.845  -5.939  0.00  0.00     0.000 A 
ATOM      3  C3  BNZ d   1       3.612   6.000  -5.954  0.00  0.00     0.000 A 
ATOM      4  C4  BNZ d   1       4.959   5.932  -5.933  0.00  0.00     0.000 A 
ATOM      5  C5  BNZ d   1       5.597   4.707  -5.928  0.00  0.00     0.000 A 
ATOM      6  C6  BNZ d   1       4.858   3.547  -5.952  0.00  0.00     0.000 A 
ENDROOT
TORSDOF 0
ENDMDL
