MODEL 1
REMARK minimizedAffinity 3.02609801
REMARK minimizedRMSD -1
REMARK  0 active torsions:
REMARK  status: ('A' for Active; 'I' for Inactive)
ROOT
ATOM      1  C1  BNZ d   1       2.179   1.354  -5.278  0.00  0.00     0.000 A 
ATOM      2  C2  BNZ d   1       1.056   2.139  -5.269  0.00  0.00     0.000 A 
ATOM      3  C3  BNZ d   1       1.117   3.451  -5.648  0.00  0.00     0.000 A 
ATOM      4  C4  BNZ d   1       2.305   3.986  -5.995  0.00  0.00     0.000 A 
ATOM      5  C5  BNZ d   1       3.447   3.211  -6.000  0.00  0.00     0.000 A 
ATOM      6  C6  BNZ d   1       3.375   1.880  -5.656  0.00  0.00     0.000 A 
ENDROOT
TORSDOF 0
ENDMDL
