MODEL 1
REMARK minimizedAffinity -1.60703826
REMARK minimizedRMSD -1
REMARK  0 active torsions:
REMARK  status: ('A' for Active; 'I' for Inactive)
ROOT
ATOM      1  C1  BNZ d   1       4.914  -3.799   3.925  0.00  0.00     0.000 A 
ATOM      2  C2  BNZ d   1       4.523  -5.111   3.924  0.00  0.00     0.000 A 
ATOM      3  C3  BNZ d   1       4.840  -5.936   4.967  0.00  0.00     0.000 A 
ATOM      4  C4  BNZ d   1       5.580  -5.460   5.988  0.00  0.00     0.000 A 
ATOM      5  C5  BNZ d   1       5.990  -4.142   5.999  0.00  0.00     0.000 A 
ATOM      6  C6  BNZ d   1       5.636  -3.303   4.967  0.00  0.00     0.000 A 
ENDROOT
TORSDOF 0
ENDMDL
