MODEL 1
REMARK minimizedAffinity 6.49086189
REMARK minimizedRMSD -1
REMARK  0 active torsions:
REMARK  status: ('A' for Active; 'I' for Inactive)
ROOT
ATOM      1  C1  BNZ d   1      -5.887   1.951   3.705  0.00  0.00     0.000 A 
ATOM      2  C2  BNZ d   1      -5.156   2.329   4.800  0.00  0.00     0.000 A 
ATOM      3  C3  BNZ d   1      -3.790   2.288   4.778  0.00  0.00     0.000 A 
ATOM      4  C4  BNZ d   1      -3.158   1.832   3.678  0.00  0.00     0.000 A 
ATOM      5  C5  BNZ d   1      -3.881   1.439   2.569  0.00  0.00     0.000 A 
ATOM      6  C6  BNZ d   1      -5.255   1.518   2.581  0.00  0.00     0.000 A 
ENDROOT
TORSDOF 0
ENDMDL
