MODEL 1
REMARK minimizedAffinity 3.6673193
REMARK minimizedRMSD -1
REMARK  1 active torsions:
REMARK  status: ('A' for Active; 'I' for Inactive)
REMARK    1  A    between atoms: N_2  and  C1_3 
ROOT
ATOM      1  C1  UNL d   1      -2.235  -0.783  -0.689  0.00  0.00     0.143 A 
ATOM      2  C2  UNL d   1      -2.142  -1.679  -1.759  0.00  0.00    -0.057 A 
ATOM      3  C3  UNL d   1      -2.462  -1.287  -3.065  0.00  0.00     0.033 A 
ATOM      4  C4  UNL d   1      -2.910   0.005  -3.319  0.00  0.00    -0.042 A 
ATOM      5  C5  UNL d   1      -3.034   0.905  -2.267  0.00  0.00     0.033 A 
ATOM      6  C6  UNL d   1      -2.707   0.509  -0.966  0.00  0.00    -0.057 A 
ENDROOT
BRANCH   1   7
ATOM      7  N   UNL d   1      -2.026  -1.141   0.645  0.00  0.00    -0.732 N 
ATOM      8  C   UNL d   1      -1.138  -2.232   0.985  0.00  0.00     0.284 C 
ATOM      9  H3  UNL d   1      -1.942  -0.331   1.256  0.00  0.00     0.395 HD
ENDBRANCH   1   7
TORSDOF 1
ENDMDL
