MODEL 1
REMARK minimizedAffinity 13.5663586
REMARK minimizedRMSD -1
REMARK  1 active torsions:
REMARK  status: ('A' for Active; 'I' for Inactive)
REMARK    1  A    between atoms: N_2  and  C1_3 
ROOT
ATOM      1  C1  UNL d   1      -3.813   3.087  -2.893  0.00  0.00     0.143 A 
ATOM      2  C2  UNL d   1      -3.112   2.699  -4.040  0.00  0.00    -0.057 A 
ATOM      3  C3  UNL d   1      -2.642   1.389  -4.195  0.00  0.00     0.033 A 
ATOM      4  C4  UNL d   1      -2.840   0.449  -3.190  0.00  0.00    -0.042 A 
ATOM      5  C5  UNL d   1      -3.512   0.818  -2.031  0.00  0.00     0.033 A 
ATOM      6  C6  UNL d   1      -3.985   2.126  -1.884  0.00  0.00    -0.057 A 
ENDROOT
BRANCH   1   7
ATOM      7  N   UNL d   1      -4.219   4.398  -2.635  0.00  0.00    -0.732 N 
ATOM      8  C   UNL d   1      -5.556   4.675  -2.155  0.00  0.00     0.284 C 
ATOM      9  H3  UNL d   1      -3.493   4.948  -2.183  0.00  0.00     0.395 HD
ENDBRANCH   1   7
TORSDOF 1
ENDMDL
