MODEL 1
REMARK minimizedAffinity 9.17376232
REMARK minimizedRMSD -1
REMARK  1 active torsions:
REMARK  status: ('A' for Active; 'I' for Inactive)
REMARK    1  A    between atoms: N_2  and  C1_3 
ROOT
ATOM      1  C1  UNL d   1       1.505   4.818   0.160  0.00  0.00     0.143 A 
ATOM      2  C2  UNL d   1       0.748   5.992   0.233  0.00  0.00    -0.057 A 
ATOM      3  C3  UNL d   1      -0.530   5.998   0.805  0.00  0.00     0.033 A 
ATOM      4  C4  UNL d   1      -1.088   4.819   1.288  0.00  0.00    -0.042 A 
ATOM      5  C5  UNL d   1      -0.364   3.635   1.203  0.00  0.00     0.033 A 
ATOM      6  C6  UNL d   1       0.915   3.637   0.638  0.00  0.00    -0.057 A 
ENDROOT
BRANCH   1   7
ATOM      7  N   UNL d   1       2.741   4.727  -0.485  0.00  0.00    -0.732 N 
ATOM      8  C   UNL d   1       3.842   5.578  -0.089  0.00  0.00     0.284 C 
ATOM      9  H3  UNL d   1       3.008   3.765  -0.680  0.00  0.00     0.395 HD
ENDBRANCH   1   7
TORSDOF 1
ENDMDL
