MODEL 1
REMARK minimizedAffinity 19.1520672
REMARK minimizedRMSD -1
REMARK  1 active torsions:
REMARK  status: ('A' for Active; 'I' for Inactive)
REMARK    1  A    between atoms: N_2  and  C1_3 
ROOT
ATOM      1  C1  UNL d   1      -2.979   2.042  -3.375  0.00  0.00     0.143 A 
ATOM      2  C2  UNL d   1      -2.799   1.856  -2.000  0.00  0.00    -0.057 A 
ATOM      3  C3  UNL d   1      -2.381   0.623  -1.483  0.00  0.00     0.033 A 
ATOM      4  C4  UNL d   1      -2.165  -0.457  -2.332  0.00  0.00    -0.042 A 
ATOM      5  C5  UNL d   1      -2.363  -0.302  -3.700  0.00  0.00     0.033 A 
ATOM      6  C6  UNL d   1      -2.773   0.934  -4.211  0.00  0.00    -0.057 A 
ENDROOT
BRANCH   1   7
ATOM      7  N   UNL d   1      -3.487   3.214  -3.941  0.00  0.00    -0.732 N 
ATOM      8  C   UNL d   1      -4.319   4.108  -3.163  0.00  0.00     0.284 C 
ATOM      9  H3  UNL d   1      -2.807   3.687  -4.530  0.00  0.00     0.395 HD
ENDBRANCH   1   7
TORSDOF 1
ENDMDL
