MODEL 1
REMARK minimizedAffinity 5.09151983
REMARK minimizedRMSD -1
REMARK  1 active torsions:
REMARK  status: ('A' for Active; 'I' for Inactive)
REMARK    1  A    between atoms: N_2  and  C1_3 
ROOT
ATOM      1  C1  UNL d   1      -3.132   1.921  -3.016  0.00  0.00     0.143 A 
ATOM      2  C2  UNL d   1      -2.755   0.874  -3.864  0.00  0.00    -0.057 A 
ATOM      3  C3  UNL d   1      -2.253  -0.329  -3.354  0.00  0.00     0.033 A 
ATOM      4  C4  UNL d   1      -2.091  -0.496  -1.982  0.00  0.00    -0.042 A 
ATOM      5  C5  UNL d   1      -2.435   0.540  -1.122  0.00  0.00     0.033 A 
ATOM      6  C6  UNL d   1      -2.942   1.737  -1.638  0.00  0.00    -0.057 A 
ENDROOT
BRANCH   1   7
ATOM      7  N   UNL d   1      -3.545   3.177  -3.468  0.00  0.00    -0.732 N 
ATOM      8  C   UNL d   1      -4.218   4.096  -2.575  0.00  0.00     0.284 C 
ATOM      9  H3  UNL d   1      -2.857   3.616  -4.076  0.00  0.00     0.395 HD
ENDBRANCH   1   7
TORSDOF 1
ENDMDL
