MODEL 1
REMARK minimizedAffinity 3.76799369
REMARK minimizedRMSD -1
REMARK  1 active torsions:
REMARK  status: ('A' for Active; 'I' for Inactive)
REMARK    1  A    between atoms: N_2  and  C1_3 
ROOT
ATOM      1  C1  UNL d   1      -2.916   1.881  -3.671  0.00  0.00     0.143 A 
ATOM      2  C2  UNL d   1      -2.719   1.468  -2.349  0.00  0.00    -0.057 A 
ATOM      3  C3  UNL d   1      -2.453   0.129  -2.039  0.00  0.00     0.033 A 
ATOM      4  C4  UNL d   1      -2.408  -0.829  -3.046  0.00  0.00    -0.042 A 
ATOM      5  C5  UNL d   1      -2.626  -0.445  -4.365  0.00  0.00     0.033 A 
ATOM      6  C6  UNL d   1      -2.884   0.895  -4.669  0.00  0.00    -0.057 A 
ENDROOT
BRANCH   1   7
ATOM      7  N   UNL d   1      -3.282   3.180  -4.034  0.00  0.00    -0.732 N 
ATOM      8  C   UNL d   1      -4.067   4.002  -3.138  0.00  0.00     0.284 C 
ATOM      9  H3  UNL d   1      -2.529   3.678  -4.504  0.00  0.00     0.395 HD
ENDBRANCH   1   7
TORSDOF 1
ENDMDL
