MODEL 1
REMARK minimizedAffinity 6.67611361
REMARK minimizedRMSD -1
REMARK  1 active torsions:
REMARK  status: ('A' for Active; 'I' for Inactive)
REMARK    1  A    between atoms: N_2  and  C1_3 
ROOT
ATOM      1  C1  UNL d   1       0.943  -2.359   3.514  0.00  0.00     0.143 A 
ATOM      2  C2  UNL d   1       1.406  -1.049   3.344  0.00  0.00    -0.057 A 
ATOM      3  C3  UNL d   1       2.025  -0.356   4.391  0.00  0.00     0.033 A 
ATOM      4  C4  UNL d   1       2.167  -0.953   5.639  0.00  0.00    -0.042 A 
ATOM      5  C5  UNL d   1       1.693  -2.244   5.838  0.00  0.00     0.033 A 
ATOM      6  C6  UNL d   1       1.081  -2.934   4.787  0.00  0.00    -0.057 A 
ENDROOT
BRANCH   1   7
ATOM      7  N   UNL d   1       0.231  -3.065   2.541  0.00  0.00    -0.732 N 
ATOM      8  C   UNL d   1      -0.944  -2.488   1.924  0.00  0.00     0.284 C 
ATOM      9  H3  UNL d   1       0.842  -3.556   1.893  0.00  0.00     0.395 HD
ENDBRANCH   1   7
TORSDOF 1
ENDMDL
