MODEL 1
REMARK minimizedAffinity 3.30412579
REMARK minimizedRMSD -1
REMARK  1 active torsions:
REMARK  status: ('A' for Active; 'I' for Inactive)
REMARK    1  A    between atoms: N_2  and  C1_3 
ROOT
ATOM      1  C1  UNL d   1      -2.631   1.883  -3.194  0.00  0.00     0.143 A 
ATOM      2  C2  UNL d   1      -2.652   0.827  -4.111  0.00  0.00    -0.057 A 
ATOM      3  C3  UNL d   1      -2.182  -0.445  -3.764  0.00  0.00     0.033 A 
ATOM      4  C4  UNL d   1      -1.653  -0.677  -2.499  0.00  0.00    -0.042 A 
ATOM      5  C5  UNL d   1      -1.599   0.365  -1.579  0.00  0.00     0.033 A 
ATOM      6  C6  UNL d   1      -2.077   1.631  -1.929  0.00  0.00    -0.057 A 
ENDROOT
BRANCH   1   7
ATOM      7  N   UNL d   1      -2.994   3.195  -3.510  0.00  0.00    -0.732 N 
ATOM      8  C   UNL d   1      -3.691   4.019  -2.546  0.00  0.00     0.284 C 
ATOM      9  H3  UNL d   1      -2.268   3.684  -4.028  0.00  0.00     0.395 HD
ENDBRANCH   1   7
TORSDOF 1
ENDMDL
