MODEL 1
REMARK minimizedAffinity 8.94410801
REMARK minimizedRMSD -1
REMARK  1 active torsions:
REMARK  status: ('A' for Active; 'I' for Inactive)
REMARK    1  A    between atoms: N_2  and  C1_3 
ROOT
ATOM      1  C1  UNL d   1      -2.506  -1.317  -3.404  0.00  0.00     0.143 A 
ATOM      2  C2  UNL d   1      -3.129  -0.479  -4.335  0.00  0.00    -0.057 A 
ATOM      3  C3  UNL d   1      -2.928   0.906  -4.313  0.00  0.00     0.033 A 
ATOM      4  C4  UNL d   1      -2.120   1.483  -3.338  0.00  0.00    -0.042 A 
ATOM      5  C5  UNL d   1      -1.511   0.672  -2.387  0.00  0.00     0.033 A 
ATOM      6  C6  UNL d   1      -1.710  -0.712  -2.419  0.00  0.00    -0.057 A 
ENDROOT
BRANCH   1   7
ATOM      7  N   UNL d   1      -2.744  -2.691  -3.313  0.00  0.00    -0.732 N 
ATOM      8  C   UNL d   1      -3.951  -3.190  -2.691  0.00  0.00     0.284 C 
ATOM      9  H3  UNL d   1      -2.476  -3.189  -4.159  0.00  0.00     0.395 HD
ENDBRANCH   1   7
TORSDOF 1
ENDMDL
