MODEL 1
REMARK minimizedAffinity 4.17717075
REMARK minimizedRMSD -1
REMARK  1 active torsions:
REMARK  status: ('A' for Active; 'I' for Inactive)
REMARK    1  A    between atoms: N_2  and  C1_3 
ROOT
ATOM      1  C1  UNL d   1      -2.535   1.021  -2.890  0.00  0.00     0.143 A 
ATOM      2  C2  UNL d   1      -2.367   0.523  -4.186  0.00  0.00    -0.057 A 
ATOM      3  C3  UNL d   1      -1.628  -0.641  -4.427  0.00  0.00     0.033 A 
ATOM      4  C4  UNL d   1      -1.016  -1.314  -3.375  0.00  0.00    -0.042 A 
ATOM      5  C5  UNL d   1      -1.148  -0.824  -2.081  0.00  0.00     0.033 A 
ATOM      6  C6  UNL d   1      -1.893   0.336  -1.846  0.00  0.00    -0.057 A 
ENDROOT
BRANCH   1   7
ATOM      7  N   UNL d   1      -3.175   2.227  -2.596  0.00  0.00    -0.732 N 
ATOM      8  C   UNL d   1      -3.166   3.317  -3.548  0.00  0.00     0.284 C 
ATOM      9  H3  UNL d   1      -4.070   2.088  -2.131  0.00  0.00     0.395 HD
ENDBRANCH   1   7
TORSDOF 1
ENDMDL
