MODEL 1
REMARK minimizedAffinity 0.883674681
REMARK minimizedRMSD -1
REMARK  1 active torsions:
REMARK  status: ('A' for Active; 'I' for Inactive)
REMARK    1  A    between atoms: N_2  and  C1_3 
ROOT
ATOM      1  C1  UNL d   1       2.276   0.535   4.266  0.00  0.00     0.143 A 
ATOM      2  C2  UNL d   1       2.307  -0.633   5.035  0.00  0.00    -0.057 A 
ATOM      3  C3  UNL d   1       2.163  -1.895   4.445  0.00  0.00     0.033 A 
ATOM      4  C4  UNL d   1       1.954  -2.009   3.075  0.00  0.00    -0.042 A 
ATOM      5  C5  UNL d   1       1.894  -0.860   2.294  0.00  0.00     0.033 A 
ATOM      6  C6  UNL d   1       2.046   0.397   2.888  0.00  0.00    -0.057 A 
ENDROOT
BRANCH   1   7
ATOM      7  N   UNL d   1       2.315   1.823   4.806  0.00  0.00    -0.732 N 
ATOM      8  C   UNL d   1       3.088   2.099   5.998  0.00  0.00     0.284 C 
ATOM      9  H3  UNL d   1       2.384   2.542   4.090  0.00  0.00     0.395 HD
ENDBRANCH   1   7
TORSDOF 1
ENDMDL
