MODEL 1
REMARK minimizedAffinity 5.10209703
REMARK minimizedRMSD -1
REMARK  0 active torsions:
REMARK  status: ('A' for Active; 'I' for Inactive)
ROOT
ATOM      1  C   UNL d   1      -1.316  -2.792   0.485  0.00  0.00     0.023 A 
ATOM      2  C1  UNL d   1      -2.624  -2.317   0.582  0.00  0.00     0.003 A 
ATOM      3  C2  UNL d   1      -3.694  -3.213   0.597  0.00  0.00     0.048 A 
ATOM      4  C3  UNL d   1      -3.449  -4.584   0.515  0.00  0.00     0.023 A 
ATOM      5  C4  UNL d   1      -2.142  -5.064   0.418  0.00  0.00     0.048 A 
ATOM      6  C5  UNL d   1      -1.075  -4.163   0.403  0.00  0.00     0.003 A 
ATOM      7  I   UNL d   1      -5.041  -5.920   0.538  0.00  0.00    -0.146 I 
ENDROOT
TORSDOF 0
ENDMDL
