MODEL 1
REMARK minimizedAffinity 11.2025862
REMARK minimizedRMSD -1
REMARK  0 active torsions:
REMARK  status: ('A' for Active; 'I' for Inactive)
ROOT
ATOM      1  C   UNL d   1       4.257   3.441  -0.006  0.00  0.00     0.023 A 
ATOM      2  C1  UNL d   1       5.494   2.852  -0.268  0.00  0.00     0.003 A 
ATOM      3  C2  UNL d   1       5.996   1.868   0.588  0.00  0.00     0.048 A 
ATOM      4  C3  UNL d   1       5.255   1.478   1.702  0.00  0.00     0.023 A 
ATOM      5  C4  UNL d   1       4.016   2.064   1.968  0.00  0.00     0.048 A 
ATOM      6  C5  UNL d   1       3.519   3.047   1.110  0.00  0.00     0.003 A 
ATOM      7  I   UNL d   1       5.999   0.015   2.977  0.00  0.00    -0.146 I 
ENDROOT
TORSDOF 0
ENDMDL
