MODEL 1
REMARK minimizedAffinity 7.96947956
REMARK minimizedRMSD -1
REMARK  0 active torsions:
REMARK  status: ('A' for Active; 'I' for Inactive)
ROOT
ATOM      1  C   UNL d   1       3.253   2.619  -0.585  0.00  0.00     0.023 A 
ATOM      2  C1  UNL d   1       4.246   3.430  -0.035  0.00  0.00     0.003 A 
ATOM      3  C2  UNL d   1       4.522   3.367   1.332  0.00  0.00     0.048 A 
ATOM      4  C3  UNL d   1       3.801   2.491   2.144  0.00  0.00     0.023 A 
ATOM      5  C4  UNL d   1       2.807   1.678   1.597  0.00  0.00     0.048 A 
ATOM      6  C5  UNL d   1       2.534   1.745   0.230  0.00  0.00     0.003 A 
ATOM      7  I   UNL d   1       4.210   2.396   4.179  0.00  0.00    -0.146 I 
ENDROOT
TORSDOF 0
ENDMDL
