MODEL 1
REMARK minimizedAffinity 7.40751076
REMARK minimizedRMSD -1
REMARK  0 active torsions:
REMARK  status: ('A' for Active; 'I' for Inactive)
ROOT
ATOM      1  C   UNL d   1      -1.140  -2.669   2.417  0.00  0.00     0.023 A 
ATOM      2  C1  UNL d   1      -2.003  -1.587   2.245  0.00  0.00     0.003 A 
ATOM      3  C2  UNL d   1      -2.364  -1.179   0.959  0.00  0.00     0.048 A 
ATOM      4  C3  UNL d   1      -1.860  -1.858  -0.149  0.00  0.00     0.023 A 
ATOM      5  C4  UNL d   1      -0.997  -2.942   0.019  0.00  0.00     0.048 A 
ATOM      6  C5  UNL d   1      -0.637  -3.346   1.306  0.00  0.00     0.003 A 
ATOM      7  I   UNL d   1      -2.397  -1.253  -2.064  0.00  0.00    -0.146 I 
ENDROOT
TORSDOF 0
ENDMDL
