MODEL 1
REMARK minimizedAffinity 10.430068
REMARK minimizedRMSD -1
REMARK  0 active torsions:
REMARK  status: ('A' for Active; 'I' for Inactive)
ROOT
ATOM      1  C   UNL d   1       4.314  -0.982  -2.297  0.00  0.00     0.023 A 
ATOM      2  C1  UNL d   1       5.514  -1.123  -2.996  0.00  0.00     0.003 A 
ATOM      3  C2  UNL d   1       5.999  -0.069  -3.773  0.00  0.00     0.048 A 
ATOM      4  C3  UNL d   1       5.280   1.124  -3.846  0.00  0.00     0.023 A 
ATOM      5  C4  UNL d   1       4.080   1.270  -3.148  0.00  0.00     0.048 A 
ATOM      6  C5  UNL d   1       3.598   0.213  -2.373  0.00  0.00     0.003 A 
ATOM      7  I   UNL d   1       6.000   2.694  -5.001  0.00  0.00    -0.146 I 
ENDROOT
TORSDOF 0
ENDMDL
