MODEL 1
REMARK minimizedAffinity 2.76635838
REMARK minimizedRMSD -1
REMARK  0 active torsions:
REMARK  status: ('A' for Active; 'I' for Inactive)
ROOT
ATOM      1  C   UNL d   1      -5.462   4.316   2.063  0.00  0.00     0.023 A 
ATOM      2  C1  UNL d   1      -4.556   3.601   1.279  0.00  0.00     0.003 A 
ATOM      3  C2  UNL d   1      -4.186   4.083   0.022  0.00  0.00     0.048 A 
ATOM      4  C3  UNL d   1      -4.725   5.281  -0.446  0.00  0.00     0.023 A 
ATOM      5  C4  UNL d   1      -5.632   6.000   0.335  0.00  0.00     0.048 A 
ATOM      6  C5  UNL d   1      -6.000   5.514   1.591  0.00  0.00     0.003 A 
ATOM      7  I   UNL d   1      -4.176   6.000  -2.317  0.00  0.00    -0.146 I 
ENDROOT
TORSDOF 0
ENDMDL
