MODEL 1
REMARK minimizedAffinity 17.2538376
REMARK minimizedRMSD -1
REMARK  0 active torsions:
REMARK  status: ('A' for Active; 'I' for Inactive)
ROOT
ATOM      1  C   UNL d   1       3.365   1.489   1.125  0.00  0.00     0.023 A 
ATOM      2  C1  UNL d   1       4.080   2.222   2.073  0.00  0.00     0.003 A 
ATOM      3  C2  UNL d   1       4.511   3.516   1.776  0.00  0.00     0.048 A 
ATOM      4  C3  UNL d   1       4.223   4.072   0.530  0.00  0.00     0.023 A 
ATOM      5  C4  UNL d   1       3.508   3.343  -0.421  0.00  0.00     0.048 A 
ATOM      6  C5  UNL d   1       3.079   2.049  -0.120  0.00  0.00     0.003 A 
ATOM      7  I   UNL d   1       4.865   5.999   0.086  0.00  0.00    -0.146 I 
ENDROOT
TORSDOF 0
ENDMDL
