MODEL 1
REMARK minimizedAffinity 9.57173729
REMARK minimizedRMSD -1
REMARK  0 active torsions:
REMARK  status: ('A' for Active; 'I' for Inactive)
ROOT
ATOM      1  C   UNL d   1      -1.042  -2.628  -1.146  0.00  0.00     0.023 A 
ATOM      2  C1  UNL d   1      -1.948  -1.614  -0.839  0.00  0.00     0.003 A 
ATOM      3  C2  UNL d   1      -2.455  -1.498   0.457  0.00  0.00     0.048 A 
ATOM      4  C3  UNL d   1      -2.050  -2.399   1.441  0.00  0.00     0.023 A 
ATOM      5  C4  UNL d   1      -1.142  -3.415   1.138  0.00  0.00     0.048 A 
ATOM      6  C5  UNL d   1      -0.639  -3.528  -0.159  0.00  0.00     0.003 A 
ATOM      7  I   UNL d   1      -2.802  -2.228   3.371  0.00  0.00    -0.146 I 
ENDROOT
TORSDOF 0
ENDMDL
