MODEL 1
REMARK minimizedAffinity 8.77702236
REMARK minimizedRMSD -1
REMARK  0 active torsions:
REMARK  status: ('A' for Active; 'I' for Inactive)
ROOT
ATOM      1  C   UNL d   1      -5.431   4.325   1.585  0.00  0.00     0.023 A 
ATOM      2  C1  UNL d   1      -5.984   5.514   1.108  0.00  0.00     0.003 A 
ATOM      3  C2  UNL d   1      -5.625   5.996  -0.153  0.00  0.00     0.048 A 
ATOM      4  C3  UNL d   1      -4.714   5.284  -0.932  0.00  0.00     0.023 A 
ATOM      5  C4  UNL d   1      -4.158   4.094  -0.459  0.00  0.00     0.048 A 
ATOM      6  C5  UNL d   1      -4.519   3.616   0.802  0.00  0.00     0.003 A 
ATOM      7  I   UNL d   1      -4.179   6.000  -2.808  0.00  0.00    -0.146 I 
ENDROOT
TORSDOF 0
ENDMDL
