MODEL 1
REMARK minimizedAffinity 7.02214956
REMARK minimizedRMSD -1
REMARK  0 active torsions:
REMARK  status: ('A' for Active; 'I' for Inactive)
ROOT
ATOM      1  C   UNL d   1      -2.461  -2.236  -0.024  0.00  0.00     0.023 A 
ATOM      2  C1  UNL d   1      -2.671  -1.122  -0.837  0.00  0.00     0.003 A 
ATOM      3  C2  UNL d   1      -1.616  -0.591  -1.582  0.00  0.00     0.048 A 
ATOM      4  C3  UNL d   1      -0.354  -1.178  -1.510  0.00  0.00     0.023 A 
ATOM      5  C4  UNL d   1      -0.139  -2.293  -0.698  0.00  0.00     0.048 A 
ATOM      6  C5  UNL d   1      -1.196  -2.821   0.046  0.00  0.00     0.003 A 
ATOM      7  I   UNL d   1       1.218  -0.389  -2.617  0.00  0.00    -0.146 I 
ENDROOT
TORSDOF 0
ENDMDL
