MODEL 1
REMARK minimizedAffinity 15.9026814
REMARK minimizedRMSD -1
REMARK  0 active torsions:
REMARK  status: ('A' for Active; 'I' for Inactive)
ROOT
ATOM      1  C   UNL d   1       4.852   1.243   0.800  0.00  0.00     0.023 A 
ATOM      2  C1  UNL d   1       5.753   1.831  -0.088  0.00  0.00     0.003 A 
ATOM      3  C2  UNL d   1       5.667   3.197  -0.368  0.00  0.00     0.048 A 
ATOM      4  C3  UNL d   1       4.679   3.967   0.243  0.00  0.00     0.023 A 
ATOM      5  C4  UNL d   1       3.776   3.383   1.133  0.00  0.00     0.048 A 
ATOM      6  C5  UNL d   1       3.865   2.017   1.410  0.00  0.00     0.003 A 
ATOM      7  I   UNL d   1       4.549   6.000  -0.173  0.00  0.00    -0.146 I 
ENDROOT
TORSDOF 0
ENDMDL
