MODEL 1
REMARK minimizedAffinity 14.8919077
REMARK minimizedRMSD -1
REMARK  0 active torsions:
REMARK  status: ('A' for Active; 'I' for Inactive)
ROOT
ATOM      1  C   UNL d   1      -5.949   5.761  -4.994  0.00  0.00     0.023 A 
ATOM      2  C1  UNL d   1      -5.028   6.000  -3.974  0.00  0.00     0.003 A 
ATOM      3  C2  UNL d   1      -3.939   5.142  -3.800  0.00  0.00     0.048 A 
ATOM      4  C3  UNL d   1      -3.778   4.049  -4.651  0.00  0.00     0.023 A 
ATOM      5  C4  UNL d   1      -4.697   3.807  -5.673  0.00  0.00     0.048 A 
ATOM      6  C5  UNL d   1      -5.784   4.666  -5.842  0.00  0.00     0.003 A 
ATOM      7  I   UNL d   1      -2.159   2.771  -4.394  0.00  0.00    -0.146 I 
ENDROOT
TORSDOF 0
ENDMDL
