MODEL 1
REMARK minimizedAffinity 21.2069283
REMARK minimizedRMSD -1
REMARK  0 active torsions:
REMARK  status: ('A' for Active; 'I' for Inactive)
ROOT
ATOM      1  C   UNL d   1       4.411   4.344   1.190  0.00  0.00     0.023 A 
ATOM      2  C1  UNL d   1       4.589   4.423  -0.191  0.00  0.00     0.003 A 
ATOM      3  C2  UNL d   1       4.094   3.414  -1.020  0.00  0.00     0.048 A 
ATOM      4  C3  UNL d   1       3.420   2.329  -0.461  0.00  0.00     0.023 A 
ATOM      5  C4  UNL d   1       3.237   2.246   0.921  0.00  0.00     0.048 A 
ATOM      6  C5  UNL d   1       3.735   3.257   1.745  0.00  0.00     0.003 A 
ATOM      7  I   UNL d   1       2.681   0.827  -1.692  0.00  0.00    -0.146 I 
ENDROOT
TORSDOF 0
ENDMDL
