MODEL 1
REMARK minimizedAffinity 12.8636436
REMARK minimizedRMSD -1
REMARK  0 active torsions:
REMARK  status: ('A' for Active; 'I' for Inactive)
ROOT
ATOM      1  C   UNL d   1      -2.289  -0.837  -0.359  0.00  0.00     0.023 A 
ATOM      2  C1  UNL d   1      -2.663  -1.628   0.726  0.00  0.00     0.003 A 
ATOM      3  C2  UNL d   1      -2.139  -2.915   0.868  0.00  0.00     0.048 A 
ATOM      4  C3  UNL d   1      -1.240  -3.403  -0.080  0.00  0.00     0.023 A 
ATOM      5  C4  UNL d   1      -0.861  -2.614  -1.168  0.00  0.00     0.048 A 
ATOM      6  C5  UNL d   1      -1.389  -1.329  -1.305  0.00  0.00     0.003 A 
ATOM      7  I   UNL d   1      -0.458  -5.317   0.128  0.00  0.00    -0.146 I 
ENDROOT
TORSDOF 0
ENDMDL
