MODEL 1
REMARK minimizedAffinity 22.1657352
REMARK minimizedRMSD -1
REMARK  0 active torsions:
REMARK  status: ('A' for Active; 'I' for Inactive)
ROOT
ATOM      1  C   UNL d   1      -2.699  -1.518  -0.174  0.00  0.00     0.023 A 
ATOM      2  C1  UNL d   1      -1.463  -1.850  -0.729  0.00  0.00     0.003 A 
ATOM      3  C2  UNL d   1      -0.725  -2.914  -0.206  0.00  0.00     0.048 A 
ATOM      4  C3  UNL d   1      -1.229  -3.642   0.871  0.00  0.00     0.023 A 
ATOM      5  C4  UNL d   1      -2.465  -3.314   1.429  0.00  0.00     0.048 A 
ATOM      6  C5  UNL d   1      -3.199  -2.249   0.904  0.00  0.00     0.003 A 
ATOM      7  I   UNL d   1      -0.132  -5.226   1.651  0.00  0.00    -0.146 I 
ENDROOT
TORSDOF 0
ENDMDL
