MODEL 1
REMARK minimizedAffinity 19.2574005
REMARK minimizedRMSD -1
REMARK  0 active torsions:
REMARK  status: ('A' for Active; 'I' for Inactive)
ROOT
ATOM      1  C   UNL d   1       3.542   2.194   6.000  0.00  0.00     0.023 A 
ATOM      2  C1  UNL d   1       3.164   3.357   5.328  0.00  0.00     0.003 A 
ATOM      3  C2  UNL d   1       2.994   3.340   3.942  0.00  0.00     0.048 A 
ATOM      4  C3  UNL d   1       3.202   2.157   3.234  0.00  0.00     0.023 A 
ATOM      5  C4  UNL d   1       3.580   0.991   3.902  0.00  0.00     0.048 A 
ATOM      6  C5  UNL d   1       3.749   1.012   5.288  0.00  0.00     0.003 A 
ATOM      7  I   UNL d   1       2.949   2.130   1.172  0.00  0.00    -0.146 I 
ENDROOT
TORSDOF 0
ENDMDL
