MODEL 1
REMARK minimizedAffinity -0.978649616
REMARK minimizedRMSD -1
REMARK  0 active torsions:
REMARK  status: ('A' for Active; 'I' for Inactive)
ROOT
ATOM      1  C   UNL d   1      -0.999  -1.174   2.405  0.00  0.00    -0.002 A 
ATOM      2  C1  UNL d   1      -1.568  -0.414   1.392  0.00  0.00     0.010 A 
ATOM      3  C2  UNL d   1      -0.776   0.123   0.376  0.00  0.00     0.041 A 
ATOM      4  C3  UNL d   1       0.612  -0.120   0.393  0.00  0.00    -0.075 A 
ATOM      5  S   UNL d   1       1.779   0.437  -0.748  0.00  0.00     0.015 SA
ATOM      6  C4  UNL d   1       3.060  -0.322   0.081  0.00  0.00     0.022 A 
ATOM      7  C5  UNL d   1       2.627  -0.987   1.203  0.00  0.00     0.026 A 
ATOM      8  C6  UNL d   1       1.208  -0.882   1.402  0.00  0.00    -0.082 A 
ATOM      9  C7  UNL d   1       0.378  -1.413   2.418  0.00  0.00     0.045 A 
ENDROOT
TORSDOF 0
ENDMDL
