MODEL 1
REMARK minimizedAffinity -4.87647772
REMARK minimizedRMSD -1
REMARK  0 active torsions:
REMARK  status: ('A' for Active; 'I' for Inactive)
ROOT
ATOM      1  C   UNL d   1       1.921  -1.176   3.089  0.00  0.00    -0.002 A 
ATOM      2  C1  UNL d   1       0.786  -0.381   3.022  0.00  0.00     0.010 A 
ATOM      3  C2  UNL d   1       0.228  -0.042   1.788  0.00  0.00     0.041 A 
ATOM      4  C3  UNL d   1       0.835  -0.522   0.611  0.00  0.00    -0.075 A 
ATOM      5  S   UNL d   1       0.327  -0.237  -1.012  0.00  0.00     0.015 SA
ATOM      6  C4  UNL d   1       1.604  -1.165  -1.654  0.00  0.00     0.022 A 
ATOM      7  C5  UNL d   1       2.408  -1.687  -0.669  0.00  0.00     0.026 A 
ATOM      8  C6  UNL d   1       1.978  -1.326   0.652  0.00  0.00    -0.082 A 
ATOM      9  C7  UNL d   1       2.520  -1.651   1.919  0.00  0.00     0.045 A 
ENDROOT
TORSDOF 0
ENDMDL
