MODEL 1
REMARK minimizedAffinity 0.795134664
REMARK minimizedRMSD -1
REMARK  0 active torsions:
REMARK  status: ('A' for Active; 'I' for Inactive)
ROOT
ATOM      1  C   UNL d   1       2.651  -2.826   1.130  0.00  0.00    -0.002 A 
ATOM      2  C1  UNL d   1       2.713  -2.379  -0.182  0.00  0.00     0.010 A 
ATOM      3  C2  UNL d   1       1.780  -1.459  -0.663  0.00  0.00     0.041 A 
ATOM      4  C3  UNL d   1       0.775  -0.989   0.205  0.00  0.00    -0.075 A 
ATOM      5  S   UNL d   1      -0.473   0.141  -0.164  0.00  0.00     0.015 SA
ATOM      6  C4  UNL d   1      -1.117   0.058   1.412  0.00  0.00     0.022 A 
ATOM      7  C5  UNL d   1      -0.409  -0.806   2.213  0.00  0.00     0.026 A 
ATOM      8  C6  UNL d   1       0.693  -1.423   1.531  0.00  0.00    -0.082 A 
ATOM      9  C7  UNL d   1       1.654  -2.357   1.989  0.00  0.00     0.045 A 
ENDROOT
TORSDOF 0
ENDMDL
