MODEL 1
REMARK minimizedAffinity -4.29694176
REMARK minimizedRMSD -1
REMARK  0 active torsions:
REMARK  status: ('A' for Active; 'I' for Inactive)
ROOT
ATOM      1  C2' OXE d   1       0.848  -0.679   0.090  0.00  0.00     0.078 C 
ATOM      2  C1' OXE d   1      -0.822   1.432   0.886  0.00  0.00     0.078 C 
ATOM      3  C1  OXE d   1      -0.810   1.057  -0.575  0.00  0.00    -0.078 A 
ATOM      4  C2  OXE d   1       0.045   0.054  -0.963  0.00  0.00    -0.078 A 
ATOM      5  C3  OXE d   1       0.056  -0.368  -2.289  0.00  0.00     0.003 A 
ATOM      6  C4  OXE d   1      -0.683   0.321  -3.259  0.00  0.00    -0.002 A 
ATOM      7  C5  OXE d   1      -1.530   1.372  -2.891  0.00  0.00    -0.002 A 
ATOM      8  C6  OXE d   1      -1.638   1.724  -1.550  0.00  0.00     0.003 A 
ENDROOT
TORSDOF 0
ENDMDL
