MODEL 1
REMARK minimizedAffinity -4.62729979
REMARK minimizedRMSD -1
REMARK  0 active torsions:
REMARK  status: ('A' for Active; 'I' for Inactive)
ROOT
ATOM      1  C2' OXE d   1      -2.235   2.447  -0.984  0.00  0.00     0.078 C 
ATOM      2  C1' OXE d   1      -1.871   0.888  -3.290  0.00  0.00     0.078 C 
ATOM      3  C1  OXE d   1      -1.067   0.530  -2.065  0.00  0.00    -0.078 A 
ATOM      4  C2  OXE d   1      -1.217   1.328  -0.955  0.00  0.00    -0.078 A 
ATOM      5  C3  OXE d   1      -0.541   1.009   0.219  0.00  0.00     0.003 A 
ATOM      6  C4  OXE d   1       0.406  -0.022   0.234  0.00  0.00    -0.002 A 
ATOM      7  C5  OXE d   1       0.604  -0.821  -0.897  0.00  0.00    -0.002 A 
ATOM      8  C6  OXE d   1      -0.154  -0.586  -2.039  0.00  0.00     0.003 A 
ENDROOT
TORSDOF 0
ENDMDL
