MODEL 1
REMARK minimizedAffinity -5.78334379
REMARK minimizedRMSD -1
REMARK  0 active torsions:
REMARK  status: ('A' for Active; 'I' for Inactive)
ROOT
ATOM      1  C2' OXE d   1       1.195  -0.642  -0.953  0.00  0.00     0.078 C 
ATOM      2  C1' OXE d   1      -0.642   0.566   0.792  0.00  0.00     0.078 C 
ATOM      3  C1  OXE d   1      -0.159  -0.822   1.130  0.00  0.00    -0.078 A 
ATOM      4  C2  OXE d   1       0.704  -1.424   0.246  0.00  0.00    -0.078 A 
ATOM      5  C3  OXE d   1       1.222  -2.683   0.538  0.00  0.00     0.003 A 
ATOM      6  C4  OXE d   1       0.755  -3.403   1.644  0.00  0.00    -0.002 A 
ATOM      7  C5  OXE d   1      -0.154  -2.824   2.536  0.00  0.00    -0.002 A 
ATOM      8  C6  OXE d   1      -0.587  -1.521   2.317  0.00  0.00     0.003 A 
ENDROOT
TORSDOF 0
ENDMDL
