MODEL 1
REMARK minimizedAffinity -4.83882952
REMARK minimizedRMSD -1
REMARK  0 active torsions:
REMARK  status: ('A' for Active; 'I' for Inactive)
ROOT
ATOM      1  C2' OXE d   1      -0.779   0.973  -0.586  0.00  0.00     0.078 C 
ATOM      2  C1' OXE d   1      -1.163  -0.644   1.676  0.00  0.00     0.078 C 
ATOM      3  C1  OXE d   1      -0.037  -1.002   0.738  0.00  0.00    -0.078 A 
ATOM      4  C2  OXE d   1       0.114  -0.233  -0.391  0.00  0.00    -0.078 A 
ATOM      5  C3  OXE d   1       1.171  -0.486  -1.261  0.00  0.00     0.003 A 
ATOM      6  C4  OXE d   1       1.986  -1.610  -1.078  0.00  0.00    -0.002 A 
ATOM      7  C5  OXE d   1       1.824  -2.429   0.044  0.00  0.00    -0.002 A 
ATOM      8  C6  OXE d   1       0.846  -2.116   0.981  0.00  0.00     0.003 A 
ENDROOT
TORSDOF 0
ENDMDL
