MODEL 1
REMARK minimizedAffinity 0.66106838
REMARK minimizedRMSD -1
REMARK  0 active torsions:
REMARK  status: ('A' for Active; 'I' for Inactive)
ROOT
ATOM      1  C2' OXE d   1      -1.630   2.230   0.936  0.00  0.00     0.078 C 
ATOM      2  C1' OXE d   1      -2.226   1.701  -1.756  0.00  0.00     0.078 C 
ATOM      3  C1  OXE d   1      -1.210   0.819  -1.073  0.00  0.00    -0.078 A 
ATOM      4  C2  OXE d   1      -0.890   1.115   0.230  0.00  0.00    -0.078 A 
ATOM      5  C3  OXE d   1       0.001   0.300   0.923  0.00  0.00     0.003 A 
ATOM      6  C4  OXE d   1       0.688  -0.724   0.260  0.00  0.00    -0.002 A 
ATOM      7  C5  OXE d   1       0.407  -1.017  -1.079  0.00  0.00    -0.002 A 
ATOM      8  C6  OXE d   1      -0.569  -0.283  -1.746  0.00  0.00     0.003 A 
ENDROOT
TORSDOF 0
ENDMDL
