MODEL 1
REMARK minimizedAffinity -1.04687989
REMARK minimizedRMSD -1
REMARK  0 active torsions:
REMARK  status: ('A' for Active; 'I' for Inactive)
ROOT
ATOM      1  C2' OXE d   1      -0.817   0.350  -0.058  0.00  0.00     0.078 C 
ATOM      2  C1' OXE d   1       1.814  -0.464  -0.602  0.00  0.00     0.078 C 
ATOM      3  C1  OXE d   1       1.240  -0.800   0.751  0.00  0.00    -0.078 A 
ATOM      4  C2  OXE d   1      -0.032  -0.358   1.026  0.00  0.00    -0.078 A 
ATOM      5  C3  OXE d   1      -0.630  -0.688   2.238  0.00  0.00     0.003 A 
ATOM      6  C4  OXE d   1       0.106  -1.334   3.239  0.00  0.00    -0.002 A 
ATOM      7  C5  OXE d   1       1.416  -1.759   2.994  0.00  0.00    -0.002 A 
ATOM      8  C6  OXE d   1       1.982  -1.538   1.743  0.00  0.00     0.003 A 
ENDROOT
TORSDOF 0
ENDMDL
