MODEL 1
REMARK minimizedAffinity -2.3355968
REMARK minimizedRMSD -1
REMARK  0 active torsions:
REMARK  status: ('A' for Active; 'I' for Inactive)
ROOT
ATOM      1  C2' OXE d   1      -0.299  -1.010   2.372  0.00  0.00     0.078 C 
ATOM      2  C1' OXE d   1       2.078  -1.896   1.170  0.00  0.00     0.078 C 
ATOM      3  C1  OXE d   1       1.236  -0.900   0.413  0.00  0.00    -0.078 A 
ATOM      4  C2  OXE d   1       0.051  -0.507   0.988  0.00  0.00    -0.078 A 
ATOM      5  C3  OXE d   1      -0.737   0.451   0.357  0.00  0.00     0.003 A 
ATOM      6  C4  OXE d   1      -0.410   0.904  -0.927  0.00  0.00    -0.002 A 
ATOM      7  C5  OXE d   1       0.772   0.486  -1.548  0.00  0.00    -0.002 A 
ATOM      8  C6  OXE d   1       1.626  -0.381  -0.874  0.00  0.00     0.003 A 
ENDROOT
TORSDOF 0
ENDMDL
