MODEL 1
REMARK minimizedAffinity -5.10117054
REMARK minimizedRMSD -1
REMARK  0 active torsions:
REMARK  status: ('A' for Active; 'I' for Inactive)
ROOT
ATOM      1  C2' OXE d   1       0.712  -3.270   1.196  0.00  0.00     0.078 C 
ATOM      2  C1' OXE d   1      -0.391  -1.573   3.140  0.00  0.00     0.078 C 
ATOM      3  C1  OXE d   1      -0.303  -1.058   1.725  0.00  0.00    -0.078 A 
ATOM      4  C2  OXE d   1       0.281  -1.878   0.790  0.00  0.00    -0.078 A 
ATOM      5  C3  OXE d   1       0.339  -1.473  -0.541  0.00  0.00     0.003 A 
ATOM      6  C4  OXE d   1      -0.053  -0.180  -0.907  0.00  0.00    -0.002 A 
ATOM      7  C5  OXE d   1      -0.614   0.686   0.039  0.00  0.00    -0.002 A 
ATOM      8  C6  OXE d   1      -0.785   0.248   1.347  0.00  0.00     0.003 A 
ENDROOT
TORSDOF 0
ENDMDL
