MODEL 1
REMARK minimizedAffinity -4.79791832
REMARK minimizedRMSD -1
REMARK  0 active torsions:
REMARK  status: ('A' for Active; 'I' for Inactive)
ROOT
ATOM      1  C2' OXE d   1       1.917  -0.405  -0.896  0.00  0.00     0.078 C 
ATOM      2  C1' OXE d   1       1.350  -2.461   0.929  0.00  0.00     0.078 C 
ATOM      3  C1  OXE d   1       0.475  -1.233   0.959  0.00  0.00    -0.078 A 
ATOM      4  C2  OXE d   1       0.789  -0.212   0.094  0.00  0.00    -0.078 A 
ATOM      5  C3  OXE d   1      -0.019   0.920   0.042  0.00  0.00     0.003 A 
ATOM      6  C4  OXE d   1      -1.054   1.096   0.968  0.00  0.00    -0.002 A 
ATOM      7  C5  OXE d   1      -1.366   0.085   1.884  0.00  0.00    -0.002 A 
ATOM      8  C6  OXE d   1      -0.639  -1.100   1.864  0.00  0.00     0.003 A 
ENDROOT
TORSDOF 0
ENDMDL
