MODEL 1
REMARK minimizedAffinity -2.77180243
REMARK minimizedRMSD -1
REMARK  0 active torsions:
REMARK  status: ('A' for Active; 'I' for Inactive)
ROOT
ATOM      1  C2' OXE d   1      -0.322   0.579  -0.985  0.00  0.00     0.078 C 
ATOM      2  C1' OXE d   1       2.440   1.029  -0.765  0.00  0.00     0.078 C 
ATOM      3  C1  OXE d   1       1.898  -0.282  -0.253  0.00  0.00    -0.078 A 
ATOM      4  C2  OXE d   1       0.539  -0.474  -0.322  0.00  0.00    -0.078 A 
ATOM      5  C3  OXE d   1      -0.007  -1.688   0.086  0.00  0.00     0.003 A 
ATOM      6  C4  OXE d   1       0.795  -2.653   0.707  0.00  0.00    -0.002 A 
ATOM      7  C5  OXE d   1       2.176  -2.461   0.824  0.00  0.00    -0.002 A 
ATOM      8  C6  OXE d   1       2.748  -1.301   0.311  0.00  0.00     0.003 A 
ENDROOT
TORSDOF 0
ENDMDL
