MODEL 1
REMARK minimizedAffinity -3.74255824
REMARK minimizedRMSD -1
REMARK  0 active torsions:
REMARK  status: ('A' for Active; 'I' for Inactive)
ROOT
ATOM      1  C2' OXE d   1       1.936   0.665  -1.049  0.00  0.00     0.078 C 
ATOM      2  C1' OXE d   1      -0.840   0.701  -0.632  0.00  0.00     0.078 C 
ATOM      3  C1  OXE d   1      -0.045  -0.407   0.013  0.00  0.00    -0.078 A 
ATOM      4  C2  OXE d   1       1.306  -0.444  -0.234  0.00  0.00    -0.078 A 
ATOM      5  C3  OXE d   1       2.093  -1.413   0.381  0.00  0.00     0.003 A 
ATOM      6  C4  OXE d   1       1.501  -2.440   1.124  0.00  0.00    -0.002 A 
ATOM      7  C5  OXE d   1       0.121  -2.445   1.356  0.00  0.00    -0.002 A 
ATOM      8  C6  OXE d   1      -0.659  -1.414   0.844  0.00  0.00     0.003 A 
ENDROOT
TORSDOF 0
ENDMDL
