MODEL 1
REMARK minimizedAffinity -3.00390697
REMARK minimizedRMSD -1
REMARK  0 active torsions:
REMARK  status: ('A' for Active; 'I' for Inactive)
ROOT
ATOM      1  C2' OXE d   1      -1.975  -1.494   2.281  0.00  0.00     0.078 C 
ATOM      2  C1' OXE d   1       0.135  -2.825   0.995  0.00  0.00     0.078 C 
ATOM      3  C1  OXE d   1      -0.091  -1.373   0.656  0.00  0.00    -0.078 A 
ATOM      4  C2  OXE d   1      -1.155  -0.742   1.255  0.00  0.00    -0.078 A 
ATOM      5  C3  OXE d   1      -1.376   0.611   1.019  0.00  0.00     0.003 A 
ATOM      6  C4  OXE d   1      -0.619   1.297   0.061  0.00  0.00    -0.002 A 
ATOM      7  C5  OXE d   1       0.444   0.662  -0.590  0.00  0.00    -0.002 A 
ATOM      8  C6  OXE d   1       0.747  -0.657  -0.274  0.00  0.00     0.003 A 
ENDROOT
TORSDOF 0
ENDMDL
