MODEL 1
REMARK minimizedAffinity 0.628764868
REMARK minimizedRMSD -1
REMARK  0 active torsions:
REMARK  status: ('A' for Active; 'I' for Inactive)
ROOT
ATOM      1  C2' OXE d   1       1.954  -0.859   0.638  0.00  0.00     0.078 C 
ATOM      2  C1' OXE d   1       2.397   1.893   0.301  0.00  0.00     0.078 C 
ATOM      3  C1  OXE d   1       1.020   1.359  -0.005  0.00  0.00    -0.078 A 
ATOM      4  C2  OXE d   1       0.825   0.004   0.118  0.00  0.00    -0.078 A 
ATOM      5  C3  OXE d   1      -0.441  -0.532  -0.100  0.00  0.00     0.003 A 
ATOM      6  C4  OXE d   1      -1.477   0.271  -0.591  0.00  0.00    -0.002 A 
ATOM      7  C5  OXE d   1      -1.288   1.647  -0.761  0.00  0.00    -0.002 A 
ATOM      8  C6  OXE d   1      -0.061   2.212  -0.433  0.00  0.00     0.003 A 
ENDROOT
TORSDOF 0
ENDMDL
