MODEL 1
REMARK minimizedAffinity -2.40897489
REMARK minimizedRMSD -1
REMARK  0 active torsions:
REMARK  status: ('A' for Active; 'I' for Inactive)
ROOT
ATOM      1  C2' OXE d   1       1.266  -0.372  -2.017  0.00  0.00     0.078 C 
ATOM      2  C1' OXE d   1       1.194  -1.476   0.563  0.00  0.00     0.078 C 
ATOM      3  C1  OXE d   1       0.171  -0.423   0.220  0.00  0.00    -0.078 A 
ATOM      4  C2  OXE d   1       0.242   0.146  -1.029  0.00  0.00    -0.078 A 
ATOM      5  C3  OXE d   1      -0.711   1.083  -1.416  0.00  0.00     0.003 A 
ATOM      6  C4  OXE d   1      -1.648   1.563  -0.493  0.00  0.00    -0.002 A 
ATOM      7  C5  OXE d   1      -1.713   1.026   0.797  0.00  0.00    -0.002 A 
ATOM      8  C6  OXE d   1      -0.840   0.005   1.155  0.00  0.00     0.003 A 
ENDROOT
TORSDOF 0
ENDMDL
