MODEL 1
REMARK minimizedAffinity -3.16052842
REMARK minimizedRMSD -1
REMARK  0 active torsions:
REMARK  status: ('A' for Active; 'I' for Inactive)
ROOT
ATOM      1  C2' OXE d   1       1.482  -2.361   1.108  0.00  0.00     0.078 C 
ATOM      2  C1' OXE d   1       2.631  -0.575  -0.726  0.00  0.00     0.078 C 
ATOM      3  C1  OXE d   1       1.307  -0.196  -0.111  0.00  0.00    -0.078 A 
ATOM      4  C2  OXE d   1       0.729  -1.098   0.750  0.00  0.00    -0.078 A 
ATOM      5  C3  OXE d   1      -0.466  -0.775   1.387  0.00  0.00     0.003 A 
ATOM      6  C4  OXE d   1      -1.160   0.391   1.042  0.00  0.00    -0.002 A 
ATOM      7  C5  OXE d   1      -0.609   1.304   0.137  0.00  0.00    -0.002 A 
ATOM      8  C6  OXE d   1       0.641   1.046  -0.415  0.00  0.00     0.003 A 
ENDROOT
TORSDOF 0
ENDMDL
