MODEL 1
REMARK minimizedAffinity -1.47544312
REMARK minimizedRMSD -1
REMARK  0 active torsions:
REMARK  status: ('A' for Active; 'I' for Inactive)
ROOT
ATOM      1  C2' OXE d   1      -1.905   2.829  -1.883  0.00  0.00     0.078 C 
ATOM      2  C1' OXE d   1      -1.838   0.505  -3.455  0.00  0.00     0.078 C 
ATOM      3  C1  OXE d   1      -1.252   0.432  -2.067  0.00  0.00    -0.078 A 
ATOM      4  C2  OXE d   1      -1.248   1.587  -1.322  0.00  0.00    -0.078 A 
ATOM      5  C3  OXE d   1      -0.769   1.562  -0.015  0.00  0.00     0.003 A 
ATOM      6  C4  OXE d   1      -0.154   0.412   0.492  0.00  0.00    -0.002 A 
ATOM      7  C5  OXE d   1      -0.112  -0.764  -0.264  0.00  0.00    -0.002 A 
ATOM      8  C6  OXE d   1      -0.694  -0.782  -1.527  0.00  0.00     0.003 A 
ENDROOT
TORSDOF 0
ENDMDL
