MODEL 1
REMARK minimizedAffinity -3.31636882
REMARK minimizedRMSD -1
REMARK  3 active torsions:
REMARK  status: ('A' for Active; 'I' for Inactive)
REMARK    1  A    between atoms: C3'_2  and  C2'_3 
REMARK    2  A    between atoms: C2'_3  and  C1'_4 
REMARK    3  A    between atoms: C1'_4  and  C1_5 
ROOT
ATOM      1  C1  N4B d   1      -1.979   0.961  -0.930  0.00  0.00    -0.075 A 
ATOM      2  C2  N4B d   1      -0.704   1.550  -0.783  0.00  0.00     0.002 A 
ATOM      3  C3  N4B d   1       0.264   0.915  -0.044  0.00  0.00     0.002 A 
ATOM      4  C4  N4B d   1      -0.024  -0.295   0.569  0.00  0.00    -0.004 A 
ATOM      5  C5  N4B d   1      -1.250  -0.869   0.402  0.00  0.00     0.002 A 
ATOM      6  C6  N4B d   1      -2.232  -0.244  -0.341  0.00  0.00     0.002 A 
ENDROOT
BRANCH   1   7
ATOM      7  C1' N4B d   1      -3.097   1.659  -1.656  0.00  0.00     0.057 C 
BRANCH   7   8
ATOM      8  C2' N4B d   1      -2.593   2.127  -3.018  0.00  0.00     0.009 C 
BRANCH   8   9
ATOM      9  C3' N4B d   1      -3.087   3.523  -3.357  0.00  0.00     0.004 C 
ATOM     10  C4' N4B d   1      -3.772   4.193  -2.204  0.00  0.00     0.003 C 
ENDBRANCH   8   9
ENDBRANCH   7   8
ENDBRANCH   1   7
TORSDOF 3
ENDMDL
