MODEL 1
REMARK minimizedAffinity -5.86650133
REMARK minimizedRMSD -1
REMARK  3 active torsions:
REMARK  status: ('A' for Active; 'I' for Inactive)
REMARK    1  A    between atoms: C3'_2  and  C2'_3 
REMARK    2  A    between atoms: C2'_3  and  C1'_4 
REMARK    3  A    between atoms: C1'_4  and  C1_5 
ROOT
ATOM      1  C1  N4B d   1       0.635  -0.417   0.054  0.00  0.00    -0.075 A 
ATOM      2  C2  N4B d   1       1.521   0.672   0.210  0.00  0.00     0.002 A 
ATOM      3  C3  N4B d   1       2.750   0.478   0.794  0.00  0.00     0.002 A 
ATOM      4  C4  N4B d   1       3.104  -0.785   1.244  0.00  0.00    -0.004 A 
ATOM      5  C5  N4B d   1       2.252  -1.836   1.066  0.00  0.00     0.002 A 
ATOM      6  C6  N4B d   1       1.017  -1.657   0.477  0.00  0.00     0.002 A 
ENDROOT
BRANCH   1   7
ATOM      7  C1' N4B d   1      -0.752  -0.238  -0.500  0.00  0.00     0.057 C 
BRANCH   7   8
ATOM      8  C2' N4B d   1      -0.779  -0.720  -1.947  0.00  0.00     0.009 C 
BRANCH   8   9
ATOM      9  C3' N4B d   1      -2.161  -0.589  -2.564  0.00  0.00     0.004 C 
ATOM     10  C4' N4B d   1      -2.180   0.318  -3.759  0.00  0.00     0.003 C 
ENDBRANCH   8   9
ENDBRANCH   7   8
ENDBRANCH   1   7
TORSDOF 3
ENDMDL
