MODEL 1
REMARK minimizedAffinity -2.85044599
REMARK minimizedRMSD -1
REMARK  3 active torsions:
REMARK  status: ('A' for Active; 'I' for Inactive)
REMARK    1  A    between atoms: C3'_2  and  C2'_3 
REMARK    2  A    between atoms: C2'_3  and  C1'_4 
REMARK    3  A    between atoms: C1'_4  and  C1_5 
ROOT
ATOM      1  C1  N4B d   1      -1.006   0.362  -0.672  0.00  0.00    -0.075 A 
ATOM      2  C2  N4B d   1      -0.806  -0.681   0.258  0.00  0.00     0.002 A 
ATOM      3  C3  N4B d   1       0.345  -0.722   1.007  0.00  0.00     0.002 A 
ATOM      4  C4  N4B d   1       1.313   0.255   0.831  0.00  0.00    -0.004 A 
ATOM      5  C5  N4B d   1       1.100   1.274  -0.051  0.00  0.00     0.002 A 
ATOM      6  C6  N4B d   1      -0.053   1.330  -0.808  0.00  0.00     0.002 A 
ENDROOT
BRANCH   1   7
ATOM      7  C1' N4B d   1      -2.209   0.402  -1.574  0.00  0.00     0.057 C 
BRANCH   7   8
ATOM      8  C2' N4B d   1      -1.763   0.765  -2.988  0.00  0.00     0.009 C 
BRANCH   8   9
ATOM      9  C3' N4B d   1      -2.247  -0.246  -4.013  0.00  0.00     0.004 C 
ATOM     10  C4' N4B d   1      -2.956  -1.411  -3.391  0.00  0.00     0.003 C 
ENDBRANCH   8   9
ENDBRANCH   7   8
ENDBRANCH   1   7
TORSDOF 3
ENDMDL
