MODEL 1
REMARK minimizedAffinity -0.242264509
REMARK minimizedRMSD -1
REMARK  3 active torsions:
REMARK  status: ('A' for Active; 'I' for Inactive)
REMARK    1  A    between atoms: C3'_2  and  C2'_3 
REMARK    2  A    between atoms: C2'_3  and  C1'_4 
REMARK    3  A    between atoms: C1'_4  and  C1_5 
ROOT
ATOM      1  C1  N4B d   1       1.356   3.015   0.123  0.00  0.00    -0.075 A 
ATOM      2  C2  N4B d   1       0.778   2.288   1.187  0.00  0.00     0.002 A 
ATOM      3  C3  N4B d   1       0.002   1.186   0.923  0.00  0.00     0.002 A 
ATOM      4  C4  N4B d   1      -0.224   0.804  -0.391  0.00  0.00    -0.004 A 
ATOM      5  C5  N4B d   1       0.359   1.497  -1.412  0.00  0.00     0.002 A 
ATOM      6  C6  N4B d   1       1.144   2.604  -1.162  0.00  0.00     0.002 A 
ENDROOT
BRANCH   1   7
ATOM      7  C1' N4B d   1       2.140   4.277   0.357  0.00  0.00     0.057 C 
BRANCH   7   8
ATOM      8  C2' N4B d   1       3.506   3.918   0.935  0.00  0.00     0.009 C 
BRANCH   8   9
ATOM      9  C3' N4B d   1       3.443   3.674   2.433  0.00  0.00     0.004 C 
ATOM     10  C4' N4B d   1       4.721   4.029   3.133  0.00  0.00     0.003 C 
ENDBRANCH   8   9
ENDBRANCH   7   8
ENDBRANCH   1   7
TORSDOF 3
ENDMDL
