MODEL 1
REMARK minimizedAffinity 3.27884746
REMARK minimizedRMSD -1
REMARK  3 active torsions:
REMARK  status: ('A' for Active; 'I' for Inactive)
REMARK    1  A    between atoms: C3'_2  and  C2'_3 
REMARK    2  A    between atoms: C2'_3  and  C1'_4 
REMARK    3  A    between atoms: C1'_4  and  C1_5 
ROOT
ATOM      1  C1  N4B d   1      -1.092   3.583  -5.926  0.00  0.00    -0.075 A 
ATOM      2  C2  N4B d   1      -0.958   4.988  -5.969  0.00  0.00     0.002 A 
ATOM      3  C3  N4B d   1      -2.077   5.784  -5.995  0.00  0.00     0.002 A 
ATOM      4  C4  N4B d   1      -3.335   5.199  -5.997  0.00  0.00    -0.004 A 
ATOM      5  C5  N4B d   1      -3.455   3.842  -5.929  0.00  0.00     0.002 A 
ATOM      6  C6  N4B d   1      -2.340   3.030  -5.899  0.00  0.00     0.002 A 
ENDROOT
BRANCH   1   7
ATOM      7  C1' N4B d   1       0.102   2.669  -5.983  0.00  0.00     0.057 C 
BRANCH   7   8
ATOM      8  C2' N4B d   1       1.376   3.508  -5.973  0.00  0.00     0.009 C 
BRANCH   8   9
ATOM      9  C3' N4B d   1       2.625   2.645  -5.999  0.00  0.00     0.004 C 
ATOM     10  C4' N4B d   1       3.886   3.444  -5.855  0.00  0.00     0.003 C 
ENDBRANCH   8   9
ENDBRANCH   7   8
ENDBRANCH   1   7
TORSDOF 3
ENDMDL
