MODEL 1
REMARK minimizedAffinity -1.34133005
REMARK minimizedRMSD -1
REMARK  3 active torsions:
REMARK  status: ('A' for Active; 'I' for Inactive)
REMARK    1  A    between atoms: C3'_2  and  C2'_3 
REMARK    2  A    between atoms: C2'_3  and  C1'_4 
REMARK    3  A    between atoms: C1'_4  and  C1_5 
ROOT
ATOM      1  C1  N4B d   1      -0.883   3.387  -5.963  0.00  0.00    -0.075 A 
ATOM      2  C2  N4B d   1      -2.118   2.701  -5.961  0.00  0.00     0.002 A 
ATOM      3  C3  N4B d   1      -3.296   3.407  -5.956  0.00  0.00     0.002 A 
ATOM      4  C4  N4B d   1      -3.264   4.793  -5.934  0.00  0.00    -0.004 A 
ATOM      5  C5  N4B d   1      -2.068   5.449  -5.961  0.00  0.00     0.002 A 
ATOM      6  C6  N4B d   1      -0.877   4.752  -5.971  0.00  0.00     0.002 A 
ENDROOT
BRANCH   1   7
ATOM      7  C1' N4B d   1       0.430   2.659  -5.882  0.00  0.00     0.057 C 
BRANCH   7   8
ATOM      8  C2' N4B d   1       1.569   3.671  -5.950  0.00  0.00     0.009 C 
BRANCH   8   9
ATOM      9  C3' N4B d   1       2.929   2.995  -6.000  0.00  0.00     0.004 C 
ATOM     10  C4' N4B d   1       4.065   3.973  -5.985  0.00  0.00     0.003 C 
ENDBRANCH   8   9
ENDBRANCH   7   8
ENDBRANCH   1   7
TORSDOF 3
ENDMDL
