MODEL 1
REMARK minimizedAffinity 2.08593345
REMARK minimizedRMSD -1
REMARK  3 active torsions:
REMARK  status: ('A' for Active; 'I' for Inactive)
REMARK    1  A    between atoms: C3'_2  and  C2'_3 
REMARK    2  A    between atoms: C2'_3  and  C1'_4 
REMARK    3  A    between atoms: C1'_4  and  C1_5 
ROOT
ATOM      1  C1  N4B d   1      -1.863   3.609  -5.934  0.00  0.00    -0.075 A 
ATOM      2  C2  N4B d   1      -3.264   3.614  -5.757  0.00  0.00     0.002 A 
ATOM      3  C3  N4B d   1      -3.937   4.805  -5.636  0.00  0.00     0.002 A 
ATOM      4  C4  N4B d   1      -3.231   5.998  -5.670  0.00  0.00    -0.004 A 
ATOM      5  C5  N4B d   1      -1.881   5.986  -5.867  0.00  0.00     0.002 A 
ATOM      6  C6  N4B d   1      -1.192   4.797  -5.994  0.00  0.00     0.002 A 
ENDROOT
BRANCH   1   7
ATOM      7  C1' N4B d   1      -1.073   2.330  -5.985  0.00  0.00     0.057 C 
BRANCH   7   8
ATOM      8  C2' N4B d   1       0.417   2.662  -5.996  0.00  0.00     0.009 C 
BRANCH   8   9
ATOM      9  C3' N4B d   1       1.277   1.410  -5.996  0.00  0.00     0.004 C 
ATOM     10  C4' N4B d   1       2.742   1.713  -5.888  0.00  0.00     0.003 C 
ENDBRANCH   8   9
ENDBRANCH   7   8
ENDBRANCH   1   7
TORSDOF 3
ENDMDL
