MODEL 1
REMARK minimizedAffinity -2.9632237
REMARK minimizedRMSD -1
REMARK  3 active torsions:
REMARK  status: ('A' for Active; 'I' for Inactive)
REMARK    1  A    between atoms: C3'_2  and  C2'_3 
REMARK    2  A    between atoms: C2'_3  and  C1'_4 
REMARK    3  A    between atoms: C1'_4  and  C1_5 
ROOT
ATOM      1  C1  N4B d   1       1.972   4.764  -5.925  0.00  0.00    -0.075 A 
ATOM      2  C2  N4B d   1       2.124   3.362  -5.985  0.00  0.00     0.002 A 
ATOM      3  C3  N4B d   1       3.380   2.807  -5.999  0.00  0.00     0.002 A 
ATOM      4  C4  N4B d   1       4.495   3.632  -5.974  0.00  0.00    -0.004 A 
ATOM      5  C5  N4B d   1       4.340   4.984  -5.890  0.00  0.00     0.002 A 
ATOM      6  C6  N4B d   1       3.083   5.556  -5.870  0.00  0.00     0.002 A 
ENDROOT
BRANCH   1   7
ATOM      7  C1' N4B d   1       0.621   5.421  -5.994  0.00  0.00     0.057 C 
BRANCH   7   8
ATOM      8  C2' N4B d   1      -0.461   4.358  -5.825  0.00  0.00     0.009 C 
BRANCH   8   9
ATOM      9  C3' N4B d   1      -1.848   4.971  -5.720  0.00  0.00     0.004 C 
ATOM     10  C4' N4B d   1      -2.942   3.978  -5.976  0.00  0.00     0.003 C 
ENDBRANCH   8   9
ENDBRANCH   7   8
ENDBRANCH   1   7
TORSDOF 3
ENDMDL
