MODEL 1
REMARK minimizedAffinity -3.11829782
REMARK minimizedRMSD -1
REMARK  3 active torsions:
REMARK  status: ('A' for Active; 'I' for Inactive)
REMARK    1  A    between atoms: C3'_2  and  C2'_3 
REMARK    2  A    between atoms: C2'_3  and  C1'_4 
REMARK    3  A    between atoms: C1'_4  and  C1_5 
ROOT
ATOM      1  C1  N4B d   1      -1.676   4.116  -5.943  0.00  0.00    -0.075 A 
ATOM      2  C2  N4B d   1      -2.804   3.268  -5.997  0.00  0.00     0.002 A 
ATOM      3  C3  N4B d   1      -4.068   3.804  -5.954  0.00  0.00     0.002 A 
ATOM      4  C4  N4B d   1      -4.228   5.176  -5.838  0.00  0.00    -0.004 A 
ATOM      5  C5  N4B d   1      -3.133   5.990  -5.811  0.00  0.00     0.002 A 
ATOM      6  C6  N4B d   1      -1.857   5.466  -5.858  0.00  0.00     0.002 A 
ENDROOT
BRANCH   1   7
ATOM      7  C1' N4B d   1      -0.274   3.572  -5.900  0.00  0.00     0.057 C 
BRANCH   7   8
ATOM      8  C2' N4B d   1       0.715   4.733  -5.903  0.00  0.00     0.009 C 
BRANCH   8   9
ATOM      9  C3' N4B d   1       2.153   4.255  -5.999  0.00  0.00     0.004 C 
ATOM     10  C4' N4B d   1       2.269   2.759  -5.999  0.00  0.00     0.003 C 
ENDBRANCH   8   9
ENDBRANCH   7   8
ENDBRANCH   1   7
TORSDOF 3
ENDMDL
