MODEL 1
REMARK minimizedAffinity 1.66788137
REMARK minimizedRMSD -1
REMARK  3 active torsions:
REMARK  status: ('A' for Active; 'I' for Inactive)
REMARK    1  A    between atoms: C3'_2  and  C2'_3 
REMARK    2  A    between atoms: C2'_3  and  C1'_4 
REMARK    3  A    between atoms: C1'_4  and  C1_5 
ROOT
ATOM      1  C1  N4B d   1      -0.736   3.735  -5.930  0.00  0.00    -0.075 A 
ATOM      2  C2  N4B d   1      -0.947   5.131  -5.967  0.00  0.00     0.002 A 
ATOM      3  C3  N4B d   1      -2.225   5.632  -5.992  0.00  0.00     0.002 A 
ATOM      4  C4  N4B d   1      -3.303   4.760  -6.000  0.00  0.00    -0.004 A 
ATOM      5  C5  N4B d   1      -3.092   3.414  -5.939  0.00  0.00     0.002 A 
ATOM      6  C6  N4B d   1      -1.812   2.896  -5.909  0.00  0.00     0.002 A 
ENDROOT
BRANCH   1   7
ATOM      7  C1' N4B d   1       0.644   3.139  -5.989  0.00  0.00     0.057 C 
BRANCH   7   8
ATOM      8  C2' N4B d   1       1.109   2.812  -4.573  0.00  0.00     0.009 C 
BRANCH   8   9
ATOM      9  C3' N4B d   1       0.362   3.624  -3.528  0.00  0.00     0.004 C 
ATOM     10  C4' N4B d   1       0.700   3.216  -2.125  0.00  0.00     0.003 C 
ENDBRANCH   8   9
ENDBRANCH   7   8
ENDBRANCH   1   7
TORSDOF 3
ENDMDL
