MODEL 1
REMARK minimizedAffinity 0.0051174555
REMARK minimizedRMSD -1
REMARK  3 active torsions:
REMARK  status: ('A' for Active; 'I' for Inactive)
REMARK    1  A    between atoms: C3'_2  and  C2'_3 
REMARK    2  A    between atoms: C2'_3  and  C1'_4 
REMARK    3  A    between atoms: C1'_4  and  C1_5 
ROOT
ATOM      1  C1  N4B d   1       0.848   3.544  -5.881  0.00  0.00    -0.075 A 
ATOM      2  C2  N4B d   1       0.398   4.881  -5.937  0.00  0.00     0.002 A 
ATOM      3  C3  N4B d   1      -0.948   5.154  -5.916  0.00  0.00     0.002 A 
ATOM      4  C4  N4B d   1      -1.859   4.109  -5.860  0.00  0.00    -0.004 A 
ATOM      5  C5  N4B d   1      -1.415   2.822  -5.780  0.00  0.00     0.002 A 
ATOM      6  C6  N4B d   1      -0.065   2.533  -5.796  0.00  0.00     0.002 A 
ENDROOT
BRANCH   1   7
ATOM      7  C1' N4B d   1       2.307   3.191  -5.987  0.00  0.00     0.057 C 
BRANCH   7   8
ATOM      8  C2' N4B d   1       3.133   4.474  -5.984  0.00  0.00     0.009 C 
BRANCH   8   9
ATOM      9  C3' N4B d   1       4.625   4.189  -5.975  0.00  0.00     0.004 C 
ATOM     10  C4' N4B d   1       5.441   5.375  -5.556  0.00  0.00     0.003 C 
ENDBRANCH   8   9
ENDBRANCH   7   8
ENDBRANCH   1   7
TORSDOF 3
ENDMDL
