MODEL 1
REMARK minimizedAffinity -3.43032336
REMARK minimizedRMSD -1
REMARK  3 active torsions:
REMARK  status: ('A' for Active; 'I' for Inactive)
REMARK    1  A    between atoms: C3'_2  and  C2'_3 
REMARK    2  A    between atoms: C2'_3  and  C1'_4 
REMARK    3  A    between atoms: C1'_4  and  C1_5 
ROOT
ATOM      1  C1  N4B d   1      -0.655   3.467  -5.998  0.00  0.00    -0.075 A 
ATOM      2  C2  N4B d   1      -1.716   2.535  -6.000  0.00  0.00     0.002 A 
ATOM      3  C3  N4B d   1      -3.017   2.976  -5.992  0.00  0.00     0.002 A 
ATOM      4  C4  N4B d   1      -3.279   4.338  -5.963  0.00  0.00    -0.004 A 
ATOM      5  C5  N4B d   1      -2.248   5.231  -5.988  0.00  0.00     0.002 A 
ATOM      6  C6  N4B d   1      -0.936   4.802  -6.000  0.00  0.00     0.002 A 
ENDROOT
BRANCH   1   7
ATOM      7  C1' N4B d   1       0.783   3.032  -5.920  0.00  0.00     0.057 C 
BRANCH   7   8
ATOM      8  C2' N4B d   1       1.054   2.441  -4.540  0.00  0.00     0.009 C 
BRANCH   8   9
ATOM      9  C3' N4B d   1       0.836   3.459  -3.434  0.00  0.00     0.004 C 
ATOM     10  C4' N4B d   1       1.524   3.084  -2.155  0.00  0.00     0.003 C 
ENDBRANCH   8   9
ENDBRANCH   7   8
ENDBRANCH   1   7
TORSDOF 3
ENDMDL
