MODEL 1
REMARK minimizedAffinity 5.94256258
REMARK minimizedRMSD -1
REMARK  3 active torsions:
REMARK  status: ('A' for Active; 'I' for Inactive)
REMARK    1  A    between atoms: C3'_2  and  C2'_3 
REMARK    2  A    between atoms: C2'_3  and  C1'_4 
REMARK    3  A    between atoms: C1'_4  and  C1_5 
ROOT
ATOM      1  C1  N4B d   1       2.233   1.842  -1.984  0.00  0.00    -0.075 A 
ATOM      2  C2  N4B d   1       1.967   0.531  -1.530  0.00  0.00     0.002 A 
ATOM      3  C3  N4B d   1       1.928  -0.510  -2.425  0.00  0.00     0.002 A 
ATOM      4  C4  N4B d   1       2.133  -0.263  -3.774  0.00  0.00    -0.004 A 
ATOM      5  C5  N4B d   1       2.415   1.001  -4.201  0.00  0.00     0.002 A 
ATOM      6  C6  N4B d   1       2.461   2.057  -3.312  0.00  0.00     0.002 A 
ENDROOT
BRANCH   1   7
ATOM      7  C1' N4B d   1       2.201   3.025  -1.056  0.00  0.00     0.057 C 
BRANCH   7   8
ATOM      8  C2' N4B d   1       3.605   3.614  -0.946  0.00  0.00     0.009 C 
BRANCH   8   9
ATOM      9  C3' N4B d   1       3.668   4.749   0.061  0.00  0.00     0.004 C 
ATOM     10  C4' N4B d   1       4.596   4.461   1.203  0.00  0.00     0.003 C 
ENDBRANCH   8   9
ENDBRANCH   7   8
ENDBRANCH   1   7
TORSDOF 3
ENDMDL
