MODEL 1
REMARK minimizedAffinity 12.7507811
REMARK minimizedRMSD -1
REMARK  0 active torsions:
REMARK  status: ('A' for Active; 'I' for Inactive)
ROOT
ATOM      1  C2' OXE d   1      -3.214   2.150  -0.739  0.00  0.00     0.078 C 
ATOM      2  C1' OXE d   1      -0.693   3.037   0.118  0.00  0.00     0.078 C 
ATOM      3  C1  OXE d   1      -0.757   1.749  -0.664  0.00  0.00    -0.078 A 
ATOM      4  C2  OXE d   1      -2.000   1.298  -1.039  0.00  0.00    -0.078 A 
ATOM      5  C3  OXE d   1      -2.111   0.144  -1.810  0.00  0.00     0.003 A 
ATOM      6  C4  OXE d   1      -0.984  -0.643  -2.075  0.00  0.00    -0.002 A 
ATOM      7  C5  OXE d   1       0.287  -0.222  -1.668  0.00  0.00    -0.002 A 
ATOM      8  C6  OXE d   1       0.422   0.990  -1.000  0.00  0.00     0.003 A 
ENDROOT
TORSDOF 0
ENDMDL
