MODEL 1
REMARK minimizedAffinity 11.3114548
REMARK minimizedRMSD -1
REMARK  0 active torsions:
REMARK  status: ('A' for Active; 'I' for Inactive)
ROOT
ATOM      1  C2' OXE d   1      -1.473   3.287   2.521  0.00  0.00     0.078 C 
ATOM      2  C1' OXE d   1      -2.054   5.999   2.092  0.00  0.00     0.078 C 
ATOM      3  C1  OXE d   1      -1.125   5.316   1.119  0.00  0.00    -0.078 A 
ATOM      4  C2  OXE d   1      -0.810   4.002   1.364  0.00  0.00    -0.078 A 
ATOM      5  C3  OXE d   1      -0.001   3.309   0.467  0.00  0.00     0.003 A 
ATOM      6  C4  OXE d   1       0.617   3.980  -0.595  0.00  0.00    -0.002 A 
ATOM      7  C5  OXE d   1       0.340   5.329  -0.839  0.00  0.00    -0.002 A 
ATOM      8  C6  OXE d   1      -0.560   6.000  -0.018  0.00  0.00     0.003 A 
ENDROOT
TORSDOF 0
ENDMDL
