MODEL 1
REMARK minimizedAffinity 4.37862968
REMARK minimizedRMSD -1
REMARK  0 active torsions:
REMARK  status: ('A' for Active; 'I' for Inactive)
ROOT
ATOM      1  C2' OXE d   1      -2.172   5.997   1.973  0.00  0.00     0.078 C 
ATOM      2  C1' OXE d   1      -1.456   3.343   2.539  0.00  0.00     0.078 C 
ATOM      3  C1  OXE d   1      -0.774   4.024   1.379  0.00  0.00    -0.078 A 
ATOM      4  C2  OXE d   1      -1.164   5.307   1.081  0.00  0.00    -0.078 A 
ATOM      5  C3  OXE d   1      -0.528   6.000   0.055  0.00  0.00     0.003 A 
ATOM      6  C4  OXE d   1       0.397   5.351  -0.772  0.00  0.00    -0.002 A 
ATOM      7  C5  OXE d   1       0.779   4.031  -0.510  0.00  0.00    -0.002 A 
ATOM      8  C6  OXE d   1       0.236   3.369   0.585  0.00  0.00     0.003 A 
ENDROOT
TORSDOF 0
ENDMDL
