MODEL 1
REMARK minimizedAffinity 9.11006069
REMARK minimizedRMSD -1
REMARK  0 active torsions:
REMARK  status: ('A' for Active; 'I' for Inactive)
ROOT
ATOM      1  C2' OXE d   1       0.724   1.823  -0.007  0.00  0.00     0.078 C 
ATOM      2  C1' OXE d   1      -0.980   2.934   1.927  0.00  0.00     0.078 C 
ATOM      3  C1  OXE d   1      -0.501   3.830   0.813  0.00  0.00    -0.078 A 
ATOM      4  C2  OXE d   1       0.370   3.291  -0.103  0.00  0.00    -0.078 A 
ATOM      5  C3  OXE d   1       0.799   4.059  -1.182  0.00  0.00     0.003 A 
ATOM      6  C4  OXE d   1       0.474   5.419  -1.257  0.00  0.00    -0.002 A 
ATOM      7  C5  OXE d   1      -0.379   5.998  -0.313  0.00  0.00    -0.002 A 
ATOM      8  C6  OXE d   1      -0.909   5.209   0.702  0.00  0.00     0.003 A 
ENDROOT
TORSDOF 0
ENDMDL
