MODEL 1
REMARK minimizedAffinity 6.29555035
REMARK minimizedRMSD -1
REMARK  0 active torsions:
REMARK  status: ('A' for Active; 'I' for Inactive)
ROOT
ATOM      1  C2' OXE d   1      -5.422  -5.924  -5.088  0.00  0.00     0.078 C 
ATOM      2  C1' OXE d   1      -4.380  -5.549  -2.508  0.00  0.00     0.078 C 
ATOM      3  C1  OXE d   1      -3.403  -5.677  -3.650  0.00  0.00    -0.078 A 
ATOM      4  C2  OXE d   1      -3.920  -5.907  -4.902  0.00  0.00    -0.078 A 
ATOM      5  C3  OXE d   1      -3.066  -5.978  -5.999  0.00  0.00     0.003 A 
ATOM      6  C4  OXE d   1      -1.677  -5.972  -5.817  0.00  0.00    -0.002 A 
ATOM      7  C5  OXE d   1      -1.129  -5.778  -4.545  0.00  0.00    -0.002 A 
ATOM      8  C6  OXE d   1      -1.976  -5.587  -3.459  0.00  0.00     0.003 A 
ENDROOT
TORSDOF 0
ENDMDL
