MODEL 1
REMARK minimizedAffinity 10.2538233
REMARK minimizedRMSD -1
REMARK  0 active torsions:
REMARK  status: ('A' for Active; 'I' for Inactive)
ROOT
ATOM      1  C2' OXE d   1      -3.210   5.552  -2.658  0.00  0.00     0.078 C 
ATOM      2  C1' OXE d   1      -5.077   3.477  -2.359  0.00  0.00     0.078 C 
ATOM      3  C1  OXE d   1      -5.082   4.247  -3.656  0.00  0.00    -0.078 A 
ATOM      4  C2  OXE d   1      -4.196   5.290  -3.776  0.00  0.00    -0.078 A 
ATOM      5  C3  OXE d   1      -4.122   5.998  -4.972  0.00  0.00     0.003 A 
ATOM      6  C4  OXE d   1      -5.044   5.756  -5.997  0.00  0.00    -0.002 A 
ATOM      7  C5  OXE d   1      -5.981   4.723  -5.880  0.00  0.00    -0.002 A 
ATOM      8  C6  OXE d   1      -5.985   3.933  -4.736  0.00  0.00     0.003 A 
ENDROOT
TORSDOF 0
ENDMDL
