MODEL 1
REMARK minimizedAffinity 11.3989725
REMARK minimizedRMSD -1
REMARK  0 active torsions:
REMARK  status: ('A' for Active; 'I' for Inactive)
ROOT
ATOM      1  C2' OXE d   1      -0.738   2.880   2.282  0.00  0.00     0.078 C 
ATOM      2  C1' OXE d   1      -2.127   5.319   2.292  0.00  0.00     0.078 C 
ATOM      3  C1  OXE d   1      -1.171   5.059   1.155  0.00  0.00    -0.078 A 
ATOM      4  C2  OXE d   1      -0.461   3.883   1.183  0.00  0.00    -0.078 A 
ATOM      5  C3  OXE d   1       0.394   3.568   0.130  0.00  0.00     0.003 A 
ATOM      6  C4  OXE d   1       0.653   4.506  -0.877  0.00  0.00    -0.002 A 
ATOM      7  C5  OXE d   1      -0.030   5.727  -0.903  0.00  0.00    -0.002 A 
ATOM      8  C6  OXE d   1      -0.975   6.000   0.080  0.00  0.00     0.003 A 
ENDROOT
TORSDOF 0
ENDMDL
