MODEL 1
REMARK minimizedAffinity 13.367321
REMARK minimizedRMSD -1
REMARK  0 active torsions:
REMARK  status: ('A' for Active; 'I' for Inactive)
ROOT
ATOM      1  C2' OXE d   1      -2.599   1.108  -4.766  0.00  0.00     0.078 C 
ATOM      2  C1' OXE d   1      -3.525   2.289  -2.393  0.00  0.00     0.078 C 
ATOM      3  C1  OXE d   1      -2.624   1.085  -2.275  0.00  0.00    -0.078 A 
ATOM      4  C2  OXE d   1      -2.214   0.486  -3.441  0.00  0.00    -0.078 A 
ATOM      5  C3  OXE d   1      -1.338  -0.595  -3.389  0.00  0.00     0.003 A 
ATOM      6  C4  OXE d   1      -0.994  -1.170  -2.160  0.00  0.00    -0.002 A 
ATOM      7  C5  OXE d   1      -1.433  -0.599  -0.961  0.00  0.00    -0.002 A 
ATOM      8  C6  OXE d   1      -2.212   0.552  -1.000  0.00  0.00     0.003 A 
ENDROOT
TORSDOF 0
ENDMDL
