MODEL 1
REMARK minimizedAffinity -4.1847167
REMARK minimizedRMSD -1
REMARK  1 active torsions:
REMARK  status: ('A' for Active; 'I' for Inactive)
REMARK    1  A    between atoms: C1_2  and  C2_3 
ROOT
ATOM      1  C2  UNL d   1       0.876   0.317  -1.123  0.00  0.00    -0.077 A 
ATOM      2  C3  UNL d   1       2.031   1.017  -0.746  0.00  0.00     0.002 A 
ATOM      3  C4  UNL d   1       2.756   1.745  -1.692  0.00  0.00     0.002 A 
ATOM      4  C5  UNL d   1       2.332   1.784  -3.018  0.00  0.00    -0.004 A 
ATOM      5  C6  UNL d   1       1.186   1.090  -3.404  0.00  0.00     0.002 A 
ATOM      6  C7  UNL d   1       0.460   0.360  -2.460  0.00  0.00     0.002 A 
ENDROOT
BRANCH   1   7
ATOM      7  C1  UNL d   1       0.065  -0.428  -0.096  0.00  0.00     0.055 C 
ATOM      8  C   UNL d   1      -1.148   0.379   0.345  0.00  0.00     0.019 C 
ENDBRANCH   1   7
TORSDOF 1
ENDMDL
