MODEL 1
REMARK minimizedAffinity -3.82112813
REMARK minimizedRMSD -1
REMARK  1 active torsions:
REMARK  status: ('A' for Active; 'I' for Inactive)
REMARK    1  A    between atoms: C1_2  and  C2_3 
ROOT
ATOM      1  C2  UNL d   1      -0.815   0.348   1.112  0.00  0.00    -0.077 A 
ATOM      2  C3  UNL d   1      -1.451   0.031  -0.096  0.00  0.00     0.002 A 
ATOM      3  C4  UNL d   1      -0.713  -0.455  -1.177  0.00  0.00     0.002 A 
ATOM      4  C5  UNL d   1       0.664  -0.631  -1.059  0.00  0.00    -0.004 A 
ATOM      5  C6  UNL d   1       1.306  -0.317   0.139  0.00  0.00     0.002 A 
ATOM      6  C7  UNL d   1       0.570   0.169   1.219  0.00  0.00     0.002 A 
ENDROOT
BRANCH   1   7
ATOM      7  C1  UNL d   1      -1.618   0.825   2.295  0.00  0.00     0.055 C 
ATOM      8  C   UNL d   1      -0.716   1.182   3.468  0.00  0.00     0.019 C 
ENDBRANCH   1   7
TORSDOF 1
ENDMDL
