MODEL 1
REMARK minimizedAffinity -4.14102268
REMARK minimizedRMSD -1
REMARK  1 active torsions:
REMARK  status: ('A' for Active; 'I' for Inactive)
REMARK    1  A    between atoms: C1_2  and  C2_3 
ROOT
ATOM      1  C2  UNL d   1       0.119   0.376   1.814  0.00  0.00    -0.077 A 
ATOM      2  C3  UNL d   1      -0.958   1.099   2.347  0.00  0.00     0.002 A 
ATOM      3  C4  UNL d   1      -2.108   1.318   1.586  0.00  0.00     0.002 A 
ATOM      4  C5  UNL d   1      -2.193   0.813   0.290  0.00  0.00    -0.004 A 
ATOM      5  C6  UNL d   1      -1.127   0.095  -0.250  0.00  0.00     0.002 A 
ATOM      6  C7  UNL d   1       0.023  -0.124   0.509  0.00  0.00     0.002 A 
ENDROOT
BRANCH   1   7
ATOM      7  C1  UNL d   1       1.340   0.097   2.651  0.00  0.00     0.055 C 
ATOM      8  C   UNL d   1       2.440  -0.553   1.825  0.00  0.00     0.019 C 
ENDBRANCH   1   7
TORSDOF 1
ENDMDL
