MODEL 1
REMARK minimizedAffinity -3.45364928
REMARK minimizedRMSD -1
REMARK  1 active torsions:
REMARK  status: ('A' for Active; 'I' for Inactive)
REMARK    1  A    between atoms: C1_2  and  C2_3 
ROOT
ATOM      1  C2  UNL d   1      -0.657   0.114   0.829  0.00  0.00    -0.077 A 
ATOM      2  C3  UNL d   1       0.680   0.534   0.808  0.00  0.00     0.002 A 
ATOM      3  C4  UNL d   1       1.303   0.969   1.979  0.00  0.00     0.002 A 
ATOM      4  C5  UNL d   1       0.598   0.984   3.181  0.00  0.00    -0.004 A 
ATOM      5  C6  UNL d   1      -0.733   0.570   3.212  0.00  0.00     0.002 A 
ATOM      6  C7  UNL d   1      -1.358   0.136   2.042  0.00  0.00     0.002 A 
ENDROOT
BRANCH   1   7
ATOM      7  C1  UNL d   1      -1.316  -0.402  -0.423  0.00  0.00     0.055 C 
ATOM      8  C   UNL d   1      -2.703  -0.956  -0.131  0.00  0.00     0.019 C 
ENDBRANCH   1   7
TORSDOF 1
ENDMDL
