MODEL 1
REMARK minimizedAffinity -1.85848856
REMARK minimizedRMSD -1
REMARK  0 active torsions:
REMARK  status: ('A' for Active; 'I' for Inactive)
ROOT
ATOM      1  C   UNL d   1       0.537  -2.258  -0.536  0.00  0.00     0.020 A 
ATOM      2  C1  UNL d   1       1.855  -1.816  -0.432  0.00  0.00     0.020 A 
ATOM      3  C2  UNL d   1       2.121  -0.471  -0.166  0.00  0.00     0.034 A 
ATOM      4  C3  UNL d   1       1.068   0.436  -0.004  0.00  0.00     0.017 A 
ATOM      5  C4  UNL d   1      -0.255  -0.009  -0.109  0.00  0.00     0.017 A 
ATOM      6  C5  UNL d   1      -0.516  -1.356  -0.375  0.00  0.00     0.034 A 
ATOM      7 Cl   UNL d   1      -1.607   1.051   0.078  0.00  0.00    -0.070 Cl
ATOM      8 Cl1  UNL d   1       1.470   2.085   0.323  0.00  0.00    -0.070 Cl
ENDROOT
TORSDOF 0
ENDMDL
