MODEL 1
REMARK minimizedAffinity 0.69148159
REMARK minimizedRMSD -1
REMARK  0 active torsions:
REMARK  status: ('A' for Active; 'I' for Inactive)
ROOT
ATOM      1  C   UNL d   1       0.463  -2.035  -0.613  0.00  0.00     0.020 A 
ATOM      2  C1  UNL d   1      -0.623  -1.165  -0.531  0.00  0.00     0.020 A 
ATOM      3  C2  UNL d   1      -0.409   0.201  -0.332  0.00  0.00     0.034 A 
ATOM      4  C3  UNL d   1       0.894   0.700  -0.216  0.00  0.00     0.017 A 
ATOM      5  C4  UNL d   1       1.983  -0.175  -0.299  0.00  0.00     0.017 A 
ATOM      6  C5  UNL d   1       1.763  -1.542  -0.498  0.00  0.00     0.034 A 
ATOM      7 Cl   UNL d   1       3.619   0.366  -0.165  0.00  0.00    -0.070 Cl
ATOM      8 Cl1  UNL d   1       1.084   2.400   0.027  0.00  0.00    -0.070 Cl
ENDROOT
TORSDOF 0
ENDMDL
