MODEL 1
REMARK minimizedAffinity -4.21422482
REMARK minimizedRMSD -1
REMARK  0 active torsions:
REMARK  status: ('A' for Active; 'I' for Inactive)
ROOT
ATOM      1  C   UNL d   1       2.149  -1.487  -0.117  0.00  0.00     0.020 A 
ATOM      2  C1  UNL d   1       1.453  -0.793   0.872  0.00  0.00     0.020 A 
ATOM      3  C2  UNL d   1       1.872   0.482   1.257  0.00  0.00     0.034 A 
ATOM      4  C3  UNL d   1       2.991   1.068   0.652  0.00  0.00     0.017 A 
ATOM      5  C4  UNL d   1       3.689   0.370  -0.341  0.00  0.00     0.017 A 
ATOM      6  C5  UNL d   1       3.264  -0.906  -0.722  0.00  0.00     0.034 A 
ATOM      7 Cl   UNL d   1       5.077   1.027  -1.132  0.00  0.00    -0.070 Cl
ATOM      8 Cl1  UNL d   1       3.453   2.648   1.177  0.00  0.00    -0.070 Cl
ENDROOT
TORSDOF 0
ENDMDL
