MODEL 1
REMARK minimizedAffinity -4.83504438
REMARK minimizedRMSD -1
REMARK  0 active torsions:
REMARK  status: ('A' for Active; 'I' for Inactive)
ROOT
ATOM      1  C   UNL d   1      -0.022  -1.527  -0.679  0.00  0.00     0.020 A 
ATOM      2  C1  UNL d   1      -0.396  -0.276  -1.170  0.00  0.00     0.020 A 
ATOM      3  C2  UNL d   1       0.378   0.848  -0.877  0.00  0.00     0.034 A 
ATOM      4  C3  UNL d   1       1.530   0.725  -0.091  0.00  0.00     0.017 A 
ATOM      5  C4  UNL d   1       1.905  -0.531   0.401  0.00  0.00     0.017 A 
ATOM      6  C5  UNL d   1       1.126  -1.654   0.104  0.00  0.00     0.034 A 
ATOM      7 Cl   UNL d   1       3.312  -0.762   1.376  0.00  0.00    -0.070 Cl
ATOM      8 Cl1  UNL d   1       2.440   2.158   0.232  0.00  0.00    -0.070 Cl
ENDROOT
TORSDOF 0
ENDMDL
