MODEL 1
REMARK minimizedAffinity -0.339494348
REMARK minimizedRMSD -1
REMARK  0 active torsions:
REMARK  status: ('A' for Active; 'I' for Inactive)
ROOT
ATOM      1  C   UNL d   1      -0.559   1.432  -0.275  0.00  0.00     0.020 A 
ATOM      2  C1  UNL d   1       0.537   2.248   0.004  0.00  0.00     0.020 A 
ATOM      3  C2  UNL d   1       1.814   1.691   0.106  0.00  0.00     0.034 A 
ATOM      4  C3  UNL d   1       1.998   0.315  -0.072  0.00  0.00     0.017 A 
ATOM      5  C4  UNL d   1       0.897  -0.503  -0.352  0.00  0.00     0.017 A 
ATOM      6  C5  UNL d   1      -0.379   0.060  -0.453  0.00  0.00     0.034 A 
ATOM      7 Cl   UNL d   1       1.045  -2.209  -0.584  0.00  0.00    -0.070 Cl
ATOM      8 Cl1  UNL d   1       3.604  -0.306   0.067  0.00  0.00    -0.070 Cl
ENDROOT
TORSDOF 0
ENDMDL
