MODEL 1
REMARK minimizedAffinity 3.52230692
REMARK minimizedRMSD -1
REMARK  2 active torsions:
REMARK  status: ('A' for Active; 'I' for Inactive)
REMARK    1  A    between atoms: C1_2  and  C2_3 
REMARK    2  A    between atoms: C2_3  and  C3_4 
ROOT
ATOM      1  C3  UNL d   1       0.100   2.041  -2.470  0.00  0.00    -0.075 A 
ATOM      2  C4  UNL d   1       0.912   1.344  -3.376  0.00  0.00     0.002 A 
ATOM      3  C5  UNL d   1       1.962   0.547  -2.918  0.00  0.00     0.002 A 
ATOM      4  C6  UNL d   1       2.219   0.446  -1.553  0.00  0.00    -0.004 A 
ATOM      5  C7  UNL d   1       1.429   1.148  -0.645  0.00  0.00     0.002 A 
ATOM      6  C8  UNL d   1       0.375   1.942  -1.100  0.00  0.00     0.002 A 
ENDROOT
BRANCH   1   7
ATOM      7  C2  UNL d   1      -1.057   2.882  -2.958  0.00  0.00     0.056 C 
BRANCH   7   8
ATOM      8  C1  UNL d   1      -2.434   2.317  -2.596  0.00  0.00     0.007 C 
ATOM      9  C   UNL d   1      -3.586   3.122  -3.183  0.00  0.00     0.009 C 
ENDBRANCH   7   8
ENDBRANCH   1   7
TORSDOF 2
ENDMDL
