MODEL 1
REMARK minimizedAffinity 3.2261765
REMARK minimizedRMSD -1
REMARK  2 active torsions:
REMARK  status: ('A' for Active; 'I' for Inactive)
REMARK    1  A    between atoms: C1_2  and  C2_3 
REMARK    2  A    between atoms: C2_3  and  C3_4 
ROOT
ATOM      1  C3  UNL d   1       5.981   1.258  -4.339  0.00  0.00    -0.075 A 
ATOM      2  C4  UNL d   1       5.955   0.322  -3.294  0.00  0.00     0.002 A 
ATOM      3  C5  UNL d   1       5.965  -1.046  -3.568  0.00  0.00     0.002 A 
ATOM      4  C6  UNL d   1       5.990  -1.495  -4.887  0.00  0.00    -0.004 A 
ATOM      5  C7  UNL d   1       5.999  -0.575  -5.932  0.00  0.00     0.002 A 
ATOM      6  C8  UNL d   1       5.994   0.795  -5.661  0.00  0.00     0.002 A 
ENDROOT
BRANCH   1   7
ATOM      7  C2  UNL d   1       6.000   2.740  -4.048  0.00  0.00     0.056 C 
BRANCH   7   8
ATOM      8  C1  UNL d   1       4.747   3.484  -4.522  0.00  0.00     0.007 C 
ATOM      9  C   UNL d   1       3.800   2.610  -5.334  0.00  0.00     0.009 C 
ENDBRANCH   7   8
ENDBRANCH   1   7
TORSDOF 2
ENDMDL
