MODEL 1
REMARK minimizedAffinity 6.37793636
REMARK minimizedRMSD -1
REMARK  2 active torsions:
REMARK  status: ('A' for Active; 'I' for Inactive)
REMARK    1  A    between atoms: C1_2  and  C2_3 
REMARK    2  A    between atoms: C2_3  and  C3_4 
ROOT
ATOM      1  C3  UNL d   1       0.275  -2.050   1.848  0.00  0.00    -0.075 A 
ATOM      2  C4  UNL d   1       1.502  -2.198   2.511  0.00  0.00     0.002 A 
ATOM      3  C5  UNL d   1       2.698  -2.207   1.793  0.00  0.00     0.002 A 
ATOM      4  C6  UNL d   1       2.682  -2.078   0.406  0.00  0.00    -0.004 A 
ATOM      5  C7  UNL d   1       1.468  -1.947  -0.265  0.00  0.00     0.002 A 
ATOM      6  C8  UNL d   1       0.270  -1.933   0.451  0.00  0.00     0.002 A 
ENDROOT
BRANCH   1   7
ATOM      7  C2  UNL d   1      -1.022  -2.010   2.621  0.00  0.00     0.056 C 
BRANCH   7   8
ATOM      8  C1  UNL d   1      -1.132  -0.831   3.594  0.00  0.00     0.007 C 
ATOM      9  C   UNL d   1      -2.338   0.059   3.324  0.00  0.00     0.009 C 
ENDBRANCH   7   8
ENDBRANCH   1   7
TORSDOF 2
ENDMDL
