MODEL 1
REMARK minimizedAffinity -2.32543516
REMARK minimizedRMSD -1
REMARK  2 active torsions:
REMARK  status: ('A' for Active; 'I' for Inactive)
REMARK    1  A    between atoms: C1_2  and  C2_3 
REMARK    2  A    between atoms: C2_3  and  C3_4 
ROOT
ATOM      1  C3  UNL d   1       1.019  -0.773  -0.701  0.00  0.00    -0.075 A 
ATOM      2  C4  UNL d   1       1.709   0.310  -0.136  0.00  0.00     0.002 A 
ATOM      3  C5  UNL d   1       2.129   1.375  -0.932  0.00  0.00     0.002 A 
ATOM      4  C6  UNL d   1       1.875   1.367  -2.302  0.00  0.00    -0.004 A 
ATOM      5  C7  UNL d   1       1.206   0.289  -2.877  0.00  0.00     0.002 A 
ATOM      6  C8  UNL d   1       0.780  -0.776  -2.082  0.00  0.00     0.002 A 
ENDROOT
BRANCH   1   7
ATOM      7  C2  UNL d   1       0.536  -1.915   0.160  0.00  0.00     0.056 C 
BRANCH   7   8
ATOM      8  C1  UNL d   1       1.505  -2.306   1.280  0.00  0.00     0.007 C 
ATOM      9  C   UNL d   1       1.528  -3.802   1.560  0.00  0.00     0.009 C 
ENDBRANCH   7   8
ENDBRANCH   1   7
TORSDOF 2
ENDMDL
