MODEL 1
REMARK minimizedAffinity 5.36334658
REMARK minimizedRMSD -1
REMARK  2 active torsions:
REMARK  status: ('A' for Active; 'I' for Inactive)
REMARK    1  A    between atoms: C1_2  and  C2_3 
REMARK    2  A    between atoms: C2_3  and  C3_4 
ROOT
ATOM      1  C3  UNL d   1      -4.029   0.900  -2.927  0.00  0.00    -0.075 A 
ATOM      2  C4  UNL d   1      -4.993   0.322  -3.766  0.00  0.00     0.002 A 
ATOM      3  C5  UNL d   1      -5.337  -1.023  -3.629  0.00  0.00     0.002 A 
ATOM      4  C6  UNL d   1      -4.717  -1.808  -2.660  0.00  0.00    -0.004 A 
ATOM      5  C7  UNL d   1      -3.745  -1.250  -1.832  0.00  0.00     0.002 A 
ATOM      6  C8  UNL d   1      -3.402   0.097  -1.965  0.00  0.00     0.002 A 
ENDROOT
BRANCH   1   7
ATOM      7  C2  UNL d   1      -3.673   2.362  -3.051  0.00  0.00     0.056 C 
BRANCH   7   8
ATOM      8  C1  UNL d   1      -4.082   2.993  -4.386  0.00  0.00     0.007 C 
ATOM      9  C   UNL d   1      -4.808   4.321  -4.225  0.00  0.00     0.009 C 
ENDBRANCH   7   8
ENDBRANCH   1   7
TORSDOF 2
ENDMDL
