MODEL 1
REMARK minimizedAffinity 3.69818687
REMARK minimizedRMSD -1
REMARK  0 active torsions:
REMARK  status: ('A' for Active; 'I' for Inactive)
ROOT
ATOM      1  C   UNL d   1      -1.149   0.167   3.214  0.00  0.00     0.077 C 
ATOM      2  C1  UNL d   1      -1.520  -0.003   1.770  0.00  0.00    -0.074 A 
ATOM      3  C2  UNL d   1      -2.824   0.245   1.329  0.00  0.00    -0.005 A 
ATOM      4  C3  UNL d   1      -3.152   0.092  -0.018  0.00  0.00     0.006 A 
ATOM      5  C4  UNL d   1      -2.180  -0.310  -0.936  0.00  0.00    -0.005 A 
ATOM      6  C5  UNL d   1      -0.871  -0.561  -0.514  0.00  0.00    -0.074 A 
ATOM      7  C6  UNL d   1       0.187  -0.984  -1.489  0.00  0.00     0.077 C 
ATOM      8  C7  UNL d   1      -0.548  -0.398   0.840  0.00  0.00    -0.001 A 
ENDROOT
TORSDOF 0
ENDMDL
