MODEL 1
REMARK minimizedAffinity -3.02620101
REMARK minimizedRMSD -1
REMARK  0 active torsions:
REMARK  status: ('A' for Active; 'I' for Inactive)
ROOT
ATOM      1  C   UNL d   1       2.195   0.365  -0.598  0.00  0.00     0.077 C 
ATOM      2  C1  UNL d   1       1.012   0.204   0.310  0.00  0.00    -0.074 A 
ATOM      3  C2  UNL d   1      -0.266   0.599  -0.099  0.00  0.00    -0.005 A 
ATOM      4  C3  UNL d   1      -1.358   0.435   0.753  0.00  0.00     0.006 A 
ATOM      5  C4  UNL d   1      -1.184  -0.125   2.019  0.00  0.00    -0.005 A 
ATOM      6  C5  UNL d   1       0.086  -0.527   2.444  0.00  0.00    -0.074 A 
ATOM      7  C6  UNL d   1       0.289  -1.140   3.798  0.00  0.00     0.077 C 
ATOM      8  C7  UNL d   1       1.178  -0.365   1.580  0.00  0.00    -0.001 A 
ENDROOT
TORSDOF 0
ENDMDL
