MODEL 1
REMARK minimizedAffinity -0.585338235
REMARK minimizedRMSD -1
REMARK  0 active torsions:
REMARK  status: ('A' for Active; 'I' for Inactive)
ROOT
ATOM      1  C   UNL d   1       4.459   1.053  -2.702  0.00  0.00     0.077 C 
ATOM      2  C1  UNL d   1       3.670   1.308  -1.452  0.00  0.00    -0.074 A 
ATOM      3  C2  UNL d   1       3.716   2.551  -0.813  0.00  0.00    -0.005 A 
ATOM      4  C3  UNL d   1       2.970   2.776   0.344  0.00  0.00     0.006 A 
ATOM      5  C4  UNL d   1       2.171   1.761   0.872  0.00  0.00    -0.005 A 
ATOM      6  C5  UNL d   1       2.111   0.512   0.247  0.00  0.00    -0.074 A 
ATOM      7  C6  UNL d   1       1.250  -0.586   0.796  0.00  0.00     0.077 C 
ATOM      8  C7  UNL d   1       2.859   0.296  -0.919  0.00  0.00    -0.001 A 
ENDROOT
TORSDOF 0
ENDMDL
