MODEL 1
REMARK minimizedAffinity 0.404138327
REMARK minimizedRMSD -1
REMARK  0 active torsions:
REMARK  status: ('A' for Active; 'I' for Inactive)
ROOT
ATOM      1  C   UNL d   1      -2.585   0.056   3.195  0.00  0.00     0.077 C 
ATOM      2  C1  UNL d   1      -1.772  -0.085   1.942  0.00  0.00    -0.074 A 
ATOM      3  C2  UNL d   1      -2.362   0.066   0.682  0.00  0.00    -0.005 A 
ATOM      4  C3  UNL d   1      -1.592  -0.059  -0.474  0.00  0.00     0.006 A 
ATOM      5  C4  UNL d   1      -0.227  -0.335  -0.383  0.00  0.00    -0.005 A 
ATOM      6  C5  UNL d   1       0.380  -0.488   0.868  0.00  0.00    -0.074 A 
ATOM      7  C6  UNL d   1       1.847  -0.776   0.984  0.00  0.00     0.077 C 
ATOM      8  C7  UNL d   1      -0.399  -0.355   2.025  0.00  0.00    -0.001 A 
ENDROOT
TORSDOF 0
ENDMDL
