MODEL 1
REMARK minimizedAffinity 2.81888771
REMARK minimizedRMSD -1
REMARK  0 active torsions:
REMARK  status: ('A' for Active; 'I' for Inactive)
ROOT
ATOM      1  C   UNL d   1       3.760   0.056  -4.422  0.00  0.00     0.077 C 
ATOM      2  C1  UNL d   1       3.864   0.360  -2.957  0.00  0.00    -0.074 A 
ATOM      3  C2  UNL d   1       2.989   1.265  -2.347  0.00  0.00    -0.005 A 
ATOM      4  C3  UNL d   1       3.091   1.530  -0.981  0.00  0.00     0.006 A 
ATOM      5  C4  UNL d   1       4.068   0.895  -0.213  0.00  0.00    -0.005 A 
ATOM      6  C5  UNL d   1       4.951  -0.014  -0.806  0.00  0.00    -0.074 A 
ATOM      7  C6  UNL d   1       6.000  -0.713   0.007  0.00  0.00     0.077 C 
ATOM      8  C7  UNL d   1       4.837  -0.280  -2.177  0.00  0.00    -0.001 A 
ENDROOT
TORSDOF 0
ENDMDL
