MODEL 1
REMARK minimizedAffinity 0.861296535
REMARK minimizedRMSD -1
REMARK  0 active torsions:
REMARK  status: ('A' for Active; 'I' for Inactive)
ROOT
ATOM      1  C   UNL d   1       2.638   1.158  -4.212  0.00  0.00     0.077 C 
ATOM      2  C1  UNL d   1       3.018   1.188  -2.761  0.00  0.00    -0.074 A 
ATOM      3  C2  UNL d   1       4.096   1.960  -2.316  0.00  0.00    -0.005 A 
ATOM      4  C3  UNL d   1       4.432   1.985  -0.963  0.00  0.00     0.006 A 
ATOM      5  C4  UNL d   1       3.695   1.239  -0.042  0.00  0.00    -0.005 A 
ATOM      6  C5  UNL d   1       2.614   0.462  -0.468  0.00  0.00    -0.074 A 
ATOM      7  C6  UNL d   1       1.805  -0.338   0.510  0.00  0.00     0.077 C 
ATOM      8  C7  UNL d   1       2.278   0.447  -1.829  0.00  0.00    -0.001 A 
ENDROOT
TORSDOF 0
ENDMDL
