MODEL 1
REMARK minimizedAffinity -0.822882712
REMARK minimizedRMSD -1
REMARK  0 active torsions:
REMARK  status: ('A' for Active; 'I' for Inactive)
ROOT
ATOM      1  C   UNL d   1       0.198  -0.784   4.964  0.00  0.00     0.077 C 
ATOM      2  C1  UNL d   1      -0.359  -0.466   3.608  0.00  0.00    -0.074 A 
ATOM      3  C2  UNL d   1      -1.664   0.015   3.462  0.00  0.00    -0.005 A 
ATOM      4  C3  UNL d   1      -2.165   0.316   2.196  0.00  0.00     0.006 A 
ATOM      5  C4  UNL d   1      -1.368   0.140   1.064  0.00  0.00    -0.005 A 
ATOM      6  C5  UNL d   1      -0.060  -0.339   1.191  0.00  0.00    -0.074 A 
ATOM      7  C6  UNL d   1       0.815  -0.525  -0.014  0.00  0.00     0.077 C 
ATOM      8  C7  UNL d   1       0.439  -0.633   2.468  0.00  0.00    -0.001 A 
ENDROOT
TORSDOF 0
ENDMDL
