MODEL 1
REMARK minimizedAffinity -2.61313725
REMARK minimizedRMSD -1
REMARK  0 active torsions:
REMARK  status: ('A' for Active; 'I' for Inactive)
ROOT
ATOM      1  C   UNL d   1       1.157  -0.463  -0.141  0.00  0.00     0.077 C 
ATOM      2  C1  UNL d   1       0.205  -0.399   1.016  0.00  0.00    -0.074 A 
ATOM      3  C2  UNL d   1      -1.098   0.083   0.850  0.00  0.00    -0.005 A 
ATOM      4  C3  UNL d   1      -1.975   0.127   1.933  0.00  0.00     0.006 A 
ATOM      5  C4  UNL d   1      -1.560  -0.309   3.192  0.00  0.00    -0.005 A 
ATOM      6  C5  UNL d   1      -0.262  -0.795   3.377  0.00  0.00    -0.074 A 
ATOM      7  C6  UNL d   1       0.197  -1.278   4.721  0.00  0.00     0.077 C 
ATOM      8  C7  UNL d   1       0.612  -0.843   2.282  0.00  0.00    -0.001 A 
ENDROOT
TORSDOF 0
ENDMDL
