MODEL 1
REMARK minimizedAffinity -1.64089334
REMARK minimizedRMSD -1
REMARK  0 active torsions:
REMARK  status: ('A' for Active; 'I' for Inactive)
ROOT
ATOM      1  C   UNL d   1       1.345  -0.284  -2.946  0.00  0.00     0.172 C 
ATOM      2  N   UNL d   1       0.549  -0.287  -1.741  0.00  0.00    -0.070 N 
ATOM      3  C1  UNL d   1      -0.572   0.469  -1.523  0.00  0.00    -0.004 A 
ATOM      4  C2  UNL d   1      -1.037   0.179  -0.259  0.00  0.00    -0.047 A 
ATOM      5  C3  UNL d   1      -0.165  -0.783   0.303  0.00  0.00    -0.047 A 
ATOM      6  C4  UNL d   1       0.808  -1.053  -0.636  0.00  0.00    -0.004 A 
ENDROOT
TORSDOF 0
ENDMDL
