MODEL 1
REMARK minimizedAffinity -3.71061707
REMARK minimizedRMSD -1
REMARK  0 active torsions:
REMARK  status: ('A' for Active; 'I' for Inactive)
ROOT
ATOM      1  C   UNL d   1       0.218   0.159  -1.062  0.00  0.00     0.172 C 
ATOM      2  N   UNL d   1      -0.404   0.621   0.156  0.00  0.00    -0.070 N 
ATOM      3  C1  UNL d   1      -1.650   0.269   0.601  0.00  0.00    -0.004 A 
ATOM      4  C2  UNL d   1      -1.872   0.919   1.795  0.00  0.00    -0.047 A 
ATOM      5  C3  UNL d   1      -0.720   1.690   2.078  0.00  0.00    -0.047 A 
ATOM      6  C4  UNL d   1       0.173   1.487   1.047  0.00  0.00    -0.004 A 
ENDROOT
TORSDOF 0
ENDMDL
