MODEL 1
REMARK minimizedAffinity -2.93895364
REMARK minimizedRMSD -1
REMARK  0 active torsions:
REMARK  status: ('A' for Active; 'I' for Inactive)
ROOT
ATOM      1  C   UNL d   1       0.604   0.026  -1.244  0.00  0.00     0.172 C 
ATOM      2  N   UNL d   1      -0.080   0.270   0.004  0.00  0.00    -0.070 N 
ATOM      3  C1  UNL d   1      -1.215  -0.367   0.430  0.00  0.00    -0.004 A 
ATOM      4  C2  UNL d   1      -1.549   0.147   1.664  0.00  0.00    -0.047 A 
ATOM      5  C3  UNL d   1      -0.582   1.127   1.991  0.00  0.00    -0.047 A 
ATOM      6  C4  UNL d   1       0.315   1.183   0.946  0.00  0.00    -0.004 A 
ENDROOT
TORSDOF 0
ENDMDL
