MODEL 1
REMARK minimizedAffinity -3.89694166
REMARK minimizedRMSD -1
REMARK  0 active torsions:
REMARK  status: ('A' for Active; 'I' for Inactive)
ROOT
ATOM      1  C   UNL d   1      -0.651   1.775   2.796  0.00  0.00     0.172 C 
ATOM      2  N   UNL d   1      -0.716   0.958   1.606  0.00  0.00    -0.070 N 
ATOM      3  C1  UNL d   1      -1.863   0.566   0.969  0.00  0.00    -0.004 A 
ATOM      4  C2  UNL d   1      -1.501  -0.198  -0.119  0.00  0.00    -0.047 A 
ATOM      5  C3  UNL d   1      -0.088  -0.268  -0.136  0.00  0.00    -0.047 A 
ATOM      6  C4  UNL d   1       0.372   0.456   0.943  0.00  0.00    -0.004 A 
ENDROOT
TORSDOF 0
ENDMDL
