MODEL 1
REMARK minimizedAffinity -3.40029883
REMARK minimizedRMSD -1
REMARK  0 active torsions:
REMARK  status: ('A' for Active; 'I' for Inactive)
ROOT
ATOM      1  C   UNL d   1       0.684  -0.295  -0.918  0.00  0.00     0.172 C 
ATOM      2  N   UNL d   1      -0.026   0.274   0.203  0.00  0.00    -0.070 N 
ATOM      3  C1  UNL d   1       0.482   1.184   1.092  0.00  0.00    -0.004 A 
ATOM      4  C2  UNL d   1      -0.505   1.476   2.008  0.00  0.00    -0.047 A 
ATOM      5  C3  UNL d   1      -1.646   0.714   1.659  0.00  0.00    -0.047 A 
ATOM      6  C4  UNL d   1      -1.322  -0.020   0.538  0.00  0.00    -0.004 A 
ENDROOT
TORSDOF 0
ENDMDL
