MODEL 1
REMARK minimizedAffinity -3.17855024
REMARK minimizedRMSD -1
REMARK  0 active torsions:
REMARK  status: ('A' for Active; 'I' for Inactive)
ROOT
ATOM      1  C   UNL d   1       1.517  -1.583  -0.689  0.00  0.00     0.172 C 
ATOM      2  N   UNL d   1       0.474  -0.770  -0.109  0.00  0.00    -0.070 N 
ATOM      3  C1  UNL d   1      -0.845  -0.781  -0.476  0.00  0.00    -0.004 A 
ATOM      4  C2  UNL d   1      -1.510   0.132   0.312  0.00  0.00    -0.047 A 
ATOM      5  C3  UNL d   1      -0.558   0.713   1.183  0.00  0.00    -0.047 A 
ATOM      6  C4  UNL d   1       0.662   0.137   0.901  0.00  0.00    -0.004 A 
ENDROOT
TORSDOF 0
ENDMDL
