MODEL 1
REMARK minimizedAffinity -2.21383953
REMARK minimizedRMSD -1
REMARK  0 active torsions:
REMARK  status: ('A' for Active; 'I' for Inactive)
ROOT
ATOM      1  C   UNL d   1       0.668  -0.592  -0.804  0.00  0.00     0.172 C 
ATOM      2  N   UNL d   1      -0.049   0.054   0.270  0.00  0.00    -0.070 N 
ATOM      3  C1  UNL d   1       0.520   0.669   1.353  0.00  0.00    -0.004 A 
ATOM      4  C2  UNL d   1      -0.497   1.159   2.143  0.00  0.00    -0.047 A 
ATOM      5  C3  UNL d   1      -1.720   0.826   1.514  0.00  0.00    -0.047 A 
ATOM      6  C4  UNL d   1      -1.413   0.142   0.357  0.00  0.00    -0.004 A 
ENDROOT
TORSDOF 0
ENDMDL
