MODEL 1
REMARK minimizedAffinity 2.79069352
REMARK minimizedRMSD -1
REMARK  0 active torsions:
REMARK  status: ('A' for Active; 'I' for Inactive)
ROOT
ATOM      1  C   UNL d   1       5.974  -5.890  -4.212  0.00  0.00     0.020 A 
ATOM      2  C1  UNL d   1       6.000  -5.248  -5.449  0.00  0.00     0.020 A 
ATOM      3  C2  UNL d   1       4.825  -4.715  -5.983  0.00  0.00     0.034 A 
ATOM      4  C3  UNL d   1       3.620  -4.823  -5.280  0.00  0.00     0.017 A 
ATOM      5  C4  UNL d   1       3.595  -5.468  -4.038  0.00  0.00     0.017 A 
ATOM      6  C5  UNL d   1       4.775  -6.000  -3.508  0.00  0.00     0.034 A 
ATOM      7 Cl   UNL d   1       2.146  -5.640  -3.111  0.00  0.00    -0.070 Cl
ATOM      8 Cl1  UNL d   1       2.205  -4.140  -6.000  0.00  0.00    -0.070 Cl
ENDROOT
TORSDOF 0
ENDMDL
