MODEL 1
REMARK minimizedAffinity 3.60962057
REMARK minimizedRMSD -1
REMARK  0 active torsions:
REMARK  status: ('A' for Active; 'I' for Inactive)
ROOT
ATOM      1  C   UNL d   1       0.368   1.240   0.753  0.00  0.00     0.020 A 
ATOM      2  C1  UNL d   1       1.262   0.216   0.443  0.00  0.00     0.020 A 
ATOM      3  C2  UNL d   1       1.058  -0.569  -0.694  0.00  0.00     0.034 A 
ATOM      4  C3  UNL d   1      -0.043  -0.330  -1.525  0.00  0.00     0.017 A 
ATOM      5  C4  UNL d   1      -0.940   0.698  -1.213  0.00  0.00     0.017 A 
ATOM      6  C5  UNL d   1      -0.730   1.480  -0.073  0.00  0.00     0.034 A 
ATOM      7 Cl   UNL d   1      -2.320   1.052  -2.190  0.00  0.00    -0.070 Cl
ATOM      8 Cl1  UNL d   1      -0.233  -1.338  -2.916  0.00  0.00    -0.070 Cl
ENDROOT
TORSDOF 0
ENDMDL
