MODEL 1
REMARK minimizedAffinity -0.779763818
REMARK minimizedRMSD -1
REMARK  0 active torsions:
REMARK  status: ('A' for Active; 'I' for Inactive)
ROOT
ATOM      1  C   UNL d   1       2.542   3.300  -6.000  0.00  0.00     0.020 A 
ATOM      2  C1  UNL d   1       2.541   4.694  -5.999  0.00  0.00     0.020 A 
ATOM      3  C2  UNL d   1       1.331   5.392  -5.994  0.00  0.00     0.034 A 
ATOM      4  C3  UNL d   1       0.117   4.696  -5.990  0.00  0.00     0.017 A 
ATOM      5  C4  UNL d   1       0.119   3.296  -5.991  0.00  0.00     0.017 A 
ATOM      6  C5  UNL d   1       1.333   2.603  -5.996  0.00  0.00     0.034 A 
ATOM      7 Cl   UNL d   1      -1.339   2.367  -5.986  0.00  0.00    -0.070 Cl
ATOM      8 Cl1  UNL d   1      -1.341   5.623  -5.984  0.00  0.00    -0.070 Cl
ENDROOT
TORSDOF 0
ENDMDL
