MODEL 1
REMARK minimizedAffinity -0.694008887
REMARK minimizedRMSD -1
REMARK  0 active torsions:
REMARK  status: ('A' for Active; 'I' for Inactive)
ROOT
ATOM      1  C   UNL d   1       1.830   4.310  -5.979  0.00  0.00     0.020 A 
ATOM      2  C1  UNL d   1       1.554   2.943  -5.989  0.00  0.00     0.020 A 
ATOM      3  C2  UNL d   1       0.231   2.498  -5.996  0.00  0.00     0.034 A 
ATOM      4  C3  UNL d   1      -0.822   3.420  -5.991  0.00  0.00     0.017 A 
ATOM      5  C4  UNL d   1      -0.544   4.792  -5.981  0.00  0.00     0.017 A 
ATOM      6  C5  UNL d   1       0.783   5.232  -5.975  0.00  0.00     0.034 A 
ATOM      7 Cl   UNL d   1      -1.790   5.990  -5.975  0.00  0.00    -0.070 Cl
ATOM      8 Cl1  UNL d   1      -2.434   2.799  -6.000  0.00  0.00    -0.070 Cl
ENDROOT
TORSDOF 0
ENDMDL
