MODEL 1
REMARK minimizedAffinity -0.0242292248
REMARK minimizedRMSD -1
REMARK  0 active torsions:
REMARK  status: ('A' for Active; 'I' for Inactive)
ROOT
ATOM      1  C   UNL d   1       0.970   3.993  -5.995  0.00  0.00     0.020 A 
ATOM      2  C1  UNL d   1       0.853   5.382  -5.996  0.00  0.00     0.020 A 
ATOM      3  C2  UNL d   1      -0.411   5.976  -5.995  0.00  0.00     0.034 A 
ATOM      4  C3  UNL d   1      -1.563   5.181  -5.995  0.00  0.00     0.017 A 
ATOM      5  C4  UNL d   1      -1.444   3.786  -5.995  0.00  0.00     0.017 A 
ATOM      6  C5  UNL d   1      -0.176   3.197  -5.995  0.00  0.00     0.034 A 
ATOM      7 Cl   UNL d   1      -2.818   2.739  -5.994  0.00  0.00    -0.070 Cl
ATOM      8 Cl1  UNL d   1      -3.093   5.982  -5.994  0.00  0.00    -0.070 Cl
ENDROOT
TORSDOF 0
ENDMDL
