MODEL 1
REMARK minimizedAffinity 1.75799608
REMARK minimizedRMSD -1
REMARK  0 active torsions:
REMARK  status: ('A' for Active; 'I' for Inactive)
ROOT
ATOM      1  C   UNL d   1       4.164   5.909  -5.998  0.00  0.00     0.020 A 
ATOM      2  C1  UNL d   1       4.900   4.725  -5.998  0.00  0.00     0.020 A 
ATOM      3  C2  UNL d   1       4.242   3.493  -5.997  0.00  0.00     0.034 A 
ATOM      4  C3  UNL d   1       2.843   3.443  -5.996  0.00  0.00     0.017 A 
ATOM      5  C4  UNL d   1       2.105   4.632  -5.997  0.00  0.00     0.017 A 
ATOM      6  C5  UNL d   1       2.769   5.862  -5.998  0.00  0.00     0.034 A 
ATOM      7 Cl   UNL d   1       0.377   4.650  -5.997  0.00  0.00    -0.070 Cl
ATOM      8 Cl1  UNL d   1       2.095   1.885  -5.995  0.00  0.00    -0.070 Cl
ENDROOT
TORSDOF 0
ENDMDL
