MODEL 1
REMARK minimizedAffinity 1.99058652
REMARK minimizedRMSD -1
REMARK  0 active torsions:
REMARK  status: ('A' for Active; 'I' for Inactive)
ROOT
ATOM      1  C   UNL d   1      -2.400   3.467  -5.982  0.00  0.00     0.020 A 
ATOM      2  C1  UNL d   1      -2.096   4.828  -5.985  0.00  0.00     0.020 A 
ATOM      3  C2  UNL d   1      -0.764   5.246  -5.991  0.00  0.00     0.034 A 
ATOM      4  C3  UNL d   1       0.270   4.302  -5.993  0.00  0.00     0.017 A 
ATOM      5  C4  UNL d   1      -0.036   2.936  -5.990  0.00  0.00     0.017 A 
ATOM      6  C5  UNL d   1      -1.372   2.524  -5.984  0.00  0.00     0.034 A 
ATOM      7 Cl   UNL d   1       1.184   1.713  -5.992  0.00  0.00    -0.070 Cl
ATOM      8 Cl1  UNL d   1       1.894   4.890  -6.000  0.00  0.00    -0.070 Cl
ENDROOT
TORSDOF 0
ENDMDL
