MODEL 1
REMARK minimizedAffinity -0.701428056
REMARK minimizedRMSD -1
REMARK  0 active torsions:
REMARK  status: ('A' for Active; 'I' for Inactive)
ROOT
ATOM      1  C   UNL d   1       5.895   4.508  -5.973  0.00  0.00     0.020 A 
ATOM      2  C1  UNL d   1       5.083   5.642  -5.981  0.00  0.00     0.020 A 
ATOM      3  C2  UNL d   1       3.694   5.505  -5.989  0.00  0.00     0.034 A 
ATOM      4  C3  UNL d   1       3.112   4.232  -5.989  0.00  0.00     0.017 A 
ATOM      5  C4  UNL d   1       3.928   3.095  -5.981  0.00  0.00     0.017 A 
ATOM      6  C5  UNL d   1       5.319   3.238  -5.972  0.00  0.00     0.034 A 
ATOM      7 Cl   UNL d   1       3.283   1.491  -5.980  0.00  0.00    -0.070 Cl
ATOM      8 Cl1  UNL d   1       1.386   4.137  -5.999  0.00  0.00    -0.070 Cl
ENDROOT
TORSDOF 0
ENDMDL
