MODEL 1
REMARK minimizedAffinity -1.52460146
REMARK minimizedRMSD -1
REMARK  0 active torsions:
REMARK  status: ('A' for Active; 'I' for Inactive)
ROOT
ATOM      1  C   UNL d   1       1.315   5.143  -5.983  0.00  0.00     0.020 A 
ATOM      2  C1  UNL d   1       1.342   3.749  -5.984  0.00  0.00     0.020 A 
ATOM      3  C2  UNL d   1       0.146   3.027  -5.989  0.00  0.00     0.034 A 
ATOM      4  C3  UNL d   1      -1.081   3.699  -5.993  0.00  0.00     0.017 A 
ATOM      5  C4  UNL d   1      -1.107   5.099  -5.992  0.00  0.00     0.017 A 
ATOM      6  C5  UNL d   1       0.093   5.816  -5.987  0.00  0.00     0.034 A 
ATOM      7 Cl   UNL d   1      -2.583   5.998  -5.996  0.00  0.00    -0.070 Cl
ATOM      8 Cl1  UNL d   1      -2.521   2.743  -5.999  0.00  0.00    -0.070 Cl
ENDROOT
TORSDOF 0
ENDMDL
