MODEL 1
REMARK minimizedAffinity 5.10338449
REMARK minimizedRMSD -1
REMARK  0 active torsions:
REMARK  status: ('A' for Active; 'I' for Inactive)
ROOT
ATOM      1  C   UNL d   1      -2.308   5.999  -5.591  0.00  0.00     0.020 A 
ATOM      2  C1  UNL d   1      -3.016   5.793  -4.408  0.00  0.00     0.020 A 
ATOM      3  C2  UNL d   1      -2.766   4.660  -3.633  0.00  0.00     0.034 A 
ATOM      4  C3  UNL d   1      -1.804   3.727  -4.039  0.00  0.00     0.017 A 
ATOM      5  C4  UNL d   1      -1.094   3.934  -5.227  0.00  0.00     0.017 A 
ATOM      6  C5  UNL d   1      -1.348   5.072  -6.000  0.00  0.00     0.034 A 
ATOM      7 Cl   UNL d   1       0.108   2.828  -5.793  0.00  0.00    -0.070 Cl
ATOM      8 Cl1  UNL d   1      -1.546   2.348  -3.031  0.00  0.00    -0.070 Cl
ENDROOT
TORSDOF 0
ENDMDL
