MODEL 1
REMARK minimizedAffinity -1.50522816
REMARK minimizedRMSD -1
REMARK  0 active torsions:
REMARK  status: ('A' for Active; 'I' for Inactive)
ROOT
ATOM      1  C   UNL d   1      -2.003   5.252  -4.229  0.00  0.00     0.020 A 
ATOM      2  C1  UNL d   1      -1.621   5.553  -5.536  0.00  0.00     0.020 A 
ATOM      3  C2  UNL d   1      -0.358   5.179  -5.998  0.00  0.00     0.034 A 
ATOM      4  C3  UNL d   1       0.529   4.503  -5.153  0.00  0.00     0.017 A 
ATOM      5  C4  UNL d   1       0.145   4.201  -3.841  0.00  0.00     0.017 A 
ATOM      6  C5  UNL d   1      -1.121   4.578  -3.383  0.00  0.00     0.034 A 
ATOM      7 Cl   UNL d   1       1.185   3.369  -2.739  0.00  0.00    -0.070 Cl
ATOM      8 Cl1  UNL d   1       2.076   4.070  -5.791  0.00  0.00    -0.070 Cl
ENDROOT
TORSDOF 0
ENDMDL
