MODEL 1
REMARK minimizedAffinity 2.55799365
REMARK minimizedRMSD -1
REMARK  0 active torsions:
REMARK  status: ('A' for Active; 'I' for Inactive)
ROOT
ATOM      1  C   UNL d   1      -2.504  -6.000  -3.434  0.00  0.00     0.020 A 
ATOM      2  C1  UNL d   1      -3.739  -5.794  -4.047  0.00  0.00     0.020 A 
ATOM      3  C2  UNL d   1      -4.787  -5.216  -3.328  0.00  0.00     0.034 A 
ATOM      4  C3  UNL d   1      -4.603  -4.843  -1.991  0.00  0.00     0.017 A 
ATOM      5  C4  UNL d   1      -3.362  -5.051  -1.377  0.00  0.00     0.017 A 
ATOM      6  C5  UNL d   1      -2.316  -5.629  -2.102  0.00  0.00     0.034 A 
ATOM      7 Cl   UNL d   1      -3.058  -4.616   0.268  0.00  0.00    -0.070 Cl
ATOM      8 Cl1  UNL d   1      -5.943  -4.134  -1.163  0.00  0.00    -0.070 Cl
ENDROOT
TORSDOF 0
ENDMDL
