MODEL 1
REMARK minimizedAffinity 6.63603067
REMARK minimizedRMSD -1
REMARK  0 active torsions:
REMARK  status: ('A' for Active; 'I' for Inactive)
ROOT
ATOM      1  C   UNL d   1      -0.529   1.111  -5.999  0.00  0.00     0.020 A 
ATOM      2  C1  UNL d   1       0.778   0.625  -6.000  0.00  0.00     0.020 A 
ATOM      3  C2  UNL d   1       1.854   1.516  -5.999  0.00  0.00     0.034 A 
ATOM      4  C3  UNL d   1       1.624   2.896  -5.998  0.00  0.00     0.017 A 
ATOM      5  C4  UNL d   1       0.312   3.383  -5.997  0.00  0.00     0.017 A 
ATOM      6  C5  UNL d   1      -0.761   2.487  -5.998  0.00  0.00     0.034 A 
ATOM      7 Cl   UNL d   1      -0.050   5.073  -5.996  0.00  0.00    -0.070 Cl
ATOM      8 Cl1  UNL d   1       3.002   3.940  -5.997  0.00  0.00    -0.070 Cl
ENDROOT
TORSDOF 0
ENDMDL
