MODEL 1
REMARK minimizedAffinity 5.75707769
REMARK minimizedRMSD -1
REMARK  0 active torsions:
REMARK  status: ('A' for Active; 'I' for Inactive)
ROOT
ATOM      1  C   UNL d   1       1.445   0.023  -1.398  0.00  0.00     0.020 A 
ATOM      2  C1  UNL d   1       2.149  -0.973  -0.722  0.00  0.00     0.020 A 
ATOM      3  C2  UNL d   1       2.814  -1.968  -1.441  0.00  0.00     0.034 A 
ATOM      4  C3  UNL d   1       2.776  -1.971  -2.840  0.00  0.00     0.017 A 
ATOM      5  C4  UNL d   1       2.069  -0.971  -3.518  0.00  0.00     0.017 A 
ATOM      6  C5  UNL d   1       1.405   0.024  -2.793  0.00  0.00     0.034 A 
ATOM      7 Cl   UNL d   1       1.977  -0.907  -5.242  0.00  0.00    -0.070 Cl
ATOM      8 Cl1  UNL d   1       3.622  -3.232  -3.664  0.00  0.00    -0.070 Cl
ENDROOT
TORSDOF 0
ENDMDL
