MODEL 1
REMARK minimizedAffinity 5.84465551
REMARK minimizedRMSD -1
REMARK  0 active torsions:
REMARK  status: ('A' for Active; 'I' for Inactive)
ROOT
ATOM      1  C   UNL d   1      -4.990  -0.322   2.541  0.00  0.00     0.020 A 
ATOM      2  C1  UNL d   1      -5.012  -1.504   3.281  0.00  0.00     0.020 A 
ATOM      3  C2  UNL d   1      -3.861  -2.288   3.378  0.00  0.00     0.034 A 
ATOM      4  C3  UNL d   1      -2.683  -1.892   2.736  0.00  0.00     0.017 A 
ATOM      5  C4  UNL d   1      -2.661  -0.705   1.994  0.00  0.00     0.017 A 
ATOM      6  C5  UNL d   1      -3.817   0.076   1.899  0.00  0.00     0.034 A 
ATOM      7 Cl   UNL d   1      -1.245  -0.151   1.173  0.00  0.00    -0.070 Cl
ATOM      8 Cl1  UNL d   1      -1.296  -2.910   2.899  0.00  0.00    -0.070 Cl
ENDROOT
TORSDOF 0
ENDMDL
