MODEL 1
REMARK minimizedAffinity 3.23673487
REMARK minimizedRMSD -1
REMARK  0 active torsions:
REMARK  status: ('A' for Active; 'I' for Inactive)
ROOT
ATOM      1  C   UNL d   1       1.215  -0.292  -1.390  0.00  0.00     0.020 A 
ATOM      2  C1  UNL d   1       1.863   0.718  -2.101  0.00  0.00     0.020 A 
ATOM      3  C2  UNL d   1       1.536   2.056  -1.869  0.00  0.00     0.034 A 
ATOM      4  C3  UNL d   1       0.557   2.388  -0.925  0.00  0.00     0.017 A 
ATOM      5  C4  UNL d   1      -0.093   1.374  -0.213  0.00  0.00     0.017 A 
ATOM      6  C5  UNL d   1       0.239   0.036  -0.448  0.00  0.00     0.034 A 
ATOM      7 Cl   UNL d   1      -1.311   1.705   0.968  0.00  0.00    -0.070 Cl
ATOM      8 Cl1  UNL d   1       0.203   4.062  -0.690  0.00  0.00    -0.070 Cl
ENDROOT
TORSDOF 0
ENDMDL
