MODEL 1
REMARK minimizedAffinity 7.19290543
REMARK minimizedRMSD -1
REMARK  0 active torsions:
REMARK  status: ('A' for Active; 'I' for Inactive)
ROOT
ATOM      1  C   UNL d   1      -0.500   4.379  -4.846  0.00  0.00     0.020 A 
ATOM      2  C1  UNL d   1      -0.618   5.508  -5.656  0.00  0.00     0.020 A 
ATOM      3  C2  UNL d   1      -1.882   5.991  -6.000  0.00  0.00     0.034 A 
ATOM      4  C3  UNL d   1      -3.033   5.346  -5.534  0.00  0.00     0.017 A 
ATOM      5  C4  UNL d   1      -2.914   4.213  -4.722  0.00  0.00     0.017 A 
ATOM      6  C5  UNL d   1      -1.646   3.733  -4.380  0.00  0.00     0.034 A 
ATOM      7 Cl   UNL d   1      -4.288   3.363  -4.109  0.00  0.00    -0.070 Cl
ATOM      8 Cl1  UNL d   1      -4.564   5.999  -5.999  0.00  0.00    -0.070 Cl
ENDROOT
TORSDOF 0
ENDMDL
