MODEL 1
REMARK minimizedAffinity 3.69088912
REMARK minimizedRMSD -1
REMARK  0 active torsions:
REMARK  status: ('A' for Active; 'I' for Inactive)
ROOT
ATOM      1  C   UNL d   1      -4.329  -1.283   3.044  0.00  0.00     0.020 A 
ATOM      2  C1  UNL d   1      -4.122  -0.142   2.270  0.00  0.00     0.020 A 
ATOM      3  C2  UNL d   1      -2.870   0.096   1.699  0.00  0.00     0.034 A 
ATOM      4  C3  UNL d   1      -1.820  -0.808   1.901  0.00  0.00     0.017 A 
ATOM      5  C4  UNL d   1      -2.030  -1.953   2.679  0.00  0.00     0.017 A 
ATOM      6  C5  UNL d   1      -3.285  -2.186   3.248  0.00  0.00     0.034 A 
ATOM      7 Cl   UNL d   1      -0.784  -3.113   2.974  0.00  0.00    -0.070 Cl
ATOM      8 Cl1  UNL d   1      -0.299  -0.451   1.165  0.00  0.00    -0.070 Cl
ENDROOT
TORSDOF 0
ENDMDL
