MODEL 1
REMARK minimizedAffinity -1.92297626
REMARK minimizedRMSD -1
REMARK  0 active torsions:
REMARK  status: ('A' for Active; 'I' for Inactive)
ROOT
ATOM      1  C   UNL d   1      -0.563   1.638   0.901  0.00  0.00     0.124 A 
ATOM      2  C1  UNL d   1       0.161   1.554  -0.280  0.00  0.00     0.062 A 
ATOM      3  C2  UNL d   1       0.518   0.311  -0.794  0.00  0.00     0.162 A 
ATOM      4  C3  UNL d   1       0.151  -0.859  -0.129  0.00  0.00    -0.034 A 
ATOM      5  C4  UNL d   1      -0.577  -0.766   1.059  0.00  0.00     0.162 A 
ATOM      6  C5  UNL d   1      -0.932   0.479   1.569  0.00  0.00     0.062 A 
ATOM      7  F   UNL d   1      -1.632   0.559   2.710  0.00  0.00    -0.097 F 
ATOM      8  F1  UNL d   1      -0.947  -1.870   1.724  0.00  0.00    -0.096 F 
ATOM      9  I   UNL d   1       0.683  -2.719  -0.895  0.00  0.00    -0.060 I 
ATOM     10  F2  UNL d   1       1.219   0.259  -1.937  0.00  0.00    -0.096 F 
ATOM     11  F3  UNL d   1       0.519   2.672  -0.927  0.00  0.00    -0.097 F 
ATOM     12  F4  UNL d   1      -0.905   2.836   1.395  0.00  0.00    -0.092 F 
ENDROOT
TORSDOF 0
ENDMDL
