MODEL 1
REMARK minimizedAffinity -1.52334607
REMARK minimizedRMSD -1
REMARK  0 active torsions:
REMARK  status: ('A' for Active; 'I' for Inactive)
ROOT
ATOM      1  C   UNL d   1      -1.414   2.546   1.390  0.00  0.00     0.124 A 
ATOM      2  C1  UNL d   1      -1.005   2.817   0.092  0.00  0.00     0.062 A 
ATOM      3  C2  UNL d   1      -0.382   1.829  -0.667  0.00  0.00     0.162 A 
ATOM      4  C3  UNL d   1      -0.166   0.560  -0.129  0.00  0.00    -0.034 A 
ATOM      5  C4  UNL d   1      -0.579   0.296   1.178  0.00  0.00     0.162 A 
ATOM      6  C5  UNL d   1      -1.201   1.286   1.932  0.00  0.00     0.062 A 
ATOM      7  F   UNL d   1      -1.595   1.023   3.186  0.00  0.00    -0.097 F 
ATOM      8  F1  UNL d   1      -0.387  -0.913   1.727  0.00  0.00    -0.096 F 
ATOM      9  I   UNL d   1       0.764  -0.919  -1.259  0.00  0.00    -0.060 I 
ATOM     10  F2  UNL d   1       0.002   2.119  -1.918  0.00  0.00    -0.096 F 
ATOM     11  F3  UNL d   1      -1.208   4.033  -0.434  0.00  0.00    -0.097 F 
ATOM     12  F4  UNL d   1      -2.011   3.498   2.118  0.00  0.00    -0.092 F 
ENDROOT
TORSDOF 0
ENDMDL
