MODEL 1
REMARK minimizedAffinity 2.63424873
REMARK minimizedRMSD -1
REMARK  0 active torsions:
REMARK  status: ('A' for Active; 'I' for Inactive)
ROOT
ATOM      1  C   UNL d   1      -0.260   1.231   0.206  0.00  0.00     0.124 A 
ATOM      2  C1  UNL d   1      -0.820   0.067   0.713  0.00  0.00     0.062 A 
ATOM      3  C2  UNL d   1      -0.596  -1.152   0.079  0.00  0.00     0.162 A 
ATOM      4  C3  UNL d   1       0.193  -1.213  -1.069  0.00  0.00    -0.034 A 
ATOM      5  C4  UNL d   1       0.753  -0.037  -1.574  0.00  0.00     0.162 A 
ATOM      6  C5  UNL d   1       0.525   1.178  -0.937  0.00  0.00     0.062 A 
ATOM      7  F   UNL d   1       1.067   2.302  -1.429  0.00  0.00    -0.097 F 
ATOM      8  F1  UNL d   1       1.517  -0.060  -2.676  0.00  0.00    -0.096 F 
ATOM      9  I   UNL d   1       0.531  -3.033  -2.020  0.00  0.00    -0.060 I 
ATOM     10  F2  UNL d   1      -1.150  -2.261   0.592  0.00  0.00    -0.096 F 
ATOM     11  F3  UNL d   1      -1.580   0.116   1.817  0.00  0.00    -0.097 F 
ATOM     12  F4  UNL d   1      -0.478   2.403   0.817  0.00  0.00    -0.092 F 
ENDROOT
TORSDOF 0
ENDMDL
