MODEL 1
REMARK minimizedAffinity -3.57498956
REMARK minimizedRMSD -1
REMARK  0 active torsions:
REMARK  status: ('A' for Active; 'I' for Inactive)
ROOT
ATOM      1  C   UNL d   1      -1.682   2.084   1.082  0.00  0.00     0.124 A 
ATOM      2  C1  UNL d   1      -1.541   0.868   1.736  0.00  0.00     0.062 A 
ATOM      3  C2  UNL d   1      -0.796  -0.155   1.158  0.00  0.00     0.162 A 
ATOM      4  C3  UNL d   1      -0.184   0.033  -0.082  0.00  0.00    -0.034 A 
ATOM      5  C4  UNL d   1      -0.332   1.259  -0.734  0.00  0.00     0.162 A 
ATOM      6  C5  UNL d   1      -1.078   2.278  -0.152  0.00  0.00     0.062 A 
ATOM      7  F   UNL d   1      -1.213   3.453  -0.785  0.00  0.00    -0.097 F 
ATOM      8  F1  UNL d   1       0.242   1.474  -1.927  0.00  0.00    -0.096 F 
ATOM      9  I   UNL d   1       0.931  -1.494  -0.950  0.00  0.00    -0.060 I 
ATOM     10  F2  UNL d   1      -0.676  -1.320   1.812  0.00  0.00    -0.096 F 
ATOM     11  F3  UNL d   1      -2.125   0.677   2.928  0.00  0.00    -0.097 F 
ATOM     12  F4  UNL d   1      -2.401   3.067   1.641  0.00  0.00    -0.092 F 
ENDROOT
TORSDOF 0
ENDMDL
