MODEL 1
REMARK minimizedAffinity -3.11027575
REMARK minimizedRMSD -1
REMARK  0 active torsions:
REMARK  status: ('A' for Active; 'I' for Inactive)
ROOT
ATOM      1  C   UNL d   1      -1.439   1.453   1.020  0.00  0.00     0.124 A 
ATOM      2  C1  UNL d   1      -0.960   0.469   1.873  0.00  0.00     0.062 A 
ATOM      3  C2  UNL d   1      -0.056  -0.481   1.408  0.00  0.00     0.162 A 
ATOM      4  C3  UNL d   1       0.378  -0.451   0.083  0.00  0.00    -0.034 A 
ATOM      5  C4  UNL d   1      -0.109   0.542  -0.770  0.00  0.00     0.162 A 
ATOM      6  C5  UNL d   1      -1.013   1.489  -0.300  0.00  0.00     0.062 A 
ATOM      7  F   UNL d   1      -1.474   2.439  -1.126  0.00  0.00    -0.097 F 
ATOM      8  F1  UNL d   1       0.287   0.600  -2.050  0.00  0.00    -0.096 F 
ATOM      9  I   UNL d   1       1.730  -1.870  -0.616  0.00  0.00    -0.060 I 
ATOM     10  F2  UNL d   1       0.390  -1.421   2.255  0.00  0.00    -0.096 F 
ATOM     11  F3  UNL d   1      -1.371   0.432   3.149  0.00  0.00    -0.097 F 
ATOM     12  F4  UNL d   1      -2.310   2.366   1.470  0.00  0.00    -0.092 F 
ENDROOT
TORSDOF 0
ENDMDL
