MODEL 1
REMARK minimizedAffinity -3.0552845
REMARK minimizedRMSD -1
REMARK  0 active torsions:
REMARK  status: ('A' for Active; 'I' for Inactive)
ROOT
ATOM      1  C   UNL d   1      -0.876   1.144  -0.228  0.00  0.00     0.124 A 
ATOM      2  C1  UNL d   1      -1.390   1.238   1.058  0.00  0.00     0.062 A 
ATOM      3  C2  UNL d   1      -1.016   0.315   2.030  0.00  0.00     0.162 A 
ATOM      4  C3  UNL d   1      -0.121  -0.710   1.721  0.00  0.00    -0.034 A 
ATOM      5  C4  UNL d   1       0.391  -0.798   0.425  0.00  0.00     0.162 A 
ATOM      6  C5  UNL d   1       0.014   0.127  -0.543  0.00  0.00     0.062 A 
ATOM      7  F   UNL d   1       0.512   0.035  -1.785  0.00  0.00    -0.097 F 
ATOM      8  F1  UNL d   1       1.253  -1.771   0.094  0.00  0.00    -0.096 F 
ATOM      9  I   UNL d   1       0.441  -2.092   3.172  0.00  0.00    -0.060 I 
ATOM     10  F2  UNL d   1      -1.528   0.429   3.265  0.00  0.00    -0.096 F 
ATOM     11  F3  UNL d   1      -2.250   2.219   1.365  0.00  0.00    -0.097 F 
ATOM     12  F4  UNL d   1      -1.238   2.033  -1.162  0.00  0.00    -0.092 F 
ENDROOT
TORSDOF 0
ENDMDL
