MODEL 1
REMARK minimizedAffinity -3.56890082
REMARK minimizedRMSD -1
REMARK  0 active torsions:
REMARK  status: ('A' for Active; 'I' for Inactive)
ROOT
ATOM      1  C   UNL d   1      -1.354   2.446   0.710  0.00  0.00     0.124 A 
ATOM      2  C1  UNL d   1      -0.631   2.505  -0.473  0.00  0.00     0.062 A 
ATOM      3  C2  UNL d   1       0.048   1.381  -0.935  0.00  0.00     0.162 A 
ATOM      4  C3  UNL d   1       0.005   0.188  -0.215  0.00  0.00    -0.034 A 
ATOM      5  C4  UNL d   1      -0.724   0.136   0.974  0.00  0.00     0.162 A 
ATOM      6  C5  UNL d   1      -1.400   1.262   1.432  0.00  0.00     0.062 A 
ATOM      7  F   UNL d   1      -2.099   1.203   2.576  0.00  0.00    -0.097 F 
ATOM      8  F1  UNL d   1      -0.786  -0.996   1.692  0.00  0.00    -0.096 F 
ATOM      9  I   UNL d   1       1.019  -1.495  -0.903  0.00  0.00    -0.060 I 
ATOM     10  F2  UNL d   1       0.739   1.467  -2.081  0.00  0.00    -0.096 F 
ATOM     11  F3  UNL d   1      -0.584   3.648  -1.172  0.00  0.00    -0.097 F 
ATOM     12  F4  UNL d   1      -2.005   3.529   1.153  0.00  0.00    -0.092 F 
ENDROOT
TORSDOF 0
ENDMDL
