MODEL 1
REMARK minimizedAffinity -4.94404268
REMARK minimizedRMSD -1
REMARK  0 active torsions:
REMARK  status: ('A' for Active; 'I' for Inactive)
ROOT
ATOM      1  C   UNL d   1      -1.452   2.657   1.004  0.00  0.00     0.124 A 
ATOM      2  C1  UNL d   1      -1.026   2.815  -0.307  0.00  0.00     0.062 A 
ATOM      3  C2  UNL d   1      -0.309   1.802  -0.937  0.00  0.00     0.162 A 
ATOM      4  C3  UNL d   1      -0.014   0.620  -0.256  0.00  0.00    -0.034 A 
ATOM      5  C4  UNL d   1      -0.445   0.469   1.063  0.00  0.00     0.162 A 
ATOM      6  C5  UNL d   1      -1.162   1.485   1.688  0.00  0.00     0.062 A 
ATOM      7  F   UNL d   1      -1.573   1.330   2.955  0.00  0.00    -0.097 F 
ATOM      8  F1  UNL d   1      -0.179  -0.654   1.746  0.00  0.00    -0.096 F 
ATOM      9  I   UNL d   1       1.058  -0.897  -1.195  0.00  0.00    -0.060 I 
ATOM     10  F2  UNL d   1       0.091   1.982  -2.205  0.00  0.00    -0.096 F 
ATOM     11  F3  UNL d   1      -1.304   3.947  -0.969  0.00  0.00    -0.097 F 
ATOM     12  F4  UNL d   1      -2.141   3.634   1.608  0.00  0.00    -0.092 F 
ENDROOT
TORSDOF 0
ENDMDL
