MODEL 1
REMARK minimizedAffinity -5.4838953
REMARK minimizedRMSD -1
REMARK  0 active torsions:
REMARK  status: ('A' for Active; 'I' for Inactive)
ROOT
ATOM      1  C   UNL d   1      -1.615   2.724   0.620  0.00  0.00     0.124 A 
ATOM      2  C1  UNL d   1      -0.739   2.967  -0.429  0.00  0.00     0.062 A 
ATOM      3  C2  UNL d   1       0.127   1.967  -0.864  0.00  0.00     0.162 A 
ATOM      4  C3  UNL d   1       0.120   0.715  -0.250  0.00  0.00    -0.034 A 
ATOM      5  C4  UNL d   1      -0.764   0.478   0.804  0.00  0.00     0.162 A 
ATOM      6  C5  UNL d   1      -1.627   1.480   1.235  0.00  0.00     0.062 A 
ATOM      7  F   UNL d   1      -2.473   1.244   2.248  0.00  0.00    -0.097 F 
ATOM      8  F1  UNL d   1      -0.797  -0.715   1.416  0.00  0.00    -0.096 F 
ATOM      9  I   UNL d   1       1.412  -0.783  -0.898  0.00  0.00    -0.060 I 
ATOM     10  F2  UNL d   1       0.963   2.230  -1.879  0.00  0.00    -0.096 F 
ATOM     11  F3  UNL d   1      -0.724   4.168  -1.024  0.00  0.00    -0.097 F 
ATOM     12  F4  UNL d   1      -2.446   3.688   1.037  0.00  0.00    -0.092 F 
ENDROOT
TORSDOF 0
ENDMDL
