MODEL 1
REMARK minimizedAffinity -1.48770595
REMARK minimizedRMSD -1
REMARK  0 active torsions:
REMARK  status: ('A' for Active; 'I' for Inactive)
ROOT
ATOM      1  C   UNL d   1      -0.476  -0.112   1.557  0.00  0.00     0.124 A 
ATOM      2  C1  UNL d   1       0.222  -0.170   0.358  0.00  0.00     0.062 A 
ATOM      3  C2  UNL d   1       0.287   0.948  -0.468  0.00  0.00     0.162 A 
ATOM      4  C3  UNL d   1      -0.347   2.135  -0.098  0.00  0.00    -0.034 A 
ATOM      5  C4  UNL d   1      -1.047   2.184   1.108  0.00  0.00     0.162 A 
ATOM      6  C5  UNL d   1      -1.109   1.064   1.931  0.00  0.00     0.062 A 
ATOM      7  F   UNL d   1      -1.784   1.122   3.089  0.00  0.00    -0.097 F 
ATOM      8  F1  UNL d   1      -1.668   3.309   1.495  0.00  0.00    -0.096 F 
ATOM      9  I   UNL d   1      -0.252   3.809  -1.331  0.00  0.00    -0.060 I 
ATOM     10  F2  UNL d   1       0.968   0.864  -1.620  0.00  0.00    -0.096 F 
ATOM     11  F3  UNL d   1       0.835  -1.306  -0.005  0.00  0.00    -0.097 F 
ATOM     12  F4  UNL d   1      -0.537  -1.190   2.350  0.00  0.00    -0.092 F 
ENDROOT
TORSDOF 0
ENDMDL
