MODEL 1
REMARK minimizedAffinity -1.43400502
REMARK minimizedRMSD -1
REMARK  0 active torsions:
REMARK  status: ('A' for Active; 'I' for Inactive)
ROOT
ATOM      1  C   UNL d   1       1.548  -1.013  -1.379  0.00  0.00     0.124 A 
ATOM      2  C1  UNL d   1       1.372   0.332  -1.673  0.00  0.00     0.062 A 
ATOM      3  C2  UNL d   1       0.421   1.080  -0.984  0.00  0.00     0.162 A 
ATOM      4  C3  UNL d   1      -0.360   0.484   0.007  0.00  0.00    -0.034 A 
ATOM      5  C4  UNL d   1      -0.177  -0.869   0.295  0.00  0.00     0.162 A 
ATOM      6  C5  UNL d   1       0.774  -1.613  -0.396  0.00  0.00     0.062 A 
ATOM      7  F   UNL d   1       0.943  -2.912  -0.111  0.00  0.00    -0.097 F 
ATOM      8  F1  UNL d   1      -0.912  -1.474   1.241  0.00  0.00    -0.096 F 
ATOM      9  I   UNL d   1      -1.782   1.599   1.039  0.00  0.00    -0.060 I 
ATOM     10  F2  UNL d   1       0.273   2.378  -1.288  0.00  0.00    -0.096 F 
ATOM     11  F3  UNL d   1       2.119   0.913  -2.623  0.00  0.00    -0.097 F 
ATOM     12  F4  UNL d   1       2.463  -1.731  -2.044  0.00  0.00    -0.092 F 
ENDROOT
TORSDOF 0
ENDMDL
