MODEL 1
REMARK minimizedAffinity 0.798664749
REMARK minimizedRMSD -1
REMARK  0 active torsions:
REMARK  status: ('A' for Active; 'I' for Inactive)
ROOT
ATOM      1  C   UNL d   1      -0.998   1.721   1.405  0.00  0.00     0.124 A 
ATOM      2  C1  UNL d   1      -0.392   0.746   2.186  0.00  0.00     0.062 A 
ATOM      3  C2  UNL d   1       0.186  -0.370   1.588  0.00  0.00     0.162 A 
ATOM      4  C3  UNL d   1       0.161  -0.518   0.202  0.00  0.00    -0.034 A 
ATOM      5  C4  UNL d   1      -0.451   0.466  -0.577  0.00  0.00     0.162 A 
ATOM      6  C5  UNL d   1      -1.027   1.580   0.025  0.00  0.00     0.062 A 
ATOM      7  F   UNL d   1      -1.612   2.521  -0.731  0.00  0.00    -0.097 F 
ATOM      8  F1  UNL d   1      -0.493   0.355  -1.913  0.00  0.00    -0.096 F 
ATOM      9  I   UNL d   1       1.023  -2.186  -0.696  0.00  0.00    -0.060 I 
ATOM     10  F2  UNL d   1       0.764  -1.296   2.367  0.00  0.00    -0.096 F 
ATOM     11  F3  UNL d   1      -0.363   0.880   3.520  0.00  0.00    -0.097 F 
ATOM     12  F4  UNL d   1      -1.553   2.794   1.983  0.00  0.00    -0.092 F 
ENDROOT
TORSDOF 0
ENDMDL
