MODEL 1
REMARK minimizedAffinity -1.47030771
REMARK minimizedRMSD -1
REMARK  0 active torsions:
REMARK  status: ('A' for Active; 'I' for Inactive)
ROOT
ATOM      1  C   UNL d   1       2.459   6.000   5.251  0.00  0.00     0.078 C 
ATOM      2  C1  UNL d   1       1.001   5.751   5.003  0.00  0.00    -0.077 A 
ATOM      3  C2  UNL d   1       0.048   6.000   5.998  0.00  0.00    -0.001 A 
ATOM      4  C3  UNL d   1      -1.305   5.754   5.757  0.00  0.00     0.003 A 
ATOM      5  C4  UNL d   1      -1.716   5.257   4.522  0.00  0.00    -0.005 A 
ATOM      6  C5  UNL d   1      -0.775   5.003   3.527  0.00  0.00     0.003 A 
ATOM      7  C6  UNL d   1       0.578   5.249   3.766  0.00  0.00    -0.001 A 
ENDROOT
TORSDOF 0
ENDMDL
