MODEL 1
REMARK minimizedAffinity 1.80949163
REMARK minimizedRMSD -1
REMARK  0 active torsions:
REMARK  status: ('A' for Active; 'I' for Inactive)
ROOT
ATOM      1  C   UNL d   1       3.522   5.751   4.833  0.00  0.00     0.078 C 
ATOM      2  C1  UNL d   1       2.023   5.737   4.821  0.00  0.00    -0.077 A 
ATOM      3  C2  UNL d   1       1.313   5.479   3.642  0.00  0.00    -0.001 A 
ATOM      4  C3  UNL d   1      -0.083   5.479   3.644  0.00  0.00     0.003 A 
ATOM      5  C4  UNL d   1      -0.781   5.739   4.821  0.00  0.00    -0.005 A 
ATOM      6  C5  UNL d   1      -0.083   6.000   5.999  0.00  0.00     0.003 A 
ATOM      7  C6  UNL d   1       1.312   6.000   5.999  0.00  0.00    -0.001 A 
ENDROOT
TORSDOF 0
ENDMDL
