MODEL 1
REMARK minimizedAffinity -0.979274392
REMARK minimizedRMSD -1
REMARK  0 active torsions:
REMARK  status: ('A' for Active; 'I' for Inactive)
ROOT
ATOM      1  C   UNL d   1       2.220   5.991   4.840  0.00  0.00     0.078 C 
ATOM      2  C1  UNL d   1       0.745   5.721   4.857  0.00  0.00    -0.077 A 
ATOM      3  C2  UNL d   1      -0.025   6.000   5.993  0.00  0.00    -0.001 A 
ATOM      4  C3  UNL d   1      -1.396   5.735   5.998  0.00  0.00     0.003 A 
ATOM      5  C4  UNL d   1      -2.007   5.188   4.872  0.00  0.00    -0.005 A 
ATOM      6  C5  UNL d   1      -1.248   4.905   3.738  0.00  0.00     0.003 A 
ATOM      7  C6  UNL d   1       0.123   5.169   3.731  0.00  0.00    -0.001 A 
ENDROOT
TORSDOF 0
ENDMDL
