MODEL 1
REMARK minimizedAffinity -3.00851989
REMARK minimizedRMSD -1
REMARK  0 active torsions:
REMARK  status: ('A' for Active; 'I' for Inactive)
ROOT
ATOM      1  C   UNL d   1       1.876   4.127   4.833  0.00  0.00     0.078 C 
ATOM      2  C1  UNL d   1       3.309   4.439   5.146  0.00  0.00    -0.077 A 
ATOM      3  C2  UNL d   1       3.686   5.699   5.626  0.00  0.00    -0.001 A 
ATOM      4  C3  UNL d   1       5.025   5.978   5.904  0.00  0.00     0.003 A 
ATOM      5  C4  UNL d   1       5.999   5.002   5.703  0.00  0.00    -0.005 A 
ATOM      6  C5  UNL d   1       5.634   3.745   5.223  0.00  0.00     0.003 A 
ATOM      7  C6  UNL d   1       4.296   3.465   4.945  0.00  0.00    -0.001 A 
ENDROOT
TORSDOF 0
ENDMDL
