MODEL 1
REMARK minimizedAffinity -2.69776034
REMARK minimizedRMSD -1
REMARK  0 active torsions:
REMARK  status: ('A' for Active; 'I' for Inactive)
ROOT
ATOM      1  C   UNL d   1       3.486   5.637   4.757  0.00  0.00     0.078 C 
ATOM      2  C1  UNL d   1       1.987   5.662   4.797  0.00  0.00    -0.077 A 
ATOM      3  C2  UNL d   1       1.302   5.989   5.974  0.00  0.00    -0.001 A 
ATOM      4  C3  UNL d   1      -0.093   5.998   6.000  0.00  0.00     0.003 A 
ATOM      5  C4  UNL d   1      -0.816   5.681   4.852  0.00  0.00    -0.005 A 
ATOM      6  C5  UNL d   1      -0.144   5.353   3.676  0.00  0.00     0.003 A 
ATOM      7  C6  UNL d   1       1.252   5.343   3.649  0.00  0.00    -0.001 A 
ENDROOT
TORSDOF 0
ENDMDL
