MODEL 1
REMARK minimizedAffinity -0.695563972
REMARK minimizedRMSD -1
REMARK  0 active torsions:
REMARK  status: ('A' for Active; 'I' for Inactive)
ROOT
ATOM      1  C   UNL d   1       0.979   5.710   5.089  0.00  0.00     0.078 C 
ATOM      2  C1  UNL d   1      -0.374   5.151   5.414  0.00  0.00    -0.077 A 
ATOM      3  C2  UNL d   1      -0.549   3.785   5.665  0.00  0.00    -0.001 A 
ATOM      4  C3  UNL d   1      -1.815   3.277   5.957  0.00  0.00     0.003 A 
ATOM      5  C4  UNL d   1      -2.918   4.128   5.999  0.00  0.00    -0.005 A 
ATOM      6  C5  UNL d   1      -2.755   5.489   5.748  0.00  0.00     0.003 A 
ATOM      7  C6  UNL d   1      -1.489   5.999   5.456  0.00  0.00    -0.001 A 
ENDROOT
TORSDOF 0
ENDMDL
