MODEL 1
REMARK minimizedAffinity 1.48497367
REMARK minimizedRMSD -1
REMARK  0 active torsions:
REMARK  status: ('A' for Active; 'I' for Inactive)
ROOT
ATOM      1  C   UNL d   1      -0.066  -3.829   1.835  0.00  0.00     0.078 C 
ATOM      2  C1  UNL d   1       1.009  -2.871   1.418  0.00  0.00    -0.077 A 
ATOM      3  C2  UNL d   1       0.869  -1.494   1.627  0.00  0.00    -0.001 A 
ATOM      4  C3  UNL d   1       1.874  -0.613   1.225  0.00  0.00     0.003 A 
ATOM      5  C4  UNL d   1       3.026  -1.099   0.611  0.00  0.00    -0.005 A 
ATOM      6  C5  UNL d   1       3.174  -2.468   0.396  0.00  0.00     0.003 A 
ATOM      7  C6  UNL d   1       2.170  -3.350   0.797  0.00  0.00    -0.001 A 
ENDROOT
TORSDOF 0
ENDMDL
