MODEL 1
REMARK minimizedAffinity -1.07986152
REMARK minimizedRMSD -1
REMARK  0 active torsions:
REMARK  status: ('A' for Active; 'I' for Inactive)
ROOT
ATOM      1  C   UNL d   1       1.137   5.775   4.523  0.00  0.00     0.078 C 
ATOM      2  C1  UNL d   1      -0.241   5.302   4.875  0.00  0.00    -0.077 A 
ATOM      3  C2  UNL d   1      -1.376   6.000   4.444  0.00  0.00    -0.001 A 
ATOM      4  C3  UNL d   1      -2.653   5.553   4.787  0.00  0.00     0.003 A 
ATOM      5  C4  UNL d   1      -2.807   4.406   5.564  0.00  0.00    -0.005 A 
ATOM      6  C5  UNL d   1      -1.684   3.706   5.999  0.00  0.00     0.003 A 
ATOM      7  C6  UNL d   1      -0.407   4.152   5.657  0.00  0.00    -0.001 A 
ENDROOT
TORSDOF 0
ENDMDL
