MODEL 1
REMARK minimizedAffinity -1.53821361
REMARK minimizedRMSD -1
REMARK  0 active torsions:
REMARK  status: ('A' for Active; 'I' for Inactive)
ROOT
ATOM      1  C   UNL d   1       1.071   5.820   5.300  0.00  0.00     0.078 C 
ATOM      2  C1  UNL d   1      -0.349   5.342   5.244  0.00  0.00    -0.077 A 
ATOM      3  C2  UNL d   1      -1.301   5.999   4.455  0.00  0.00    -0.001 A 
ATOM      4  C3  UNL d   1      -2.622   5.548   4.421  0.00  0.00     0.003 A 
ATOM      5  C4  UNL d   1      -3.003   4.440   5.174  0.00  0.00    -0.005 A 
ATOM      6  C5  UNL d   1      -2.063   3.781   5.964  0.00  0.00     0.003 A 
ATOM      7  C6  UNL d   1      -0.742   4.230   6.000  0.00  0.00    -0.001 A 
ENDROOT
TORSDOF 0
ENDMDL
