MODEL 1
REMARK minimizedAffinity 2.6460638
REMARK minimizedRMSD -1
REMARK  0 active torsions:
REMARK  status: ('A' for Active; 'I' for Inactive)
ROOT
ATOM      1  C   UNL d   1       0.376   5.578   5.373  0.00  0.00     0.078 C 
ATOM      2  C1  UNL d   1      -1.087   5.266   5.272  0.00  0.00    -0.077 A 
ATOM      3  C2  UNL d   1      -2.033   6.000   5.999  0.00  0.00    -0.001 A 
ATOM      4  C3  UNL d   1      -3.391   5.692   5.902  0.00  0.00     0.003 A 
ATOM      5  C4  UNL d   1      -3.816   4.651   5.079  0.00  0.00    -0.005 A 
ATOM      6  C5  UNL d   1      -2.882   3.914   4.354  0.00  0.00     0.003 A 
ATOM      7  C6  UNL d   1      -1.524   4.220   4.449  0.00  0.00    -0.001 A 
ENDROOT
TORSDOF 0
ENDMDL
