MODEL 1
REMARK minimizedAffinity -1.79342437
REMARK minimizedRMSD -1
REMARK  1 active torsions:
REMARK  status: ('A' for Active; 'I' for Inactive)
REMARK    1  A    between atoms: C3_4  and  O_7 
ROOT
ATOM      1  C   UNL d   1       1.600  -1.357  -1.679  0.00  0.00    -0.033 A 
ATOM      2  C1  UNL d   1       1.419  -2.011  -0.459  0.00  0.00     0.039 A 
ATOM      3  C2  UNL d   1       0.669  -1.410   0.554  0.00  0.00    -0.080 A 
ATOM      4  C3  UNL d   1       0.105  -0.156   0.333  0.00  0.00     0.150 A 
ATOM      5  C4  UNL d   1       0.277   0.499  -0.882  0.00  0.00    -0.007 A 
ATOM      6  C5  UNL d   1       1.027  -0.103  -1.891  0.00  0.00     0.039 A 
ENDROOT
BRANCH   4   7
ATOM      7  O   UNL d   1      -0.632   0.473   1.292  0.00  0.00    -0.526 OA
ATOM      8  H5  UNL d   1      -0.642  -0.086   2.088  0.00  0.00     0.418 HD
ENDBRANCH   4   7
TORSDOF 1
ENDMDL
