MODEL 1
REMARK minimizedAffinity -3.50260091
REMARK minimizedRMSD -1
REMARK  1 active torsions:
REMARK  status: ('A' for Active; 'I' for Inactive)
REMARK    1  A    between atoms: C3_4  and  O_7 
ROOT
ATOM      1  C   UNL d   1       0.259  -1.672   0.071  0.00  0.00    -0.033 A 
ATOM      2  C1  UNL d   1       1.201  -1.641  -0.959  0.00  0.00     0.039 A 
ATOM      3  C2  UNL d   1       1.318  -0.507  -1.766  0.00  0.00    -0.080 A 
ATOM      4  C3  UNL d   1       0.489   0.587  -1.532  0.00  0.00     0.150 A 
ATOM      5  C4  UNL d   1      -0.449   0.563  -0.505  0.00  0.00    -0.007 A 
ATOM      6  C5  UNL d   1      -0.565  -0.570   0.299  0.00  0.00     0.039 A 
ENDROOT
BRANCH   4   7
ATOM      7  O   UNL d   1       0.563   1.713  -2.296  0.00  0.00    -0.526 OA
ATOM      8  H5  UNL d   1       1.235   1.575  -2.984  0.00  0.00     0.418 HD
ENDBRANCH   4   7
TORSDOF 1
ENDMDL
