MODEL 1
REMARK minimizedAffinity -2.25304818
REMARK minimizedRMSD -1
REMARK  1 active torsions:
REMARK  status: ('A' for Active; 'I' for Inactive)
REMARK    1  A    between atoms: C3_4  and  O_7 
ROOT
ATOM      1  C   UNL d   1       1.471  -1.217  -1.365  0.00  0.00    -0.033 A 
ATOM      2  C1  UNL d   1       0.885   0.023  -1.625  0.00  0.00     0.039 A 
ATOM      3  C2  UNL d   1       0.051   0.616  -0.675  0.00  0.00    -0.080 A 
ATOM      4  C3  UNL d   1      -0.187  -0.039   0.530  0.00  0.00     0.150 A 
ATOM      5  C4  UNL d   1       0.397  -1.274   0.797  0.00  0.00    -0.007 A 
ATOM      6  C5  UNL d   1       1.228  -1.865  -0.154  0.00  0.00     0.039 A 
ENDROOT
BRANCH   4   7
ATOM      7  O   UNL d   1      -0.997   0.498   1.486  0.00  0.00    -0.526 OA
ATOM      8  H5  UNL d   1      -1.352   1.338   1.151  0.00  0.00     0.418 HD
ENDBRANCH   4   7
TORSDOF 1
ENDMDL
