MODEL 1
REMARK minimizedAffinity -4.72382975
REMARK minimizedRMSD -1
REMARK  1 active torsions:
REMARK  status: ('A' for Active; 'I' for Inactive)
REMARK    1  A    between atoms: C3_4  and  O_7 
ROOT
ATOM      1  C   UNL d   1       2.818   0.885  -1.619  0.00  0.00    -0.033 A 
ATOM      2  C1  UNL d   1       2.772  -0.473  -1.939  0.00  0.00     0.039 A 
ATOM      3  C2  UNL d   1       1.707  -1.261  -1.495  0.00  0.00    -0.080 A 
ATOM      4  C3  UNL d   1       0.697  -0.679  -0.734  0.00  0.00     0.150 A 
ATOM      5  C4  UNL d   1       0.735   0.674  -0.415  0.00  0.00    -0.007 A 
ATOM      6  C5  UNL d   1       1.799   1.459  -0.858  0.00  0.00     0.039 A 
ENDROOT
BRANCH   4   7
ATOM      7  O   UNL d   1      -0.359  -1.408  -0.275  0.00  0.00    -0.526 OA
ATOM      8  H5  UNL d   1      -0.237  -2.333  -0.548  0.00  0.00     0.418 HD
ENDBRANCH   4   7
TORSDOF 1
ENDMDL
