MODEL 1
REMARK minimizedAffinity 5.76914644
REMARK minimizedRMSD -1
REMARK  1 active torsions:
REMARK  status: ('A' for Active; 'I' for Inactive)
REMARK    1  A    between atoms: C3_4  and  O_7 
ROOT
ATOM      1  C   UNL d   1      -2.246  -0.376   3.713  0.00  0.00    -0.033 A 
ATOM      2  C1  UNL d   1      -2.665  -1.055   4.859  0.00  0.00     0.039 A 
ATOM      3  C2  UNL d   1      -3.756  -1.924   4.799  0.00  0.00    -0.080 A 
ATOM      4  C3  UNL d   1      -4.419  -2.105   3.588  0.00  0.00     0.150 A 
ATOM      5  C4  UNL d   1      -4.005  -1.435   2.442  0.00  0.00    -0.007 A 
ATOM      6  C5  UNL d   1      -2.916  -0.567   2.504  0.00  0.00     0.039 A 
ENDROOT
BRANCH   4   7
ATOM      7  O   UNL d   1      -5.492  -2.939   3.481  0.00  0.00    -0.526 OA
ATOM      8  H5  UNL d   1      -5.682  -3.310   4.359  0.00  0.00     0.418 HD
ENDBRANCH   4   7
TORSDOF 1
ENDMDL
