MODEL 1
REMARK minimizedAffinity -3.01123238
REMARK minimizedRMSD -1
REMARK  1 active torsions:
REMARK  status: ('A' for Active; 'I' for Inactive)
REMARK    1  A    between atoms: C3_4  and  O_7 
ROOT
ATOM      1  C   UNL d   1       0.535  -1.462  -0.358  0.00  0.00    -0.033 A 
ATOM      2  C1  UNL d   1       1.217  -1.115  -1.526  0.00  0.00     0.039 A 
ATOM      3  C2  UNL d   1       1.015   0.139  -2.107  0.00  0.00    -0.080 A 
ATOM      4  C3  UNL d   1       0.131   1.034  -1.511  0.00  0.00     0.150 A 
ATOM      5  C4  UNL d   1      -0.548   0.696  -0.345  0.00  0.00    -0.007 A 
ATOM      6  C5  UNL d   1      -0.346  -0.557   0.233  0.00  0.00     0.039 A 
ENDROOT
BRANCH   4   7
ATOM      7  O   UNL d   1      -0.102   2.267  -2.044  0.00  0.00    -0.526 OA
ATOM      8  H5  UNL d   1       0.414   2.351  -2.863  0.00  0.00     0.418 HD
ENDBRANCH   4   7
TORSDOF 1
ENDMDL
