MODEL 1
REMARK minimizedAffinity -3.56443262
REMARK minimizedRMSD -1
REMARK  1 active torsions:
REMARK  status: ('A' for Active; 'I' for Inactive)
REMARK    1  A    between atoms: C3_4  and  O_7 
ROOT
ATOM      1  C   UNL d   1      -0.763   0.764   0.011  0.00  0.00    -0.033 A 
ATOM      2  C1  UNL d   1      -0.389   1.571  -1.066  0.00  0.00     0.039 A 
ATOM      3  C2  UNL d   1       0.713   1.224  -1.850  0.00  0.00    -0.080 A 
ATOM      4  C3  UNL d   1       1.430   0.069  -1.548  0.00  0.00     0.150 A 
ATOM      5  C4  UNL d   1       1.060  -0.741  -0.479  0.00  0.00    -0.007 A 
ATOM      6  C5  UNL d   1      -0.040  -0.392   0.303  0.00  0.00     0.039 A 
ENDROOT
BRANCH   4   7
ATOM      7  O   UNL d   1       2.515  -0.308  -2.282  0.00  0.00    -0.526 OA
ATOM      8  H5  UNL d   1       2.670   0.362  -2.969  0.00  0.00     0.418 HD
ENDBRANCH   4   7
TORSDOF 1
ENDMDL
