MODEL 1
REMARK minimizedAffinity -4.0361805
REMARK minimizedRMSD -1
REMARK  1 active torsions:
REMARK  status: ('A' for Active; 'I' for Inactive)
REMARK    1  A    between atoms: C3_4  and  O_7 
ROOT
ATOM      1  C   UNL d   1      -0.156  -0.839  -0.085  0.00  0.00    -0.033 A 
ATOM      2  C1  UNL d   1       0.463  -0.568  -1.306  0.00  0.00     0.039 A 
ATOM      3  C2  UNL d   1       0.247   0.654  -1.946  0.00  0.00    -0.080 A 
ATOM      4  C3  UNL d   1      -0.590   1.596  -1.353  0.00  0.00     0.150 A 
ATOM      5  C4  UNL d   1      -1.207   1.335  -0.134  0.00  0.00    -0.007 A 
ATOM      6  C5  UNL d   1      -0.990   0.113   0.502  0.00  0.00     0.039 A 
ENDROOT
BRANCH   4   7
ATOM      7  O   UNL d   1      -0.835   2.801  -1.942  0.00  0.00    -0.526 OA
ATOM      8  H5  UNL d   1      -0.365   2.830  -2.792  0.00  0.00     0.418 HD
ENDBRANCH   4   7
TORSDOF 1
ENDMDL
