MODEL 1
REMARK minimizedAffinity -3.41185975
REMARK minimizedRMSD -1
REMARK  1 active torsions:
REMARK  status: ('A' for Active; 'I' for Inactive)
REMARK    1  A    between atoms: C3_4  and  O_7 
ROOT
ATOM      1  C   UNL d   1      -0.105  -1.340   0.039  0.00  0.00    -0.033 A 
ATOM      2  C1  UNL d   1       0.982  -0.902  -0.719  0.00  0.00     0.039 A 
ATOM      3  C2  UNL d   1       0.968   0.370  -1.294  0.00  0.00    -0.080 A 
ATOM      4  C3  UNL d   1      -0.138   1.194  -1.102  0.00  0.00     0.150 A 
ATOM      5  C4  UNL d   1      -1.223   0.765  -0.345  0.00  0.00    -0.007 A 
ATOM      6  C5  UNL d   1      -1.207  -0.506   0.228  0.00  0.00     0.039 A 
ENDROOT
BRANCH   4   7
ATOM      7  O   UNL d   1      -0.201   2.442  -1.647  0.00  0.00    -0.526 OA
ATOM      8  H5  UNL d   1       0.606   2.591  -2.168  0.00  0.00     0.418 HD
ENDBRANCH   4   7
TORSDOF 1
ENDMDL
