MODEL 1
REMARK minimizedAffinity -3.21978807
REMARK minimizedRMSD -1
REMARK  1 active torsions:
REMARK  status: ('A' for Active; 'I' for Inactive)
REMARK    1  A    between atoms: C3_4  and  O_7 
ROOT
ATOM      1  C   UNL d   1       1.266  -1.346  -1.340  0.00  0.00    -0.033 A 
ATOM      2  C1  UNL d   1       0.309  -0.906  -0.423  0.00  0.00     0.039 A 
ATOM      3  C2  UNL d   1      -0.269   0.357  -0.566  0.00  0.00    -0.080 A 
ATOM      4  C3  UNL d   1       0.117   1.168  -1.630  0.00  0.00     0.150 A 
ATOM      5  C4  UNL d   1       1.066   0.734  -2.549  0.00  0.00    -0.007 A 
ATOM      6  C5  UNL d   1       1.643  -0.526  -2.404  0.00  0.00     0.039 A 
ENDROOT
BRANCH   4   7
ATOM      7  O   UNL d   1      -0.416   2.410  -1.808  0.00  0.00    -0.526 OA
ATOM      8  H5  UNL d   1      -1.037   2.586  -1.081  0.00  0.00     0.418 HD
ENDBRANCH   4   7
TORSDOF 1
ENDMDL
