MODEL 1
REMARK minimizedAffinity -5.01362801
REMARK minimizedRMSD -1
REMARK  1 active torsions:
REMARK  status: ('A' for Active; 'I' for Inactive)
REMARK    1  A    between atoms: C3_4  and  O_7 
ROOT
ATOM      1  C   UNL d   1       3.177   0.700  -2.002  0.00  0.00    -0.033 A 
ATOM      2  C1  UNL d   1       2.900  -0.378  -1.160  0.00  0.00     0.039 A 
ATOM      3  C2  UNL d   1       1.683  -0.438  -0.477  0.00  0.00    -0.080 A 
ATOM      4  C3  UNL d   1       0.755   0.586  -0.645  0.00  0.00     0.150 A 
ATOM      5  C4  UNL d   1       1.023   1.661  -1.485  0.00  0.00    -0.007 A 
ATOM      6  C5  UNL d   1       2.239   1.719  -2.166  0.00  0.00     0.039 A 
ENDROOT
BRANCH   4   7
ATOM      7  O   UNL d   1      -0.444   0.574   0.005  0.00  0.00    -0.526 OA
ATOM      8  H5  UNL d   1      -0.479  -0.214   0.572  0.00  0.00     0.418 HD
ENDBRANCH   4   7
TORSDOF 1
ENDMDL
