MODEL 1
REMARK minimizedAffinity -4.94228506
REMARK minimizedRMSD -1
REMARK  1 active torsions:
REMARK  status: ('A' for Active; 'I' for Inactive)
REMARK    1  A    between atoms: C3_4  and  O_7 
ROOT
ATOM      1  C   UNL d   1      -1.265   0.570  -0.155  0.00  0.00    -0.033 A 
ATOM      2  C1  UNL d   1      -0.967  -0.785  -0.003  0.00  0.00     0.039 A 
ATOM      3  C2  UNL d   1       0.227  -1.301  -0.512  0.00  0.00    -0.080 A 
ATOM      4  C3  UNL d   1       1.112  -0.452  -1.171  0.00  0.00     0.150 A 
ATOM      5  C4  UNL d   1       0.823   0.901  -1.323  0.00  0.00    -0.007 A 
ATOM      6  C5  UNL d   1      -0.370   1.413  -0.814  0.00  0.00     0.039 A 
ENDROOT
BRANCH   4   7
ATOM      7  O   UNL d   1       2.286  -0.910  -1.689  0.00  0.00    -0.526 OA
ATOM      8  H5  UNL d   1       2.338  -1.868  -1.534  0.00  0.00     0.418 HD
ENDBRANCH   4   7
TORSDOF 1
ENDMDL
