MODEL 1
REMARK minimizedAffinity -3.31245136
REMARK minimizedRMSD -1
REMARK  1 active torsions:
REMARK  status: ('A' for Active; 'I' for Inactive)
REMARK    1  A    between atoms: C3_4  and  O_7 
ROOT
ATOM      1  C   UNL d   1      -0.372   0.092  -0.224  0.00  0.00    -0.033 A 
ATOM      2  C1  UNL d   1       0.414  -0.249   0.878  0.00  0.00     0.039 A 
ATOM      3  C2  UNL d   1       0.031   0.148   2.161  0.00  0.00    -0.080 A 
ATOM      4  C3  UNL d   1      -1.140   0.883   2.327  0.00  0.00     0.150 A 
ATOM      5  C4  UNL d   1      -1.930   1.223   1.233  0.00  0.00    -0.007 A 
ATOM      6  C5  UNL d   1      -1.545   0.826  -0.047  0.00  0.00     0.039 A 
ENDROOT
BRANCH   4   7
ATOM      7  O   UNL d   1      -1.553   1.297   3.559  0.00  0.00    -0.526 OA
ATOM      8  H5  UNL d   1      -0.894   1.015   4.215  0.00  0.00     0.418 HD
ENDBRANCH   4   7
TORSDOF 1
ENDMDL
