MODEL 1
REMARK minimizedAffinity -2.16658425
REMARK minimizedRMSD -1
REMARK  1 active torsions:
REMARK  status: ('A' for Active; 'I' for Inactive)
REMARK    1  A    between atoms: C1_2  and  C2_3 
ROOT
ATOM      1  C2  UNL d   1      -2.577  -4.812  -4.991  0.00  0.00    -0.077 A 
ATOM      2  C3  UNL d   1      -2.230  -5.040  -3.651  0.00  0.00     0.002 A 
ATOM      3  C4  UNL d   1      -1.008  -5.634  -3.329  0.00  0.00     0.002 A 
ATOM      4  C5  UNL d   1      -0.122  -6.000  -4.340  0.00  0.00    -0.004 A 
ATOM      5  C6  UNL d   1      -0.458  -5.779  -5.675  0.00  0.00     0.002 A 
ATOM      6  C7  UNL d   1      -1.679  -5.186  -5.999  0.00  0.00     0.002 A 
ENDROOT
BRANCH   1   7
ATOM      7  C1  UNL d   1      -3.873  -4.127  -5.338  0.00  0.00     0.055 C 
ATOM      8  C   UNL d   1      -4.135  -2.941  -4.421  0.00  0.00     0.019 C 
ENDBRANCH   1   7
TORSDOF 1
ENDMDL
