MODEL 1
REMARK minimizedAffinity -1.12767076
REMARK minimizedRMSD -1
REMARK  1 active torsions:
REMARK  status: ('A' for Active; 'I' for Inactive)
REMARK    1  A    between atoms: C1_2  and  C2_3 
ROOT
ATOM      1  C2  UNL d   1      -2.895  -4.973  -5.384  0.00  0.00    -0.077 A 
ATOM      2  C3  UNL d   1      -1.736  -4.480  -6.000  0.00  0.00     0.002 A 
ATOM      3  C4  UNL d   1      -0.479  -4.744  -5.453  0.00  0.00     0.002 A 
ATOM      4  C5  UNL d   1      -0.369  -5.506  -4.292  0.00  0.00    -0.004 A 
ATOM      5  C6  UNL d   1      -1.515  -5.999  -3.671  0.00  0.00     0.002 A 
ATOM      6  C7  UNL d   1      -2.773  -5.735  -4.215  0.00  0.00     0.002 A 
ENDROOT
BRANCH   1   7
ATOM      7  C1  UNL d   1      -4.249  -4.731  -6.000  0.00  0.00     0.055 C 
ATOM      8  C   UNL d   1      -5.123  -5.974  -5.922  0.00  0.00     0.019 C 
ENDBRANCH   1   7
TORSDOF 1
ENDMDL
