MODEL 1
REMARK minimizedAffinity 0.170000613
REMARK minimizedRMSD -1
REMARK  1 active torsions:
REMARK  status: ('A' for Active; 'I' for Inactive)
REMARK    1  A    between atoms: C1_2  and  C2_3 
ROOT
ATOM      1  C2  UNL d   1      -1.656  -0.717  -0.376  0.00  0.00    -0.077 A 
ATOM      2  C3  UNL d   1      -1.534  -1.938  -1.054  0.00  0.00     0.002 A 
ATOM      3  C4  UNL d   1      -2.580  -2.411  -1.850  0.00  0.00     0.002 A 
ATOM      4  C5  UNL d   1      -3.752  -1.669  -1.977  0.00  0.00    -0.004 A 
ATOM      5  C6  UNL d   1      -3.883  -0.455  -1.304  0.00  0.00     0.002 A 
ATOM      6  C7  UNL d   1      -2.840   0.019  -0.508  0.00  0.00     0.002 A 
ENDROOT
BRANCH   1   7
ATOM      7  C1  UNL d   1      -0.510  -0.182   0.443  0.00  0.00     0.055 C 
ATOM      8  C   UNL d   1       0.802  -0.853   0.064  0.00  0.00     0.019 C 
ENDBRANCH   1   7
TORSDOF 1
ENDMDL
