MODEL 1
REMARK minimizedAffinity 4.22349644
REMARK minimizedRMSD -1
REMARK  1 active torsions:
REMARK  status: ('A' for Active; 'I' for Inactive)
REMARK    1  A    between atoms: C1_2  and  C2_3 
ROOT
ATOM      1  C2  UNL d   1      -0.633   2.635  -3.201  0.00  0.00    -0.077 A 
ATOM      2  C3  UNL d   1      -0.622   2.626  -1.799  0.00  0.00     0.002 A 
ATOM      3  C4  UNL d   1      -1.813   2.486  -1.084  0.00  0.00     0.002 A 
ATOM      4  C5  UNL d   1      -3.023   2.351  -1.762  0.00  0.00    -0.004 A 
ATOM      5  C6  UNL d   1      -3.045   2.361  -3.156  0.00  0.00     0.002 A 
ATOM      6  C7  UNL d   1      -1.855   2.502  -3.872  0.00  0.00     0.002 A 
ENDROOT
BRANCH   1   7
ATOM      7  C1  UNL d   1       0.656   2.736  -3.974  0.00  0.00     0.055 C 
ATOM      8  C   UNL d   1       1.797   2.049  -3.239  0.00  0.00     0.019 C 
ENDBRANCH   1   7
TORSDOF 1
ENDMDL
