MODEL 1
REMARK minimizedAffinity -6.05448103
REMARK minimizedRMSD -1
REMARK  1 active torsions:
REMARK  status: ('A' for Active; 'I' for Inactive)
REMARK    1  A    between atoms: C1_2  and  C2_3 
ROOT
ATOM      1  C2  UNL d   1      -2.576  -2.149   2.979  0.00  0.00    -0.077 A 
ATOM      2  C3  UNL d   1      -2.970  -2.200   1.634  0.00  0.00     0.002 A 
ATOM      3  C4  UNL d   1      -2.013  -2.227   0.618  0.00  0.00     0.002 A 
ATOM      4  C5  UNL d   1      -0.657  -2.206   0.936  0.00  0.00    -0.004 A 
ATOM      5  C6  UNL d   1      -0.254  -2.152   2.270  0.00  0.00     0.002 A 
ATOM      6  C7  UNL d   1      -1.210  -2.125   3.287  0.00  0.00     0.002 A 
ENDROOT
BRANCH   1   7
ATOM      7  C1  UNL d   1      -3.606  -2.170   4.078  0.00  0.00     0.055 C 
ATOM      8  C   UNL d   1      -4.918  -2.771   3.595  0.00  0.00     0.019 C 
ENDBRANCH   1   7
TORSDOF 1
ENDMDL
