MODEL 1
REMARK minimizedAffinity -1.67014623
REMARK minimizedRMSD -1
REMARK  1 active torsions:
REMARK  status: ('A' for Active; 'I' for Inactive)
REMARK    1  A    between atoms: C1_2  and  C2_3 
ROOT
ATOM      1  C2  UNL d   1       1.464   2.715  -3.679  0.00  0.00    -0.077 A 
ATOM      2  C3  UNL d   1       2.743   3.265  -3.846  0.00  0.00     0.002 A 
ATOM      3  C4  UNL d   1       3.860   2.637  -3.294  0.00  0.00     0.002 A 
ATOM      4  C5  UNL d   1       3.711   1.453  -2.575  0.00  0.00    -0.004 A 
ATOM      5  C6  UNL d   1       2.444   0.898  -2.401  0.00  0.00     0.002 A 
ATOM      6  C7  UNL d   1       1.326   1.526  -2.952  0.00  0.00     0.002 A 
ENDROOT
BRANCH   1   7
ATOM      7  C1  UNL d   1       0.264   3.365  -4.316  0.00  0.00     0.055 C 
ATOM      8  C   UNL d   1      -0.971   3.225  -3.439  0.00  0.00     0.019 C 
ENDBRANCH   1   7
TORSDOF 1
ENDMDL
