MODEL 1
REMARK minimizedAffinity 5.4882369
REMARK minimizedRMSD -1
REMARK  1 active torsions:
REMARK  status: ('A' for Active; 'I' for Inactive)
REMARK    1  A    between atoms: C1_2  and  C2_3 
ROOT
ATOM      1  C2  UNL d   1      -0.012  -2.027   2.567  0.00  0.00    -0.077 A 
ATOM      2  C3  UNL d   1      -0.817  -2.137   3.709  0.00  0.00     0.002 A 
ATOM      3  C4  UNL d   1      -0.341  -2.786   4.850  0.00  0.00     0.002 A 
ATOM      4  C5  UNL d   1       0.943  -3.327   4.860  0.00  0.00    -0.004 A 
ATOM      5  C6  UNL d   1       1.751  -3.224   3.729  0.00  0.00     0.002 A 
ATOM      6  C7  UNL d   1       1.276  -2.577   2.588  0.00  0.00     0.002 A 
ENDROOT
BRANCH   1   7
ATOM      7  C1  UNL d   1      -0.505  -1.284   1.353  0.00  0.00     0.055 C 
ATOM      8  C   UNL d   1       0.470  -0.191   0.939  0.00  0.00     0.019 C 
ENDBRANCH   1   7
TORSDOF 1
ENDMDL
