MODEL 1
REMARK minimizedAffinity -3.33427048
REMARK minimizedRMSD -1
REMARK  1 active torsions:
REMARK  status: ('A' for Active; 'I' for Inactive)
REMARK    1  A    between atoms: C1_2  and  C2_3 
ROOT
ATOM      1  C2  UNL d   1      -4.013  -3.573  -5.886  0.00  0.00    -0.077 A 
ATOM      2  C3  UNL d   1      -2.623  -3.539  -5.713  0.00  0.00     0.002 A 
ATOM      3  C4  UNL d   1      -1.889  -4.725  -5.653  0.00  0.00     0.002 A 
ATOM      4  C5  UNL d   1      -2.536  -5.953  -5.770  0.00  0.00    -0.004 A 
ATOM      5  C6  UNL d   1      -3.920  -5.998  -5.940  0.00  0.00     0.002 A 
ATOM      6  C7  UNL d   1      -4.655  -4.813  -5.999  0.00  0.00     0.002 A 
ENDROOT
BRANCH   1   7
ATOM      7  C1  UNL d   1      -4.800  -2.293  -5.999  0.00  0.00     0.055 C 
ATOM      8  C   UNL d   1      -4.192  -1.192  -5.143  0.00  0.00     0.019 C 
ENDBRANCH   1   7
TORSDOF 1
ENDMDL
