MODEL 1
REMARK minimizedAffinity 10.4311495
REMARK minimizedRMSD -1
REMARK  0 active torsions:
REMARK  status: ('A' for Active; 'I' for Inactive)
ROOT
ATOM      1  C   UNL d   1       0.395  -4.140  -3.582  0.00  0.00     0.124 A 
ATOM      2  C1  UNL d   1       0.318  -4.201  -2.198  0.00  0.00     0.062 A 
ATOM      3  C2  UNL d   1       1.457  -4.465  -1.444  0.00  0.00     0.162 A 
ATOM      4  C3  UNL d   1       2.686  -4.669  -2.073  0.00  0.00    -0.034 A 
ATOM      5  C4  UNL d   1       2.755  -4.607  -3.466  0.00  0.00     0.162 A 
ATOM      6  C5  UNL d   1       1.613  -4.343  -4.215  0.00  0.00     0.062 A 
ATOM      7  F   UNL d   1       1.690  -4.284  -5.552  0.00  0.00    -0.097 F 
ATOM      8  F1  UNL d   1       3.920  -4.798  -4.103  0.00  0.00    -0.096 F 
ATOM      9  I   UNL d   1       4.392  -5.064  -0.949  0.00  0.00    -0.060 I 
ATOM     10  F2  UNL d   1       1.353  -4.518  -0.108  0.00  0.00    -0.096 F 
ATOM     11  F3  UNL d   1      -0.859  -4.006  -1.584  0.00  0.00    -0.097 F 
ATOM     12  F4  UNL d   1      -0.704  -3.887  -4.305  0.00  0.00    -0.092 F 
ENDROOT
TORSDOF 0
ENDMDL
