MODEL 1
REMARK minimizedAffinity 23.4890633
REMARK minimizedRMSD -1
REMARK  0 active torsions:
REMARK  status: ('A' for Active; 'I' for Inactive)
ROOT
ATOM      1  C   UNL d   1       2.541  -2.933   0.099  0.00  0.00     0.124 A 
ATOM      2  C1  UNL d   1       2.709  -1.747  -0.603  0.00  0.00     0.062 A 
ATOM      3  C2  UNL d   1       2.047  -1.549  -1.811  0.00  0.00     0.162 A 
ATOM      4  C3  UNL d   1       1.209  -2.539  -2.325  0.00  0.00    -0.034 A 
ATOM      5  C4  UNL d   1       1.046  -3.730  -1.614  0.00  0.00     0.162 A 
ATOM      6  C5  UNL d   1       1.710  -3.922  -0.407  0.00  0.00     0.062 A 
ATOM      7  F   UNL d   1       1.547  -5.069   0.270  0.00  0.00    -0.097 F 
ATOM      8  F1  UNL d   1       0.248  -4.702  -2.079  0.00  0.00    -0.096 F 
ATOM      9  I   UNL d   1       0.217  -2.247  -4.131  0.00  0.00    -0.060 I 
ATOM     10  F2  UNL d   1       2.228  -0.394  -2.468  0.00  0.00    -0.096 F 
ATOM     11  F3  UNL d   1       3.512  -0.790  -0.117  0.00  0.00    -0.097 F 
ATOM     12  F4  UNL d   1       3.181  -3.121   1.260  0.00  0.00    -0.092 F 
ENDROOT
TORSDOF 0
ENDMDL
