MODEL 1
REMARK minimizedAffinity 23.7630692
REMARK minimizedRMSD -1
REMARK  0 active torsions:
REMARK  status: ('A' for Active; 'I' for Inactive)
ROOT
ATOM      1  C   UNL d   1       0.976   3.960  -1.657  0.00  0.00     0.124 A 
ATOM      2  C1  UNL d   1      -0.271   3.429  -1.358  0.00  0.00     0.062 A 
ATOM      3  C2  UNL d   1      -0.459   2.699  -0.188  0.00  0.00     0.162 A 
ATOM      4  C3  UNL d   1       0.604   2.496   0.692  0.00  0.00    -0.034 A 
ATOM      5  C4  UNL d   1       1.856   3.032   0.384  0.00  0.00     0.162 A 
ATOM      6  C5  UNL d   1       2.038   3.761  -0.787  0.00  0.00     0.062 A 
ATOM      7  F   UNL d   1       3.243   4.273  -1.074  0.00  0.00    -0.097 F 
ATOM      8  F1  UNL d   1       2.899   2.856   1.208  0.00  0.00    -0.096 F 
ATOM      9  I   UNL d   1       0.328   1.405   2.443  0.00  0.00    -0.060 I 
ATOM     10  F2  UNL d   1      -1.674   2.198   0.076  0.00  0.00    -0.096 F 
ATOM     11  F3  UNL d   1      -1.299   3.620  -2.198  0.00  0.00    -0.097 F 
ATOM     12  F4  UNL d   1       1.154   4.662  -2.784  0.00  0.00    -0.092 F 
ENDROOT
TORSDOF 0
ENDMDL
