MODEL 1
REMARK minimizedAffinity 23.1571751
REMARK minimizedRMSD -1
REMARK  0 active torsions:
REMARK  status: ('A' for Active; 'I' for Inactive)
ROOT
ATOM      1  C   UNL d   1      -0.827   1.739   1.115  0.00  0.00     0.124 A 
ATOM      2  C1  UNL d   1      -1.668   1.002   1.937  0.00  0.00     0.062 A 
ATOM      3  C2  UNL d   1      -1.137   0.193   2.937  0.00  0.00     0.162 A 
ATOM      4  C3  UNL d   1       0.243   0.117   3.122  0.00  0.00    -0.034 A 
ATOM      5  C4  UNL d   1       1.083   0.861   2.291  0.00  0.00     0.162 A 
ATOM      6  C5  UNL d   1       0.547   1.668   1.293  0.00  0.00     0.062 A 
ATOM      7  F   UNL d   1       1.362   2.380   0.500  0.00  0.00    -0.097 F 
ATOM      8  F1  UNL d   1       2.415   0.811   2.441  0.00  0.00    -0.096 F 
ATOM      9  I   UNL d   1       1.042  -1.092   4.616  0.00  0.00    -0.060 I 
ATOM     10  F2  UNL d   1      -1.974  -0.509   3.716  0.00  0.00    -0.096 F 
ATOM     11  F3  UNL d   1      -2.997   1.068   1.767  0.00  0.00    -0.097 F 
ATOM     12  F4  UNL d   1      -1.341   2.517   0.153  0.00  0.00    -0.092 F 
ENDROOT
TORSDOF 0
ENDMDL
