MODEL 1
REMARK minimizedAffinity 22.835043
REMARK minimizedRMSD -1
REMARK  0 active torsions:
REMARK  status: ('A' for Active; 'I' for Inactive)
ROOT
ATOM      1  C   UNL d   1      -0.583   1.303   2.209  0.00  0.00     0.124 A 
ATOM      2  C1  UNL d   1      -1.599   1.843   1.434  0.00  0.00     0.062 A 
ATOM      3  C2  UNL d   1      -1.299   2.487   0.237  0.00  0.00     0.162 A 
ATOM      4  C3  UNL d   1       0.024   2.593  -0.193  0.00  0.00    -0.034 A 
ATOM      5  C4  UNL d   1       1.041   2.049   0.593  0.00  0.00     0.162 A 
ATOM      6  C5  UNL d   1       0.736   1.406   1.789  0.00  0.00     0.062 A 
ATOM      7  F   UNL d   1       1.719   0.885   2.537  0.00  0.00    -0.097 F 
ATOM      8  F1  UNL d   1       2.323   2.133   0.210  0.00  0.00    -0.096 F 
ATOM      9  I   UNL d   1       0.477   3.555  -1.982  0.00  0.00    -0.060 I 
ATOM     10  F2  UNL d   1      -2.301   2.999  -0.493  0.00  0.00    -0.096 F 
ATOM     11  F3  UNL d   1      -2.873   1.745   1.838  0.00  0.00    -0.097 F 
ATOM     12  F4  UNL d   1      -0.874   0.685   3.361  0.00  0.00    -0.092 F 
ENDROOT
TORSDOF 0
ENDMDL
