MODEL 1
REMARK minimizedAffinity 22.7397118
REMARK minimizedRMSD -1
REMARK  0 active torsions:
REMARK  status: ('A' for Active; 'I' for Inactive)
ROOT
ATOM      1  C   UNL d   1       1.129  -2.939  -0.902  0.00  0.00     0.124 A 
ATOM      2  C1  UNL d   1       1.493  -4.224  -1.279  0.00  0.00     0.062 A 
ATOM      3  C2  UNL d   1       2.810  -4.650  -1.134  0.00  0.00     0.162 A 
ATOM      4  C3  UNL d   1       3.773  -3.790  -0.607  0.00  0.00    -0.034 A 
ATOM      5  C4  UNL d   1       3.400  -2.499  -0.230  0.00  0.00     0.162 A 
ATOM      6  C5  UNL d   1       2.082  -2.078  -0.378  0.00  0.00     0.062 A 
ATOM      7  F   UNL d   1       1.733  -0.836  -0.013  0.00  0.00    -0.097 F 
ATOM      8  F1  UNL d   1       4.301  -1.646   0.280  0.00  0.00    -0.096 F 
ATOM      9  I   UNL d   1       5.744  -4.423  -0.387  0.00  0.00    -0.060 I 
ATOM     10  F2  UNL d   1       3.133  -5.897  -1.507  0.00  0.00    -0.096 F 
ATOM     11  F3  UNL d   1       0.574  -5.058  -1.787  0.00  0.00    -0.097 F 
ATOM     12  F4  UNL d   1      -0.139  -2.532  -1.044  0.00  0.00    -0.092 F 
ENDROOT
TORSDOF 0
ENDMDL
