MODEL 1
REMARK minimizedAffinity 21.5320339
REMARK minimizedRMSD -1
REMARK  0 active torsions:
REMARK  status: ('A' for Active; 'I' for Inactive)
ROOT
ATOM      1  C   UNL d   1       1.275  -3.240  -1.131  0.00  0.00     0.124 A 
ATOM      2  C1  UNL d   1       1.787  -4.501  -1.405  0.00  0.00     0.062 A 
ATOM      3  C2  UNL d   1       3.136  -4.770  -1.192  0.00  0.00     0.162 A 
ATOM      4  C3  UNL d   1       3.982  -3.777  -0.700  0.00  0.00    -0.034 A 
ATOM      5  C4  UNL d   1       3.460  -2.511  -0.427  0.00  0.00     0.162 A 
ATOM      6  C5  UNL d   1       2.111  -2.247  -0.642  0.00  0.00     0.062 A 
ATOM      7  F   UNL d   1       1.618  -1.029  -0.377  0.00  0.00    -0.097 F 
ATOM      8  F1  UNL d   1       4.246  -1.533   0.046  0.00  0.00    -0.096 F 
ATOM      9  I   UNL d   1       6.000  -4.175  -0.379  0.00  0.00    -0.060 I 
ATOM     10  F2  UNL d   1       3.603  -5.997  -1.466  0.00  0.00    -0.096 F 
ATOM     11  F3  UNL d   1       0.981  -5.462  -1.878  0.00  0.00    -0.097 F 
ATOM     12  F4  UNL d   1      -0.023  -2.984  -1.338  0.00  0.00    -0.092 F 
ENDROOT
TORSDOF 0
ENDMDL
