MODEL 1
REMARK minimizedAffinity 22.6748047
REMARK minimizedRMSD -1
REMARK  0 active torsions:
REMARK  status: ('A' for Active; 'I' for Inactive)
ROOT
ATOM      1  C   UNL d   1       0.931  -2.956  -1.136  0.00  0.00     0.124 A 
ATOM      2  C1  UNL d   1       1.863  -2.014  -0.722  0.00  0.00     0.062 A 
ATOM      3  C2  UNL d   1       3.150  -2.411  -0.370  0.00  0.00     0.162 A 
ATOM      4  C3  UNL d   1       3.512  -3.757  -0.431  0.00  0.00    -0.034 A 
ATOM      5  C4  UNL d   1       2.569  -4.698  -0.847  0.00  0.00     0.162 A 
ATOM      6  C5  UNL d   1       1.284  -4.296  -1.198  0.00  0.00     0.062 A 
ATOM      7  F   UNL d   1       0.385  -5.207  -1.597  0.00  0.00    -0.097 F 
ATOM      8  F1  UNL d   1       2.884  -6.000  -0.917  0.00  0.00    -0.096 F 
ATOM      9  I   UNL d   1       5.435  -4.355   0.095  0.00  0.00    -0.060 I 
ATOM     10  F2  UNL d   1       4.030  -1.480   0.026  0.00  0.00    -0.096 F 
ATOM     11  F3  UNL d   1       1.524  -0.719  -0.661  0.00  0.00    -0.097 F 
ATOM     12  F4  UNL d   1      -0.307  -2.571  -1.473  0.00  0.00    -0.092 F 
ENDROOT
TORSDOF 0
ENDMDL
