MODEL 1
REMARK minimizedAffinity 29.4127007
REMARK minimizedRMSD -1
REMARK  0 active torsions:
REMARK  status: ('A' for Active; 'I' for Inactive)
ROOT
ATOM      1  C   UNL d   1       1.317  -3.045  -0.426  0.00  0.00     0.124 A 
ATOM      2  C1  UNL d   1       1.658  -4.346  -0.767  0.00  0.00     0.062 A 
ATOM      3  C2  UNL d   1       2.994  -4.734  -0.800  0.00  0.00     0.162 A 
ATOM      4  C3  UNL d   1       4.001  -3.819  -0.491  0.00  0.00    -0.034 A 
ATOM      5  C4  UNL d   1       3.650  -2.512  -0.150  0.00  0.00     0.162 A 
ATOM      6  C5  UNL d   1       2.313  -2.129  -0.118  0.00  0.00     0.062 A 
ATOM      7  F   UNL d   1       1.986  -0.871   0.211  0.00  0.00    -0.097 F 
ATOM      8  F1  UNL d   1       4.593  -1.606   0.153  0.00  0.00    -0.096 F 
ATOM      9  I   UNL d   1       6.000  -4.396  -0.539  0.00  0.00    -0.060 I 
ATOM     10  F2  UNL d   1       3.294  -5.999  -1.132  0.00  0.00    -0.096 F 
ATOM     11  F3  UNL d   1       0.698  -5.233  -1.066  0.00  0.00    -0.097 F 
ATOM     12  F4  UNL d   1       0.031  -2.674  -0.396  0.00  0.00    -0.092 F 
ENDROOT
TORSDOF 0
ENDMDL
