MODEL 1
REMARK minimizedAffinity -0.941828191
REMARK minimizedRMSD -1
REMARK  1 active torsions:
REMARK  status: ('A' for Active; 'I' for Inactive)
REMARK    1  A    between atoms: N_2  and  C1_3 
ROOT
ATOM      1  C1  UNL d   1      -0.362   3.751  -0.857  0.00  0.00     0.143 A 
ATOM      2  C2  UNL d   1      -1.559   3.819  -1.578  0.00  0.00    -0.057 A 
ATOM      3  C3  UNL d   1      -1.855   4.919  -2.392  0.00  0.00     0.033 A 
ATOM      4  C4  UNL d   1      -0.969   5.988  -2.476  0.00  0.00    -0.042 A 
ATOM      5  C5  UNL d   1       0.215   5.954  -1.749  0.00  0.00     0.033 A 
ATOM      6  C6  UNL d   1       0.508   4.849  -0.943  0.00  0.00    -0.057 A 
ENDROOT
BRANCH   1   7
ATOM      7  N   UNL d   1      -0.055   2.730   0.046  0.00  0.00    -0.732 N 
ATOM      8  C   UNL d   1      -0.173   2.947   1.472  0.00  0.00     0.284 C 
ATOM      9  H3  UNL d   1      -0.391   1.822  -0.266  0.00  0.00     0.395 HD
ENDBRANCH   1   7
TORSDOF 1
ENDMDL
