MODEL 1
REMARK minimizedAffinity 8.01215172
REMARK minimizedRMSD -1
REMARK  1 active torsions:
REMARK  status: ('A' for Active; 'I' for Inactive)
REMARK    1  A    between atoms: N_2  and  C1_3 
ROOT
ATOM      1  C1  UNL d   1       3.654  -2.709  -0.221  0.00  0.00     0.143 A 
ATOM      2  C2  UNL d   1       3.655  -4.097  -0.046  0.00  0.00    -0.057 A 
ATOM      3  C3  UNL d   1       4.722  -4.885  -0.493  0.00  0.00     0.033 A 
ATOM      4  C4  UNL d   1       5.798  -4.300  -1.152  0.00  0.00    -0.042 A 
ATOM      5  C5  UNL d   1       5.807  -2.925  -1.359  0.00  0.00     0.033 A 
ATOM      6  C6  UNL d   1       4.741  -2.143  -0.905  0.00  0.00    -0.057 A 
ENDROOT
BRANCH   1   7
ATOM      7  N   UNL d   1       2.578  -1.884   0.113  0.00  0.00    -0.732 N 
ATOM      8  C   UNL d   1       1.361  -1.905  -0.671  0.00  0.00     0.284 C 
ATOM      9  H3  UNL d   1       2.424  -1.833   1.117  0.00  0.00     0.395 HD
ENDBRANCH   1   7
TORSDOF 1
ENDMDL
