MODEL 1
REMARK minimizedAffinity 1.49025273
REMARK minimizedRMSD -1
REMARK  1 active torsions:
REMARK  status: ('A' for Active; 'I' for Inactive)
REMARK    1  A    between atoms: N_2  and  C1_3 
ROOT
ATOM      1  C1  UNL d   1      -0.344   3.575  -0.002  0.00  0.00     0.143 A 
ATOM      2  C2  UNL d   1      -0.774   3.518  -1.332  0.00  0.00    -0.057 A 
ATOM      3  C3  UNL d   1      -1.121   4.679  -2.033  0.00  0.00     0.033 A 
ATOM      4  C4  UNL d   1      -1.072   5.919  -1.405  0.00  0.00    -0.042 A 
ATOM      5  C5  UNL d   1      -0.671   5.997  -0.076  0.00  0.00     0.033 A 
ATOM      6  C6  UNL d   1      -0.319   4.834   0.617  0.00  0.00    -0.057 A 
ENDROOT
BRANCH   1   7
ATOM      7  N   UNL d   1      -0.080   2.447   0.779  0.00  0.00    -0.732 N 
ATOM      8  C   UNL d   1       0.186   2.577   2.196  0.00  0.00     0.284 C 
ATOM      9  H3  UNL d   1      -0.677   1.659   0.539  0.00  0.00     0.395 HD
ENDBRANCH   1   7
TORSDOF 1
ENDMDL
