MODEL 1
REMARK minimizedAffinity 4.63592196
REMARK minimizedRMSD -1
REMARK  1 active torsions:
REMARK  status: ('A' for Active; 'I' for Inactive)
REMARK    1  A    between atoms: N_2  and  C1_3 
ROOT
ATOM      1  C1  UNL d   1       0.032   4.570  -0.723  0.00  0.00     0.143 A 
ATOM      2  C2  UNL d   1      -0.410   3.719   0.296  0.00  0.00    -0.057 A 
ATOM      3  C3  UNL d   1       0.441   3.330   1.337  0.00  0.00     0.033 A 
ATOM      4  C4  UNL d   1       1.763   3.762   1.361  0.00  0.00    -0.042 A 
ATOM      5  C5  UNL d   1       2.231   4.588   0.345  0.00  0.00     0.033 A 
ATOM      6  C6  UNL d   1       1.374   4.979  -0.688  0.00  0.00    -0.057 A 
ENDROOT
BRANCH   1   7
ATOM      7  N   UNL d   1      -0.738   4.913  -1.838  0.00  0.00    -0.732 N 
ATOM      8  C   UNL d   1      -1.696   5.995  -1.767  0.00  0.00     0.284 C 
ATOM      9  H3  UNL d   1      -0.202   4.888  -2.702  0.00  0.00     0.395 HD
ENDBRANCH   1   7
TORSDOF 1
ENDMDL
