MODEL 1
REMARK minimizedAffinity -1.45937109
REMARK minimizedRMSD -1
REMARK  1 active torsions:
REMARK  status: ('A' for Active; 'I' for Inactive)
REMARK    1  A    between atoms: C1_2  and  C2_3 
ROOT
ATOM      1  C2  UNL d   1      -0.785  -0.110  -0.108  0.00  0.00    -0.081 A 
ATOM      2  C3  UNL d   1       0.395  -0.658  -0.627  0.00  0.00     0.006 A 
ATOM      3  C4  UNL d   1       1.595  -0.553   0.080  0.00  0.00     0.002 A 
ATOM      4  C5  UNL d   1       1.634   0.093   1.320  0.00  0.00    -0.080 A 
ATOM      5  C6  UNL d   1       2.910   0.186   2.104  0.00  0.00     0.076 C 
ATOM      6  C7  UNL d   1       0.460   0.656   1.831  0.00  0.00     0.002 A 
ATOM      7  C8  UNL d   1      -0.740   0.552   1.124  0.00  0.00     0.006 A 
ENDROOT
BRANCH   1   8
ATOM      8  C1  UNL d   1      -2.093  -0.277  -0.838  0.00  0.00     0.054 C 
ATOM      9  C   UNL d   1      -2.806   1.056  -1.008  0.00  0.00     0.018 C 
ENDBRANCH   1   8
TORSDOF 1
ENDMDL
