MODEL 1
REMARK minimizedAffinity -1.81629658
REMARK minimizedRMSD -1
REMARK  1 active torsions:
REMARK  status: ('A' for Active; 'I' for Inactive)
REMARK    1  A    between atoms: C1_2  and  C2_3 
ROOT
ATOM      1  C2  UNL d   1       0.632   0.163  -1.391  0.00  0.00    -0.081 A 
ATOM      2  C3  UNL d   1      -0.762   0.294  -1.374  0.00  0.00     0.006 A 
ATOM      3  C4  UNL d   1      -1.452   0.372  -0.162  0.00  0.00     0.002 A 
ATOM      4  C5  UNL d   1      -0.759   0.327   1.053  0.00  0.00    -0.080 A 
ATOM      5  C6  UNL d   1      -1.484   0.440   2.361  0.00  0.00     0.076 C 
ATOM      6  C7  UNL d   1       0.632   0.178   1.037  0.00  0.00     0.002 A 
ATOM      7  C8  UNL d   1       1.322   0.100  -0.175  0.00  0.00     0.006 A 
ENDROOT
BRANCH   1   8
ATOM      8  C1  UNL d   1       1.385   0.144  -2.697  0.00  0.00     0.054 C 
ATOM      9  C   UNL d   1       0.775   1.112  -3.700  0.00  0.00     0.018 C 
ENDBRANCH   1   8
TORSDOF 1
ENDMDL
