MODEL 1
REMARK minimizedAffinity 4.27501392
REMARK minimizedRMSD -1
REMARK  1 active torsions:
REMARK  status: ('A' for Active; 'I' for Inactive)
REMARK    1  A    between atoms: C1_2  and  C2_3 
ROOT
ATOM      1  C2  UNL d   1      -0.927  -0.451   2.261  0.00  0.00    -0.081 A 
ATOM      2  C3  UNL d   1       0.274  -0.423   1.540  0.00  0.00     0.006 A 
ATOM      3  C4  UNL d   1       0.282  -0.062   0.191  0.00  0.00     0.002 A 
ATOM      4  C5  UNL d   1      -0.908   0.286  -0.458  0.00  0.00    -0.080 A 
ATOM      5  C6  UNL d   1      -0.909   0.706  -1.898  0.00  0.00     0.076 C 
ATOM      6  C7  UNL d   1      -2.109   0.242   0.257  0.00  0.00     0.002 A 
ATOM      7  C8  UNL d   1      -2.118  -0.120   1.606  0.00  0.00     0.006 A 
ENDROOT
BRANCH   1   8
ATOM      8  C1  UNL d   1      -0.930  -0.778   3.732  0.00  0.00     0.054 C 
ATOM      9  C   UNL d   1       0.468  -1.120   4.226  0.00  0.00     0.018 C 
ENDBRANCH   1   8
TORSDOF 1
ENDMDL
