MODEL 1
REMARK minimizedAffinity 2.39221191
REMARK minimizedRMSD -1
REMARK  1 active torsions:
REMARK  status: ('A' for Active; 'I' for Inactive)
REMARK    1  A    between atoms: C1_2  and  C2_3 
ROOT
ATOM      1  C2  UNL d   1       0.210  -0.631   0.821  0.00  0.00    -0.081 A 
ATOM      2  C3  UNL d   1      -0.327  -0.988  -0.421  0.00  0.00     0.006 A 
ATOM      3  C4  UNL d   1      -1.652  -0.676  -0.737  0.00  0.00     0.002 A 
ATOM      4  C5  UNL d   1      -2.458   0.005   0.181  0.00  0.00    -0.080 A 
ATOM      5  C6  UNL d   1      -3.872   0.373  -0.156  0.00  0.00     0.076 C 
ATOM      6  C7  UNL d   1      -1.927   0.347   1.430  0.00  0.00     0.002 A 
ATOM      7  C8  UNL d   1      -0.603   0.034   1.746  0.00  0.00     0.006 A 
ENDROOT
BRANCH   1   8
ATOM      8  C1  UNL d   1       1.657  -0.909   1.139  0.00  0.00     0.054 C 
ATOM      9  C   UNL d   1       2.485   0.368   1.114  0.00  0.00     0.018 C 
ENDBRANCH   1   8
TORSDOF 1
ENDMDL
