MODEL 1
REMARK minimizedAffinity -0.04996939
REMARK minimizedRMSD -1
REMARK  1 active torsions:
REMARK  status: ('A' for Active; 'I' for Inactive)
REMARK    1  A    between atoms: C1_2  and  C2_3 
ROOT
ATOM      1  C2  UNL d   1      -0.893  -0.760   3.267  0.00  0.00    -0.081 A 
ATOM      2  C3  UNL d   1      -2.153  -0.198   3.030  0.00  0.00     0.006 A 
ATOM      3  C4  UNL d   1      -2.469   0.329   1.775  0.00  0.00     0.002 A 
ATOM      4  C5  UNL d   1      -1.533   0.296   0.736  0.00  0.00    -0.080 A 
ATOM      5  C6  UNL d   1      -1.870   0.832  -0.624  0.00  0.00     0.076 C 
ATOM      6  C7  UNL d   1      -0.268  -0.249   0.978  0.00  0.00     0.002 A 
ATOM      7  C8  UNL d   1       0.049  -0.776   2.232  0.00  0.00     0.006 A 
ENDROOT
BRANCH   1   8
ATOM      8  C1  UNL d   1      -0.572  -1.387   4.600  0.00  0.00     0.054 C 
ATOM      9  C   UNL d   1       0.919  -1.662   4.737  0.00  0.00     0.018 C 
ENDBRANCH   1   8
TORSDOF 1
ENDMDL
