MODEL 1
REMARK minimizedAffinity 3.38299608
REMARK minimizedRMSD -1
REMARK  1 active torsions:
REMARK  status: ('A' for Active; 'I' for Inactive)
REMARK    1  A    between atoms: C1_2  and  C2_3 
ROOT
ATOM      1  C2  UNL d   1       0.599  -0.131  -0.296  0.00  0.00    -0.081 A 
ATOM      2  C3  UNL d   1      -0.107  -1.134   0.378  0.00  0.00     0.006 A 
ATOM      3  C4  UNL d   1      -1.487  -1.265   0.209  0.00  0.00     0.002 A 
ATOM      4  C5  UNL d   1      -2.183  -0.400  -0.643  0.00  0.00    -0.080 A 
ATOM      5  C6  UNL d   1      -3.660  -0.549  -0.857  0.00  0.00     0.076 C 
ATOM      6  C7  UNL d   1      -1.480   0.614  -1.303  0.00  0.00     0.002 A 
ATOM      7  C8  UNL d   1      -0.100   0.745  -1.134  0.00  0.00     0.006 A 
ENDROOT
BRANCH   1   8
ATOM      8  C1  UNL d   1       2.098  -0.028  -0.165  0.00  0.00     0.054 C 
ATOM      9  C   UNL d   1       2.651  -1.126   0.731  0.00  0.00     0.018 C 
ENDBRANCH   1   8
TORSDOF 1
ENDMDL
