MODEL 1
REMARK minimizedAffinity 2.22107816
REMARK minimizedRMSD -1
REMARK  1 active torsions:
REMARK  status: ('A' for Active; 'I' for Inactive)
REMARK    1  A    between atoms: C1_2  and  C2_3 
ROOT
ATOM      1  C2  UNL d   1       1.598   0.078   0.460  0.00  0.00    -0.081 A 
ATOM      2  C3  UNL d   1       2.072   1.305   0.938  0.00  0.00     0.006 A 
ATOM      3  C4  UNL d   1       3.217   1.886   0.387  0.00  0.00     0.002 A 
ATOM      4  C5  UNL d   1       3.901   1.253  -0.657  0.00  0.00    -0.080 A 
ATOM      5  C6  UNL d   1       5.113   1.880  -1.278  0.00  0.00     0.076 C 
ATOM      6  C7  UNL d   1       3.437   0.018  -1.123  0.00  0.00     0.002 A 
ATOM      7  C8  UNL d   1       2.293  -0.563  -0.571  0.00  0.00     0.006 A 
ENDROOT
BRANCH   1   8
ATOM      8  C1  UNL d   1       0.327  -0.519   1.009  0.00  0.00     0.054 C 
ATOM      9  C   UNL d   1      -0.850  -0.267   0.077  0.00  0.00     0.018 C 
ENDBRANCH   1   8
TORSDOF 1
ENDMDL
