MODEL 1
REMARK minimizedAffinity 10.7118807
REMARK minimizedRMSD -1
REMARK  0 active torsions:
REMARK  status: ('A' for Active; 'I' for Inactive)
ROOT
ATOM      1  C1  DEN d   1       3.049  -0.476  -1.444  0.00  0.00     0.130 A 
ATOM      2  C2  DEN d   1       1.775   0.192  -1.191  0.00  0.00    -0.031 A 
ATOM      3  C3  DEN d   1       1.035  -0.601  -0.189  0.00  0.00     0.027 A 
ATOM      4  C4  DEN d   1       1.735  -2.785   0.990  0.00  0.00     0.027 A 
ATOM      5  C5  DEN d   1       2.723  -3.739   1.092  0.00  0.00    -0.003 A 
ATOM      6  C6  DEN d   1       3.865  -3.690   0.338  0.00  0.00     0.001 A 
ATOM      7  C7  DEN d   1       4.068  -2.642  -0.521  0.00  0.00     0.017 A 
ATOM      8  C8  DEN d   1       3.072  -1.681  -0.635  0.00  0.00    -0.094 A 
ATOM      9  C9  DEN d   1       1.930  -1.741   0.146  0.00  0.00    -0.072 A 
ENDROOT
TORSDOF 0
ENDMDL
