MODEL 1
REMARK minimizedAffinity 6.66097736
REMARK minimizedRMSD -1
REMARK  0 active torsions:
REMARK  status: ('A' for Active; 'I' for Inactive)
ROOT
ATOM      1  C1  DEN d   1       2.994  -2.844  -0.097  0.00  0.00     0.130 A 
ATOM      2  C2  DEN d   1       4.340  -3.377   0.096  0.00  0.00    -0.031 A 
ATOM      3  C3  DEN d   1       5.301  -2.274  -0.107  0.00  0.00     0.027 A 
ATOM      4  C4  DEN d   1       4.837   0.195  -0.694  0.00  0.00     0.027 A 
ATOM      5  C5  DEN d   1       3.852   1.117  -0.969  0.00  0.00    -0.003 A 
ATOM      6  C6  DEN d   1       2.525   0.779  -1.006  0.00  0.00     0.001 A 
ATOM      7  C7  DEN d   1       2.143  -0.505  -0.719  0.00  0.00     0.017 A 
ATOM      8  C8  DEN d   1       3.132  -1.442  -0.448  0.00  0.00    -0.094 A 
ATOM      9  C9  DEN d   1       4.467  -1.078  -0.404  0.00  0.00    -0.072 A 
ENDROOT
TORSDOF 0
ENDMDL
