MODEL 1
REMARK minimizedAffinity 13.2455997
REMARK minimizedRMSD -1
REMARK  0 active torsions:
REMARK  status: ('A' for Active; 'I' for Inactive)
ROOT
ATOM      1  C1  DEN d   1       3.566  -2.713  -0.525  0.00  0.00     0.130 A 
ATOM      2  C2  DEN d   1       5.005  -2.888  -0.348  0.00  0.00    -0.031 A 
ATOM      3  C3  DEN d   1       5.629  -1.549  -0.328  0.00  0.00     0.027 A 
ATOM      4  C4  DEN d   1       4.510   0.765  -0.547  0.00  0.00     0.027 A 
ATOM      5  C5  DEN d   1       3.312   1.420  -0.726  0.00  0.00    -0.003 A 
ATOM      6  C6  DEN d   1       2.128   0.748  -0.882  0.00  0.00     0.001 A 
ATOM      7  C7  DEN d   1       2.111  -0.620  -0.819  0.00  0.00     0.017 A 
ATOM      8  C8  DEN d   1       3.317  -1.288  -0.646  0.00  0.00    -0.094 A 
ATOM      9  C9  DEN d   1       4.501  -0.590  -0.477  0.00  0.00    -0.072 A 
ENDROOT
TORSDOF 0
ENDMDL
