MODEL 1
REMARK minimizedAffinity -0.252165973
REMARK minimizedRMSD -1
REMARK  0 active torsions:
REMARK  status: ('A' for Active; 'I' for Inactive)
ROOT
ATOM      1  C1  DEN d   1       2.291  -0.741  -0.884  0.00  0.00     0.130 A 
ATOM      2  C2  DEN d   1       2.730   0.603  -1.248  0.00  0.00    -0.031 A 
ATOM      3  C3  DEN d   1       4.178   0.700  -0.977  0.00  0.00     0.027 A 
ATOM      4  C4  DEN d   1       5.776  -1.095  -0.040  0.00  0.00     0.027 A 
ATOM      5  C5  DEN d   1       5.862  -2.388   0.428  0.00  0.00    -0.003 A 
ATOM      6  C6  DEN d   1       4.767  -3.204   0.522  0.00  0.00     0.001 A 
ATOM      7  C7  DEN d   1       3.544  -2.751   0.101  0.00  0.00     0.017 A 
ATOM      8  C8  DEN d   1       3.448  -1.447  -0.365  0.00  0.00    -0.094 A 
ATOM      9  C9  DEN d   1       4.570  -0.641  -0.464  0.00  0.00    -0.072 A 
ENDROOT
TORSDOF 0
ENDMDL
