MODEL 1
REMARK minimizedAffinity 1.27223873
REMARK minimizedRMSD -1
REMARK  0 active torsions:
REMARK  status: ('A' for Active; 'I' for Inactive)
ROOT
ATOM      1  C1  DEN d   1       1.595  -1.064   0.723  0.00  0.00     0.130 A 
ATOM      2  C2  DEN d   1       0.683   0.068   0.586  0.00  0.00    -0.031 A 
ATOM      3  C3  DEN d   1      -0.470  -0.164   1.479  0.00  0.00     0.027 A 
ATOM      4  C4  DEN d   1      -0.926  -2.152   3.057  0.00  0.00     0.027 A 
ATOM      5  C5  DEN d   1      -0.444  -3.362   3.507  0.00  0.00    -0.003 A 
ATOM      6  C6  DEN d   1       0.725  -3.901   3.039  0.00  0.00     0.001 A 
ATOM      7  C7  DEN d   1       1.475  -3.209   2.126  0.00  0.00     0.017 A 
ATOM      8  C8  DEN d   1       0.992  -1.993   1.662  0.00  0.00    -0.094 A 
ATOM      9  C9  DEN d   1      -0.186  -1.458   2.156  0.00  0.00    -0.072 A 
ENDROOT
TORSDOF 0
ENDMDL
