MODEL 1
REMARK minimizedAffinity -0.0354922935
REMARK minimizedRMSD -1
REMARK  0 active torsions:
REMARK  status: ('A' for Active; 'I' for Inactive)
ROOT
ATOM      1  C1  DEN d   1       1.461  -1.358   0.059  0.00  0.00     0.130 A 
ATOM      2  C2  DEN d   1       0.627  -0.185   0.308  0.00  0.00    -0.031 A 
ATOM      3  C3  DEN d   1      -0.182  -0.448   1.515  0.00  0.00     0.027 A 
ATOM      4  C4  DEN d   1      -0.221  -2.544   3.018  0.00  0.00     0.027 A 
ATOM      5  C5  DEN d   1       0.305  -3.804   3.201  0.00  0.00    -0.003 A 
ATOM      6  C6  DEN d   1       1.220  -4.346   2.337  0.00  0.00     0.001 A 
ATOM      7  C7  DEN d   1       1.672  -3.607   1.276  0.00  0.00     0.017 A 
ATOM      8  C8  DEN d   1       1.141  -2.339   1.080  0.00  0.00    -0.094 A 
ATOM      9  C9  DEN d   1       0.225  -1.804   1.971  0.00  0.00    -0.072 A 
ENDROOT
TORSDOF 0
ENDMDL
