MODEL 1
REMARK minimizedAffinity 1.6180687
REMARK minimizedRMSD -1
REMARK  0 active torsions:
REMARK  status: ('A' for Active; 'I' for Inactive)
ROOT
ATOM      1  C1  DEN d   1      -0.084  -2.449   2.889  0.00  0.00     0.130 A 
ATOM      2  C2  DEN d   1       0.992  -3.409   2.660  0.00  0.00    -0.031 A 
ATOM      3  C3  DEN d   1       1.704  -3.013   1.429  0.00  0.00     0.027 A 
ATOM      4  C4  DEN d   1       1.250  -1.013  -0.136  0.00  0.00     0.027 A 
ATOM      5  C5  DEN d   1       0.435   0.074  -0.360  0.00  0.00    -0.003 A 
ATOM      6  C6  DEN d   1      -0.622   0.375   0.457  0.00  0.00     0.001 A 
ATOM      7  C7  DEN d   1      -0.865  -0.395   1.564  0.00  0.00     0.017 A 
ATOM      8  C8  DEN d   1      -0.052  -1.498   1.792  0.00  0.00    -0.094 A 
ATOM      9  C9  DEN d   1       1.019  -1.778   0.961  0.00  0.00    -0.072 A 
ENDROOT
TORSDOF 0
ENDMDL
