MODEL 1
REMARK minimizedAffinity 4.16579056
REMARK minimizedRMSD -1
REMARK  0 active torsions:
REMARK  status: ('A' for Active; 'I' for Inactive)
ROOT
ATOM      1  C1  DEN d   1       1.790   1.087  -1.646  0.00  0.00     0.130 A 
ATOM      2  C2  DEN d   1       3.153   0.633  -1.383  0.00  0.00    -0.031 A 
ATOM      3  C3  DEN d   1       3.101  -0.353  -0.285  0.00  0.00     0.027 A 
ATOM      4  C4  DEN d   1       1.054  -1.221   1.022  0.00  0.00     0.027 A 
ATOM      5  C5  DEN d   1      -0.312  -1.119   1.165  0.00  0.00    -0.003 A 
ATOM      6  C6  DEN d   1      -1.063  -0.257   0.410  0.00  0.00     0.001 A 
ATOM      7  C7  DEN d   1      -0.457   0.505  -0.554  0.00  0.00     0.017 A 
ATOM      8  C8  DEN d   1       0.921   0.413  -0.698  0.00  0.00    -0.094 A 
ATOM      9  C9  DEN d   1       1.660  -0.473   0.066  0.00  0.00    -0.072 A 
ENDROOT
TORSDOF 0
ENDMDL
