MODEL 1
REMARK minimizedAffinity -4.62773609
REMARK minimizedRMSD -1
REMARK  1 active torsions:
REMARK  status: ('A' for Active; 'I' for Inactive)
REMARK    1  A    between atoms: C1_2  and  C2_3 
ROOT
ATOM      1  C2  UNL d   1       0.245  -0.134   0.158  0.00  0.00    -0.077 A 
ATOM      2  C3  UNL d   1      -1.144   0.049   0.215  0.00  0.00     0.002 A 
ATOM      3  C4  UNL d   1      -1.710   0.847   1.211  0.00  0.00     0.002 A 
ATOM      4  C5  UNL d   1      -0.896   1.471   2.154  0.00  0.00    -0.004 A 
ATOM      5  C6  UNL d   1       0.486   1.293   2.106  0.00  0.00     0.002 A 
ATOM      6  C7  UNL d   1       1.054   0.495   1.112  0.00  0.00     0.002 A 
ENDROOT
BRANCH   1   7
ATOM      7  C1  UNL d   1       0.861  -0.955  -0.945  0.00  0.00     0.055 C 
ATOM      8  C   UNL d   1       0.506  -0.396  -2.316  0.00  0.00     0.019 C 
ENDBRANCH   1   7
TORSDOF 1
ENDMDL
