MODEL 1
REMARK minimizedAffinity -5.30632973
REMARK minimizedRMSD -1
REMARK  1 active torsions:
REMARK  status: ('A' for Active; 'I' for Inactive)
REMARK    1  A    between atoms: C1_2  and  C2_3 
ROOT
ATOM      1  C2  UNL d   1      -0.193   0.317  -0.146  0.00  0.00    -0.077 A 
ATOM      2  C3  UNL d   1       0.548   1.084   0.764  0.00  0.00     0.002 A 
ATOM      3  C4  UNL d   1      -0.065   1.624   1.896  0.00  0.00     0.002 A 
ATOM      4  C5  UNL d   1      -1.420   1.400   2.130  0.00  0.00    -0.004 A 
ATOM      5  C6  UNL d   1      -2.166   0.640   1.230  0.00  0.00     0.002 A 
ATOM      6  C7  UNL d   1      -1.555   0.100   0.097  0.00  0.00     0.002 A 
ENDROOT
BRANCH   1   7
ATOM      7  C1  UNL d   1       0.478  -0.308  -1.341  0.00  0.00     0.055 C 
ATOM      8  C   UNL d   1       1.062   0.751  -2.265  0.00  0.00     0.019 C 
ENDBRANCH   1   7
TORSDOF 1
ENDMDL
