MODEL 1
REMARK minimizedAffinity -5.47680902
REMARK minimizedRMSD -1
REMARK  1 active torsions:
REMARK  status: ('A' for Active; 'I' for Inactive)
REMARK    1  A    between atoms: C1_2  and  C2_3 
ROOT
ATOM      1  C2  UNL d   1       0.376  -0.080   0.136  0.00  0.00    -0.077 A 
ATOM      2  C3  UNL d   1       1.026   0.335   1.307  0.00  0.00     0.002 A 
ATOM      3  C4  UNL d   1       0.332   1.056   2.281  0.00  0.00     0.002 A 
ATOM      4  C5  UNL d   1      -1.014   1.364   2.097  0.00  0.00    -0.004 A 
ATOM      5  C6  UNL d   1      -1.668   0.958   0.935  0.00  0.00     0.002 A 
ATOM      6  C7  UNL d   1      -0.977   0.238  -0.041  0.00  0.00     0.002 A 
ENDROOT
BRANCH   1   7
ATOM      7  C1  UNL d   1       1.109  -0.901  -0.893  0.00  0.00     0.055 C 
ATOM      8  C   UNL d   1       0.784  -0.436  -2.305  0.00  0.00     0.019 C 
ENDBRANCH   1   7
TORSDOF 1
ENDMDL
