MODEL 1
REMARK minimizedAffinity -3.87561941
REMARK minimizedRMSD -1
REMARK  1 active torsions:
REMARK  status: ('A' for Active; 'I' for Inactive)
REMARK    1  A    between atoms: C1_2  and  C2_3 
ROOT
ATOM      1  C2  UNL d   1      -0.109  -0.158  -0.171  0.00  0.00    -0.077 A 
ATOM      2  C3  UNL d   1      -1.389  -0.614   0.172  0.00  0.00     0.002 A 
ATOM      3  C4  UNL d   1      -2.019  -0.149   1.328  0.00  0.00     0.002 A 
ATOM      4  C5  UNL d   1      -1.377   0.777   2.148  0.00  0.00    -0.004 A 
ATOM      5  C6  UNL d   1      -0.102   1.235   1.817  0.00  0.00     0.002 A 
ATOM      6  C7  UNL d   1       0.529   0.770   0.662  0.00  0.00     0.002 A 
ENDROOT
BRANCH   1   7
ATOM      7  C1  UNL d   1       0.551  -0.621  -1.444  0.00  0.00     0.055 C 
ATOM      8  C   UNL d   1       1.083   0.554  -2.251  0.00  0.00     0.019 C 
ENDBRANCH   1   7
TORSDOF 1
ENDMDL
