MODEL 1
REMARK minimizedAffinity -4.18831825
REMARK minimizedRMSD -1
REMARK  1 active torsions:
REMARK  status: ('A' for Active; 'I' for Inactive)
REMARK    1  A    between atoms: C1_2  and  C2_3 
ROOT
ATOM      1  C2  UNL d   1      -1.018   0.375   1.200  0.00  0.00    -0.077 A 
ATOM      2  C3  UNL d   1       0.372   0.203   1.141  0.00  0.00     0.002 A 
ATOM      3  C4  UNL d   1       0.995  -0.114  -0.068  0.00  0.00     0.002 A 
ATOM      4  C5  UNL d   1       0.236  -0.256  -1.228  0.00  0.00    -0.004 A 
ATOM      5  C6  UNL d   1      -1.148  -0.089  -1.180  0.00  0.00     0.002 A 
ATOM      6  C7  UNL d   1      -1.772   0.226   0.028  0.00  0.00     0.002 A 
ENDROOT
BRANCH   1   7
ATOM      7  C1  UNL d   1      -1.685   0.764   2.493  0.00  0.00     0.055 C 
ATOM      8  C   UNL d   1      -0.919   1.873   3.199  0.00  0.00     0.019 C 
ENDBRANCH   1   7
TORSDOF 1
ENDMDL
