MODEL 1
REMARK minimizedAffinity -5.05724335
REMARK minimizedRMSD -1
REMARK  1 active torsions:
REMARK  status: ('A' for Active; 'I' for Inactive)
REMARK    1  A    between atoms: C1_2  and  C2_3 
ROOT
ATOM      1  C2  UNL d   1       0.281   0.614   1.309  0.00  0.00    -0.077 A 
ATOM      2  C3  UNL d   1      -0.906   0.985   1.958  0.00  0.00     0.002 A 
ATOM      3  C4  UNL d   1      -2.145   0.679   1.393  0.00  0.00     0.002 A 
ATOM      4  C5  UNL d   1      -2.210  -0.002   0.179  0.00  0.00    -0.004 A 
ATOM      5  C6  UNL d   1      -1.036  -0.374  -0.474  0.00  0.00     0.002 A 
ATOM      6  C7  UNL d   1       0.204  -0.068   0.089  0.00  0.00     0.002 A 
ENDROOT
BRANCH   1   7
ATOM      7  C1  UNL d   1       1.618   0.900   1.942  0.00  0.00     0.055 C 
ATOM      8  C   UNL d   1       2.553  -0.295   1.823  0.00  0.00     0.019 C 
ENDBRANCH   1   7
TORSDOF 1
ENDMDL
