MODEL 1
REMARK minimizedAffinity -3.61544514
REMARK minimizedRMSD -1
REMARK  1 active torsions:
REMARK  status: ('A' for Active; 'I' for Inactive)
REMARK    1  A    between atoms: C1_2  and  C2_3 
ROOT
ATOM      1  C2  UNL d   1      -0.814   0.340   1.278  0.00  0.00    -0.077 A 
ATOM      2  C3  UNL d   1      -1.459   0.238   0.037  0.00  0.00     0.002 A 
ATOM      3  C4  UNL d   1      -0.766  -0.225  -1.083  0.00  0.00     0.002 A 
ATOM      4  C5  UNL d   1       0.573  -0.594  -0.972  0.00  0.00    -0.004 A 
ATOM      5  C6  UNL d   1       1.224  -0.494   0.257  0.00  0.00     0.002 A 
ATOM      6  C7  UNL d   1       0.533  -0.030   1.377  0.00  0.00     0.002 A 
ENDROOT
BRANCH   1   7
ATOM      7  C1  UNL d   1      -1.574   0.793   2.498  0.00  0.00     0.055 C 
ATOM      8  C   UNL d   1      -0.868   1.948   3.192  0.00  0.00     0.019 C 
ENDBRANCH   1   7
TORSDOF 1
ENDMDL
