MODEL 1
REMARK minimizedAffinity -4.47423172
REMARK minimizedRMSD -1
REMARK  1 active torsions:
REMARK  status: ('A' for Active; 'I' for Inactive)
REMARK    1  A    between atoms: C1_2  and  C2_3 
ROOT
ATOM      1  C2  UNL d   1       1.059  -0.613  -1.814  0.00  0.00    -0.077 A 
ATOM      2  C3  UNL d   1       1.973   0.424  -2.045  0.00  0.00     0.002 A 
ATOM      3  C4  UNL d   1       2.267   0.830  -3.348  0.00  0.00     0.002 A 
ATOM      4  C5  UNL d   1       1.648   0.208  -4.430  0.00  0.00    -0.004 A 
ATOM      5  C6  UNL d   1       0.738  -0.826  -4.211  0.00  0.00     0.002 A 
ATOM      6  C7  UNL d   1       0.445  -1.234  -2.909  0.00  0.00     0.002 A 
ENDROOT
BRANCH   1   7
ATOM      7  C1  UNL d   1       0.704  -1.020  -0.408  0.00  0.00     0.055 C 
ATOM      8  C   UNL d   1      -0.391  -0.132   0.165  0.00  0.00     0.019 C 
ENDBRANCH   1   7
TORSDOF 1
ENDMDL
