MODEL 1
REMARK minimizedAffinity -4.26842833
REMARK minimizedRMSD -1
REMARK  1 active torsions:
REMARK  status: ('A' for Active; 'I' for Inactive)
REMARK    1  A    between atoms: C1_2  and  C2_3 
ROOT
ATOM      1  C2  UNL d   1       0.014   0.238  -0.025  0.00  0.00    -0.077 A 
ATOM      2  C3  UNL d   1       0.897   1.009   0.744  0.00  0.00     0.002 A 
ATOM      3  C4  UNL d   1       0.550   1.401   2.038  0.00  0.00     0.002 A 
ATOM      4  C5  UNL d   1      -0.678   1.023   2.577  0.00  0.00    -0.004 A 
ATOM      5  C6  UNL d   1      -1.564   0.258   1.820  0.00  0.00     0.002 A 
ATOM      6  C7  UNL d   1      -1.220  -0.134   0.526  0.00  0.00     0.002 A 
ENDROOT
BRANCH   1   7
ATOM      7  C1  UNL d   1       0.406  -0.227  -1.403  0.00  0.00     0.055 C 
ATOM      8  C   UNL d   1       1.182   0.848  -2.149  0.00  0.00     0.019 C 
ENDBRANCH   1   7
TORSDOF 1
ENDMDL
