MODEL 1
REMARK minimizedAffinity -3.32675409
REMARK minimizedRMSD -1
REMARK  1 active torsions:
REMARK  status: ('A' for Active; 'I' for Inactive)
REMARK    1  A    between atoms: C1_2  and  C2_3 
ROOT
ATOM      1  C2  UNL d   1      -0.204  -0.147  -0.361  0.00  0.00    -0.077 A 
ATOM      2  C3  UNL d   1      -1.532   0.060   0.038  0.00  0.00     0.002 A 
ATOM      3  C4  UNL d   1      -1.815   0.676   1.259  0.00  0.00     0.002 A 
ATOM      4  C5  UNL d   1      -0.776   1.094   2.088  0.00  0.00    -0.004 A 
ATOM      5  C6  UNL d   1       0.548   0.891   1.701  0.00  0.00     0.002 A 
ATOM      6  C7  UNL d   1       0.833   0.274   0.481  0.00  0.00     0.002 A 
ENDROOT
BRANCH   1   7
ATOM      7  C1  UNL d   1       0.103  -0.766  -1.699  0.00  0.00     0.055 C 
ATOM      8  C   UNL d   1       1.084   0.085  -2.492  0.00  0.00     0.019 C 
ENDBRANCH   1   7
TORSDOF 1
ENDMDL
