MODEL 1
REMARK minimizedAffinity -3.54579258
REMARK minimizedRMSD -1
REMARK  0 active torsions:
REMARK  status: ('A' for Active; 'I' for Inactive)
ROOT
ATOM      1  C   UNL d   1       0.472  -0.274   0.740  0.00  0.00     0.172 C 
ATOM      2  N   UNL d   1       0.344  -1.439  -0.103  0.00  0.00    -0.070 N 
ATOM      3  C1  UNL d   1       0.729  -1.522  -1.414  0.00  0.00    -0.004 A 
ATOM      4  C2  UNL d   1       0.440  -2.794  -1.859  0.00  0.00    -0.047 A 
ATOM      5  C3  UNL d   1      -0.139  -3.500  -0.778  0.00  0.00    -0.047 A 
ATOM      6  C4  UNL d   1      -0.187  -2.637   0.297  0.00  0.00    -0.004 A 
ENDROOT
TORSDOF 0
ENDMDL
