MODEL 1
REMARK minimizedAffinity -3.75856447
REMARK minimizedRMSD -1
REMARK  0 active torsions:
REMARK  status: ('A' for Active; 'I' for Inactive)
ROOT
ATOM      1  C   UNL d   1      -0.362   0.155  -0.750  0.00  0.00     0.172 C 
ATOM      2  N   UNL d   1      -0.149  -1.266  -0.600  0.00  0.00    -0.070 N 
ATOM      3  C1  UNL d   1       0.000  -1.929   0.588  0.00  0.00    -0.004 A 
ATOM      4  C2  UNL d   1       0.182  -3.266   0.305  0.00  0.00    -0.047 A 
ATOM      5  C3  UNL d   1       0.141  -3.410  -1.102  0.00  0.00    -0.047 A 
ATOM      6  C4  UNL d   1      -0.065  -2.156  -1.638  0.00  0.00    -0.004 A 
ENDROOT
TORSDOF 0
ENDMDL
