MODEL 1
REMARK minimizedAffinity -3.8218565
REMARK minimizedRMSD -1
REMARK  0 active torsions:
REMARK  status: ('A' for Active; 'I' for Inactive)
ROOT
ATOM      1  C   UNL d   1       0.156  -0.092  -0.045  0.00  0.00     0.172 C 
ATOM      2  N   UNL d   1       0.186  -1.442  -0.557  0.00  0.00    -0.070 N 
ATOM      3  C1  UNL d   1      -0.091  -2.574   0.162  0.00  0.00    -0.004 A 
ATOM      4  C2  UNL d   1       0.046  -3.655  -0.682  0.00  0.00    -0.047 A 
ATOM      5  C3  UNL d   1       0.419  -3.155  -1.952  0.00  0.00    -0.047 A 
ATOM      6  C4  UNL d   1       0.498  -1.782  -1.846  0.00  0.00    -0.004 A 
ENDROOT
TORSDOF 0
ENDMDL
