MODEL 1
REMARK minimizedAffinity -3.1893332
REMARK minimizedRMSD -1
REMARK  0 active torsions:
REMARK  status: ('A' for Active; 'I' for Inactive)
ROOT
ATOM      1  C   UNL d   1       0.085  -0.505   0.062  0.00  0.00     0.172 C 
ATOM      2  N   UNL d   1       0.180  -1.867  -0.407  0.00  0.00    -0.070 N 
ATOM      3  C1  UNL d   1       0.389  -2.252  -1.705  0.00  0.00    -0.004 A 
ATOM      4  C2  UNL d   1       0.416  -3.630  -1.737  0.00  0.00    -0.047 A 
ATOM      5  C3  UNL d   1       0.215  -4.088  -0.413  0.00  0.00    -0.047 A 
ATOM      6  C4  UNL d   1       0.071  -2.976   0.389  0.00  0.00    -0.004 A 
ENDROOT
TORSDOF 0
ENDMDL
