MODEL 1
REMARK minimizedAffinity -3.00529456
REMARK minimizedRMSD -1
REMARK  0 active torsions:
REMARK  status: ('A' for Active; 'I' for Inactive)
ROOT
ATOM      1  C   UNL d   1      -0.017  -3.265   0.001  0.00  0.00     0.172 C 
ATOM      2  N   UNL d   1      -0.336  -1.889   0.302  0.00  0.00    -0.070 N 
ATOM      3  C1  UNL d   1       0.517  -0.826   0.175  0.00  0.00    -0.004 A 
ATOM      4  C2  UNL d   1      -0.163   0.309   0.559  0.00  0.00    -0.047 A 
ATOM      5  C3  UNL d   1      -1.470  -0.086   0.932  0.00  0.00    -0.047 A 
ATOM      6  C4  UNL d   1      -1.549  -1.452   0.763  0.00  0.00    -0.004 A 
ENDROOT
TORSDOF 0
ENDMDL
