MODEL 1
REMARK minimizedAffinity -3.61480498
REMARK minimizedRMSD -1
REMARK  0 active torsions:
REMARK  status: ('A' for Active; 'I' for Inactive)
ROOT
ATOM      1  C   UNL d   1      -0.046  -0.336   0.389  0.00  0.00     0.172 C 
ATOM      2  N   UNL d   1       0.034  -1.694  -0.095  0.00  0.00    -0.070 N 
ATOM      3  C1  UNL d   1      -0.131  -2.823   0.663  0.00  0.00    -0.004 A 
ATOM      4  C2  UNL d   1       0.021  -3.914  -0.166  0.00  0.00    -0.047 A 
ATOM      5  C3  UNL d   1       0.288  -3.424  -1.466  0.00  0.00    -0.047 A 
ATOM      6  C4  UNL d   1       0.290  -2.047  -1.394  0.00  0.00    -0.004 A 
ENDROOT
TORSDOF 0
ENDMDL
