MODEL 1
REMARK minimizedAffinity -3.42801118
REMARK minimizedRMSD -1
REMARK  0 active torsions:
REMARK  status: ('A' for Active; 'I' for Inactive)
ROOT
ATOM      1  C   UNL d   1       0.077   0.661  -0.359  0.00  0.00     0.172 C 
ATOM      2  N   UNL d   1      -0.091  -0.739  -0.047  0.00  0.00    -0.070 N 
ATOM      3  C1  UNL d   1      -0.792  -1.241   1.016  0.00  0.00    -0.004 A 
ATOM      4  C2  UNL d   1      -0.715  -2.616   0.961  0.00  0.00    -0.047 A 
ATOM      5  C3  UNL d   1       0.059  -2.951  -0.175  0.00  0.00    -0.047 A 
ATOM      6  C4  UNL d   1       0.432  -1.770  -0.781  0.00  0.00    -0.004 A 
ENDROOT
TORSDOF 0
ENDMDL
