MODEL 1
REMARK minimizedAffinity -3.9794333
REMARK minimizedRMSD -1
REMARK  0 active torsions:
REMARK  status: ('A' for Active; 'I' for Inactive)
ROOT
ATOM      1  C   UNL d   1      -0.309   1.093  -0.348  0.00  0.00     0.172 C 
ATOM      2  N   UNL d   1      -0.376  -0.311  -0.018  0.00  0.00    -0.070 N 
ATOM      3  C1  UNL d   1       0.085  -1.337  -0.799  0.00  0.00    -0.004 A 
ATOM      4  C2  UNL d   1      -0.164  -2.518  -0.134  0.00  0.00    -0.047 A 
ATOM      5  C3  UNL d   1      -0.798  -2.191   1.088  0.00  0.00    -0.047 A 
ATOM      6  C4  UNL d   1      -0.917  -0.818   1.134  0.00  0.00    -0.004 A 
ENDROOT
TORSDOF 0
ENDMDL
