MODEL 1
REMARK minimizedAffinity -2.34627414
REMARK minimizedRMSD -1
REMARK  0 active torsions:
REMARK  status: ('A' for Active; 'I' for Inactive)
ROOT
ATOM      1  C   UNL d   1       0.135   1.771  -0.210  0.00  0.00     0.172 C 
ATOM      2  N   UNL d   1      -0.330   0.484   0.252  0.00  0.00    -0.070 N 
ATOM      3  C1  UNL d   1      -0.719   0.188   1.531  0.00  0.00    -0.004 A 
ATOM      4  C2  UNL d   1      -1.092  -1.138   1.562  0.00  0.00    -0.047 A 
ATOM      5  C3  UNL d   1      -0.921  -1.657   0.256  0.00  0.00    -0.047 A 
ATOM      6  C4  UNL d   1      -0.448  -0.632  -0.534  0.00  0.00    -0.004 A 
ENDROOT
TORSDOF 0
ENDMDL
