MODEL 1
REMARK minimizedAffinity -2.77003455
REMARK minimizedRMSD -1
REMARK  0 active torsions:
REMARK  status: ('A' for Active; 'I' for Inactive)
ROOT
ATOM      1  C   UNL d   1      -0.340  -2.815   0.367  0.00  0.00     0.172 C 
ATOM      2  N   UNL d   1      -0.523  -1.383   0.355  0.00  0.00    -0.070 N 
ATOM      3  C1  UNL d   1      -1.293  -0.669   1.234  0.00  0.00    -0.004 A 
ATOM      4  C2  UNL d   1      -1.204   0.662   0.888  0.00  0.00    -0.047 A 
ATOM      5  C3  UNL d   1      -0.352   0.751  -0.238  0.00  0.00    -0.047 A 
ATOM      6  C4  UNL d   1       0.056  -0.529  -0.547  0.00  0.00    -0.004 A 
ENDROOT
TORSDOF 0
ENDMDL
