MODEL 1
REMARK minimizedAffinity -3.50725675
REMARK minimizedRMSD -1
REMARK  0 active torsions:
REMARK  status: ('A' for Active; 'I' for Inactive)
ROOT
ATOM      1  C   UNL d   1       0.295   0.573  -0.189  0.00  0.00     0.172 C 
ATOM      2  N   UNL d   1       0.080  -0.835   0.049  0.00  0.00    -0.070 N 
ATOM      3  C1  UNL d   1       0.360  -1.845  -0.831  0.00  0.00    -0.004 A 
ATOM      4  C2  UNL d   1       0.014  -3.036  -0.230  0.00  0.00    -0.047 A 
ATOM      5  C3  UNL d   1      -0.493  -2.731   1.055  0.00  0.00    -0.047 A 
ATOM      6  C4  UNL d   1      -0.440  -1.361   1.202  0.00  0.00    -0.004 A 
ENDROOT
TORSDOF 0
ENDMDL
