MODEL 1
REMARK minimizedAffinity -3.93627548
REMARK minimizedRMSD -1
REMARK  0 active torsions:
REMARK  status: ('A' for Active; 'I' for Inactive)
ROOT
ATOM      1  C   UNL d   1       0.142   0.228  -0.313  0.00  0.00     0.172 C 
ATOM      2  N   UNL d   1       0.008  -1.210  -0.293  0.00  0.00    -0.070 N 
ATOM      3  C1  UNL d   1      -0.167  -1.980   0.826  0.00  0.00    -0.004 A 
ATOM      4  C2  UNL d   1      -0.250  -3.295   0.425  0.00  0.00    -0.047 A 
ATOM      5  C3  UNL d   1      -0.120  -3.317  -0.984  0.00  0.00    -0.047 A 
ATOM      6  C4  UNL d   1       0.039  -2.013  -1.402  0.00  0.00    -0.004 A 
ENDROOT
TORSDOF 0
ENDMDL
