MODEL 1
REMARK minimizedAffinity -2.15852571
REMARK minimizedRMSD -1
REMARK  0 active torsions:
REMARK  status: ('A' for Active; 'I' for Inactive)
ROOT
ATOM      1  C   UNL d   1      -0.507   0.513   0.512  0.00  0.00     0.172 C 
ATOM      2  N   UNL d   1       0.519   1.495   0.247  0.00  0.00    -0.070 N 
ATOM      3  C1  UNL d   1       0.393   2.847   0.422  0.00  0.00    -0.004 A 
ATOM      4  C2  UNL d   1       1.587   3.432   0.060  0.00  0.00    -0.047 A 
ATOM      5  C3  UNL d   1       2.460   2.396  -0.348  0.00  0.00    -0.047 A 
ATOM      6  C4  UNL d   1       1.773   1.207  -0.222  0.00  0.00    -0.004 A 
ENDROOT
TORSDOF 0
ENDMDL
