MODEL 1
REMARK minimizedAffinity -3.79840016
REMARK minimizedRMSD -1
REMARK  0 active torsions:
REMARK  status: ('A' for Active; 'I' for Inactive)
ROOT
ATOM      1  C   UNL d   1       0.134   1.197  -0.131  0.00  0.00     0.172 C 
ATOM      2  N   UNL d   1      -0.037  -0.203   0.181  0.00  0.00    -0.070 N 
ATOM      3  C1  UNL d   1       0.552  -1.247  -0.481  0.00  0.00    -0.004 A 
ATOM      4  C2  UNL d   1       0.138  -2.415   0.120  0.00  0.00    -0.047 A 
ATOM      5  C3  UNL d   1      -0.730  -2.062   1.180  0.00  0.00    -0.047 A 
ATOM      6  C4  UNL d   1      -0.821  -0.686   1.195  0.00  0.00    -0.004 A 
ENDROOT
TORSDOF 0
ENDMDL
