MODEL 1
REMARK minimizedAffinity -3.62615347
REMARK minimizedRMSD -1
REMARK  0 active torsions:
REMARK  status: ('A' for Active; 'I' for Inactive)
ROOT
ATOM      1  C   UNL d   1      -0.301  -2.957  -2.112  0.00  0.00     0.172 C 
ATOM      2  N   UNL d   1      -0.384  -1.827  -1.216  0.00  0.00    -0.070 N 
ATOM      3  C1  UNL d   1      -0.220  -0.515  -1.569  0.00  0.00    -0.004 A 
ATOM      4  C2  UNL d   1      -0.375   0.250  -0.434  0.00  0.00    -0.047 A 
ATOM      5  C3  UNL d   1      -0.641  -0.633   0.640  0.00  0.00    -0.047 A 
ATOM      6  C4  UNL d   1      -0.640  -1.913   0.127  0.00  0.00    -0.004 A 
ENDROOT
TORSDOF 0
ENDMDL
