MODEL 1
REMARK minimizedAffinity -2.64802909
REMARK minimizedRMSD -1
REMARK  0 active torsions:
REMARK  status: ('A' for Active; 'I' for Inactive)
ROOT
ATOM      1  C   UNL d   1       0.312   1.318  -0.717  0.00  0.00     0.172 C 
ATOM      2  N   UNL d   1      -0.003   0.070  -0.062  0.00  0.00    -0.070 N 
ATOM      3  C1  UNL d   1       0.427  -1.169  -0.457  0.00  0.00    -0.004 A 
ATOM      4  C2  UNL d   1      -0.088  -2.095   0.424  0.00  0.00    -0.047 A 
ATOM      5  C3  UNL d   1      -0.854  -1.389   1.381  0.00  0.00    -0.047 A 
ATOM      6  C4  UNL d   1      -0.784  -0.050   1.056  0.00  0.00    -0.004 A 
ENDROOT
TORSDOF 0
ENDMDL
