MODEL 1
REMARK minimizedAffinity -3.32747269
REMARK minimizedRMSD -1
REMARK  0 active torsions:
REMARK  status: ('A' for Active; 'I' for Inactive)
ROOT
ATOM      1  C   UNL d   1      -0.187   1.745  -0.022  0.00  0.00     0.172 C 
ATOM      2  N   UNL d   1      -0.359   0.327   0.190  0.00  0.00    -0.070 N 
ATOM      3  C1  UNL d   1      -0.710  -0.267   1.373  0.00  0.00    -0.004 A 
ATOM      4  C2  UNL d   1      -0.769  -1.627   1.160  0.00  0.00    -0.047 A 
ATOM      5  C3  UNL d   1      -0.441  -1.859  -0.196  0.00  0.00    -0.047 A 
ATOM      6  C4  UNL d   1      -0.191  -0.632  -0.774  0.00  0.00    -0.004 A 
ENDROOT
TORSDOF 0
ENDMDL
