MODEL 1
REMARK minimizedAffinity -1.9809047
REMARK minimizedRMSD -1
REMARK  0 active torsions:
REMARK  status: ('A' for Active; 'I' for Inactive)
ROOT
ATOM      1  C   UNL d   1      -0.327  -3.492   0.310  0.00  0.00     0.172 C 
ATOM      2  N   UNL d   1      -0.238  -2.100  -0.066  0.00  0.00    -0.070 N 
ATOM      3  C1  UNL d   1      -0.714  -1.044   0.665  0.00  0.00    -0.004 A 
ATOM      4  C2  UNL d   1      -0.433   0.112  -0.031  0.00  0.00    -0.047 A 
ATOM      5  C3  UNL d   1       0.234  -0.263  -1.222  0.00  0.00    -0.047 A 
ATOM      6  C4  UNL d   1       0.342  -1.637  -1.218  0.00  0.00    -0.004 A 
ENDROOT
TORSDOF 0
ENDMDL
