MODEL 1
REMARK minimizedAffinity -4.19336319
REMARK minimizedRMSD -1
REMARK  0 active torsions:
REMARK  status: ('A' for Active; 'I' for Inactive)
ROOT
ATOM      1  C4' PXY d   1       1.407  -2.055  -0.993  0.00  0.00     0.077 C 
ATOM      2  C1' PXY d   1      -1.885   1.913   1.619  0.00  0.00     0.077 C 
ATOM      3  C1  PXY d   1      -1.027   0.876   0.923  0.00  0.00    -0.082 A 
ATOM      4  C2  PXY d   1      -0.608  -0.184   1.594  0.00  0.00     0.003 A 
ATOM      5  C3  PXY d   1       0.196  -1.116   0.988  0.00  0.00     0.003 A 
ATOM      6  C4  PXY d   1       0.530  -0.987  -0.333  0.00  0.00    -0.082 A 
ATOM      7  C5  PXY d   1       0.099   0.086  -1.028  0.00  0.00     0.003 A 
ATOM      8  C6  PXY d   1      -0.682   1.042  -0.383  0.00  0.00     0.003 A 
ENDROOT
TORSDOF 0
ENDMDL
