MODEL 1
REMARK minimizedAffinity -5.17717123
REMARK minimizedRMSD -1
REMARK  0 active torsions:
REMARK  status: ('A' for Active; 'I' for Inactive)
ROOT
ATOM      1  C4' PXY d   1      -2.164   2.532   1.402  0.00  0.00     0.077 C 
ATOM      2  C1' PXY d   1       0.889  -1.413  -1.519  0.00  0.00     0.077 C 
ATOM      3  C1  PXY d   1       0.094  -0.369  -0.759  0.00  0.00    -0.082 A 
ATOM      4  C2  PXY d   1      -0.410  -0.666   0.427  0.00  0.00     0.003 A 
ATOM      5  C3  PXY d   1      -1.158   0.256   1.114  0.00  0.00     0.003 A 
ATOM      6  C4  PXY d   1      -1.347   1.512   0.604  0.00  0.00    -0.082 A 
ATOM      7  C5  PXY d   1      -0.827   1.826  -0.602  0.00  0.00     0.003 A 
ATOM      8  C6  PXY d   1      -0.105   0.863  -1.301  0.00  0.00     0.003 A 
ENDROOT
TORSDOF 0
ENDMDL
