MODEL 1
REMARK minimizedAffinity -1.66948247
REMARK minimizedRMSD -1
REMARK  0 active torsions:
REMARK  status: ('A' for Active; 'I' for Inactive)
ROOT
ATOM      1  C4' PXY d   1       1.673  -2.532  -0.730  0.00  0.00     0.077 C 
ATOM      2  C1' PXY d   1      -1.352   1.518   2.074  0.00  0.00     0.077 C 
ATOM      3  C1  PXY d   1      -0.563   0.460   1.328  0.00  0.00    -0.082 A 
ATOM      4  C2  PXY d   1      -0.172  -0.633   1.962  0.00  0.00     0.003 A 
ATOM      5  C3  PXY d   1       0.569  -1.585   1.310  0.00  0.00     0.003 A 
ATOM      6  C4  PXY d   1       0.867  -1.442  -0.018  0.00  0.00    -0.082 A 
ATOM      7  C5  PXY d   1       0.462  -0.334  -0.675  0.00  0.00     0.003 A 
ATOM      8  C6  PXY d   1      -0.253   0.640   0.015  0.00  0.00     0.003 A 
ENDROOT
TORSDOF 0
ENDMDL
