MODEL 1
REMARK minimizedAffinity -4.49420071
REMARK minimizedRMSD -1
REMARK  0 active torsions:
REMARK  status: ('A' for Active; 'I' for Inactive)
ROOT
ATOM      1  C4' PXY d   1      -1.990   2.193   1.510  0.00  0.00     0.077 C 
ATOM      2  C1' PXY d   1       1.347  -1.832  -0.954  0.00  0.00     0.077 C 
ATOM      3  C1  PXY d   1       0.467  -0.786  -0.300  0.00  0.00    -0.082 A 
ATOM      4  C2  PXY d   1       0.140   0.307  -0.971  0.00  0.00     0.003 A 
ATOM      5  C3  PXY d   1      -0.629   1.278  -0.383  0.00  0.00     0.003 A 
ATOM      6  C4  PXY d   1      -1.112   1.106   0.886  0.00  0.00    -0.082 A 
ATOM      7  C5  PXY d   1      -0.792  -0.011   1.574  0.00  0.00     0.003 A 
ATOM      8  C6  PXY d   1       0.024  -0.966   0.974  0.00  0.00     0.003 A 
ENDROOT
TORSDOF 0
ENDMDL
