MODEL 1
REMARK minimizedAffinity -2.12860012
REMARK minimizedRMSD -1
REMARK  0 active torsions:
REMARK  status: ('A' for Active; 'I' for Inactive)
ROOT
ATOM      1  C4' PXY d   1       1.102  -2.198  -1.666  0.00  0.00     0.077 C 
ATOM      2  C1' PXY d   1      -1.247   1.422   2.179  0.00  0.00     0.077 C 
ATOM      3  C1  PXY d   1      -0.632   0.482   1.162  0.00  0.00    -0.082 A 
ATOM      4  C2  PXY d   1      -0.688  -0.825   1.361  0.00  0.00     0.003 A 
ATOM      5  C3  PXY d   1      -0.109  -1.689   0.467  0.00  0.00     0.003 A 
ATOM      6  C4  PXY d   1       0.487  -1.212  -0.670  0.00  0.00    -0.082 A 
ATOM      7  C5  PXY d   1       0.539   0.120  -0.886  0.00  0.00     0.003 A 
ATOM      8  C6  PXY d   1      -0.019   0.981   0.054  0.00  0.00     0.003 A 
ENDROOT
TORSDOF 0
ENDMDL
