MODEL 1
REMARK minimizedAffinity -4.85750294
REMARK minimizedRMSD -1
REMARK  0 active torsions:
REMARK  status: ('A' for Active; 'I' for Inactive)
ROOT
ATOM      1  C4' PXY d   1       0.762  -2.454  -0.995  0.00  0.00     0.077 C 
ATOM      2  C1' PXY d   1      -1.823   2.100   1.453  0.00  0.00     0.077 C 
ATOM      3  C1  PXY d   1      -1.138   0.904   0.822  0.00  0.00    -0.082 A 
ATOM      4  C2  PXY d   1      -1.036   0.828  -0.495  0.00  0.00     0.003 A 
ATOM      5  C3  PXY d   1      -0.448  -0.262  -1.083  0.00  0.00     0.003 A 
ATOM      6  C4  PXY d   1       0.087  -1.260  -0.314  0.00  0.00    -0.082 A 
ATOM      7  C5  PXY d   1      -0.004  -1.185   1.031  0.00  0.00     0.003 A 
ATOM      8  C6  PXY d   1      -0.641  -0.090   1.607  0.00  0.00     0.003 A 
ENDROOT
TORSDOF 0
ENDMDL
