MODEL 1
REMARK minimizedAffinity -3.0950489
REMARK minimizedRMSD -1
REMARK  0 active torsions:
REMARK  status: ('A' for Active; 'I' for Inactive)
ROOT
ATOM      1  C4' PXY d   1      -1.964   2.316   1.168  0.00  0.00     0.077 C 
ATOM      2  C1' PXY d   1       2.053  -1.318  -0.849  0.00  0.00     0.077 C 
ATOM      3  C1  PXY d   1       1.005  -0.355  -0.328  0.00  0.00    -0.082 A 
ATOM      4  C2  PXY d   1       0.437  -0.580   0.846  0.00  0.00     0.003 A 
ATOM      5  C3  PXY d   1      -0.537   0.262   1.318  0.00  0.00     0.003 A 
ATOM      6  C4  PXY d   1      -0.894   1.376   0.606  0.00  0.00    -0.082 A 
ATOM      7  C5  PXY d   1      -0.311   1.618  -0.587  0.00  0.00     0.003 A 
ATOM      8  C6  PXY d   1       0.645   0.728  -1.068  0.00  0.00     0.003 A 
ENDROOT
TORSDOF 0
ENDMDL
