MODEL 1
REMARK minimizedAffinity -5.02017927
REMARK minimizedRMSD -1
REMARK  0 active torsions:
REMARK  status: ('A' for Active; 'I' for Inactive)
ROOT
ATOM      1  C4' PXY d   1       0.597  -2.856  -2.765  0.00  0.00     0.077 C 
ATOM      2  C1' PXY d   1      -0.862   0.573   1.654  0.00  0.00     0.077 C 
ATOM      3  C1  PXY d   1      -0.467  -0.322   0.496  0.00  0.00    -0.082 A 
ATOM      4  C2  PXY d   1      -1.386  -0.710  -0.374  0.00  0.00     0.003 A 
ATOM      5  C3  PXY d   1      -1.052  -1.545  -1.409  0.00  0.00     0.003 A 
ATOM      6  C4  PXY d   1       0.246  -1.944  -1.586  0.00  0.00    -0.082 A 
ATOM      7  C5  PXY d   1       1.190  -1.544  -0.709  0.00  0.00     0.003 A 
ATOM      8  C6  PXY d   1       0.824  -0.730   0.359  0.00  0.00     0.003 A 
ENDROOT
TORSDOF 0
ENDMDL
