MODEL 1
REMARK minimizedAffinity -4.65915203
REMARK minimizedRMSD -1
REMARK  0 active torsions:
REMARK  status: ('A' for Active; 'I' for Inactive)
ROOT
ATOM      1  C4' PXY d   1      -1.150   1.390   2.288  0.00  0.00     0.077 C 
ATOM      2  C1' PXY d   1       0.800  -1.743  -2.161  0.00  0.00     0.077 C 
ATOM      3  C1  PXY d   1       0.292  -0.931  -0.986  0.00  0.00    -0.082 A 
ATOM      4  C2  PXY d   1      -0.625   0.002  -1.183  0.00  0.00     0.003 A 
ATOM      5  C3  PXY d   1      -1.072   0.768  -0.137  0.00  0.00     0.003 A 
ATOM      6  C4  PXY d   1      -0.615   0.540   1.133  0.00  0.00    -0.082 A 
ATOM      7  C5  PXY d   1       0.312  -0.418   1.345  0.00  0.00     0.003 A 
ATOM      8  C6  PXY d   1       0.784  -1.157   0.263  0.00  0.00     0.003 A 
ENDROOT
TORSDOF 0
ENDMDL
