MODEL 1
REMARK minimizedAffinity -3.51608372
REMARK minimizedRMSD -1
REMARK  0 active torsions:
REMARK  status: ('A' for Active; 'I' for Inactive)
ROOT
ATOM      1  C4' PXY d   1      -2.160   1.935   1.835  0.00  0.00     0.077 C 
ATOM      2  C1' PXY d   1       1.397  -1.264  -1.410  0.00  0.00     0.077 C 
ATOM      3  C1  PXY d   1       0.461  -0.436  -0.552  0.00  0.00    -0.082 A 
ATOM      4  C2  PXY d   1      -0.029   0.698  -1.026  0.00  0.00     0.003 A 
ATOM      5  C3  PXY d   1      -0.852   1.475  -0.252  0.00  0.00     0.003 A 
ATOM      6  C4  PXY d   1      -1.219   1.061   1.000  0.00  0.00    -0.082 A 
ATOM      7  C5  PXY d   1      -0.732  -0.099   1.487  0.00  0.00     0.003 A 
ATOM      8  C6  PXY d   1       0.135  -0.854   0.701  0.00  0.00     0.003 A 
ENDROOT
TORSDOF 0
ENDMDL
