MODEL 1
REMARK minimizedAffinity -5.22391272
REMARK minimizedRMSD -1
REMARK  0 active torsions:
REMARK  status: ('A' for Active; 'I' for Inactive)
ROOT
ATOM      1  C4' PXY d   1       1.333  -1.526  -0.788  0.00  0.00     0.077 C 
ATOM      2  C1' PXY d   1      -1.946   2.650   1.499  0.00  0.00     0.077 C 
ATOM      3  C1  PXY d   1      -1.088   1.560   0.887  0.00  0.00    -0.082 A 
ATOM      4  C2  PXY d   1      -1.006   0.381   1.481  0.00  0.00     0.003 A 
ATOM      5  C3  PXY d   1      -0.208  -0.605   0.959  0.00  0.00     0.003 A 
ATOM      6  C4  PXY d   1       0.470  -0.400  -0.212  0.00  0.00    -0.082 A 
ATOM      7  C5  PXY d   1       0.383   0.797  -0.830  0.00  0.00     0.003 A 
ATOM      8  C6  PXY d   1      -0.399   1.799  -0.262  0.00  0.00     0.003 A 
ENDROOT
TORSDOF 0
ENDMDL
