MODEL 1
REMARK minimizedAffinity -4.44956255
REMARK minimizedRMSD -1
REMARK  0 active torsions:
REMARK  status: ('A' for Active; 'I' for Inactive)
ROOT
ATOM      1  C4' PXY d   1       1.860  -0.799  -1.345  0.00  0.00     0.077 C 
ATOM      2  C1' PXY d   1      -2.393   1.947   1.446  0.00  0.00     0.077 C 
ATOM      3  C1  PXY d   1      -1.281   1.232   0.703  0.00  0.00    -0.082 A 
ATOM      4  C2  PXY d   1      -0.797   0.098   1.183  0.00  0.00     0.003 A 
ATOM      5  C3  PXY d   1       0.230  -0.544   0.541  0.00  0.00     0.003 A 
ATOM      6  C4  PXY d   1       0.731  -0.048  -0.633  0.00  0.00    -0.082 A 
ATOM      7  C5  PXY d   1       0.236   1.103  -1.134  0.00  0.00     0.003 A 
ATOM      8  C6  PXY d   1      -0.779   1.761  -0.446  0.00  0.00     0.003 A 
ENDROOT
TORSDOF 0
ENDMDL
