MODEL 1
REMARK minimizedAffinity -4.7991538
REMARK minimizedRMSD -1
REMARK  0 active torsions:
REMARK  status: ('A' for Active; 'I' for Inactive)
ROOT
ATOM      1  C4' PXY d   1      -0.056   4.154  -0.381  0.00  0.00     0.077 C 
ATOM      2  C1' PXY d   1      -1.495  -1.076   1.615  0.00  0.00     0.077 C 
ATOM      3  C1  PXY d   1      -1.107   0.290   1.086  0.00  0.00    -0.082 A 
ATOM      4  C2  PXY d   1      -1.550   1.378   1.695  0.00  0.00     0.003 A 
ATOM      5  C3  PXY d   1      -1.236   2.621   1.211  0.00  0.00     0.003 A 
ATOM      6  C4  PXY d   1      -0.415   2.754   0.124  0.00  0.00    -0.082 A 
ATOM      7  C5  PXY d   1       0.051   1.649  -0.497  0.00  0.00     0.003 A 
ATOM      8  C6  PXY d   1      -0.314   0.396  -0.015  0.00  0.00     0.003 A 
ENDROOT
TORSDOF 0
ENDMDL
