MODEL 1
REMARK minimizedAffinity -4.96197128
REMARK minimizedRMSD -1
REMARK  0 active torsions:
REMARK  status: ('A' for Active; 'I' for Inactive)
ROOT
ATOM      1  C4' PXY d   1       1.240  -1.434  -1.026  0.00  0.00     0.077 C 
ATOM      2  C1' PXY d   1      -2.135   2.137   2.019  0.00  0.00     0.077 C 
ATOM      3  C1  PXY d   1      -1.254   1.206   1.209  0.00  0.00    -0.082 A 
ATOM      4  C2  PXY d   1      -0.836   0.071   1.746  0.00  0.00     0.003 A 
ATOM      5  C3  PXY d   1      -0.013  -0.768   1.039  0.00  0.00     0.003 A 
ATOM      6  C4  PXY d   1       0.342  -0.468  -0.249  0.00  0.00    -0.082 A 
ATOM      7  C5  PXY d   1      -0.089   0.683  -0.807  0.00  0.00     0.003 A 
ATOM      8  C6  PXY d   1      -0.890   1.541  -0.058  0.00  0.00     0.003 A 
ENDROOT
TORSDOF 0
ENDMDL
