MODEL 1
REMARK minimizedAffinity -3.55768752
REMARK minimizedRMSD -1
REMARK  0 active torsions:
REMARK  status: ('A' for Active; 'I' for Inactive)
ROOT
ATOM      1  C4' PXY d   1       1.551  -1.411  -1.112  0.00  0.00     0.077 C 
ATOM      2  C1' PXY d   1      -2.156   2.034   1.682  0.00  0.00     0.077 C 
ATOM      3  C1  PXY d   1      -1.176   1.130   0.961  0.00  0.00    -0.082 A 
ATOM      4  C2  PXY d   1      -1.089   1.181  -0.359  0.00  0.00     0.003 A 
ATOM      5  C3  PXY d   1      -0.231   0.348  -1.030  0.00  0.00     0.003 A 
ATOM      6  C4  PXY d   1       0.583  -0.510  -0.340  0.00  0.00    -0.082 A 
ATOM      7  C5  PXY d   1       0.507  -0.561   1.007  0.00  0.00     0.003 A 
ATOM      8  C6  PXY d   1      -0.399   0.264   1.666  0.00  0.00     0.003 A 
ENDROOT
TORSDOF 0
ENDMDL
