MODEL 1
REMARK minimizedAffinity -4.07448578
REMARK minimizedRMSD -1
REMARK  0 active torsions:
REMARK  status: ('A' for Active; 'I' for Inactive)
ROOT
ATOM      1  C4' PXY d   1       1.324  -1.516  -1.021  0.00  0.00     0.077 C 
ATOM      2  C1' PXY d   1      -2.166   2.374   1.448  0.00  0.00     0.077 C 
ATOM      3  C1  PXY d   1      -1.246   1.351   0.812  0.00  0.00    -0.082 A 
ATOM      4  C2  PXY d   1      -0.923   1.466  -0.466  0.00  0.00     0.003 A 
ATOM      5  C3  PXY d   1      -0.118   0.532  -1.065  0.00  0.00     0.003 A 
ATOM      6  C4  PXY d   1       0.406  -0.501  -0.335  0.00  0.00    -0.082 A 
ATOM      7  C5  PXY d   1       0.090  -0.620   0.972  0.00  0.00     0.003 A 
ATOM      8  C6  PXY d   1      -0.763   0.316   1.551  0.00  0.00     0.003 A 
ENDROOT
TORSDOF 0
ENDMDL
