MODEL 1
REMARK minimizedAffinity -4.30992651
REMARK minimizedRMSD -1
REMARK  0 active torsions:
REMARK  status: ('A' for Active; 'I' for Inactive)
ROOT
ATOM      1  C4' PXY d   1       1.503  -1.474  -0.243  0.00  0.00     0.077 C 
ATOM      2  C1' PXY d   1      -2.409   2.514   1.242  0.00  0.00     0.077 C 
ATOM      3  C1  PXY d   1      -1.382   1.465   0.865  0.00  0.00    -0.082 A 
ATOM      4  C2  PXY d   1      -0.705   1.588  -0.266  0.00  0.00     0.003 A 
ATOM      5  C3  PXY d   1       0.205   0.632  -0.637  0.00  0.00     0.003 A 
ATOM      6  C4  PXY d   1       0.463  -0.434   0.182  0.00  0.00    -0.082 A 
ATOM      7  C5  PXY d   1      -0.216  -0.561   1.342  0.00  0.00     0.003 A 
ATOM      8  C6  PXY d   1      -1.165   0.398   1.681  0.00  0.00     0.003 A 
ENDROOT
TORSDOF 0
ENDMDL
