MODEL 1
REMARK minimizedAffinity -4.1298027
REMARK minimizedRMSD -1
REMARK  0 active torsions:
REMARK  status: ('A' for Active; 'I' for Inactive)
ROOT
ATOM      1  C4' PXY d   1       1.099  -1.965  -0.942  0.00  0.00     0.077 C 
ATOM      2  C1' PXY d   1      -2.070   2.184   1.538  0.00  0.00     0.077 C 
ATOM      3  C1  PXY d   1      -1.240   1.102   0.876  0.00  0.00    -0.082 A 
ATOM      4  C2  PXY d   1      -1.169  -0.098   1.429  0.00  0.00     0.003 A 
ATOM      5  C3  PXY d   1      -0.397  -1.079   0.861  0.00  0.00     0.003 A 
ATOM      6  C4  PXY d   1       0.266  -0.845  -0.314  0.00  0.00    -0.082 A 
ATOM      7  C5  PXY d   1       0.189   0.373  -0.890  0.00  0.00     0.003 A 
ATOM      8  C6  PXY d   1      -0.566   1.368  -0.276  0.00  0.00     0.003 A 
ENDROOT
TORSDOF 0
ENDMDL
