MODEL 1
REMARK minimizedAffinity -3.98072767
REMARK minimizedRMSD -1
REMARK  0 active torsions:
REMARK  status: ('A' for Active; 'I' for Inactive)
ROOT
ATOM      1  C4' PXY d   1       1.167  -1.415  -0.477  0.00  0.00     0.077 C 
ATOM      2  C1' PXY d   1      -2.488   2.561   1.585  0.00  0.00     0.077 C 
ATOM      3  C1  PXY d   1      -1.523   1.518   1.056  0.00  0.00    -0.082 A 
ATOM      4  C2  PXY d   1      -1.328   1.409  -0.248  0.00  0.00     0.003 A 
ATOM      5  C3  PXY d   1      -0.483   0.451  -0.746  0.00  0.00     0.003 A 
ATOM      6  C4  PXY d   1       0.209  -0.370   0.103  0.00  0.00    -0.082 A 
ATOM      7  C5  PXY d   1       0.024  -0.259   1.435  0.00  0.00     0.003 A 
ATOM      8  C6  PXY d   1      -0.869   0.693   1.918  0.00  0.00     0.003 A 
ENDROOT
TORSDOF 0
ENDMDL
