MODEL 1
REMARK minimizedAffinity -3.04957581
REMARK minimizedRMSD -1
REMARK  0 active torsions:
REMARK  status: ('A' for Active; 'I' for Inactive)
ROOT
ATOM      1  C4' PXY d   1       1.663  -2.729  -0.772  0.00  0.00     0.077 C 
ATOM      2  C1' PXY d   1      -1.049   2.347  -0.224  0.00  0.00     0.077 C 
ATOM      3  C1  PXY d   1      -0.334   1.016  -0.355  0.00  0.00    -0.082 A 
ATOM      4  C2  PXY d   1       0.100   0.621  -1.541  0.00  0.00     0.003 A 
ATOM      5  C3  PXY d   1       0.720  -0.594  -1.683  0.00  0.00     0.003 A 
ATOM      6  C4  PXY d   1       0.944  -1.389  -0.591  0.00  0.00    -0.082 A 
ATOM      7  C5  PXY d   1       0.514  -0.988   0.624  0.00  0.00     0.003 A 
ATOM      8  C6  PXY d   1      -0.150   0.230   0.740  0.00  0.00     0.003 A 
ENDROOT
TORSDOF 0
ENDMDL
