MODEL 1
REMARK minimizedAffinity 2.36650634
REMARK minimizedRMSD -1
REMARK  1 active torsions:
REMARK  status: ('A' for Active; 'I' for Inactive)
REMARK    1  A    between atoms: N_2  and  C1_3 
ROOT
ATOM      1  C1  UNL d   1      -4.452  -3.320  -5.064  0.00  0.00     0.143 A 
ATOM      2  C2  UNL d   1      -5.577  -3.633  -5.835  0.00  0.00    -0.057 A 
ATOM      3  C3  UNL d   1      -5.999  -4.958  -5.998  0.00  0.00     0.033 A 
ATOM      4  C4  UNL d   1      -5.285  -5.999  -5.414  0.00  0.00    -0.042 A 
ATOM      5  C5  UNL d   1      -4.149  -5.713  -4.664  0.00  0.00     0.033 A 
ATOM      6  C6  UNL d   1      -3.736  -4.388  -4.500  0.00  0.00    -0.057 A 
ENDROOT
BRANCH   1   7
ATOM      7  N   UNL d   1      -3.925  -2.032  -4.945  0.00  0.00    -0.732 N 
ATOM      8  C   UNL d   1      -4.085  -1.280  -3.719  0.00  0.00     0.284 C 
ATOM      9  H3  UNL d   1      -3.002  -1.950  -5.366  0.00  0.00     0.395 HD
ENDBRANCH   1   7
TORSDOF 1
ENDMDL
