MODEL 1
REMARK minimizedAffinity 8.26952076
REMARK minimizedRMSD -1
REMARK  1 active torsions:
REMARK  status: ('A' for Active; 'I' for Inactive)
REMARK    1  A    between atoms: N_2  and  C1_3 
ROOT
ATOM      1  C1  UNL d   1       1.356  -4.441   2.656  0.00  0.00     0.143 A 
ATOM      2  C2  UNL d   1       1.052  -5.075   3.865  0.00  0.00    -0.057 A 
ATOM      3  C3  UNL d   1       0.526  -4.359   4.948  0.00  0.00     0.033 A 
ATOM      4  C4  UNL d   1       0.323  -2.986   4.849  0.00  0.00    -0.042 A 
ATOM      5  C5  UNL d   1       0.642  -2.331   3.665  0.00  0.00     0.033 A 
ATOM      6  C6  UNL d   1       1.160  -3.053   2.585  0.00  0.00    -0.057 A 
ENDROOT
BRANCH   1   7
ATOM      7  N   UNL d   1       1.973  -5.079   1.577  0.00  0.00    -0.732 N 
ATOM      8  C   UNL d   1       1.181  -5.682   0.526  0.00  0.00     0.284 C 
ATOM      9  H3  UNL d   1       2.791  -4.576   1.243  0.00  0.00     0.395 HD
ENDBRANCH   1   7
TORSDOF 1
ENDMDL
