MODEL 1
REMARK minimizedAffinity -0.577997506
REMARK minimizedRMSD -1
REMARK  1 active torsions:
REMARK  status: ('A' for Active; 'I' for Inactive)
REMARK    1  A    between atoms: N_2  and  C1_3 
ROOT
ATOM      1  C1  UNL d   1       4.601   4.404  -4.796  0.00  0.00     0.143 A 
ATOM      2  C2  UNL d   1       5.643   5.337  -4.767  0.00  0.00    -0.057 A 
ATOM      3  C3  UNL d   1       6.000   5.991  -3.582  0.00  0.00     0.033 A 
ATOM      4  C4  UNL d   1       5.299   5.744  -2.406  0.00  0.00    -0.042 A 
ATOM      5  C5  UNL d   1       4.243   4.839  -2.417  0.00  0.00     0.033 A 
ATOM      6  C6  UNL d   1       3.896   4.184  -3.602  0.00  0.00    -0.057 A 
ENDROOT
BRANCH   1   7
ATOM      7  N   UNL d   1       4.135   3.795  -5.963  0.00  0.00    -0.732 N 
ATOM      8  C   UNL d   1       3.876   2.371  -5.999  0.00  0.00     0.284 C 
ATOM      9  H3  UNL d   1       3.435   4.357  -6.442  0.00  0.00     0.395 HD
ENDBRANCH   1   7
TORSDOF 1
ENDMDL
