MODEL 1
REMARK minimizedAffinity 15.0758371
REMARK minimizedRMSD -1
REMARK  1 active torsions:
REMARK  status: ('A' for Active; 'I' for Inactive)
REMARK    1  A    between atoms: N_2  and  C1_3 
ROOT
ATOM      1  C1  UNL d   1       0.348  -2.070   3.101  0.00  0.00     0.143 A 
ATOM      2  C2  UNL d   1       0.313  -0.749   2.642  0.00  0.00    -0.057 A 
ATOM      3  C3  UNL d   1       1.000  -0.363   1.485  0.00  0.00     0.033 A 
ATOM      4  C4  UNL d   1       1.763  -1.289   0.781  0.00  0.00    -0.042 A 
ATOM      5  C5  UNL d   1       1.833  -2.602   1.233  0.00  0.00     0.033 A 
ATOM      6  C6  UNL d   1       1.138  -2.983   2.385  0.00  0.00    -0.057 A 
ENDROOT
BRANCH   1   7
ATOM      7  N   UNL d   1      -0.234  -2.494   4.298  0.00  0.00    -0.732 N 
ATOM      8  C   UNL d   1       0.496  -2.404   5.545  0.00  0.00     0.284 C 
ATOM      9  H3  UNL d   1      -1.213  -2.227   4.370  0.00  0.00     0.395 HD
ENDBRANCH   1   7
TORSDOF 1
ENDMDL
