MODEL 1
REMARK minimizedAffinity 13.7021894
REMARK minimizedRMSD -1
REMARK  1 active torsions:
REMARK  status: ('A' for Active; 'I' for Inactive)
REMARK    1  A    between atoms: N_2  and  C1_3 
ROOT
ATOM      1  C1  UNL d   1      -5.151   3.692  -1.027  0.00  0.00     0.143 A 
ATOM      2  C2  UNL d   1      -3.760   3.816  -1.103  0.00  0.00    -0.057 A 
ATOM      3  C3  UNL d   1      -2.971   2.812  -1.678  0.00  0.00     0.033 A 
ATOM      4  C4  UNL d   1      -3.560   1.649  -2.163  0.00  0.00    -0.042 A 
ATOM      5  C5  UNL d   1      -4.939   1.493  -2.075  0.00  0.00     0.033 A 
ATOM      6  C6  UNL d   1      -5.722   2.502  -1.506  0.00  0.00    -0.057 A 
ENDROOT
BRANCH   1   7
ATOM      7  N   UNL d   1      -5.980   4.611  -0.379  0.00  0.00    -0.732 N 
ATOM      8  C   UNL d   1      -6.000   6.000  -0.784  0.00  0.00     0.284 C 
ATOM      9  H3  UNL d   1      -6.898   4.226  -0.169  0.00  0.00     0.395 HD
ENDBRANCH   1   7
TORSDOF 1
ENDMDL
