MODEL 1
REMARK minimizedAffinity 15.0962858
REMARK minimizedRMSD -1
REMARK  1 active torsions:
REMARK  status: ('A' for Active; 'I' for Inactive)
REMARK    1  A    between atoms: N_2  and  C1_3 
ROOT
ATOM      1  C1  UNL d   1       1.286  -1.507   3.204  0.00  0.00     0.143 A 
ATOM      2  C2  UNL d   1       2.315  -2.319   2.715  0.00  0.00    -0.057 A 
ATOM      3  C3  UNL d   1       3.098  -1.920   1.625  0.00  0.00     0.033 A 
ATOM      4  C4  UNL d   1       2.846  -0.712   0.984  0.00  0.00    -0.042 A 
ATOM      5  C5  UNL d   1       1.812   0.100   1.438  0.00  0.00     0.033 A 
ATOM      6  C6  UNL d   1       1.038  -0.300   2.531  0.00  0.00    -0.057 A 
ENDROOT
BRANCH   1   7
ATOM      7  N   UNL d   1       0.409  -1.891   4.222  0.00  0.00    -0.732 N 
ATOM      8  C   UNL d   1       0.697  -1.570   5.603  0.00  0.00     0.284 C 
ATOM      9  H3  UNL d   1      -0.567  -1.767   3.961  0.00  0.00     0.395 HD
ENDBRANCH   1   7
TORSDOF 1
ENDMDL
