MODEL 1
REMARK minimizedAffinity 6.35666227
REMARK minimizedRMSD -1
REMARK  1 active torsions:
REMARK  status: ('A' for Active; 'I' for Inactive)
REMARK    1  A    between atoms: N_2  and  C1_3 
ROOT
ATOM      1  C1  UNL d   1       1.948  -1.251   2.361  0.00  0.00     0.143 A 
ATOM      2  C2  UNL d   1       1.642  -2.607   2.204  0.00  0.00    -0.057 A 
ATOM      3  C3  UNL d   1       1.041  -3.340   3.235  0.00  0.00     0.033 A 
ATOM      4  C4  UNL d   1       0.761  -2.734   4.455  0.00  0.00    -0.042 A 
ATOM      5  C5  UNL d   1       1.080  -1.394   4.642  0.00  0.00     0.033 A 
ATOM      6  C6  UNL d   1       1.674  -0.666   3.607  0.00  0.00    -0.057 A 
ENDROOT
BRANCH   1   7
ATOM      7  N   UNL d   1       2.636  -0.494   1.410  0.00  0.00    -0.732 N 
ATOM      8  C   UNL d   1       2.252   0.876   1.140  0.00  0.00     0.284 C 
ATOM      9  H3  UNL d   1       3.642  -0.644   1.446  0.00  0.00     0.395 HD
ENDBRANCH   1   7
TORSDOF 1
ENDMDL
