MODEL 1
REMARK minimizedAffinity 9.34481049
REMARK minimizedRMSD -1
REMARK  1 active torsions:
REMARK  status: ('A' for Active; 'I' for Inactive)
REMARK    1  A    between atoms: N_2  and  C1_3 
ROOT
ATOM      1  C1  UNL d   1      -4.452   0.169  -2.612  0.00  0.00     0.143 A 
ATOM      2  C2  UNL d   1      -5.223   1.229  -3.101  0.00  0.00    -0.057 A 
ATOM      3  C3  UNL d   1      -4.850   2.561  -2.882  0.00  0.00     0.033 A 
ATOM      4  C4  UNL d   1      -3.711   2.857  -2.141  0.00  0.00    -0.042 A 
ATOM      5  C5  UNL d   1      -2.943   1.820  -1.623  0.00  0.00     0.033 A 
ATOM      6  C6  UNL d   1      -3.317   0.492  -1.851  0.00  0.00    -0.057 A 
ENDROOT
BRANCH   1   7
ATOM      7  N   UNL d   1      -4.822  -1.174  -2.712  0.00  0.00    -0.732 N 
ATOM      8  C   UNL d   1      -4.174  -2.047  -3.667  0.00  0.00     0.284 C 
ATOM      9  H3  UNL d   1      -4.987  -1.601  -1.803  0.00  0.00     0.395 HD
ENDBRANCH   1   7
TORSDOF 1
ENDMDL
