MODEL 1
REMARK minimizedAffinity 7.31039333
REMARK minimizedRMSD -1
REMARK  1 active torsions:
REMARK  status: ('A' for Active; 'I' for Inactive)
REMARK    1  A    between atoms: N_2  and  C1_3 
ROOT
ATOM      1  C1  UNL d   1       3.102   1.561  -0.011  0.00  0.00     0.143 A 
ATOM      2  C2  UNL d   1       3.783   0.362  -0.247  0.00  0.00    -0.057 A 
ATOM      3  C3  UNL d   1       3.549  -0.773   0.539  0.00  0.00     0.033 A 
ATOM      4  C4  UNL d   1       2.647  -0.720   1.597  0.00  0.00    -0.042 A 
ATOM      5  C5  UNL d   1       1.977   0.469   1.865  0.00  0.00     0.033 A 
ATOM      6  C6  UNL d   1       2.211   1.597   1.072  0.00  0.00    -0.057 A 
ENDROOT
BRANCH   1   7
ATOM      7  N   UNL d   1       3.364   2.751  -0.695  0.00  0.00    -0.732 N 
ATOM      8  C   UNL d   1       2.303   3.454  -1.384  0.00  0.00     0.284 C 
ATOM      9  H3  UNL d   1       4.003   3.359  -0.186  0.00  0.00     0.395 HD
ENDBRANCH   1   7
TORSDOF 1
ENDMDL
