MODEL 1
REMARK minimizedAffinity -4.80471802
REMARK minimizedRMSD -1
REMARK  0 active torsions:
REMARK  status: ('A' for Active; 'I' for Inactive)
ROOT
ATOM      1  N1  IND d   1       0.689  -0.253   0.034  0.00  0.00    -0.196 N 
ATOM      2  C2  IND d   1       1.838  -0.911  -0.304  0.00  0.00     0.054 A 
ATOM      3  C3  IND d   1       2.076  -1.920   0.564  0.00  0.00    -0.031 A 
ATOM      4  C4  IND d   1       0.658  -2.735   2.552  0.00  0.00     0.051 A 
ATOM      5  C5  IND d   1      -0.459  -2.427   3.276  0.00  0.00    -0.031 A 
ATOM      6  C6  IND d   1      -1.270  -1.359   2.948  0.00  0.00     0.015 A 
ATOM      7  C7  IND d   1      -0.997  -0.562   1.872  0.00  0.00    -0.016 A 
ATOM      8  C8  IND d   1       0.141  -0.868   1.139  0.00  0.00    -0.047 A 
ATOM      9  C9  IND d   1       0.990  -1.924   1.492  0.00  0.00    -0.096 A 
ATOM     10  HN1 IND d   1       0.362   0.429  -0.374  0.00  0.00     0.298 HD
ENDROOT
TORSDOF 0
ENDMDL
