MODEL 1
REMARK minimizedAffinity -4.0724225
REMARK minimizedRMSD -1
REMARK  0 active torsions:
REMARK  status: ('A' for Active; 'I' for Inactive)
ROOT
ATOM      1  N1  IND d   1      -0.801  -0.023  -1.532  0.00  0.00    -0.196 N 
ATOM      2  C2  IND d   1      -1.096   1.116  -0.835  0.00  0.00     0.054 A 
ATOM      3  C3  IND d   1      -0.438   1.128   0.346  0.00  0.00    -0.031 A 
ATOM      4  C4  IND d   1       1.251  -0.567   1.295  0.00  0.00     0.051 A 
ATOM      5  C5  IND d   1       1.814  -1.785   1.039  0.00  0.00    -0.031 A 
ATOM      6  C6  IND d   1       1.530  -2.492  -0.112  0.00  0.00     0.015 A 
ATOM      7  C7  IND d   1       0.678  -1.999  -1.059  0.00  0.00    -0.016 A 
ATOM      8  C8  IND d   1       0.099  -0.765  -0.799  0.00  0.00    -0.047 A 
ATOM      9  C9  IND d   1       0.351  -0.062   0.387  0.00  0.00    -0.096 A 
ATOM     10  HN1 IND d   1      -1.123  -0.239  -2.299  0.00  0.00     0.298 HD
ENDROOT
TORSDOF 0
ENDMDL
