MODEL 1
REMARK minimizedAffinity -4.60178566
REMARK minimizedRMSD -1
REMARK  0 active torsions:
REMARK  status: ('A' for Active; 'I' for Inactive)
ROOT
ATOM      1  N1  IND d   1      -0.929   0.131   1.429  0.00  0.00    -0.196 N 
ATOM      2  C2  IND d   1      -1.063   1.364   0.853  0.00  0.00     0.054 A 
ATOM      3  C3  IND d   1       0.058   1.687   0.168  0.00  0.00    -0.031 A 
ATOM      4  C4  IND d   1       2.191   0.301  -0.224  0.00  0.00     0.051 A 
ATOM      5  C5  IND d   1       2.794  -0.873   0.132  0.00  0.00    -0.031 A 
ATOM      6  C6  IND d   1       2.173  -1.792   0.953  0.00  0.00     0.015 A 
ATOM      7  C7  IND d   1       0.915  -1.575   1.441  0.00  0.00    -0.016 A 
ATOM      8  C8  IND d   1       0.303  -0.381   1.088  0.00  0.00    -0.047 A 
ATOM      9  C9  IND d   1       0.946   0.574   0.289  0.00  0.00    -0.096 A 
ATOM     10  HN1 IND d   1      -1.516  -0.258   1.922  0.00  0.00     0.298 HD
ENDROOT
TORSDOF 0
ENDMDL
