MODEL 1
REMARK minimizedAffinity -3.27363992
REMARK minimizedRMSD -1
REMARK  0 active torsions:
REMARK  status: ('A' for Active; 'I' for Inactive)
ROOT
ATOM      1  N1  IND d   1       0.002   0.028  -0.831  0.00  0.00    -0.196 N 
ATOM      2  C2  IND d   1       0.563   0.500   0.323  0.00  0.00     0.054 A 
ATOM      3  C3  IND d   1       0.796   1.828   0.224  0.00  0.00    -0.031 A 
ATOM      4  C4  IND d   1       0.242   3.447  -1.700  0.00  0.00     0.051 A 
ATOM      5  C5  IND d   1      -0.242   3.476  -2.978  0.00  0.00    -0.031 A 
ATOM      6  C6  IND d   1      -0.681   2.334  -3.617  0.00  0.00     0.015 A 
ATOM      7  C7  IND d   1      -0.662   1.118  -2.996  0.00  0.00    -0.016 A 
ATOM      8  C8  IND d   1      -0.165   1.084  -1.701  0.00  0.00    -0.047 A 
ATOM      9  C9  IND d   1       0.321   2.232  -1.062  0.00  0.00    -0.096 A 
ATOM     10  HN1 IND d   1      -0.211  -0.790  -0.987  0.00  0.00     0.298 HD
ENDROOT
TORSDOF 0
ENDMDL
