MODEL 1
REMARK minimizedAffinity -4.88935661
REMARK minimizedRMSD -1
REMARK  0 active torsions:
REMARK  status: ('A' for Active; 'I' for Inactive)
ROOT
ATOM      1  N1  IND d   1       2.697  -1.773   0.802  0.00  0.00    -0.196 N 
ATOM      2  C2  IND d   1       1.922  -2.853   1.123  0.00  0.00     0.054 A 
ATOM      3  C3  IND d   1       0.615  -2.567   0.929  0.00  0.00    -0.031 A 
ATOM      4  C4  IND d   1      -0.472  -0.428  -0.005  0.00  0.00     0.051 A 
ATOM      5  C5  IND d   1      -0.175   0.845  -0.404  0.00  0.00    -0.031 A 
ATOM      6  C6  IND d   1       1.121   1.318  -0.425  0.00  0.00     0.015 A 
ATOM      7  C7  IND d   1       2.174   0.530  -0.057  0.00  0.00    -0.016 A 
ATOM      8  C8  IND d   1       1.876  -0.761   0.356  0.00  0.00    -0.047 A 
ATOM      9  C9  IND d   1       0.559  -1.234   0.420  0.00  0.00    -0.096 A 
ATOM     10  HN1 IND d   1       3.553  -1.734   0.867  0.00  0.00     0.298 HD
ENDROOT
TORSDOF 0
ENDMDL
