MODEL 1
REMARK minimizedAffinity -3.1353488
REMARK minimizedRMSD -1
REMARK  0 active torsions:
REMARK  status: ('A' for Active; 'I' for Inactive)
ROOT
ATOM      1  N1  IND d   1      -1.247  -0.880  -0.145  0.00  0.00    -0.196 N 
ATOM      2  C2  IND d   1      -1.053   0.414  -0.539  0.00  0.00     0.054 A 
ATOM      3  C3  IND d   1       0.244   0.763  -0.384  0.00  0.00    -0.031 A 
ATOM      4  C4  IND d   1       2.239  -0.662   0.402  0.00  0.00     0.051 A 
ATOM      5  C5  IND d   1       2.551  -1.894   0.906  0.00  0.00    -0.031 A 
ATOM      6  C6  IND d   1       1.594  -2.871   1.085  0.00  0.00     0.015 A 
ATOM      7  C7  IND d   1       0.285  -2.656   0.757  0.00  0.00    -0.016 A 
ATOM      8  C8  IND d   1      -0.036  -1.404   0.252  0.00  0.00    -0.047 A 
ATOM      9  C9  IND d   1       0.923  -0.394   0.107  0.00  0.00    -0.096 A 
ATOM     10  HN1 IND d   1      -1.999  -1.297  -0.144  0.00  0.00     0.298 HD
ENDROOT
TORSDOF 0
ENDMDL
