MODEL 1
REMARK minimizedAffinity -3.49304223
REMARK minimizedRMSD -1
REMARK  0 active torsions:
REMARK  status: ('A' for Active; 'I' for Inactive)
ROOT
ATOM      1  N1  IND d   1       0.499   0.960  -0.273  0.00  0.00    -0.196 N 
ATOM      2  C2  IND d   1      -0.823   1.091   0.049  0.00  0.00     0.054 A 
ATOM      3  C3  IND d   1      -1.270  -0.025   0.668  0.00  0.00    -0.031 A 
ATOM      4  C4  IND d   1       0.021  -2.146   1.346  0.00  0.00     0.051 A 
ATOM      5  C5  IND d   1       1.244  -2.745   1.233  0.00  0.00    -0.031 A 
ATOM      6  C6  IND d   1       2.304  -2.126   0.601  0.00  0.00     0.015 A 
ATOM      7  C7  IND d   1       2.182  -0.875   0.067  0.00  0.00    -0.016 A 
ATOM      8  C8  IND d   1       0.939  -0.266   0.174  0.00  0.00    -0.047 A 
ATOM      9  C9  IND d   1      -0.151  -0.907   0.776  0.00  0.00    -0.096 A 
ATOM     10  HN1 IND d   1       0.975   1.545  -0.686  0.00  0.00     0.298 HD
ENDROOT
TORSDOF 0
ENDMDL
