MODEL 1
REMARK minimizedAffinity -4.04200459
REMARK minimizedRMSD -1
REMARK  0 active torsions:
REMARK  status: ('A' for Active; 'I' for Inactive)
ROOT
ATOM      1  N1  IND d   1       2.373  -1.575   0.461  0.00  0.00    -0.196 N 
ATOM      2  C2  IND d   1       1.829  -2.627   1.144  0.00  0.00     0.054 A 
ATOM      3  C3  IND d   1       0.505  -2.430   1.335  0.00  0.00    -0.031 A 
ATOM      4  C4  IND d   1      -0.995  -0.502   0.523  0.00  0.00     0.051 A 
ATOM      5  C5  IND d   1      -0.946   0.709  -0.108  0.00  0.00    -0.031 A 
ATOM      6  C6  IND d   1       0.236   1.230  -0.595  0.00  0.00     0.015 A 
ATOM      7  C7  IND d   1       1.416   0.551  -0.477  0.00  0.00    -0.016 A 
ATOM      8  C8  IND d   1       1.370  -0.676   0.170  0.00  0.00    -0.047 A 
ATOM      9  C9  IND d   1       0.181  -1.190   0.703  0.00  0.00    -0.096 A 
ATOM     10  HN1 IND d   1       3.202  -1.489   0.249  0.00  0.00     0.298 HD
ENDROOT
TORSDOF 0
ENDMDL
