MODEL 1
REMARK minimizedAffinity -2.26130533
REMARK minimizedRMSD -1
REMARK  0 active torsions:
REMARK  status: ('A' for Active; 'I' for Inactive)
ROOT
ATOM      1  N1  IND d   1      -1.059  -0.849  -0.520  0.00  0.00    -0.196 N 
ATOM      2  C2  IND d   1       0.120  -0.432   0.033  0.00  0.00     0.054 A 
ATOM      3  C3  IND d   1       0.472   0.775  -0.463  0.00  0.00    -0.031 A 
ATOM      4  C4  IND d   1      -0.787   2.295  -2.115  0.00  0.00     0.051 A 
ATOM      5  C5  IND d   1      -1.890   2.329  -2.922  0.00  0.00    -0.031 A 
ATOM      6  C6  IND d   1      -2.792   1.285  -2.968  0.00  0.00     0.015 A 
ATOM      7  C7  IND d   1      -2.630   0.169  -2.197  0.00  0.00    -0.016 A 
ATOM      8  C8  IND d   1      -1.507   0.128  -1.382  0.00  0.00    -0.047 A 
ATOM      9  C9  IND d   1      -0.566   1.166  -1.363  0.00  0.00    -0.096 A 
ATOM     10  HN1 IND d   1      -1.454  -1.595  -0.358  0.00  0.00     0.298 HD
ENDROOT
TORSDOF 0
ENDMDL
