MODEL 1
REMARK minimizedAffinity -2.34429359
REMARK minimizedRMSD -1
REMARK  0 active torsions:
REMARK  status: ('A' for Active; 'I' for Inactive)
ROOT
ATOM      1  N1  IND d   1       2.718  -1.431   1.768  0.00  0.00    -0.196 N 
ATOM      2  C2  IND d   1       3.658  -0.439   1.782  0.00  0.00     0.054 A 
ATOM      3  C3  IND d   1       3.200   0.651   1.127  0.00  0.00    -0.031 A 
ATOM      4  C4  IND d   1       0.902   1.064   0.043  0.00  0.00     0.051 A 
ATOM      5  C5  IND d   1      -0.276   0.439  -0.255  0.00  0.00    -0.031 A 
ATOM      6  C6  IND d   1      -0.523  -0.868   0.116  0.00  0.00     0.015 A 
ATOM      7  C7  IND d   1       0.400  -1.596   0.812  0.00  0.00    -0.016 A 
ATOM      8  C8  IND d   1       1.600  -0.967   1.110  0.00  0.00    -0.047 A 
ATOM      9  C9  IND d   1       1.872   0.344   0.699  0.00  0.00    -0.096 A 
ATOM     10  HN1 IND d   1       2.809  -2.214   2.112  0.00  0.00     0.298 HD
ENDROOT
TORSDOF 0
ENDMDL
