MODEL 1
REMARK minimizedAffinity -3.55663323
REMARK minimizedRMSD -1
REMARK  0 active torsions:
REMARK  status: ('A' for Active; 'I' for Inactive)
ROOT
ATOM      1  N1  IND d   1      -0.018  -2.231   1.689  0.00  0.00    -0.196 N 
ATOM      2  C2  IND d   1       1.011  -2.896   1.083  0.00  0.00     0.054 A 
ATOM      3  C3  IND d   1       1.525  -2.152   0.077  0.00  0.00    -0.031 A 
ATOM      4  C4  IND d   1       0.897   0.226  -0.682  0.00  0.00     0.051 A 
ATOM      5  C5  IND d   1      -0.007   1.226  -0.456  0.00  0.00    -0.031 A 
ATOM      6  C6  IND d   1      -0.978   1.123   0.518  0.00  0.00     0.015 A 
ATOM      7  C7  IND d   1      -1.075   0.017   1.314  0.00  0.00    -0.016 A 
ATOM      8  C8  IND d   1      -0.164  -1.003   1.082  0.00  0.00    -0.047 A 
ATOM      9  C9  IND d   1       0.798  -0.923   0.067  0.00  0.00    -0.096 A 
ATOM     10  HN1 IND d   1      -0.494  -2.530   2.340  0.00  0.00     0.298 HD
ENDROOT
TORSDOF 0
ENDMDL
