MODEL 1
REMARK minimizedAffinity -1.66665137
REMARK minimizedRMSD -1
REMARK  0 active torsions:
REMARK  status: ('A' for Active; 'I' for Inactive)
ROOT
ATOM      1  N1  IND d   1       1.291   0.905  -0.064  0.00  0.00    -0.196 N 
ATOM      2  C2  IND d   1       0.008   1.250  -0.384  0.00  0.00     0.054 A 
ATOM      3  C3  IND d   1      -0.834   0.224  -0.125  0.00  0.00    -0.031 A 
ATOM      4  C4  IND d   1      -0.337  -2.075   0.921  0.00  0.00     0.051 A 
ATOM      5  C5  IND d   1       0.695  -2.865   1.347  0.00  0.00    -0.031 A 
ATOM      6  C6  IND d   1       2.004  -2.428   1.325  0.00  0.00     0.015 A 
ATOM      7  C7  IND d   1       2.330  -1.176   0.887  0.00  0.00    -0.016 A 
ATOM      8  C8  IND d   1       1.286  -0.374   0.448  0.00  0.00    -0.047 A 
ATOM      9  C9  IND d   1      -0.039  -0.827   0.427  0.00  0.00    -0.096 A 
ATOM     10  HN1 IND d   1       1.985   1.402  -0.166  0.00  0.00     0.298 HD
ENDROOT
TORSDOF 0
ENDMDL
