MODEL 1
REMARK minimizedAffinity -5.3337841
REMARK minimizedRMSD -1
REMARK  0 active torsions:
REMARK  status: ('A' for Active; 'I' for Inactive)
ROOT
ATOM      1  N1  IND d   1       0.403   0.766   0.296  0.00  0.00    -0.196 N 
ATOM      2  C2  IND d   1      -0.724   0.682   1.065  0.00  0.00     0.054 A 
ATOM      3  C3  IND d   1      -0.882  -0.577   1.532  0.00  0.00    -0.031 A 
ATOM      4  C4  IND d   1       0.642  -2.632   1.242  0.00  0.00     0.051 A 
ATOM      5  C5  IND d   1       1.768  -3.055   0.593  0.00  0.00    -0.031 A 
ATOM      6  C6  IND d   1       2.513  -2.208  -0.203  0.00  0.00     0.015 A 
ATOM      7  C7  IND d   1       2.165  -0.898  -0.370  0.00  0.00    -0.016 A 
ATOM      8  C8  IND d   1       1.018  -0.466   0.282  0.00  0.00    -0.047 A 
ATOM      9  C9  IND d   1       0.235  -1.332   1.056  0.00  0.00    -0.096 A 
ATOM     10  HN1 IND d   1       0.682   1.471  -0.111  0.00  0.00     0.298 HD
ENDROOT
TORSDOF 0
ENDMDL
