MODEL 1
REMARK minimizedAffinity -5.07275724
REMARK minimizedRMSD -1
REMARK  0 active torsions:
REMARK  status: ('A' for Active; 'I' for Inactive)
ROOT
ATOM      1  N1  IND d   1      -1.049   0.123   0.598  0.00  0.00    -0.196 N 
ATOM      2  C2  IND d   1      -0.262   0.458  -0.468  0.00  0.00     0.054 A 
ATOM      3  C3  IND d   1       0.845  -0.318  -0.497  0.00  0.00    -0.031 A 
ATOM      4  C4  IND d   1       1.518  -2.266   1.045  0.00  0.00     0.051 A 
ATOM      5  C5  IND d   1       1.137  -2.922   2.182  0.00  0.00    -0.031 A 
ATOM      6  C6  IND d   1      -0.018  -2.591   2.861  0.00  0.00     0.015 A 
ATOM      7  C7  IND d   1      -0.844  -1.595   2.421  0.00  0.00    -0.016 A 
ATOM      8  C8  IND d   1      -0.455  -0.923   1.270  0.00  0.00    -0.047 A 
ATOM      9  C9  IND d   1       0.737  -1.226   0.601  0.00  0.00    -0.096 A 
ATOM     10  HN1 IND d   1      -1.791   0.501   0.813  0.00  0.00     0.298 HD
ENDROOT
TORSDOF 0
ENDMDL
