MODEL 1
REMARK minimizedAffinity -5.18546629
REMARK minimizedRMSD -1
REMARK  0 active torsions:
REMARK  status: ('A' for Active; 'I' for Inactive)
ROOT
ATOM      1  N1  IND d   1       2.319  -1.950   0.452  0.00  0.00    -0.196 N 
ATOM      2  C2  IND d   1       1.273  -2.660   0.973  0.00  0.00     0.054 A 
ATOM      3  C3  IND d   1       0.135  -1.931   0.917  0.00  0.00    -0.031 A 
ATOM      4  C4  IND d   1      -0.260   0.409  -0.081  0.00  0.00     0.051 A 
ATOM      5  C5  IND d   1       0.400   1.468  -0.638  0.00  0.00    -0.031 A 
ATOM      6  C6  IND d   1       1.760   1.440  -0.868  0.00  0.00     0.015 A 
ATOM      7  C7  IND d   1       2.513   0.343  -0.558  0.00  0.00    -0.016 A 
ATOM      8  C8  IND d   1       1.847  -0.732   0.015  0.00  0.00    -0.047 A 
ATOM      9  C9  IND d   1       0.474  -0.693   0.290  0.00  0.00    -0.096 A 
ATOM     10  HN1 IND d   1       3.134  -2.219   0.406  0.00  0.00     0.298 HD
ENDROOT
TORSDOF 0
ENDMDL
