MODEL 1
REMARK minimizedAffinity -6.49962711
REMARK minimizedRMSD -1
REMARK  0 active torsions:
REMARK  status: ('A' for Active; 'I' for Inactive)
ROOT
ATOM      1  N1  IND d   1      -0.703   0.255   0.397  0.00  0.00    -0.196 N 
ATOM      2  C2  IND d   1       0.182   0.610  -0.582  0.00  0.00     0.054 A 
ATOM      3  C3  IND d   1       1.218  -0.258  -0.618  0.00  0.00    -0.031 A 
ATOM      4  C4  IND d   1       1.612  -2.391   0.769  0.00  0.00     0.051 A 
ATOM      5  C5  IND d   1       1.097  -3.108   1.813  0.00  0.00    -0.031 A 
ATOM      6  C6  IND d   1      -0.069  -2.734   2.449  0.00  0.00     0.015 A 
ATOM      7  C7  IND d   1      -0.773  -1.631   2.056  0.00  0.00    -0.016 A 
ATOM      8  C8  IND d   1      -0.250  -0.897   1.001  0.00  0.00    -0.047 A 
ATOM      9  C9  IND d   1       0.956  -1.247   0.379  0.00  0.00    -0.096 A 
ATOM     10  HN1 IND d   1      -1.422   0.680   0.601  0.00  0.00     0.298 HD
ENDROOT
TORSDOF 0
ENDMDL
