MODEL 1
REMARK minimizedAffinity -3.0693059
REMARK minimizedRMSD -1
REMARK  0 active torsions:
REMARK  status: ('A' for Active; 'I' for Inactive)
ROOT
ATOM      1  N1  IND d   1       2.020  -0.762  -0.462  0.00  0.00    -0.196 N 
ATOM      2  C2  IND d   1       2.275  -1.809   0.379  0.00  0.00     0.054 A 
ATOM      3  C3  IND d   1       1.291  -1.923   1.300  0.00  0.00    -0.031 A 
ATOM      4  C4  IND d   1      -0.881  -0.565   1.550  0.00  0.00     0.051 A 
ATOM      5  C5  IND d   1      -1.539   0.519   1.038  0.00  0.00    -0.031 A 
ATOM      6  C6  IND d   1      -1.035   1.244  -0.022  0.00  0.00     0.015 A 
ATOM      7  C7  IND d   1       0.145   0.904  -0.621  0.00  0.00    -0.016 A 
ATOM      8  C8  IND d   1       0.819  -0.192  -0.100  0.00  0.00    -0.047 A 
ATOM      9  C9  IND d   1       0.334  -0.905   1.003  0.00  0.00    -0.096 A 
ATOM     10  HN1 IND d   1       2.524  -0.503  -1.108  0.00  0.00     0.298 HD
ENDROOT
TORSDOF 0
ENDMDL
