MODEL 1
REMARK minimizedAffinity -4.84643698
REMARK minimizedRMSD -1
REMARK  0 active torsions:
REMARK  status: ('A' for Active; 'I' for Inactive)
ROOT
ATOM      1  N1  IND d   1      -0.529   0.162   0.824  0.00  0.00    -0.196 N 
ATOM      2  C2  IND d   1      -0.136   1.177  -0.004  0.00  0.00     0.054 A 
ATOM      3  C3  IND d   1       1.028   0.861  -0.615  0.00  0.00    -0.031 A 
ATOM      4  C4  IND d   1       2.409  -1.308  -0.481  0.00  0.00     0.051 A 
ATOM      5  C5  IND d   1       2.471  -2.507   0.171  0.00  0.00    -0.031 A 
ATOM      6  C6  IND d   1       1.515  -2.886   1.092  0.00  0.00     0.015 A 
ATOM      7  C7  IND d   1       0.451  -2.082   1.386  0.00  0.00    -0.016 A 
ATOM      8  C8  IND d   1       0.389  -0.861   0.731  0.00  0.00    -0.047 A 
ATOM      9  C9  IND d   1       1.379  -0.452  -0.172  0.00  0.00    -0.096 A 
ATOM     10  HN1 IND d   1      -1.232   0.163   1.320  0.00  0.00     0.298 HD
ENDROOT
TORSDOF 0
ENDMDL
