MODEL 1
REMARK minimizedAffinity 5.40900946
REMARK minimizedRMSD -1
REMARK  0 active torsions:
REMARK  status: ('A' for Active; 'I' for Inactive)
ROOT
ATOM      1  C1  DEN d   1      -2.095  -1.010  -1.848  0.00  0.00     0.130 A 
ATOM      2  C2  DEN d   1      -1.739  -2.320  -2.387  0.00  0.00    -0.031 A 
ATOM      3  C3  DEN d   1      -1.682  -3.276  -1.262  0.00  0.00     0.027 A 
ATOM      4  C4  DEN d   1      -2.113  -2.858   1.246  0.00  0.00     0.027 A 
ATOM      5  C5  DEN d   1      -2.434  -1.904   2.186  0.00  0.00    -0.003 A 
ATOM      6  C6  DEN d   1      -2.630  -0.590   1.855  0.00  0.00     0.001 A 
ATOM      7  C7  DEN d   1      -2.551  -0.201   0.544  0.00  0.00     0.017 A 
ATOM      8  C8  DEN d   1      -2.220  -1.156  -0.409  0.00  0.00    -0.094 A 
ATOM      9  C9  DEN d   1      -2.038  -2.482  -0.056  0.00  0.00    -0.072 A 
ENDROOT
TORSDOF 0
ENDMDL
