MODEL 1
REMARK minimizedAffinity 2.59857821
REMARK minimizedRMSD -1
REMARK  0 active torsions:
REMARK  status: ('A' for Active; 'I' for Inactive)
ROOT
ATOM      1  C1  DEN d   1      -3.421   0.792   1.121  0.00  0.00     0.130 A 
ATOM      2  C2  DEN d   1      -2.864  -0.050   2.177  0.00  0.00    -0.031 A 
ATOM      3  C3  DEN d   1      -3.475  -1.389   2.064  0.00  0.00     0.027 A 
ATOM      4  C4  DEN d   1      -5.218  -2.239   0.363  0.00  0.00     0.027 A 
ATOM      5  C5  DEN d   1      -5.998  -1.886  -0.716  0.00  0.00    -0.003 A 
ATOM      6  C6  DEN d   1      -6.000  -0.618  -1.232  0.00  0.00     0.001 A 
ATOM      7  C7  DEN d   1      -5.171   0.334  -0.698  0.00  0.00     0.017 A 
ATOM      8  C8  DEN d   1      -4.387  -0.013   0.394  0.00  0.00    -0.094 A 
ATOM      9  C9  DEN d   1      -4.390  -1.304   0.894  0.00  0.00    -0.072 A 
ENDROOT
TORSDOF 0
ENDMDL
