MODEL 1
REMARK minimizedAffinity 9.44649124
REMARK minimizedRMSD -1
REMARK  0 active torsions:
REMARK  status: ('A' for Active; 'I' for Inactive)
ROOT
ATOM      1  C1  DEN d   1      -1.761  -3.179  -1.413  0.00  0.00     0.130 A 
ATOM      2  C2  DEN d   1      -1.309  -4.322  -0.625  0.00  0.00    -0.031 A 
ATOM      3  C3  DEN d   1      -1.712  -4.097   0.778  0.00  0.00     0.027 A 
ATOM      4  C4  DEN d   1      -2.990  -2.103   1.800  0.00  0.00     0.027 A 
ATOM      5  C5  DEN d   1      -3.574  -0.886   1.527  0.00  0.00    -0.003 A 
ATOM      6  C6  DEN d   1      -3.564  -0.336   0.273  0.00  0.00     0.001 A 
ATOM      7  C7  DEN d   1      -2.999  -1.026  -0.767  0.00  0.00     0.017 A 
ATOM      8  C8  DEN d   1      -2.402  -2.251  -0.498  0.00  0.00    -0.094 A 
ATOM      9  C9  DEN d   1      -2.432  -2.795   0.774  0.00  0.00    -0.072 A 
ENDROOT
TORSDOF 0
ENDMDL
