MODEL 1
REMARK minimizedAffinity 15.7434492
REMARK minimizedRMSD -1
REMARK  0 active torsions:
REMARK  status: ('A' for Active; 'I' for Inactive)
ROOT
ATOM      1  C1  DEN d   1      -2.014  -2.431   1.162  0.00  0.00     0.130 A 
ATOM      2  C2  DEN d   1      -2.148  -1.544   0.009  0.00  0.00    -0.031 A 
ATOM      3  C3  DEN d   1      -1.808  -2.316  -1.203  0.00  0.00     0.027 A 
ATOM      4  C4  DEN d   1      -1.095  -4.786  -1.407  0.00  0.00     0.027 A 
ATOM      5  C5  DEN d   1      -0.828  -5.939  -0.702  0.00  0.00    -0.003 A 
ATOM      6  C6  DEN d   1      -0.905  -5.994   0.664  0.00  0.00     0.001 A 
ATOM      7  C7  DEN d   1      -1.301  -4.887   1.367  0.00  0.00     0.017 A 
ATOM      8  C8  DEN d   1      -1.564  -3.719   0.664  0.00  0.00    -0.094 A 
ATOM      9  C9  DEN d   1      -1.492  -3.686  -0.718  0.00  0.00    -0.072 A 
ENDROOT
TORSDOF 0
ENDMDL
