MODEL 1
REMARK minimizedAffinity 12.0807743
REMARK minimizedRMSD -1
REMARK  0 active torsions:
REMARK  status: ('A' for Active; 'I' for Inactive)
ROOT
ATOM      1  C1  DEN d   1       5.144   1.937  -0.917  0.00  0.00     0.130 A 
ATOM      2  C2  DEN d   1       4.133   1.150  -1.618  0.00  0.00    -0.031 A 
ATOM      3  C3  DEN d   1       3.550   0.193  -0.656  0.00  0.00     0.027 A 
ATOM      4  C4  DEN d   1       4.108  -0.142   1.839  0.00  0.00     0.027 A 
ATOM      5  C5  DEN d   1       4.906   0.284   2.878  0.00  0.00    -0.003 A 
ATOM      6  C6  DEN d   1       5.854   1.259   2.718  0.00  0.00     0.001 A 
ATOM      7  C7  DEN d   1       5.999   1.873   1.502  0.00  0.00     0.017 A 
ATOM      8  C8  DEN d   1       5.203   1.444   0.448  0.00  0.00    -0.094 A 
ATOM      9  C9  DEN d   1       4.241   0.465   0.633  0.00  0.00    -0.072 A 
ENDROOT
TORSDOF 0
ENDMDL
