MODEL 1
REMARK minimizedAffinity 18.3407078
REMARK minimizedRMSD -1
REMARK  0 active torsions:
REMARK  status: ('A' for Active; 'I' for Inactive)
ROOT
ATOM      1  C1  DEN d   1      -4.203   2.977  -1.173  0.00  0.00     0.130 A 
ATOM      2  C2  DEN d   1      -4.862   3.053  -2.474  0.00  0.00    -0.031 A 
ATOM      3  C3  DEN d   1      -5.551   1.768  -2.712  0.00  0.00     0.027 A 
ATOM      4  C4  DEN d   1      -5.663  -0.317  -1.199  0.00  0.00     0.027 A 
ATOM      5  C5  DEN d   1      -5.249  -0.860  -0.002  0.00  0.00    -0.003 A 
ATOM      6  C6  DEN d   1      -4.437  -0.179   0.866  0.00  0.00     0.001 A 
ATOM      7  C7  DEN d   1      -4.048   1.100   0.570  0.00  0.00     0.017 A 
ATOM      8  C8  DEN d   1      -4.455   1.651  -0.638  0.00  0.00    -0.094 A 
ATOM      9  C9  DEN d   1      -5.287   0.952  -1.496  0.00  0.00    -0.072 A 
ENDROOT
TORSDOF 0
ENDMDL
