MODEL 1
REMARK minimizedAffinity 18.5363579
REMARK minimizedRMSD -1
REMARK  0 active torsions:
REMARK  status: ('A' for Active; 'I' for Inactive)
ROOT
ATOM      1  C1  DEN d   1      -4.785  -0.937  -2.085  0.00  0.00     0.130 A 
ATOM      2  C2  DEN d   1      -5.997  -1.515  -1.510  0.00  0.00    -0.031 A 
ATOM      3  C3  DEN d   1      -5.879  -1.454  -0.039  0.00  0.00     0.027 A 
ATOM      4  C4  DEN d   1      -3.951  -0.521   1.396  0.00  0.00     0.027 A 
ATOM      5  C5  DEN d   1      -2.704   0.064   1.358  0.00  0.00    -0.003 A 
ATOM      6  C6  DEN d   1      -2.055   0.323   0.180  0.00  0.00     0.001 A 
ATOM      7  C7  DEN d   1      -2.669   0.038  -1.010  0.00  0.00     0.017 A 
ATOM      8  C8  DEN d   1      -3.923  -0.559  -0.980  0.00  0.00    -0.094 A 
ATOM      9  C9  DEN d   1      -4.568  -0.801   0.221  0.00  0.00    -0.072 A 
ENDROOT
TORSDOF 0
ENDMDL
