MODEL 1
REMARK minimizedAffinity 12.5588598
REMARK minimizedRMSD -1
REMARK  0 active torsions:
REMARK  status: ('A' for Active; 'I' for Inactive)
ROOT
ATOM      1  C1  DEN d   1       2.475   3.035   2.921  0.00  0.00     0.130 A 
ATOM      2  C2  DEN d   1       3.000   4.304   3.417  0.00  0.00    -0.031 A 
ATOM      3  C3  DEN d   1       4.475   4.231   3.386  0.00  0.00     0.027 A 
ATOM      4  C4  DEN d   1       5.987   2.289   2.617  0.00  0.00     0.027 A 
ATOM      5  C5  DEN d   1       5.999   1.002   2.125  0.00  0.00    -0.003 A 
ATOM      6  C6  DEN d   1       4.848   0.297   1.898  0.00  0.00     0.001 A 
ATOM      7  C7  DEN d   1       3.633   0.890   2.120  0.00  0.00     0.017 A 
ATOM      8  C8  DEN d   1       3.613   2.184   2.623  0.00  0.00    -0.094 A 
ATOM      9  C9  DEN d   1       4.788   2.885   2.835  0.00  0.00    -0.072 A 
ENDROOT
TORSDOF 0
ENDMDL
