MODEL 1
REMARK minimizedAffinity 16.1096592
REMARK minimizedRMSD -1
REMARK  0 active torsions:
REMARK  status: ('A' for Active; 'I' for Inactive)
ROOT
ATOM      1  C1  DEN d   1       5.998   1.275   2.106  0.00  0.00     0.130 A 
ATOM      2  C2  DEN d   1       5.068   0.493   2.916  0.00  0.00    -0.031 A 
ATOM      3  C3  DEN d   1       3.986   0.013   2.034  0.00  0.00     0.027 A 
ATOM      4  C4  DEN d   1       3.664   0.398  -0.496  0.00  0.00     0.027 A 
ATOM      5  C5  DEN d   1       4.188   1.008  -1.614  0.00  0.00    -0.003 A 
ATOM      6  C6  DEN d   1       5.324   1.771  -1.565  0.00  0.00     0.001 A 
ATOM      7  C7  DEN d   1       5.999   1.907  -0.381  0.00  0.00     0.017 A 
ATOM      8  C8  DEN d   1       5.473   1.302   0.753  0.00  0.00    -0.094 A 
ATOM      9  C9  DEN d   1       4.329   0.524   0.680  0.00  0.00    -0.072 A 
ENDROOT
TORSDOF 0
ENDMDL
