MODEL 1
REMARK minimizedAffinity 11.1738329
REMARK minimizedRMSD -1
REMARK  0 active torsions:
REMARK  status: ('A' for Active; 'I' for Inactive)
ROOT
ATOM      1  C1  DEN d   1      -1.281  -2.704  -2.392  0.00  0.00     0.130 A 
ATOM      2  C2  DEN d   1      -1.654  -1.505  -1.646  0.00  0.00    -0.031 A 
ATOM      3  C3  DEN d   1      -1.728  -1.861  -0.215  0.00  0.00     0.027 A 
ATOM      4  C4  DEN d   1      -1.299  -4.141   0.913  0.00  0.00     0.027 A 
ATOM      5  C5  DEN d   1      -0.967  -5.459   0.690  0.00  0.00    -0.003 A 
ATOM      6  C6  DEN d   1      -0.752  -5.955  -0.568  0.00  0.00     0.001 A 
ATOM      7  C7  DEN d   1      -0.822  -5.117  -1.649  0.00  0.00     0.017 A 
ATOM      8  C8  DEN d   1      -1.163  -3.788  -1.433  0.00  0.00    -0.094 A 
ATOM      9  C9  DEN d   1      -1.365  -3.303  -0.152  0.00  0.00    -0.072 A 
ENDROOT
TORSDOF 0
ENDMDL
