MODEL 1
REMARK minimizedAffinity 9.513587
REMARK minimizedRMSD -1
REMARK  0 active torsions:
REMARK  status: ('A' for Active; 'I' for Inactive)
ROOT
ATOM      1  C   UNL d   1      -0.307  -4.314   5.257  0.00  0.00     0.020 A 
ATOM      2  C1  UNL d   1       0.100  -3.851   4.006  0.00  0.00     0.020 A 
ATOM      3  C2  UNL d   1      -0.642  -2.867   3.350  0.00  0.00     0.034 A 
ATOM      4  C3  UNL d   1      -1.796  -2.342   3.945  0.00  0.00     0.017 A 
ATOM      5  C4  UNL d   1      -2.204  -2.807   5.200  0.00  0.00     0.017 A 
ATOM      6  C5  UNL d   1      -1.456  -3.793   5.852  0.00  0.00     0.034 A 
ATOM      7 Cl   UNL d   1      -3.616  -2.208   5.997  0.00  0.00    -0.070 Cl
ATOM      8 Cl1  UNL d   1      -2.665  -1.127   3.077  0.00  0.00    -0.070 Cl
ENDROOT
TORSDOF 0
ENDMDL
