MODEL 1
REMARK minimizedAffinity 13.4079094
REMARK minimizedRMSD -1
REMARK  0 active torsions:
REMARK  status: ('A' for Active; 'I' for Inactive)
ROOT
ATOM      1  C   UNL d   1      -2.988   2.379   1.837  0.00  0.00     0.020 A 
ATOM      2  C1  UNL d   1      -1.646   2.607   2.139  0.00  0.00     0.020 A 
ATOM      3  C2  UNL d   1      -0.667   2.395   1.166  0.00  0.00     0.034 A 
ATOM      4  C3  UNL d   1      -1.028   1.955  -0.112  0.00  0.00     0.017 A 
ATOM      5  C4  UNL d   1      -2.375   1.727  -0.414  0.00  0.00     0.017 A 
ATOM      6  C5  UNL d   1      -3.352   1.941   0.564  0.00  0.00     0.034 A 
ATOM      7 Cl   UNL d   1      -2.898   1.183  -1.969  0.00  0.00    -0.070 Cl
ATOM      8 Cl1  UNL d   1       0.236   1.714  -1.266  0.00  0.00    -0.070 Cl
ENDROOT
TORSDOF 0
ENDMDL
