MODEL 1
REMARK minimizedAffinity 8.50372696
REMARK minimizedRMSD -1
REMARK  0 active torsions:
REMARK  status: ('A' for Active; 'I' for Inactive)
ROOT
ATOM      1  C   UNL d   1      -2.959   2.757   0.569  0.00  0.00     0.020 A 
ATOM      2  C1  UNL d   1      -2.792   2.443   1.917  0.00  0.00     0.020 A 
ATOM      3  C2  UNL d   1      -1.655   1.750   2.337  0.00  0.00     0.034 A 
ATOM      4  C3  UNL d   1      -0.681   1.368   1.407  0.00  0.00     0.017 A 
ATOM      5  C4  UNL d   1      -0.850   1.683   0.054  0.00  0.00     0.017 A 
ATOM      6  C5  UNL d   1      -1.990   2.377  -0.360  0.00  0.00     0.034 A 
ATOM      7 Cl   UNL d   1       0.309   1.245  -1.151  0.00  0.00    -0.070 Cl
ATOM      8 Cl1  UNL d   1       0.701   0.513   1.997  0.00  0.00    -0.070 Cl
ENDROOT
TORSDOF 0
ENDMDL
