MODEL 1
REMARK minimizedAffinity 7.8888936
REMARK minimizedRMSD -1
REMARK  0 active torsions:
REMARK  status: ('A' for Active; 'I' for Inactive)
ROOT
ATOM      1  C   UNL d   1      -2.580   2.856   0.501  0.00  0.00     0.020 A 
ATOM      2  C1  UNL d   1      -2.389   2.758   1.879  0.00  0.00     0.020 A 
ATOM      3  C2  UNL d   1      -1.341   1.985   2.385  0.00  0.00     0.034 A 
ATOM      4  C3  UNL d   1      -0.481   1.308   1.513  0.00  0.00     0.017 A 
ATOM      5  C4  UNL d   1      -0.674   1.407   0.130  0.00  0.00     0.017 A 
ATOM      6  C5  UNL d   1      -1.725   2.182  -0.371  0.00  0.00     0.034 A 
ATOM      7 Cl   UNL d   1       0.346   0.601  -1.009  0.00  0.00    -0.070 Cl
ATOM      8 Cl1  UNL d   1       0.794   0.371   2.208  0.00  0.00    -0.070 Cl
ENDROOT
TORSDOF 0
ENDMDL
