MODEL 1
REMARK minimizedAffinity 2.4099021
REMARK minimizedRMSD -1
REMARK  0 active torsions:
REMARK  status: ('A' for Active; 'I' for Inactive)
ROOT
ATOM      1  C   UNL d   1      -2.465   2.040  -0.052  0.00  0.00     0.020 A 
ATOM      2  C1  UNL d   1      -2.622   3.091   0.851  0.00  0.00     0.020 A 
ATOM      3  C2  UNL d   1      -1.966   3.057   2.083  0.00  0.00     0.034 A 
ATOM      4  C3  UNL d   1      -1.149   1.970   2.416  0.00  0.00     0.017 A 
ATOM      5  C4  UNL d   1      -0.991   0.916   1.509  0.00  0.00     0.017 A 
ATOM      6  C5  UNL d   1      -1.651   0.955   0.276  0.00  0.00     0.034 A 
ATOM      7 Cl   UNL d   1      -0.000  -0.459   1.848  0.00  0.00    -0.070 Cl
ATOM      8 Cl1  UNL d   1      -0.367   1.994   3.956  0.00  0.00    -0.070 Cl
ENDROOT
TORSDOF 0
ENDMDL
