MODEL 1
REMARK minimizedAffinity 5.46598482
REMARK minimizedRMSD -1
REMARK  0 active torsions:
REMARK  status: ('A' for Active; 'I' for Inactive)
ROOT
ATOM      1  C   UNL d   1       5.860  -2.675  -3.302  0.00  0.00     0.020 A 
ATOM      2  C1  UNL d   1       4.739  -3.095  -4.018  0.00  0.00     0.020 A 
ATOM      3  C2  UNL d   1       3.758  -3.866  -3.390  0.00  0.00     0.034 A 
ATOM      4  C3  UNL d   1       3.896  -4.219  -2.042  0.00  0.00     0.017 A 
ATOM      5  C4  UNL d   1       5.021  -3.796  -1.325  0.00  0.00     0.017 A 
ATOM      6  C5  UNL d   1       6.000  -3.024  -1.959  0.00  0.00     0.034 A 
ATOM      7 Cl   UNL d   1       5.261  -4.192   0.340  0.00  0.00    -0.070 Cl
ATOM      8 Cl1  UNL d   1       2.644  -5.173  -1.330  0.00  0.00    -0.070 Cl
ENDROOT
TORSDOF 0
ENDMDL
