MODEL 1
REMARK minimizedAffinity 7.7450552
REMARK minimizedRMSD -1
REMARK  0 active torsions:
REMARK  status: ('A' for Active; 'I' for Inactive)
ROOT
ATOM      1  C   UNL d   1      -2.602   2.725   0.820  0.00  0.00     0.020 A 
ATOM      2  C1  UNL d   1      -2.387   2.531   2.184  0.00  0.00     0.020 A 
ATOM      3  C2  UNL d   1      -1.312   1.752   2.618  0.00  0.00     0.034 A 
ATOM      4  C3  UNL d   1      -0.448   1.165   1.687  0.00  0.00     0.017 A 
ATOM      5  C4  UNL d   1      -0.664   1.360   0.319  0.00  0.00     0.017 A 
ATOM      6  C5  UNL d   1      -1.742   2.141  -0.111  0.00  0.00     0.034 A 
ATOM      7 Cl   UNL d   1       0.360   0.667  -0.889  0.00  0.00    -0.070 Cl
ATOM      8 Cl1  UNL d   1       0.861   0.214   2.295  0.00  0.00    -0.070 Cl
ENDROOT
TORSDOF 0
ENDMDL
