MODEL 1
REMARK minimizedAffinity 5.33003092
REMARK minimizedRMSD -1
REMARK  0 active torsions:
REMARK  status: ('A' for Active; 'I' for Inactive)
ROOT
ATOM      1  C   UNL d   1      -2.543   2.102   2.190  0.00  0.00     0.020 A 
ATOM      2  C1  UNL d   1      -2.798   2.899   1.075  0.00  0.00     0.020 A 
ATOM      3  C2  UNL d   1      -1.850   2.995   0.054  0.00  0.00     0.034 A 
ATOM      4  C3  UNL d   1      -0.642   2.294   0.147  0.00  0.00     0.017 A 
ATOM      5  C4  UNL d   1      -0.387   1.494   1.267  0.00  0.00     0.017 A 
ATOM      6  C5  UNL d   1      -1.340   1.401   2.286  0.00  0.00     0.034 A 
ATOM      7 Cl   UNL d   1       1.080   0.599   1.452  0.00  0.00    -0.070 Cl
ATOM      8 Cl1  UNL d   1       0.484   2.459  -1.153  0.00  0.00    -0.070 Cl
ENDROOT
TORSDOF 0
ENDMDL
