MODEL 1
REMARK minimizedAffinity 11.5195465
REMARK minimizedRMSD -1
REMARK  0 active torsions:
REMARK  status: ('A' for Active; 'I' for Inactive)
ROOT
ATOM      1  C   UNL d   1      -1.341   2.677   2.127  0.00  0.00     0.020 A 
ATOM      2  C1  UNL d   1      -2.683   2.345   1.941  0.00  0.00     0.020 A 
ATOM      3  C2  UNL d   1      -3.110   1.827   0.716  0.00  0.00     0.034 A 
ATOM      4  C3  UNL d   1      -2.195   1.639  -0.326  0.00  0.00     0.017 A 
ATOM      5  C4  UNL d   1      -0.848   1.973  -0.138  0.00  0.00     0.017 A 
ATOM      6  C5  UNL d   1      -0.426   2.491   1.090  0.00  0.00     0.034 A 
ATOM      7 Cl   UNL d   1       0.339   1.769  -1.377  0.00  0.00    -0.070 Cl
ATOM      8 Cl1  UNL d   1      -2.792   0.994  -1.814  0.00  0.00    -0.070 Cl
ENDROOT
TORSDOF 0
ENDMDL
