MODEL 1
REMARK minimizedAffinity 12.429553
REMARK minimizedRMSD -1
REMARK  0 active torsions:
REMARK  status: ('A' for Active; 'I' for Inactive)
ROOT
ATOM      1  C   UNL d   1       1.073   0.782  -1.568  0.00  0.00     0.020 A 
ATOM      2  C1  UNL d   1       0.675  -0.477  -2.017  0.00  0.00     0.020 A 
ATOM      3  C2  UNL d   1      -0.618  -0.666  -2.508  0.00  0.00     0.034 A 
ATOM      4  C3  UNL d   1      -1.518   0.405  -2.551  0.00  0.00     0.017 A 
ATOM      5  C4  UNL d   1      -1.118   1.668  -2.100  0.00  0.00     0.017 A 
ATOM      6  C5  UNL d   1       0.179   1.852  -1.610  0.00  0.00     0.034 A 
ATOM      7 Cl   UNL d   1      -2.172   3.038  -2.123  0.00  0.00    -0.070 Cl
ATOM      8 Cl1  UNL d   1      -3.102   0.100  -3.171  0.00  0.00    -0.070 Cl
ENDROOT
TORSDOF 0
ENDMDL
