MODEL 1
REMARK minimizedAffinity 10.3554258
REMARK minimizedRMSD -1
REMARK  0 active torsions:
REMARK  status: ('A' for Active; 'I' for Inactive)
ROOT
ATOM      1  C   UNL d   1       1.742   1.738  -3.110  0.00  0.00     0.020 A 
ATOM      2  C1  UNL d   1       1.283   0.984  -4.189  0.00  0.00     0.020 A 
ATOM      3  C2  UNL d   1      -0.009   0.454  -4.172  0.00  0.00     0.034 A 
ATOM      4  C3  UNL d   1      -0.846   0.677  -3.072  0.00  0.00     0.017 A 
ATOM      5  C4  UNL d   1      -0.384   1.433  -1.989  0.00  0.00     0.017 A 
ATOM      6  C5  UNL d   1       0.910   1.961  -2.012  0.00  0.00     0.034 A 
ATOM      7 Cl   UNL d   1      -1.359   1.750  -0.598  0.00  0.00    -0.070 Cl
ATOM      8 Cl1  UNL d   1      -2.431  -0.009  -3.118  0.00  0.00    -0.070 Cl
ENDROOT
TORSDOF 0
ENDMDL
