MODEL 1
REMARK minimizedAffinity 7.25608206
REMARK minimizedRMSD -1
REMARK  0 active torsions:
REMARK  status: ('A' for Active; 'I' for Inactive)
ROOT
ATOM      1  C   UNL d   1      -1.882   2.216   1.702  0.00  0.00     0.020 A 
ATOM      2  C1  UNL d   1      -0.834   2.995   2.190  0.00  0.00     0.020 A 
ATOM      3  C2  UNL d   1       0.118   2.430   3.042  0.00  0.00     0.034 A 
ATOM      4  C3  UNL d   1       0.023   1.083   3.409  0.00  0.00     0.017 A 
ATOM      5  C4  UNL d   1      -1.030   0.302   2.919  0.00  0.00     0.017 A 
ATOM      6  C5  UNL d   1      -1.980   0.872   2.066  0.00  0.00     0.034 A 
ATOM      7 Cl   UNL d   1      -1.214  -1.368   3.327  0.00  0.00    -0.070 Cl
ATOM      8 Cl1  UNL d   1       1.235   0.450   4.466  0.00  0.00    -0.070 Cl
ENDROOT
TORSDOF 0
ENDMDL
