MODEL 1
REMARK minimizedAffinity 6.69506884
REMARK minimizedRMSD -1
REMARK  0 active torsions:
REMARK  status: ('A' for Active; 'I' for Inactive)
ROOT
ATOM      1  C   UNL d   1      -0.337   1.866  -0.743  0.00  0.00     0.020 A 
ATOM      2  C1  UNL d   1       0.844   2.183  -1.413  0.00  0.00     0.020 A 
ATOM      3  C2  UNL d   1       1.171   1.527  -2.601  0.00  0.00     0.034 A 
ATOM      4  C3  UNL d   1       0.316   0.549  -3.123  0.00  0.00     0.017 A 
ATOM      5  C4  UNL d   1      -0.869   0.231  -2.450  0.00  0.00     0.017 A 
ATOM      6  C5  UNL d   1      -1.192   0.892  -1.261  0.00  0.00     0.034 A 
ATOM      7 Cl   UNL d   1      -1.973  -0.964  -3.033  0.00  0.00    -0.070 Cl
ATOM      8 Cl1  UNL d   1       0.784  -0.222  -4.597  0.00  0.00    -0.070 Cl
ENDROOT
TORSDOF 0
ENDMDL
