MODEL 1
REMARK minimizedAffinity 3.96433806
REMARK minimizedRMSD -1
REMARK  0 active torsions:
REMARK  status: ('A' for Active; 'I' for Inactive)
ROOT
ATOM      1  C   UNL d   1       5.055  -1.083   0.020  0.00  0.00     0.020 A 
ATOM      2  C1  UNL d   1       5.998  -1.682  -0.814  0.00  0.00     0.020 A 
ATOM      3  C2  UNL d   1       5.602  -2.662  -1.727  0.00  0.00     0.034 A 
ATOM      4  C3  UNL d   1       4.258  -3.046  -1.807  0.00  0.00     0.017 A 
ATOM      5  C4  UNL d   1       3.312  -2.445  -0.969  0.00  0.00     0.017 A 
ATOM      6  C5  UNL d   1       3.715  -1.464  -0.057  0.00  0.00     0.034 A 
ATOM      7 Cl   UNL d   1       1.637  -2.867  -1.010  0.00  0.00    -0.070 Cl
ATOM      8 Cl1  UNL d   1       3.839  -4.264  -2.959  0.00  0.00    -0.070 Cl
ENDROOT
TORSDOF 0
ENDMDL
