MODEL 1
REMARK minimizedAffinity 6.29008007
REMARK minimizedRMSD -1
REMARK  0 active torsions:
REMARK  status: ('A' for Active; 'I' for Inactive)
ROOT
ATOM      1  C   UNL d   1       1.246  -0.070  -2.170  0.00  0.00     0.020 A 
ATOM      2  C1  UNL d   1       1.569   1.253  -1.873  0.00  0.00     0.020 A 
ATOM      3  C2  UNL d   1       0.566   2.224  -1.832  0.00  0.00     0.034 A 
ATOM      4  C3  UNL d   1      -0.764   1.874  -2.090  0.00  0.00     0.017 A 
ATOM      5  C4  UNL d   1      -1.087   0.545  -2.388  0.00  0.00     0.017 A 
ATOM      6  C5  UNL d   1      -0.079  -0.423  -2.427  0.00  0.00     0.034 A 
ATOM      7 Cl   UNL d   1      -2.706   0.035  -2.717  0.00  0.00    -0.070 Cl
ATOM      8 Cl1  UNL d   1      -1.953   3.126  -2.022  0.00  0.00    -0.070 Cl
ENDROOT
TORSDOF 0
ENDMDL
