MODEL 1
REMARK minimizedAffinity 9.07134819
REMARK minimizedRMSD -1
REMARK  0 active torsions:
REMARK  status: ('A' for Active; 'I' for Inactive)
ROOT
ATOM      1  C   UNL d   1      -1.519   2.726   0.718  0.00  0.00     0.020 A 
ATOM      2  C1  UNL d   1      -2.789   2.227   1.002  0.00  0.00     0.020 A 
ATOM      3  C2  UNL d   1      -2.933   1.125   1.848  0.00  0.00     0.034 A 
ATOM      4  C3  UNL d   1      -1.805   0.518   2.411  0.00  0.00     0.017 A 
ATOM      5  C4  UNL d   1      -0.530   1.019   2.124  0.00  0.00     0.017 A 
ATOM      6  C5  UNL d   1      -0.392   2.123   1.278  0.00  0.00     0.034 A 
ATOM      7 Cl   UNL d   1       0.909   0.323   2.782  0.00  0.00    -0.070 Cl
ATOM      8 Cl1  UNL d   1      -2.057  -0.842   3.447  0.00  0.00    -0.070 Cl
ENDROOT
TORSDOF 0
ENDMDL
