MODEL 1
REMARK minimizedAffinity -2.59401441
REMARK minimizedRMSD -1
REMARK  0 active torsions:
REMARK  status: ('A' for Active; 'I' for Inactive)
ROOT
ATOM      1  C   UNL d   1      -0.836   1.961   0.121  0.00  0.00     0.020 A 
ATOM      2  C1  UNL d   1      -0.247   1.253   1.168  0.00  0.00     0.020 A 
ATOM      3  C2  UNL d   1       0.323   0.001   0.931  0.00  0.00     0.034 A 
ATOM      4  C3  UNL d   1       0.305  -0.548  -0.356  0.00  0.00     0.017 A 
ATOM      5  C4  UNL d   1      -0.286   0.163  -1.407  0.00  0.00     0.017 A 
ATOM      6  C5  UNL d   1      -0.855   1.416  -1.164  0.00  0.00     0.034 A 
ATOM      7 Cl   UNL d   1      -0.346  -0.450  -3.022  0.00  0.00    -0.070 Cl
ATOM      8 Cl1  UNL d   1       1.029  -2.102  -0.577  0.00  0.00    -0.070 Cl
ENDROOT
TORSDOF 0
ENDMDL
