MODEL 1
REMARK minimizedAffinity 3.14469457
REMARK minimizedRMSD -1
REMARK  0 active torsions:
REMARK  status: ('A' for Active; 'I' for Inactive)
ROOT
ATOM      1  C   UNL d   1       4.989  -1.746   0.390  0.00  0.00     0.020 A 
ATOM      2  C1  UNL d   1       5.999  -2.169  -0.474  0.00  0.00     0.020 A 
ATOM      3  C2  UNL d   1       5.674  -2.865  -1.641  0.00  0.00     0.034 A 
ATOM      4  C3  UNL d   1       4.336  -3.139  -1.947  0.00  0.00     0.017 A 
ATOM      5  C4  UNL d   1       3.323  -2.714  -1.079  0.00  0.00     0.017 A 
ATOM      6  C5  UNL d   1       3.654  -2.018   0.088  0.00  0.00     0.034 A 
ATOM      7 Cl   UNL d   1       1.650  -3.016  -1.389  0.00  0.00    -0.070 Cl
ATOM      8 Cl1  UNL d   1       4.007  -4.003  -3.406  0.00  0.00    -0.070 Cl
ENDROOT
TORSDOF 0
ENDMDL
