MODEL 1
REMARK minimizedAffinity 12.6247845
REMARK minimizedRMSD -1
REMARK  0 active torsions:
REMARK  status: ('A' for Active; 'I' for Inactive)
ROOT
ATOM      1  C   UNL d   1      -0.492   3.632  -1.137  0.00  0.00     0.020 A 
ATOM      2  C1  UNL d   1       0.691   3.724  -0.405  0.00  0.00     0.020 A 
ATOM      3  C2  UNL d   1       0.789   3.108   0.844  0.00  0.00     0.034 A 
ATOM      4  C3  UNL d   1      -0.298   2.397   1.366  0.00  0.00     0.017 A 
ATOM      5  C4  UNL d   1      -1.485   2.305   0.630  0.00  0.00     0.017 A 
ATOM      6  C5  UNL d   1      -1.578   2.923  -0.620  0.00  0.00     0.034 A 
ATOM      7 Cl   UNL d   1      -2.869   1.444   1.208  0.00  0.00    -0.070 Cl
ATOM      8 Cl1  UNL d   1      -0.106   1.660   2.916  0.00  0.00    -0.070 Cl
ENDROOT
TORSDOF 0
ENDMDL
