MODEL 1
REMARK minimizedAffinity -5.02372742
REMARK minimizedRMSD -1
REMARK  0 active torsions:
REMARK  status: ('A' for Active; 'I' for Inactive)
ROOT
ATOM      1  C4' PXY d   1      -0.872  -1.356   2.271  0.00  0.00     0.077 C 
ATOM      2  C1' PXY d   1      -0.763   3.664  -0.593  0.00  0.00     0.077 C 
ATOM      3  C1  PXY d   1      -0.792   2.341   0.147  0.00  0.00    -0.082 A 
ATOM      4  C2  PXY d   1      -1.236   2.298   1.392  0.00  0.00     0.003 A 
ATOM      5  C3  PXY d   1      -1.239   1.116   2.087  0.00  0.00     0.003 A 
ATOM      6  C4  PXY d   1      -0.833  -0.044   1.482  0.00  0.00    -0.082 A 
ATOM      7  C5  PXY d   1      -0.389  -0.010   0.208  0.00  0.00     0.003 A 
ATOM      8  C6  PXY d   1      -0.356   1.207  -0.466  0.00  0.00     0.003 A 
ENDROOT
TORSDOF 0
ENDMDL
