MODEL 1
REMARK minimizedAffinity -5.32215405
REMARK minimizedRMSD -1
REMARK  0 active torsions:
REMARK  status: ('A' for Active; 'I' for Inactive)
ROOT
ATOM      1  C4' PXY d   1      -0.415   3.447  -1.409  0.00  0.00     0.077 C 
ATOM      2  C1' PXY d   1      -0.538  -0.771   2.541  0.00  0.00     0.077 C 
ATOM      3  C1  PXY d   1      -0.517   0.340   1.510  0.00  0.00    -0.082 A 
ATOM      4  C2  PXY d   1       0.137   0.165   0.373  0.00  0.00     0.003 A 
ATOM      5  C3  PXY d   1       0.193   1.171  -0.557  0.00  0.00     0.003 A 
ATOM      6  C4  PXY d   1      -0.471   2.349  -0.343  0.00  0.00    -0.082 A 
ATOM      7  C5  PXY d   1      -1.149   2.531   0.809  0.00  0.00     0.003 A 
ATOM      8  C6  PXY d   1      -1.160   1.513   1.758  0.00  0.00     0.003 A 
ENDROOT
TORSDOF 0
ENDMDL
