MODEL 1
REMARK minimizedAffinity -4.57386065
REMARK minimizedRMSD -1
REMARK  0 active torsions:
REMARK  status: ('A' for Active; 'I' for Inactive)
ROOT
ATOM      1  C4' PXY d   1       0.914  -1.880  -1.299  0.00  0.00     0.077 C 
ATOM      2  C1' PXY d   1      -1.379   1.805   2.520  0.00  0.00     0.077 C 
ATOM      3  C1  PXY d   1      -0.770   0.834   1.528  0.00  0.00    -0.082 A 
ATOM      4  C2  PXY d   1      -0.789   1.120   0.236  0.00  0.00     0.003 A 
ATOM      5  C3  PXY d   1      -0.271   0.238  -0.678  0.00  0.00     0.003 A 
ATOM      6  C4  PXY d   1       0.320  -0.925  -0.260  0.00  0.00    -0.082 A 
ATOM      7  C5  PXY d   1       0.352  -1.219   1.057  0.00  0.00     0.003 A 
ATOM      8  C6  PXY d   1      -0.215  -0.330   1.964  0.00  0.00     0.003 A 
ENDROOT
TORSDOF 0
ENDMDL
