MODEL 1
REMARK minimizedAffinity -5.03379679
REMARK minimizedRMSD -1
REMARK  0 active torsions:
REMARK  status: ('A' for Active; 'I' for Inactive)
ROOT
ATOM      1  C4' PXY d   1       1.023  -2.082  -1.291  0.00  0.00     0.077 C 
ATOM      2  C1' PXY d   1      -2.028   1.765   1.759  0.00  0.00     0.077 C 
ATOM      3  C1  PXY d   1      -1.231   0.763   0.948  0.00  0.00    -0.082 A 
ATOM      4  C2  PXY d   1      -1.041  -0.458   1.422  0.00  0.00     0.003 A 
ATOM      5  C3  PXY d   1      -0.295  -1.367   0.716  0.00  0.00     0.003 A 
ATOM      6  C4  PXY d   1       0.216  -1.040  -0.511  0.00  0.00    -0.082 A 
ATOM      7  C5  PXY d   1       0.018   0.200  -1.006  0.00  0.00     0.003 A 
ATOM      8  C6  PXY d   1      -0.707   1.121  -0.255  0.00  0.00     0.003 A 
ENDROOT
TORSDOF 0
ENDMDL
