MODEL 1
REMARK minimizedAffinity -3.02866292
REMARK minimizedRMSD -1
REMARK  0 active torsions:
REMARK  status: ('A' for Active; 'I' for Inactive)
ROOT
ATOM      1  C4' PXY d   1      -1.360   1.364   1.838  0.00  0.00     0.077 C 
ATOM      2  C1' PXY d   1       0.855  -2.444  -1.904  0.00  0.00     0.077 C 
ATOM      3  C1  PXY d   1       0.263  -1.446  -0.929  0.00  0.00    -0.082 A 
ATOM      4  C2  PXY d   1       1.065  -0.650  -0.240  0.00  0.00     0.003 A 
ATOM      5  C3  PXY d   1       0.548   0.236   0.669  0.00  0.00     0.003 A 
ATOM      6  C4  PXY d   1      -0.807   0.347   0.836  0.00  0.00    -0.082 A 
ATOM      7  C5  PXY d   1      -1.632  -0.453   0.128  0.00  0.00     0.003 A 
ATOM      8  C6  PXY d   1      -1.085  -1.375  -0.759  0.00  0.00     0.003 A 
ENDROOT
TORSDOF 0
ENDMDL
