MODEL 1
REMARK minimizedAffinity -5.12971544
REMARK minimizedRMSD -1
REMARK  0 active torsions:
REMARK  status: ('A' for Active; 'I' for Inactive)
ROOT
ATOM      1  C4' PXY d   1      -1.396   1.567   1.582  0.00  0.00     0.077 C 
ATOM      2  C1' PXY d   1       1.330  -2.802  -1.043  0.00  0.00     0.077 C 
ATOM      3  C1  PXY d   1       0.609  -1.664  -0.347  0.00  0.00    -0.082 A 
ATOM      4  C2  PXY d   1       0.454  -0.508  -0.971  0.00  0.00     0.003 A 
ATOM      5  C3  PXY d   1      -0.168   0.541  -0.345  0.00  0.00     0.003 A 
ATOM      6  C4  PXY d   1      -0.683   0.389   0.915  0.00  0.00    -0.082 A 
ATOM      7  C5  PXY d   1      -0.538  -0.791   1.555  0.00  0.00     0.003 A 
ATOM      8  C6  PXY d   1       0.132  -1.831   0.917  0.00  0.00     0.003 A 
ENDROOT
TORSDOF 0
ENDMDL
