MODEL 1
REMARK minimizedAffinity -0.769033253
REMARK minimizedRMSD -1
REMARK  0 active torsions:
REMARK  status: ('A' for Active; 'I' for Inactive)
ROOT
ATOM      1  C4' PXY d   1      -0.003  -1.454   2.559  0.00  0.00     0.077 C 
ATOM      2  C1' PXY d   1      -0.231   2.620  -1.535  0.00  0.00     0.077 C 
ATOM      3  C1  PXY d   1      -0.166   1.544  -0.470  0.00  0.00    -0.082 A 
ATOM      4  C2  PXY d   1      -0.962   1.618   0.584  0.00  0.00     0.003 A 
ATOM      5  C3  PXY d   1      -0.894   0.670   1.573  0.00  0.00     0.003 A 
ATOM      6  C4  PXY d   1      -0.040  -0.394   1.454  0.00  0.00    -0.082 A 
ATOM      7  C5  PXY d   1       0.767  -0.483   0.376  0.00  0.00     0.003 A 
ATOM      8  C6  PXY d   1       0.712   0.512  -0.596  0.00  0.00     0.003 A 
ENDROOT
TORSDOF 0
ENDMDL
