MODEL 1
REMARK minimizedAffinity -3.7972939
REMARK minimizedRMSD -1
REMARK  0 active torsions:
REMARK  status: ('A' for Active; 'I' for Inactive)
ROOT
ATOM      1  C4' PXY d   1       0.799  -1.801  -1.614  0.00  0.00     0.077 C 
ATOM      2  C1' PXY d   1      -1.535   1.860   2.202  0.00  0.00     0.077 C 
ATOM      3  C1  PXY d   1      -0.923   0.909   1.192  0.00  0.00    -0.082 A 
ATOM      4  C2  PXY d   1      -1.102  -0.394   1.330  0.00  0.00     0.003 A 
ATOM      5  C3  PXY d   1      -0.528  -1.270   0.444  0.00  0.00     0.003 A 
ATOM      6  C4  PXY d   1       0.191  -0.804  -0.624  0.00  0.00    -0.082 A 
ATOM      7  C5  PXY d   1       0.369   0.526  -0.777  0.00  0.00     0.003 A 
ATOM      8  C6  PXY d   1      -0.187   1.396   0.157  0.00  0.00     0.003 A 
ENDROOT
TORSDOF 0
ENDMDL
