MODEL 1
REMARK minimizedAffinity -4.35471058
REMARK minimizedRMSD -1
REMARK  0 active torsions:
REMARK  status: ('A' for Active; 'I' for Inactive)
ROOT
ATOM      1  C4' PXY d   1      -2.416   2.317   1.430  0.00  0.00     0.077 C 
ATOM      2  C1' PXY d   1       1.118  -1.573  -0.977  0.00  0.00     0.077 C 
ATOM      3  C1  PXY d   1       0.196  -0.543  -0.354  0.00  0.00    -0.082 A 
ATOM      4  C2  PXY d   1      -0.248  -0.724   0.880  0.00  0.00     0.003 A 
ATOM      5  C3  PXY d   1      -1.108   0.181   1.447  0.00  0.00     0.003 A 
ATOM      6  C4  PXY d   1      -1.476   1.309   0.764  0.00  0.00    -0.082 A 
ATOM      7  C5  PXY d   1      -1.019   1.506  -0.491  0.00  0.00     0.003 A 
ATOM      8  C6  PXY d   1      -0.179   0.555  -1.064  0.00  0.00     0.003 A 
ENDROOT
TORSDOF 0
ENDMDL
