MODEL 1
REMARK minimizedAffinity -2.43537831
REMARK minimizedRMSD -1
REMARK  0 active torsions:
REMARK  status: ('A' for Active; 'I' for Inactive)
ROOT
ATOM      1  C4' PXY d   1       1.098  -2.190  -1.070  0.00  0.00     0.077 C 
ATOM      2  C1' PXY d   1      -1.338   2.297   1.642  0.00  0.00     0.077 C 
ATOM      3  C1  PXY d   1      -0.692   1.117   0.941  0.00  0.00    -0.082 A 
ATOM      4  C2  PXY d   1      -0.647   1.086  -0.381  0.00  0.00     0.003 A 
ATOM      5  C3  PXY d   1      -0.095   0.013  -1.031  0.00  0.00     0.003 A 
ATOM      6  C4  PXY d   1       0.464  -1.015  -0.320  0.00  0.00    -0.082 A 
ATOM      7  C5  PXY d   1       0.432  -0.986   1.029  0.00  0.00     0.003 A 
ATOM      8  C6  PXY d   1      -0.170   0.094   1.670  0.00  0.00     0.003 A 
ENDROOT
TORSDOF 0
ENDMDL
