MODEL 1
REMARK minimizedAffinity -2.95164752
REMARK minimizedRMSD -1
REMARK  0 active torsions:
REMARK  status: ('A' for Active; 'I' for Inactive)
ROOT
ATOM      1  C4' PXY d   1       1.441  -2.311  -1.218  0.00  0.00     0.077 C 
ATOM      2  C1' PXY d   1      -1.071   1.699   2.102  0.00  0.00     0.077 C 
ATOM      3  C1  PXY d   1      -0.414   0.655   1.221  0.00  0.00    -0.082 A 
ATOM      4  C2  PXY d   1      -0.370  -0.605   1.622  0.00  0.00     0.003 A 
ATOM      5  C3  PXY d   1       0.248  -1.556   0.852  0.00  0.00     0.003 A 
ATOM      6  C4  PXY d   1       0.780  -1.224  -0.365  0.00  0.00    -0.082 A 
ATOM      7  C5  PXY d   1       0.730   0.057  -0.786  0.00  0.00     0.003 A 
ATOM      8  C6  PXY d   1       0.134   1.016   0.029  0.00  0.00     0.003 A 
ENDROOT
TORSDOF 0
ENDMDL
