MODEL 1
REMARK minimizedAffinity -5.05682755
REMARK minimizedRMSD -1
REMARK  0 active torsions:
REMARK  status: ('A' for Active; 'I' for Inactive)
ROOT
ATOM      1  C4' PXY d   1       1.932  -1.303  -0.066  0.00  0.00     0.077 C 
ATOM      2  C1' PXY d   1      -2.196   2.406   1.554  0.00  0.00     0.077 C 
ATOM      3  C1  PXY d   1      -1.113   1.439   1.117  0.00  0.00    -0.082 A 
ATOM      4  C2  PXY d   1      -0.996   0.269   1.725  0.00  0.00     0.003 A 
ATOM      5  C3  PXY d   1      -0.003  -0.604   1.365  0.00  0.00     0.003 A 
ATOM      6  C4  PXY d   1       0.847  -0.299   0.335  0.00  0.00    -0.082 A 
ATOM      7  C5  PXY d   1       0.728   0.887  -0.297  0.00  0.00     0.003 A 
ATOM      8  C6  PXY d   1      -0.261   1.777   0.112  0.00  0.00     0.003 A 
ENDROOT
TORSDOF 0
ENDMDL
