MODEL 1
REMARK minimizedAffinity -5.37600231
REMARK minimizedRMSD -1
REMARK  0 active torsions:
REMARK  status: ('A' for Active; 'I' for Inactive)
ROOT
ATOM      1  C4' PXY d   1      -2.034   2.094   0.320  0.00  0.00     0.077 C 
ATOM      2  C1' PXY d   1       1.624  -2.128  -1.166  0.00  0.00     0.077 C 
ATOM      3  C1  PXY d   1       0.675  -1.013  -0.775  0.00  0.00    -0.082 A 
ATOM      4  C2  PXY d   1      -0.517  -1.311  -0.282  0.00  0.00     0.003 A 
ATOM      5  C3  PXY d   1      -1.400  -0.315   0.047  0.00  0.00     0.003 A 
ATOM      6  C4  PXY d   1      -1.040   1.000  -0.080  0.00  0.00    -0.082 A 
ATOM      7  C5  PXY d   1       0.178   1.312  -0.572  0.00  0.00     0.003 A 
ATOM      8  C6  PXY d   1       1.044   0.287  -0.939  0.00  0.00     0.003 A 
ENDROOT
TORSDOF 0
ENDMDL
