MODEL 1
REMARK minimizedAffinity -2.45974803
REMARK minimizedRMSD -1
REMARK  0 active torsions:
REMARK  status: ('A' for Active; 'I' for Inactive)
ROOT
ATOM      1  C4' PXY d   1       1.107  -2.461  -1.060  0.00  0.00     0.077 C 
ATOM      2  C1' PXY d   1      -1.106   1.793   2.168  0.00  0.00     0.077 C 
ATOM      3  C1  PXY d   1      -0.523   0.686   1.312  0.00  0.00    -0.082 A 
ATOM      4  C2  PXY d   1      -0.870  -0.570   1.542  0.00  0.00     0.003 A 
ATOM      5  C3  PXY d   1      -0.328  -1.586   0.798  0.00  0.00     0.003 A 
ATOM      6  C4  PXY d   1       0.537  -1.310  -0.227  0.00  0.00    -0.082 A 
ATOM      7  C5  PXY d   1       0.887  -0.030  -0.475  0.00  0.00     0.003 A 
ATOM      8  C6  PXY d   1       0.358   0.984   0.318  0.00  0.00     0.003 A 
ENDROOT
TORSDOF 0
ENDMDL
