MODEL 1
REMARK minimizedAffinity -5.15733719
REMARK minimizedRMSD -1
REMARK  0 active torsions:
REMARK  status: ('A' for Active; 'I' for Inactive)
ROOT
ATOM      1  C4' PXY d   1      -0.664   4.326  -0.007  0.00  0.00     0.077 C 
ATOM      2  C1' PXY d   1      -0.902  -1.390   0.817  0.00  0.00     0.077 C 
ATOM      3  C1  PXY d   1      -0.850   0.110   0.609  0.00  0.00    -0.082 A 
ATOM      4  C2  PXY d   1      -0.324   0.599  -0.502  0.00  0.00     0.003 A 
ATOM      5  C3  PXY d   1      -0.239   1.954  -0.693  0.00  0.00     0.003 A 
ATOM      6  C4  PXY d   1      -0.747   2.818   0.241  0.00  0.00    -0.082 A 
ATOM      7  C5  PXY d   1      -1.295   2.327   1.373  0.00  0.00     0.003 A 
ATOM      8  C6  PXY d   1      -1.333   0.949   1.565  0.00  0.00     0.003 A 
ENDROOT
TORSDOF 0
ENDMDL
