MODEL 1
REMARK minimizedAffinity -3.73508024
REMARK minimizedRMSD -1
REMARK  0 active torsions:
REMARK  status: ('A' for Active; 'I' for Inactive)
ROOT
ATOM      1  C4' PXY d   1       0.723  -2.985  -2.469  0.00  0.00     0.077 C 
ATOM      2  C1' PXY d   1      -0.449   1.045   1.507  0.00  0.00     0.077 C 
ATOM      3  C1  PXY d   1      -0.130  -0.007   0.463  0.00  0.00    -0.082 A 
ATOM      4  C2  PXY d   1      -1.109  -0.540  -0.250  0.00  0.00     0.003 A 
ATOM      5  C3  PXY d   1      -0.841  -1.516  -1.175  0.00  0.00     0.003 A 
ATOM      6  C4  PXY d   1       0.448  -1.912  -1.411  0.00  0.00    -0.082 A 
ATOM      7  C5  PXY d   1       1.454  -1.365  -0.695  0.00  0.00     0.003 A 
ATOM      8  C6  PXY d   1       1.156  -0.406   0.268  0.00  0.00     0.003 A 
ENDROOT
TORSDOF 0
ENDMDL
