MODEL 1
REMARK minimizedAffinity -5.6491065
REMARK minimizedRMSD -1
REMARK  0 active torsions:
REMARK  status: ('A' for Active; 'I' for Inactive)
ROOT
ATOM      1  C4' PXY d   1       0.831  -1.546  -0.759  0.00  0.00     0.077 C 
ATOM      2  C1' PXY d   1      -1.027   3.928  -0.743  0.00  0.00     0.077 C 
ATOM      3  C1  PXY d   1      -0.543   2.491  -0.735  0.00  0.00    -0.082 A 
ATOM      4  C2  PXY d   1       0.381   2.107  -1.600  0.00  0.00     0.003 A 
ATOM      5  C3  PXY d   1       0.807   0.804  -1.628  0.00  0.00     0.003 A 
ATOM      6  C4  PXY d   1       0.320  -0.103  -0.725  0.00  0.00    -0.082 A 
ATOM      7  C5  PXY d   1      -0.616   0.284   0.168  0.00  0.00     0.003 A 
ATOM      8  C6  PXY d   1      -1.064   1.601   0.152  0.00  0.00     0.003 A 
ENDROOT
TORSDOF 0
ENDMDL
