MODEL 1
REMARK minimizedAffinity -2.04327178
REMARK minimizedRMSD -1
REMARK  0 active torsions:
REMARK  status: ('A' for Active; 'I' for Inactive)
ROOT
ATOM      1  C4' PXY d   1       1.509  -1.843  -0.024  0.00  0.00     0.077 C 
ATOM      2  C1' PXY d   1      -2.330   2.200   1.503  0.00  0.00     0.077 C 
ATOM      3  C1  PXY d   1      -1.325   1.143   1.090  0.00  0.00    -0.082 A 
ATOM      4  C2  PXY d   1      -1.105   0.105   1.881  0.00  0.00     0.003 A 
ATOM      5  C3  PXY d   1      -0.176  -0.844   1.538  0.00  0.00     0.003 A 
ATOM      6  C4  PXY d   1       0.496  -0.757   0.348  0.00  0.00    -0.082 A 
ATOM      7  C5  PXY d   1       0.270   0.293  -0.469  0.00  0.00     0.003 A 
ATOM      8  C6  PXY d   1      -0.647   1.267  -0.084  0.00  0.00     0.003 A 
ENDROOT
TORSDOF 0
ENDMDL
