MODEL 1
REMARK minimizedAffinity -3.86677265
REMARK minimizedRMSD -1
REMARK  0 active torsions:
REMARK  status: ('A' for Active; 'I' for Inactive)
ROOT
ATOM      1  C4' PXY d   1      -0.030  -2.595  -2.072  0.00  0.00     0.077 C 
ATOM      2  C1' PXY d   1      -0.919   1.030   2.342  0.00  0.00     0.077 C 
ATOM      3  C1  PXY d   1      -0.674   0.085   1.182  0.00  0.00    -0.082 A 
ATOM      4  C2  PXY d   1      -1.703  -0.448   0.544  0.00  0.00     0.003 A 
ATOM      5  C3  PXY d   1      -1.500  -1.330  -0.486  0.00  0.00     0.003 A 
ATOM      6  C4  PXY d   1      -0.230  -1.628  -0.902  0.00  0.00    -0.082 A 
ATOM      7  C5  PXY d   1       0.825  -1.080  -0.263  0.00  0.00     0.003 A 
ATOM      8  C6  PXY d   1       0.598  -0.219   0.807  0.00  0.00     0.003 A 
ENDROOT
TORSDOF 0
ENDMDL
