MODEL 1
REMARK minimizedAffinity 13.4393587
REMARK minimizedRMSD -1
REMARK  1 active torsions:
REMARK  status: ('A' for Active; 'I' for Inactive)
REMARK    1  A    between atoms: C1_2  and  C2_3 
ROOT
ATOM      1  C2  UNL d   1       0.841  -1.577  -0.869  0.00  0.00    -0.073 A 
ATOM      2  C3  UNL d   1       0.741  -0.629   0.156  0.00  0.00    -0.002 A 
ATOM      3  C4  UNL d   1      -0.511  -0.230   0.626  0.00  0.00     0.004 A 
ATOM      4  C5  UNL d   1      -1.672  -0.778   0.083  0.00  0.00    -0.004 A 
ATOM      5  C6  UNL d   1      -1.593  -1.735  -0.934  0.00  0.00    -0.075 A 
ATOM      6  C7  UNL d   1      -2.833  -2.332  -1.530  0.00  0.00     0.076 C 
ATOM      7  C8  UNL d   1      -0.332  -2.129  -1.402  0.00  0.00     0.001 A 
ENDROOT
BRANCH   1   8
ATOM      8  C1  UNL d   1       2.191  -2.016  -1.376  0.00  0.00     0.053 C 
ATOM      9  C   UNL d   1       2.866  -0.938  -2.208  0.00  0.00     0.018 C 
ENDBRANCH   1   8
TORSDOF 1
ENDMDL
