MODEL 1
REMARK minimizedAffinity 10.5732431
REMARK minimizedRMSD -1
REMARK  1 active torsions:
REMARK  status: ('A' for Active; 'I' for Inactive)
REMARK    1  A    between atoms: C1_2  and  C2_3 
ROOT
ATOM      1  C2  UNL d   1      -5.862   1.763  -3.861  0.00  0.00    -0.073 A 
ATOM      2  C3  UNL d   1      -5.690   1.551  -5.234  0.00  0.00    -0.002 A 
ATOM      3  C4  UNL d   1      -5.611   0.254  -5.743  0.00  0.00     0.004 A 
ATOM      4  C5  UNL d   1      -5.710  -0.843  -4.887  0.00  0.00    -0.004 A 
ATOM      5  C6  UNL d   1      -5.894  -0.652  -3.514  0.00  0.00    -0.075 A 
ATOM      6  C7  UNL d   1      -6.000  -1.822  -2.580  0.00  0.00     0.076 C 
ATOM      7  C8  UNL d   1      -5.969   0.653  -3.010  0.00  0.00     0.001 A 
ENDROOT
BRANCH   1   8
ATOM      8  C1  UNL d   1      -5.954   3.161  -3.308  0.00  0.00     0.053 C 
ATOM      9  C   UNL d   1      -5.998   4.208  -4.409  0.00  0.00     0.018 C 
ENDBRANCH   1   8
TORSDOF 1
ENDMDL
