MODEL 1
REMARK minimizedAffinity 11.9151077
REMARK minimizedRMSD -1
REMARK  1 active torsions:
REMARK  status: ('A' for Active; 'I' for Inactive)
REMARK    1  A    between atoms: C1_2  and  C2_3 
ROOT
ATOM      1  C2  UNL d   1       3.092  -4.526   3.048  0.00  0.00    -0.073 A 
ATOM      2  C3  UNL d   1       3.814  -4.568   4.246  0.00  0.00    -0.002 A 
ATOM      3  C4  UNL d   1       3.836  -3.461   5.096  0.00  0.00     0.004 A 
ATOM      4  C5  UNL d   1       3.131  -2.305   4.760  0.00  0.00    -0.004 A 
ATOM      5  C6  UNL d   1       2.394  -2.248   3.573  0.00  0.00    -0.075 A 
ATOM      6  C7  UNL d   1       1.632  -1.011   3.197  0.00  0.00     0.076 C 
ATOM      7  C8  UNL d   1       2.380  -3.363   2.724  0.00  0.00     0.001 A 
ENDROOT
BRANCH   1   8
ATOM      8  C1  UNL d   1       3.061  -5.721   2.130  0.00  0.00     0.053 C 
ATOM      9  C   UNL d   1       3.791  -5.455   0.823  0.00  0.00     0.018 C 
ENDBRANCH   1   8
TORSDOF 1
ENDMDL
