MODEL 1
REMARK minimizedAffinity 4.53074312
REMARK minimizedRMSD -1
REMARK  1 active torsions:
REMARK  status: ('A' for Active; 'I' for Inactive)
REMARK    1  A    between atoms: C1_2  and  C2_3 
ROOT
ATOM      1  C2  UNL d   1       1.925  -3.031   4.119  0.00  0.00    -0.073 A 
ATOM      2  C3  UNL d   1       3.057  -3.658   3.585  0.00  0.00    -0.002 A 
ATOM      3  C4  UNL d   1       3.248  -5.030   3.752  0.00  0.00     0.004 A 
ATOM      4  C5  UNL d   1       2.307  -5.790   4.447  0.00  0.00    -0.004 A 
ATOM      5  C6  UNL d   1       1.163  -5.185   4.977  0.00  0.00    -0.075 A 
ATOM      6  C7  UNL d   1       0.143  -5.988   5.728  0.00  0.00     0.076 C 
ATOM      7  C8  UNL d   1       0.980  -3.806   4.807  0.00  0.00     0.001 A 
ENDROOT
BRANCH   1   8
ATOM      8  C1  UNL d   1       1.711  -1.551   3.935  0.00  0.00     0.053 C 
ATOM      9  C   UNL d   1       1.589  -1.170   2.468  0.00  0.00     0.018 C 
ENDBRANCH   1   8
TORSDOF 1
ENDMDL
