MODEL 1
REMARK minimizedAffinity -5.4338603
REMARK minimizedRMSD -1
REMARK  2 active torsions:
REMARK  status: ('A' for Active; 'I' for Inactive)
REMARK    1  A    between atoms: C1_2  and  C2_3 
REMARK    2  A    between atoms: C2_3  and  C3_4 
ROOT
ATOM      1  C3  UNL d   1      -0.639  -0.132   0.868  0.00  0.00    -0.075 A 
ATOM      2  C4  UNL d   1      -1.934   0.250   0.490  0.00  0.00     0.002 A 
ATOM      3  C5  UNL d   1      -2.918   0.467   1.455  0.00  0.00     0.002 A 
ATOM      4  C6  UNL d   1      -2.624   0.294   2.806  0.00  0.00    -0.004 A 
ATOM      5  C7  UNL d   1      -1.345  -0.102   3.191  0.00  0.00     0.002 A 
ATOM      6  C8  UNL d   1      -0.357  -0.315   2.228  0.00  0.00     0.002 A 
ENDROOT
BRANCH   1   7
ATOM      7  C2  UNL d   1       0.439  -0.340  -0.169  0.00  0.00     0.056 C 
BRANCH   7   8
ATOM      8  C1  UNL d   1       0.326   0.592  -1.381  0.00  0.00     0.007 C 
ATOM      9  C   UNL d   1       1.346   0.287  -2.470  0.00  0.00     0.009 C 
ENDBRANCH   7   8
ENDBRANCH   1   7
TORSDOF 2
ENDMDL
