MODEL 1
REMARK minimizedAffinity -4.75790548
REMARK minimizedRMSD -1
REMARK  2 active torsions:
REMARK  status: ('A' for Active; 'I' for Inactive)
REMARK    1  A    between atoms: C1_2  and  C2_3 
REMARK    2  A    between atoms: C2_3  and  C3_4 
ROOT
ATOM      1  C3  UNL d   1       0.241   0.087  -0.305  0.00  0.00    -0.075 A 
ATOM      2  C4  UNL d   1       1.026   0.346   0.828  0.00  0.00     0.002 A 
ATOM      3  C5  UNL d   1       0.547   0.052   2.105  0.00  0.00     0.002 A 
ATOM      4  C6  UNL d   1      -0.724  -0.495   2.266  0.00  0.00    -0.004 A 
ATOM      5  C7  UNL d   1      -1.519  -0.742   1.149  0.00  0.00     0.002 A 
ATOM      6  C8  UNL d   1      -1.040  -0.452  -0.130  0.00  0.00     0.002 A 
ENDROOT
BRANCH   1   7
ATOM      7  C2  UNL d   1       0.765   0.376  -1.691  0.00  0.00     0.056 C 
BRANCH   7   8
ATOM      8  C1  UNL d   1       0.849  -0.858  -2.596  0.00  0.00     0.007 C 
ATOM      9  C   UNL d   1       2.278  -1.261  -2.931  0.00  0.00     0.009 C 
ENDBRANCH   7   8
ENDBRANCH   1   7
TORSDOF 2
ENDMDL
