MODEL 1
REMARK minimizedAffinity -6.59220791
REMARK minimizedRMSD -1
REMARK  2 active torsions:
REMARK  status: ('A' for Active; 'I' for Inactive)
REMARK    1  A    between atoms: C1_2  and  C2_3 
REMARK    2  A    between atoms: C2_3  and  C3_4 
ROOT
ATOM      1  C3  UNL d   1      -0.238  -0.055   1.050  0.00  0.00    -0.075 A 
ATOM      2  C4  UNL d   1      -1.585  -0.004   0.665  0.00  0.00     0.002 A 
ATOM      3  C5  UNL d   1      -2.582   0.245   1.608  0.00  0.00     0.002 A 
ATOM      4  C6  UNL d   1      -2.247   0.434   2.947  0.00  0.00    -0.004 A 
ATOM      5  C7  UNL d   1      -0.913   0.369   3.344  0.00  0.00     0.002 A 
ATOM      6  C8  UNL d   1       0.087   0.124   2.401  0.00  0.00     0.002 A 
ENDROOT
BRANCH   1   7
ATOM      7  C2  UNL d   1       0.849  -0.295   0.029  0.00  0.00     0.056 C 
BRANCH   7   8
ATOM      8  C1  UNL d   1       0.579   0.354  -1.333  0.00  0.00     0.007 C 
ATOM      9  C   UNL d   1       1.756   0.247  -2.293  0.00  0.00     0.009 C 
ENDBRANCH   7   8
ENDBRANCH   1   7
TORSDOF 2
ENDMDL
