MODEL 1
REMARK minimizedAffinity -4.93691206
REMARK minimizedRMSD -1
REMARK  2 active torsions:
REMARK  status: ('A' for Active; 'I' for Inactive)
REMARK    1  A    between atoms: C1_2  and  C2_3 
REMARK    2  A    between atoms: C2_3  and  C3_4 
ROOT
ATOM      1  C3  UNL d   1      -0.025  -0.059  -0.106  0.00  0.00    -0.075 A 
ATOM      2  C4  UNL d   1      -0.815  -0.778   0.803  0.00  0.00     0.002 A 
ATOM      3  C5  UNL d   1      -0.707  -0.543   2.174  0.00  0.00     0.002 A 
ATOM      4  C6  UNL d   1       0.196   0.403   2.654  0.00  0.00    -0.004 A 
ATOM      5  C7  UNL d   1       0.998   1.110   1.761  0.00  0.00     0.002 A 
ATOM      6  C8  UNL d   1       0.889   0.881   0.388  0.00  0.00     0.002 A 
ENDROOT
BRANCH   1   7
ATOM      7  C2  UNL d   1      -0.158  -0.287  -1.593  0.00  0.00     0.056 C 
BRANCH   7   8
ATOM      8  C1  UNL d   1       1.170  -0.222  -2.355  0.00  0.00     0.007 C 
ATOM      9  C   UNL d   1       1.249  -1.212  -3.510  0.00  0.00     0.009 C 
ENDBRANCH   7   8
ENDBRANCH   1   7
TORSDOF 2
ENDMDL
