MODEL 1
REMARK minimizedAffinity -5.50154591
REMARK minimizedRMSD -1
REMARK  2 active torsions:
REMARK  status: ('A' for Active; 'I' for Inactive)
REMARK    1  A    between atoms: C1_2  and  C2_3 
REMARK    2  A    between atoms: C2_3  and  C3_4 
ROOT
ATOM      1  C3  UNL d   1      -0.183   0.201  -0.376  0.00  0.00    -0.075 A 
ATOM      2  C4  UNL d   1       0.894   0.648   0.403  0.00  0.00     0.002 A 
ATOM      3  C5  UNL d   1       0.905   0.439   1.783  0.00  0.00     0.002 A 
ATOM      4  C6  UNL d   1      -0.163  -0.209   2.400  0.00  0.00    -0.004 A 
ATOM      5  C7  UNL d   1      -1.246  -0.642   1.638  0.00  0.00     0.002 A 
ATOM      6  C8  UNL d   1      -1.257  -0.438   0.257  0.00  0.00     0.002 A 
ENDROOT
BRANCH   1   7
ATOM      7  C2  UNL d   1      -0.187   0.399  -1.873  0.00  0.00     0.056 C 
BRANCH   7   8
ATOM      8  C1  UNL d   1       1.158   0.106  -2.545  0.00  0.00     0.007 C 
ATOM      9  C   UNL d   1       1.091  -1.033  -3.554  0.00  0.00     0.009 C 
ENDBRANCH   7   8
ENDBRANCH   1   7
TORSDOF 2
ENDMDL
