MODEL 1
REMARK minimizedAffinity -5.23995209
REMARK minimizedRMSD -1
REMARK  2 active torsions:
REMARK  status: ('A' for Active; 'I' for Inactive)
REMARK    1  A    between atoms: C1_2  and  C2_3 
REMARK    2  A    between atoms: C2_3  and  C3_4 
ROOT
ATOM      1  C3  UNL d   1      -0.470   0.012   0.877  0.00  0.00    -0.075 A 
ATOM      2  C4  UNL d   1      -0.048  -0.341   2.167  0.00  0.00     0.002 A 
ATOM      3  C5  UNL d   1      -0.975  -0.733   3.133  0.00  0.00     0.002 A 
ATOM      4  C6  UNL d   1      -2.333  -0.767   2.826  0.00  0.00    -0.004 A 
ATOM      5  C7  UNL d   1      -2.765  -0.402   1.553  0.00  0.00     0.002 A 
ATOM      6  C8  UNL d   1      -1.840  -0.014   0.583  0.00  0.00     0.002 A 
ENDROOT
BRANCH   1   7
ATOM      7  C2  UNL d   1       0.531   0.409  -0.182  0.00  0.00     0.056 C 
BRANCH   7   8
ATOM      8  C1  UNL d   1      -0.030   0.392  -1.608  0.00  0.00     0.007 C 
ATOM      9  C   UNL d   1       0.994  -0.036  -2.651  0.00  0.00     0.009 C 
ENDBRANCH   7   8
ENDBRANCH   1   7
TORSDOF 2
ENDMDL
