MODEL 1
REMARK minimizedAffinity -5.04234982
REMARK minimizedRMSD -1
REMARK  2 active torsions:
REMARK  status: ('A' for Active; 'I' for Inactive)
REMARK    1  A    between atoms: C1_2  and  C2_3 
REMARK    2  A    between atoms: C2_3  and  C3_4 
ROOT
ATOM      1  C3  UNL d   1       0.413  -0.138  -0.520  0.00  0.00    -0.075 A 
ATOM      2  C4  UNL d   1       1.343  -0.036   0.524  0.00  0.00     0.002 A 
ATOM      3  C5  UNL d   1       0.958  -0.281   1.843  0.00  0.00     0.002 A 
ATOM      4  C6  UNL d   1      -0.362  -0.620   2.134  0.00  0.00    -0.004 A 
ATOM      5  C7  UNL d   1      -1.298  -0.707   1.106  0.00  0.00     0.002 A 
ATOM      6  C8  UNL d   1      -0.914  -0.467  -0.214  0.00  0.00     0.002 A 
ENDROOT
BRANCH   1   7
ATOM      7  C2  UNL d   1       0.831   0.097  -1.952  0.00  0.00     0.056 C 
BRANCH   7   8
ATOM      8  C1  UNL d   1       1.351  -1.156  -2.664  0.00  0.00     0.007 C 
ATOM      9  C   UNL d   1       0.261  -1.925  -3.399  0.00  0.00     0.009 C 
ENDBRANCH   7   8
ENDBRANCH   1   7
TORSDOF 2
ENDMDL
