MODEL 1
REMARK minimizedAffinity -1.56301296
REMARK minimizedRMSD -1
REMARK  2 active torsions:
REMARK  status: ('A' for Active; 'I' for Inactive)
REMARK    1  A    between atoms: C1_2  and  C2_3 
REMARK    2  A    between atoms: C2_3  and  C3_4 
ROOT
ATOM      1  C3  UNL d   1       0.127  -0.686   0.115  0.00  0.00    -0.075 A 
ATOM      2  C4  UNL d   1       0.634   0.427   0.800  0.00  0.00     0.002 A 
ATOM      3  C5  UNL d   1       0.385   0.594   2.163  0.00  0.00     0.002 A 
ATOM      4  C6  UNL d   1      -0.381  -0.342   2.854  0.00  0.00    -0.004 A 
ATOM      5  C7  UNL d   1      -0.904  -1.443   2.179  0.00  0.00     0.002 A 
ATOM      6  C8  UNL d   1      -0.653  -1.615   0.817  0.00  0.00     0.002 A 
ENDROOT
BRANCH   1   7
ATOM      7  C2  UNL d   1       0.418  -0.888  -1.353  0.00  0.00     0.056 C 
BRANCH   7   8
ATOM      8  C1  UNL d   1       1.825  -1.419  -1.643  0.00  0.00     0.007 C 
ATOM      9  C   UNL d   1       2.142  -1.501  -3.130  0.00  0.00     0.009 C 
ENDBRANCH   7   8
ENDBRANCH   1   7
TORSDOF 2
ENDMDL
