MODEL 1
REMARK minimizedAffinity -4.89984465
REMARK minimizedRMSD -1
REMARK  2 active torsions:
REMARK  status: ('A' for Active; 'I' for Inactive)
REMARK    1  A    between atoms: C1_2  and  C2_3 
REMARK    2  A    between atoms: C2_3  and  C3_4 
ROOT
ATOM      1  C3  UNL d   1       3.139  -0.501  -3.433  0.00  0.00    -0.075 A 
ATOM      2  C4  UNL d   1       2.225   0.449  -2.957  0.00  0.00     0.002 A 
ATOM      3  C5  UNL d   1       0.879   0.119  -2.798  0.00  0.00     0.002 A 
ATOM      4  C6  UNL d   1       0.429  -1.160  -3.120  0.00  0.00    -0.004 A 
ATOM      5  C7  UNL d   1       1.326  -2.107  -3.610  0.00  0.00     0.002 A 
ATOM      6  C8  UNL d   1       2.674  -1.780  -3.766  0.00  0.00     0.002 A 
ENDROOT
BRANCH   1   7
ATOM      7  C2  UNL d   1       4.603  -0.159  -3.581  0.00  0.00     0.056 C 
BRANCH   7   8
ATOM      8  C1  UNL d   1       4.896   1.345  -3.567  0.00  0.00     0.007 C 
ATOM      9  C   UNL d   1       5.737   1.803  -4.750  0.00  0.00     0.009 C 
ENDBRANCH   7   8
ENDBRANCH   1   7
TORSDOF 2
ENDMDL
