MODEL 1
REMARK minimizedAffinity -4.65208578
REMARK minimizedRMSD -1
REMARK  2 active torsions:
REMARK  status: ('A' for Active; 'I' for Inactive)
REMARK    1  A    between atoms: C1_2  and  C2_3 
REMARK    2  A    between atoms: C2_3  and  C3_4 
ROOT
ATOM      1  C3  UNL d   1       0.915  -0.145  -1.822  0.00  0.00    -0.075 A 
ATOM      2  C4  UNL d   1       0.331  -1.359  -2.214  0.00  0.00     0.002 A 
ATOM      3  C5  UNL d   1       0.848  -2.078  -3.292  0.00  0.00     0.002 A 
ATOM      4  C6  UNL d   1       1.946  -1.589  -3.997  0.00  0.00    -0.004 A 
ATOM      5  C7  UNL d   1       2.523  -0.376  -3.627  0.00  0.00     0.002 A 
ATOM      6  C8  UNL d   1       2.010   0.343  -2.546  0.00  0.00     0.002 A 
ENDROOT
BRANCH   1   7
ATOM      7  C2  UNL d   1       0.378   0.623  -0.637  0.00  0.00     0.056 C 
BRANCH   7   8
ATOM      8  C1  UNL d   1      -0.233  -0.262   0.454  0.00  0.00     0.007 C 
ATOM      9  C   UNL d   1       0.540  -0.218   1.766  0.00  0.00     0.009 C 
ENDBRANCH   7   8
ENDBRANCH   1   7
TORSDOF 2
ENDMDL
