MODEL 1
REMARK minimizedAffinity -2.33760357
REMARK minimizedRMSD -1
REMARK  2 active torsions:
REMARK  status: ('A' for Active; 'I' for Inactive)
REMARK    1  A    between atoms: C1_2  and  C2_3 
REMARK    2  A    between atoms: C2_3  and  C3_4 
ROOT
ATOM      1  C3  UNL d   1       0.544  -0.761  -2.068  0.00  0.00    -0.075 A 
ATOM      2  C4  UNL d   1       1.926  -0.786  -2.306  0.00  0.00     0.002 A 
ATOM      3  C5  UNL d   1       2.460  -1.619  -3.290  0.00  0.00     0.002 A 
ATOM      4  C6  UNL d   1       1.623  -2.442  -4.040  0.00  0.00    -0.004 A 
ATOM      5  C7  UNL d   1       0.250  -2.437  -3.801  0.00  0.00     0.002 A 
ATOM      6  C8  UNL d   1      -0.287  -1.602  -2.819  0.00  0.00     0.002 A 
ENDROOT
BRANCH   1   7
ATOM      7  C2  UNL d   1      -0.043   0.159  -1.024  0.00  0.00     0.056 C 
BRANCH   7   8
ATOM      8  C1  UNL d   1       0.463  -0.107   0.397  0.00  0.00     0.007 C 
ATOM      9  C   UNL d   1      -0.630  -0.579   1.346  0.00  0.00     0.009 C 
ENDBRANCH   7   8
ENDBRANCH   1   7
TORSDOF 2
ENDMDL
