MODEL 1
REMARK minimizedAffinity -0.503004372
REMARK minimizedRMSD -1
REMARK  0 active torsions:
REMARK  status: ('A' for Active; 'I' for Inactive)
ROOT
ATOM      1  C   UNL d   1       0.397  -1.250   2.783  0.00  0.00    -0.002 A 
ATOM      2  C1  UNL d   1      -0.666  -0.420   2.454  0.00  0.00     0.010 A 
ATOM      3  C2  UNL d   1      -0.870  -0.016   1.133  0.00  0.00     0.041 A 
ATOM      4  C3  UNL d   1       0.021  -0.466   0.138  0.00  0.00    -0.075 A 
ATOM      5  S   UNL d   1      -0.033  -0.102  -1.546  0.00  0.00     0.015 SA
ATOM      6  C4  UNL d   1       1.354  -1.039  -1.869  0.00  0.00     0.022 A 
ATOM      7  C5  UNL d   1       1.858  -1.623  -0.731  0.00  0.00     0.026 A 
ATOM      8  C6  UNL d   1       1.098  -1.303   0.445  0.00  0.00    -0.082 A 
ATOM      9  C7  UNL d   1       1.278  -1.694   1.793  0.00  0.00     0.045 A 
ENDROOT
TORSDOF 0
ENDMDL
