MODEL 1
REMARK minimizedAffinity -0.883292735
REMARK minimizedRMSD -1
REMARK  0 active torsions:
REMARK  status: ('A' for Active; 'I' for Inactive)
ROOT
ATOM      1  C   UNL d   1       3.082   1.393  -5.996  0.00  0.00    -0.002 A 
ATOM      2  C1  UNL d   1       4.364   1.923  -5.996  0.00  0.00     0.010 A 
ATOM      3  C2  UNL d   1       4.561   3.306  -5.997  0.00  0.00     0.041 A 
ATOM      4  C3  UNL d   1       3.436   4.154  -5.998  0.00  0.00    -0.075 A 
ATOM      5  S   UNL d   1       3.435   5.878  -5.999  0.00  0.00     0.015 SA
ATOM      6  C4  UNL d   1       1.732   5.951  -6.000  0.00  0.00     0.022 A 
ATOM      7  C5  UNL d   1       1.163   4.700  -6.000  0.00  0.00     0.026 A 
ATOM      8  C6  UNL d   1       2.135   3.643  -5.998  0.00  0.00    -0.082 A 
ATOM      9  C7  UNL d   1       1.969   2.238  -5.997  0.00  0.00     0.045 A 
ENDROOT
TORSDOF 0
ENDMDL
