MODEL 1
REMARK minimizedAffinity 11.7942343
REMARK minimizedRMSD -1
REMARK  0 active torsions:
REMARK  status: ('A' for Active; 'I' for Inactive)
ROOT
ATOM      1  C   UNL d   1      -1.690  -0.309   2.172  0.00  0.00    -0.002 A 
ATOM      2  C1  UNL d   1      -2.202  -0.163   0.891  0.00  0.00     0.010 A 
ATOM      3  C2  UNL d   1      -1.364  -0.255  -0.223  0.00  0.00     0.041 A 
ATOM      4  C3  UNL d   1       0.009  -0.500  -0.025  0.00  0.00    -0.075 A 
ATOM      5  S   UNL d   1       1.223  -0.653  -1.239  0.00  0.00     0.015 SA
ATOM      6  C4  UNL d   1       2.449  -0.916  -0.085  0.00  0.00     0.022 A 
ATOM      7  C5  UNL d   1       1.962  -0.891   1.200  0.00  0.00     0.026 A 
ATOM      8  C6  UNL d   1       0.547  -0.652   1.256  0.00  0.00    -0.082 A 
ATOM      9  C7  UNL d   1      -0.328  -0.552   2.365  0.00  0.00     0.045 A 
ENDROOT
TORSDOF 0
ENDMDL
