MODEL 1
REMARK minimizedAffinity 3.73728561
REMARK minimizedRMSD -1
REMARK  0 active torsions:
REMARK  status: ('A' for Active; 'I' for Inactive)
ROOT
ATOM      1  C   UNL d   1      -2.024  -0.481   2.491  0.00  0.00    -0.002 A 
ATOM      2  C1  UNL d   1      -2.411  -0.189   1.190  0.00  0.00     0.010 A 
ATOM      3  C2  UNL d   1      -1.510  -0.329   0.133  0.00  0.00     0.041 A 
ATOM      4  C3  UNL d   1      -0.202  -0.774   0.406  0.00  0.00    -0.075 A 
ATOM      5  S   UNL d   1       1.071  -1.022  -0.731  0.00  0.00     0.015 SA
ATOM      6  C4  UNL d   1       2.158  -1.522   0.483  0.00  0.00     0.022 A 
ATOM      7  C5  UNL d   1       1.581  -1.507   1.730  0.00  0.00     0.026 A 
ATOM      8  C6  UNL d   1       0.211  -1.076   1.707  0.00  0.00    -0.082 A 
ATOM      9  C7  UNL d   1      -0.725  -0.923   2.758  0.00  0.00     0.045 A 
ENDROOT
TORSDOF 0
ENDMDL
