MODEL 1
REMARK minimizedAffinity 1.95985913
REMARK minimizedRMSD -1
REMARK  0 active torsions:
REMARK  status: ('A' for Active; 'I' for Inactive)
ROOT
ATOM      1  C   UNL d   1      -2.103  -0.669   2.620  0.00  0.00    -0.002 A 
ATOM      2  C1  UNL d   1      -2.538  -0.186   1.394  0.00  0.00     0.010 A 
ATOM      3  C2  UNL d   1      -1.683  -0.175   0.291  0.00  0.00     0.041 A 
ATOM      4  C3  UNL d   1      -0.370  -0.666   0.440  0.00  0.00    -0.075 A 
ATOM      5  S   UNL d   1       0.852  -0.752  -0.772  0.00  0.00     0.015 SA
ATOM      6  C4  UNL d   1       1.980  -1.434   0.308  0.00  0.00     0.022 A 
ATOM      7  C5  UNL d   1       1.454  -1.599   1.567  0.00  0.00     0.026 A 
ATOM      8  C6  UNL d   1       0.090  -1.159   1.664  0.00  0.00    -0.082 A 
ATOM      9  C7  UNL d   1      -0.800  -1.155   2.765  0.00  0.00     0.045 A 
ENDROOT
TORSDOF 0
ENDMDL
