MODEL 1
REMARK minimizedAffinity 11.2478848
REMARK minimizedRMSD -1
REMARK  0 active torsions:
REMARK  status: ('A' for Active; 'I' for Inactive)
ROOT
ATOM      1  C   UNL d   1      -1.476  -1.429   3.012  0.00  0.00    -0.002 A 
ATOM      2  C1  UNL d   1      -0.375  -2.230   2.744  0.00  0.00     0.010 A 
ATOM      3  C2  UNL d   1       0.528  -1.883   1.737  0.00  0.00     0.041 A 
ATOM      4  C3  UNL d   1       0.305  -0.705   0.998  0.00  0.00    -0.075 A 
ATOM      5  S   UNL d   1       1.277  -0.080  -0.281  0.00  0.00     0.015 SA
ATOM      6  C4  UNL d   1       0.255   1.266  -0.501  0.00  0.00     0.022 A 
ATOM      7  C5  UNL d   1      -0.807   1.254   0.371  0.00  0.00     0.026 A 
ATOM      8  C6  UNL d   1      -0.796   0.119   1.250  0.00  0.00    -0.082 A 
ATOM      9  C7  UNL d   1      -1.694  -0.261   2.277  0.00  0.00     0.045 A 
ENDROOT
TORSDOF 0
ENDMDL
