MODEL 1
REMARK minimizedAffinity -5.13169479
REMARK minimizedRMSD -1
REMARK  0 active torsions:
REMARK  status: ('A' for Active; 'I' for Inactive)
ROOT
ATOM      1  C1  BNZ d   1      -2.235  -0.244  -1.036  0.00  0.00     0.000 A 
ATOM      2  C2  BNZ d   1      -3.253  -0.381  -0.131  0.00  0.00     0.000 A 
ATOM      3  C3  BNZ d   1      -2.998  -0.757   1.158  0.00  0.00     0.000 A 
ATOM      4  C4  BNZ d   1      -1.732  -1.035   1.530  0.00  0.00     0.000 A 
ATOM      5  C5  BNZ d   1      -0.695  -0.911   0.626  0.00  0.00     0.000 A 
ATOM      6  C6  BNZ d   1      -0.951  -0.494  -0.660  0.00  0.00     0.000 A 
ENDROOT
TORSDOF 0
ENDMDL
