MODEL 1
REMARK minimizedAffinity -4.33181047
REMARK minimizedRMSD -1
REMARK  0 active torsions:
REMARK  status: ('A' for Active; 'I' for Inactive)
ROOT
ATOM      1  C1  BNZ d   1       0.523  -0.058  -0.008  0.00  0.00     0.000 A 
ATOM      2  C2  BNZ d   1      -0.152   0.159  -1.180  0.00  0.00     0.000 A 
ATOM      3  C3  BNZ d   1      -1.518   0.148  -1.212  0.00  0.00     0.000 A 
ATOM      4  C4  BNZ d   1      -2.206  -0.120  -0.084  0.00  0.00     0.000 A 
ATOM      5  C5  BNZ d   1      -1.540  -0.351   1.103  0.00  0.00     0.000 A 
ATOM      6  C6  BNZ d   1      -0.165  -0.300   1.140  0.00  0.00     0.000 A 
ENDROOT
TORSDOF 0
ENDMDL
