MODEL 1
REMARK minimizedAffinity -0.545912743
REMARK minimizedRMSD -1
REMARK  0 active torsions:
REMARK  status: ('A' for Active; 'I' for Inactive)
ROOT
ATOM      1  C1  BNZ d   1      -4.938   5.169   2.552  0.00  0.00     0.000 A 
ATOM      2  C2  BNZ d   1      -4.187   4.325   3.326  0.00  0.00     0.000 A 
ATOM      3  C3  BNZ d   1      -4.344   4.295   4.684  0.00  0.00     0.000 A 
ATOM      4  C4  BNZ d   1      -5.222   5.136   5.268  0.00  0.00     0.000 A 
ATOM      5  C5  BNZ d   1      -5.980   5.999   4.502  0.00  0.00     0.000 A 
ATOM      6  C6  BNZ d   1      -5.847   5.999   3.133  0.00  0.00     0.000 A 
ENDROOT
TORSDOF 0
ENDMDL
