MODEL 1
REMARK minimizedAffinity 0.189981282
REMARK minimizedRMSD -1
REMARK  0 active torsions:
REMARK  status: ('A' for Active; 'I' for Inactive)
ROOT
ATOM      1  C1  BNZ d   1       1.381   1.685   2.647  0.00  0.00     0.000 A 
ATOM      2  C2  BNZ d   1       0.616   0.575   2.408  0.00  0.00     0.000 A 
ATOM      3  C3  BNZ d   1       0.612  -0.021   1.178  0.00  0.00     0.000 A 
ATOM      4  C4  BNZ d   1       1.341   0.517   0.179  0.00  0.00     0.000 A 
ATOM      5  C5  BNZ d   1       2.110   1.641   0.402  0.00  0.00     0.000 A 
ATOM      6  C6  BNZ d   1       2.142   2.216   1.652  0.00  0.00     0.000 A 
ENDROOT
TORSDOF 0
ENDMDL
