MODEL 1
REMARK minimizedAffinity 0.249884039
REMARK minimizedRMSD -1
REMARK  0 active torsions:
REMARK  status: ('A' for Active; 'I' for Inactive)
ROOT
ATOM      1  C1  BNZ d   1      -0.340  -1.234   0.192  0.00  0.00     0.000 A 
ATOM      2  C2  BNZ d   1      -1.107  -0.895  -0.890  0.00  0.00     0.000 A 
ATOM      3  C3  BNZ d   1      -0.825   0.222  -1.626  0.00  0.00     0.000 A 
ATOM      4  C4  BNZ d   1       0.198   1.019  -1.256  0.00  0.00     0.000 A 
ATOM      5  C5  BNZ d   1       0.975   0.696  -0.161  0.00  0.00     0.000 A 
ATOM      6  C6  BNZ d   1       0.712  -0.449   0.554  0.00  0.00     0.000 A 
ENDROOT
TORSDOF 0
ENDMDL
