MODEL 1
REMARK minimizedAffinity -2.26426244
REMARK minimizedRMSD -1
REMARK  0 active torsions:
REMARK  status: ('A' for Active; 'I' for Inactive)
ROOT
ATOM      1  C1  BNZ d   1       0.260   1.055  -0.429  0.00  0.00     0.000 A 
ATOM      2  C2  BNZ d   1       0.876   0.749   0.755  0.00  0.00     0.000 A 
ATOM      3  C3  BNZ d   1       0.803  -0.513   1.276  0.00  0.00     0.000 A 
ATOM      4  C4  BNZ d   1       0.083  -1.455   0.634  0.00  0.00     0.000 A 
ATOM      5  C5  BNZ d   1      -0.552  -1.159  -0.556  0.00  0.00     0.000 A 
ATOM      6  C6  BNZ d   1      -0.444   0.101  -1.097  0.00  0.00     0.000 A 
ENDROOT
TORSDOF 0
ENDMDL
