MODEL 1
REMARK minimizedAffinity -1.52621675
REMARK minimizedRMSD -1
REMARK  0 active torsions:
REMARK  status: ('A' for Active; 'I' for Inactive)
ROOT
ATOM      1  C1  BNZ d   1       0.779   0.510  -0.461  0.00  0.00     0.000 A 
ATOM      2  C2  BNZ d   1      -0.128   0.783  -1.450  0.00  0.00     0.000 A 
ATOM      3  C3  BNZ d   1      -1.285   0.065  -1.556  0.00  0.00     0.000 A 
ATOM      4  C4  BNZ d   1      -1.516  -0.951  -0.700  0.00  0.00     0.000 A 
ATOM      5  C5  BNZ d   1      -0.607  -1.245   0.297  0.00  0.00     0.000 A 
ATOM      6  C6  BNZ d   1       0.539  -0.495   0.425  0.00  0.00     0.000 A 
ENDROOT
TORSDOF 0
ENDMDL
