MODEL 1
REMARK minimizedAffinity -3.24263382
REMARK minimizedRMSD -1
REMARK  0 active torsions:
REMARK  status: ('A' for Active; 'I' for Inactive)
ROOT
ATOM      1  C1  BNZ d   1      -0.895  -0.282   1.725  0.00  0.00     0.000 A 
ATOM      2  C2  BNZ d   1      -1.903  -0.674   2.565  0.00  0.00     0.000 A 
ATOM      3  C3  BNZ d   1      -1.797  -1.825   3.295  0.00  0.00     0.000 A 
ATOM      4  C4  BNZ d   1      -0.703  -2.601   3.155  0.00  0.00     0.000 A 
ATOM      5  C5  BNZ d   1       0.317  -2.224   2.305  0.00  0.00     0.000 A 
ATOM      6  C6  BNZ d   1       0.225  -1.045   1.601  0.00  0.00     0.000 A 
ENDROOT
TORSDOF 0
ENDMDL
