MODEL 1
REMARK minimizedAffinity 0.112522878
REMARK minimizedRMSD -1
REMARK  0 active torsions:
REMARK  status: ('A' for Active; 'I' for Inactive)
ROOT
ATOM      1  C1  BNZ d   1       1.136  -0.723   0.867  0.00  0.00     0.000 A 
ATOM      2  C2  BNZ d   1       1.520   0.575   1.073  0.00  0.00     0.000 A 
ATOM      3  C3  BNZ d   1       0.854   1.369   1.965  0.00  0.00     0.000 A 
ATOM      4  C4  BNZ d   1      -0.219   0.877   2.618  0.00  0.00     0.000 A 
ATOM      5  C5  BNZ d   1      -0.624  -0.427   2.413  0.00  0.00     0.000 A 
ATOM      6  C6  BNZ d   1       0.072  -1.235   1.545  0.00  0.00     0.000 A 
ENDROOT
TORSDOF 0
ENDMDL
