MODEL 1
REMARK minimizedAffinity 0.234408334
REMARK minimizedRMSD -1
REMARK  0 active torsions:
REMARK  status: ('A' for Active; 'I' for Inactive)
ROOT
ATOM      1  C1  BNZ d   1      -0.301  -0.624   2.200  0.00  0.00     0.000 A 
ATOM      2  C2  BNZ d   1      -0.696   0.628   2.589  0.00  0.00     0.000 A 
ATOM      3  C3  BNZ d   1       0.224   1.611   2.825  0.00  0.00     0.000 A 
ATOM      4  C4  BNZ d   1       1.538   1.329   2.712  0.00  0.00     0.000 A 
ATOM      5  C5  BNZ d   1       1.953   0.069   2.329  0.00  0.00     0.000 A 
ATOM      6  C6  BNZ d   1       1.022  -0.906   2.054  0.00  0.00     0.000 A 
ENDROOT
TORSDOF 0
ENDMDL
