MODEL 1
REMARK minimizedAffinity -1.32595313
REMARK minimizedRMSD -1
REMARK  0 active torsions:
REMARK  status: ('A' for Active; 'I' for Inactive)
ROOT
ATOM      1  C1  BNZ d   1      -2.619  -1.877  -0.094  0.00  0.00     0.000 A 
ATOM      2  C2  BNZ d   1      -1.686  -1.370  -0.959  0.00  0.00     0.000 A 
ATOM      3  C3  BNZ d   1      -1.865  -0.149  -1.546  0.00  0.00     0.000 A 
ATOM      4  C4  BNZ d   1      -2.995   0.545  -1.299  0.00  0.00     0.000 A 
ATOM      5  C5  BNZ d   1      -3.949   0.044  -0.437  0.00  0.00     0.000 A 
ATOM      6  C6  BNZ d   1      -3.747  -1.168   0.182  0.00  0.00     0.000 A 
ENDROOT
TORSDOF 0
ENDMDL
