MODEL 1
REMARK minimizedAffinity 1.93307018
REMARK minimizedRMSD -1
REMARK  0 active torsions:
REMARK  status: ('A' for Active; 'I' for Inactive)
ROOT
ATOM      1  C1  BNZ d   1      -2.237  -0.697  -1.293  0.00  0.00     0.000 A 
ATOM      2  C2  BNZ d   1      -2.247  -1.132   0.006  0.00  0.00     0.000 A 
ATOM      3  C3  BNZ d   1      -1.085  -1.243   0.715  0.00  0.00     0.000 A 
ATOM      4  C4  BNZ d   1       0.089  -0.959   0.115  0.00  0.00     0.000 A 
ATOM      5  C5  BNZ d   1       0.116  -0.528  -1.197  0.00  0.00     0.000 A 
ATOM      6  C6  BNZ d   1      -1.060  -0.380  -1.896  0.00  0.00     0.000 A 
ENDROOT
TORSDOF 0
ENDMDL
