MODEL 1
REMARK minimizedAffinity 0.528072596
REMARK minimizedRMSD -1
REMARK  0 active torsions:
REMARK  status: ('A' for Active; 'I' for Inactive)
ROOT
ATOM      1  C1  BNZ d   1      -2.717   0.991  -1.972  0.00  0.00     0.000 A 
ATOM      2  C2  BNZ d   1      -3.314   0.057  -1.168  0.00  0.00     0.000 A 
ATOM      3  C3  BNZ d   1      -2.647  -1.077  -0.799  0.00  0.00     0.000 A 
ATOM      4  C4  BNZ d   1      -1.400  -1.295  -1.266  0.00  0.00     0.000 A 
ATOM      5  C5  BNZ d   1      -0.789  -0.368  -2.085  0.00  0.00     0.000 A 
ATOM      6  C6  BNZ d   1      -1.449   0.791  -2.423  0.00  0.00     0.000 A 
ENDROOT
TORSDOF 0
ENDMDL
