MODEL 1
REMARK minimizedAffinity 4.70271301
REMARK minimizedRMSD -1
REMARK  0 active torsions:
REMARK  status: ('A' for Active; 'I' for Inactive)
ROOT
ATOM      1  C1  BNZ d   1       2.521   2.904   1.193  0.00  0.00     0.000 A 
ATOM      2  C2  BNZ d   1       2.926   3.876   0.318  0.00  0.00     0.000 A 
ATOM      3  C3  BNZ d   1       3.273   3.561  -0.966  0.00  0.00     0.000 A 
ATOM      4  C4  BNZ d   1       3.253   2.272  -1.361  0.00  0.00     0.000 A 
ATOM      5  C5  BNZ d   1       2.855   1.279  -0.488  0.00  0.00     0.000 A 
ATOM      6  C6  BNZ d   1       2.469   1.604   0.792  0.00  0.00     0.000 A 
ENDROOT
TORSDOF 0
ENDMDL
