MODEL 1
REMARK minimizedAffinity -2.23878717
REMARK minimizedRMSD -1
REMARK  0 active torsions:
REMARK  status: ('A' for Active; 'I' for Inactive)
ROOT
ATOM      1  C1  BNZ d   1       6.000   2.498  -1.972  0.00  0.00     0.000 A 
ATOM      2  C2  BNZ d   1       4.935   2.397  -1.117  0.00  0.00     0.000 A 
ATOM      3  C3  BNZ d   1       3.834   3.192  -1.273  0.00  0.00     0.000 A 
ATOM      4  C4  BNZ d   1       3.816   4.113  -2.258  0.00  0.00     0.000 A 
ATOM      5  C5  BNZ d   1       4.885   4.233  -3.123  0.00  0.00     0.000 A 
ATOM      6  C6  BNZ d   1       5.976   3.405  -2.986  0.00  0.00     0.000 A 
ENDROOT
TORSDOF 0
ENDMDL
