MODEL 1
REMARK minimizedAffinity 2.03198075
REMARK minimizedRMSD -1
REMARK  0 active torsions:
REMARK  status: ('A' for Active; 'I' for Inactive)
ROOT
ATOM      1  C1  BNZ d   1      -2.172  -0.092  -1.904  0.00  0.00     0.000 A 
ATOM      2  C2  BNZ d   1      -0.887  -0.074  -2.377  0.00  0.00     0.000 A 
ATOM      3  C3  BNZ d   1      -0.435   0.972  -3.133  0.00  0.00     0.000 A 
ATOM      4  C4  BNZ d   1      -1.277   1.976  -3.447  0.00  0.00     0.000 A 
ATOM      5  C5  BNZ d   1      -2.578   1.968  -2.985  0.00  0.00     0.000 A 
ATOM      6  C6  BNZ d   1      -3.019   0.933  -2.193  0.00  0.00     0.000 A 
ENDROOT
TORSDOF 0
ENDMDL
