MODEL 1
REMARK minimizedAffinity 1.49888229
REMARK minimizedRMSD -1
REMARK  0 active torsions:
REMARK  status: ('A' for Active; 'I' for Inactive)
ROOT
ATOM      1  C1  BNZ d   1      -3.062   0.182  -1.095  0.00  0.00     0.000 A 
ATOM      2  C2  BNZ d   1      -2.350   0.892  -2.024  0.00  0.00     0.000 A 
ATOM      3  C3  BNZ d   1      -1.082   0.516  -2.371  0.00  0.00     0.000 A 
ATOM      4  C4  BNZ d   1      -0.514  -0.543  -1.759  0.00  0.00     0.000 A 
ATOM      5  C5  BNZ d   1      -1.216  -1.263  -0.813  0.00  0.00     0.000 A 
ATOM      6  C6  BNZ d   1      -2.506  -0.906  -0.495  0.00  0.00     0.000 A 
ENDROOT
TORSDOF 0
ENDMDL
