MODEL 1
REMARK minimizedAffinity 4.99981546
REMARK minimizedRMSD -1
REMARK  0 active torsions:
REMARK  status: ('A' for Active; 'I' for Inactive)
ROOT
ATOM      1  C1  BNZ d   1      -2.523   0.447   0.475  0.00  0.00     0.000 A 
ATOM      2  C2  BNZ d   1      -1.506   0.202  -0.409  0.00  0.00     0.000 A 
ATOM      3  C3  BNZ d   1      -1.686  -0.649  -1.464  0.00  0.00     0.000 A 
ATOM      4  C4  BNZ d   1      -2.867  -1.284  -1.610  0.00  0.00     0.000 A 
ATOM      5  C5  BNZ d   1      -3.898  -1.054  -0.721  0.00  0.00     0.000 A 
ATOM      6  C6  BNZ d   1      -3.727  -0.167   0.317  0.00  0.00     0.000 A 
ENDROOT
TORSDOF 0
ENDMDL
