MODEL 1
REMARK minimizedAffinity -0.790931284
REMARK minimizedRMSD -1
REMARK  0 active torsions:
REMARK  status: ('A' for Active; 'I' for Inactive)
ROOT
ATOM      1  C1  DEN d   1       1.520  -1.404   0.549  0.00  0.00     0.130 A 
ATOM      2  C2  DEN d   1       1.492   0.005   0.932  0.00  0.00    -0.031 A 
ATOM      3  C3  DEN d   1       0.289   0.617   0.332  0.00  0.00     0.027 A 
ATOM      4  C4  DEN d   1      -1.525  -0.476  -1.139  0.00  0.00     0.027 A 
ATOM      5  C5  DEN d   1      -1.926  -1.648  -1.743  0.00  0.00    -0.003 A 
ATOM      6  C6  DEN d   1      -1.194  -2.802  -1.654  0.00  0.00     0.001 A 
ATOM      7  C7  DEN d   1      -0.045  -2.822  -0.907  0.00  0.00     0.017 A 
ATOM      8  C8  DEN d   1       0.369  -1.643  -0.302  0.00  0.00    -0.094 A 
ATOM      9  C9  DEN d   1      -0.391  -0.489  -0.393  0.00  0.00    -0.072 A 
ENDROOT
TORSDOF 0
ENDMDL
