MODEL 1
REMARK minimizedAffinity 9.95726871
REMARK minimizedRMSD -1
REMARK  0 active torsions:
REMARK  status: ('A' for Active; 'I' for Inactive)
ROOT
ATOM      1  C1  DEN d   1       0.781   2.002   1.587  0.00  0.00     0.130 A 
ATOM      2  C2  DEN d   1       1.974   2.795   1.871  0.00  0.00    -0.031 A 
ATOM      3  C3  DEN d   1       3.152   2.018   1.435  0.00  0.00     0.027 A 
ATOM      4  C4  DEN d   1       3.243  -0.319   0.348  0.00  0.00     0.027 A 
ATOM      5  C5  DEN d   1       2.487  -1.388  -0.080  0.00  0.00    -0.003 A 
ATOM      6  C6  DEN d   1       1.123  -1.416   0.047  0.00  0.00     0.001 A 
ATOM      7  C7  DEN d   1       0.469  -0.335   0.576  0.00  0.00     0.017 A 
ATOM      8  C8  DEN d   1       1.225   0.743   1.017  0.00  0.00    -0.094 A 
ATOM      9  C9  DEN d   1       2.601   0.758   0.868  0.00  0.00    -0.072 A 
ENDROOT
TORSDOF 0
ENDMDL
