MODEL 1
REMARK minimizedAffinity 8.59681702
REMARK minimizedRMSD -1
REMARK  0 active torsions:
REMARK  status: ('A' for Active; 'I' for Inactive)
ROOT
ATOM      1  C1  DEN d   1      -2.309  -4.962  -2.425  0.00  0.00     0.130 A 
ATOM      2  C2  DEN d   1      -1.175  -5.840  -2.703  0.00  0.00    -0.031 A 
ATOM      3  C3  DEN d   1       0.056  -5.141  -2.285  0.00  0.00     0.027 A 
ATOM      4  C4  DEN d   1       0.317  -2.800  -1.235  0.00  0.00     0.027 A 
ATOM      5  C5  DEN d   1      -0.360  -1.674  -0.819  0.00  0.00    -0.003 A 
ATOM      6  C6  DEN d   1      -1.719  -1.553  -0.940  0.00  0.00     0.001 A 
ATOM      7  C7  DEN d   1      -2.451  -2.594  -1.448  0.00  0.00     0.017 A 
ATOM      8  C8  DEN d   1      -1.775  -3.729  -1.877  0.00  0.00    -0.094 A 
ATOM      9  C9  DEN d   1      -0.402  -3.837  -1.735  0.00  0.00    -0.072 A 
ENDROOT
TORSDOF 0
ENDMDL
