MODEL 1
REMARK minimizedAffinity 6.7762022
REMARK minimizedRMSD -1
REMARK  0 active torsions:
REMARK  status: ('A' for Active; 'I' for Inactive)
ROOT
ATOM      1  C1  DEN d   1       0.393  -1.123   0.724  0.00  0.00     0.130 A 
ATOM      2  C2  DEN d   1       0.842  -1.365  -0.644  0.00  0.00    -0.031 A 
ATOM      3  C3  DEN d   1       1.944  -0.427  -0.935  0.00  0.00     0.027 A 
ATOM      4  C4  DEN d   1       2.998   1.364   0.593  0.00  0.00     0.027 A 
ATOM      5  C5  DEN d   1       2.944   1.949   1.839  0.00  0.00    -0.003 A 
ATOM      6  C6  DEN d   1       2.021   1.577   2.781  0.00  0.00     0.001 A 
ATOM      7  C7  DEN d   1       1.144   0.561   2.508  0.00  0.00     0.017 A 
ATOM      8  C8  DEN d   1       1.187  -0.028   1.251  0.00  0.00    -0.094 A 
ATOM      9  C9  DEN d   1       2.135   0.353   0.317  0.00  0.00    -0.072 A 
ENDROOT
TORSDOF 0
ENDMDL
