MODEL 1
REMARK minimizedAffinity 4.07664013
REMARK minimizedRMSD -1
REMARK  0 active torsions:
REMARK  status: ('A' for Active; 'I' for Inactive)
ROOT
ATOM      1  C1  DEN d   1      -0.582  -0.202   3.016  0.00  0.00     0.130 A 
ATOM      2  C2  DEN d   1       0.374   0.475   3.888  0.00  0.00    -0.031 A 
ATOM      3  C3  DEN d   1       1.623   0.677   3.126  0.00  0.00     0.027 A 
ATOM      4  C4  DEN d   1       2.164   0.013   0.693  0.00  0.00     0.027 A 
ATOM      5  C5  DEN d   1       1.672  -0.595  -0.441  0.00  0.00    -0.003 A 
ATOM      6  C6  DEN d   1       0.417  -1.140  -0.490  0.00  0.00     0.001 A 
ATOM      7  C7  DEN d   1      -0.407  -1.049   0.600  0.00  0.00     0.017 A 
ATOM      8  C8  DEN d   1       0.085  -0.444   1.750  0.00  0.00    -0.094 A 
ATOM      9  C9  DEN d   1       1.353   0.113   1.776  0.00  0.00    -0.072 A 
ENDROOT
TORSDOF 0
ENDMDL
