MODEL 1
REMARK minimizedAffinity -2.60855079
REMARK minimizedRMSD -1
REMARK  1 active torsions:
REMARK  status: ('A' for Active; 'I' for Inactive)
REMARK    1  A    between atoms: C1_2  and  C2_3 
ROOT
ATOM      1  C2  UNL d   1      -2.218   0.822   2.116  0.00  0.00    -0.081 A 
ATOM      2  C3  UNL d   1      -1.555   0.674   3.341  0.00  0.00     0.006 A 
ATOM      3  C4  UNL d   1      -1.914  -0.349   4.221  0.00  0.00     0.002 A 
ATOM      4  C5  UNL d   1      -2.936  -1.244   3.890  0.00  0.00    -0.080 A 
ATOM      5  C6  UNL d   1      -3.312  -2.365   4.813  0.00  0.00     0.076 C 
ATOM      6  C7  UNL d   1      -3.611  -1.086   2.674  0.00  0.00     0.002 A 
ATOM      7  C8  UNL d   1      -3.252  -0.063   1.793  0.00  0.00     0.006 A 
ENDROOT
BRANCH   1   8
ATOM      8  C1  UNL d   1      -1.789   1.884   1.136  0.00  0.00     0.054 C 
ATOM      9  C   UNL d   1      -1.817   1.362  -0.293  0.00  0.00     0.018 C 
ENDBRANCH   1   8
TORSDOF 1
ENDMDL
