MODEL 1
REMARK minimizedAffinity -3.1461072
REMARK minimizedRMSD -1
REMARK  1 active torsions:
REMARK  status: ('A' for Active; 'I' for Inactive)
REMARK    1  A    between atoms: C1_2  and  C2_3 
ROOT
ATOM      1  C2  UNL d   1      -3.283  -0.341   3.935  0.00  0.00    -0.081 A 
ATOM      2  C3  UNL d   1      -3.562  -0.764   2.630  0.00  0.00     0.006 A 
ATOM      3  C4  UNL d   1      -4.330  -1.909   2.405  0.00  0.00     0.002 A 
ATOM      4  C5  UNL d   1      -4.837  -2.646   3.481  0.00  0.00    -0.080 A 
ATOM      5  C6  UNL d   1      -5.688  -3.860   3.253  0.00  0.00     0.076 C 
ATOM      6  C7  UNL d   1      -4.543  -2.234   4.785  0.00  0.00     0.002 A 
ATOM      7  C8  UNL d   1      -3.776  -1.089   5.010  0.00  0.00     0.006 A 
ENDROOT
BRANCH   1   8
ATOM      8  C1  UNL d   1      -2.510   0.930   4.180  0.00  0.00     0.054 C 
ATOM      9  C   UNL d   1      -3.000   1.642   5.433  0.00  0.00     0.018 C 
ENDBRANCH   1   8
TORSDOF 1
ENDMDL
