MODEL 1
REMARK minimizedAffinity -5.46248579
REMARK minimizedRMSD -1
REMARK  1 active torsions:
REMARK  status: ('A' for Active; 'I' for Inactive)
REMARK    1  A    between atoms: C1_2  and  C2_3 
ROOT
ATOM      1  C2  UNL d   1      -3.796  -1.350   2.762  0.00  0.00    -0.081 A 
ATOM      2  C3  UNL d   1      -3.644  -0.753   4.020  0.00  0.00     0.006 A 
ATOM      3  C4  UNL d   1      -2.889   0.413   4.164  0.00  0.00     0.002 A 
ATOM      4  C5  UNL d   1      -2.279   1.005   3.053  0.00  0.00    -0.080 A 
ATOM      5  C6  UNL d   1      -1.490   2.274   3.189  0.00  0.00     0.076 C 
ATOM      6  C7  UNL d   1      -2.415   0.399   1.799  0.00  0.00     0.002 A 
ATOM      7  C8  UNL d   1      -3.170  -0.767   1.655  0.00  0.00     0.006 A 
ENDROOT
BRANCH   1   8
ATOM      8  C1  UNL d   1      -4.663  -2.571   2.593  0.00  0.00     0.054 C 
ATOM      9  C   UNL d   1      -6.000  -2.403   3.302  0.00  0.00     0.018 C 
ENDBRANCH   1   8
TORSDOF 1
ENDMDL
