MODEL 1
REMARK minimizedAffinity 0.0465271287
REMARK minimizedRMSD -1
REMARK  1 active torsions:
REMARK  status: ('A' for Active; 'I' for Inactive)
REMARK    1  A    between atoms: C1_2  and  C2_3 
ROOT
ATOM      1  C2  UNL d   1      -0.531   0.391  -0.321  0.00  0.00    -0.081 A 
ATOM      2  C3  UNL d   1       0.073  -0.871  -0.356  0.00  0.00     0.006 A 
ATOM      3  C4  UNL d   1       1.339  -1.035  -0.925  0.00  0.00     0.002 A 
ATOM      4  C5  UNL d   1       2.024   0.061  -1.459  0.00  0.00    -0.080 A 
ATOM      5  C6  UNL d   1       3.396  -0.095  -2.045  0.00  0.00     0.076 C 
ATOM      6  C7  UNL d   1       1.413   1.320  -1.439  0.00  0.00     0.002 A 
ATOM      7  C8  UNL d   1       0.147   1.484  -0.872  0.00  0.00     0.006 A 
ENDROOT
BRANCH   1   8
ATOM      8  C1  UNL d   1      -1.868   0.582   0.349  0.00  0.00     0.054 C 
ATOM      9  C   UNL d   1      -2.074  -0.426   1.471  0.00  0.00     0.018 C 
ENDBRANCH   1   8
TORSDOF 1
ENDMDL
