MODEL 1
REMARK minimizedAffinity -2.20698571
REMARK minimizedRMSD -1
REMARK  1 active torsions:
REMARK  status: ('A' for Active; 'I' for Inactive)
REMARK    1  A    between atoms: C1_2  and  C2_3 
ROOT
ATOM      1  C2  UNL d   1       0.968   0.078  -2.731  0.00  0.00    -0.081 A 
ATOM      2  C3  UNL d   1       1.037  -1.143  -2.048  0.00  0.00     0.006 A 
ATOM      3  C4  UNL d   1       0.418  -1.294  -0.805  0.00  0.00     0.002 A 
ATOM      4  C5  UNL d   1      -0.287  -0.232  -0.229  0.00  0.00    -0.080 A 
ATOM      5  C6  UNL d   1      -0.982  -0.391   1.091  0.00  0.00     0.076 C 
ATOM      6  C7  UNL d   1      -0.341   0.992  -0.903  0.00  0.00     0.002 A 
ATOM      7  C8  UNL d   1       0.279   1.145  -2.145  0.00  0.00     0.006 A 
ENDROOT
BRANCH   1   8
ATOM      8  C1  UNL d   1       1.580   0.225  -4.101  0.00  0.00     0.054 C 
ATOM      9  C   UNL d   1       0.876   1.306  -4.908  0.00  0.00     0.018 C 
ENDBRANCH   1   8
TORSDOF 1
ENDMDL
