MODEL 1
REMARK minimizedAffinity 3.88258624
REMARK minimizedRMSD -1
REMARK  1 active torsions:
REMARK  status: ('A' for Active; 'I' for Inactive)
REMARK    1  A    between atoms: C1_2  and  C2_3 
ROOT
ATOM      1  C2  UNL d   1       2.119  -0.688  -1.634  0.00  0.00    -0.081 A 
ATOM      2  C3  UNL d   1       1.481  -1.605  -2.478  0.00  0.00     0.006 A 
ATOM      3  C4  UNL d   1       1.026  -1.210  -3.738  0.00  0.00     0.002 A 
ATOM      4  C5  UNL d   1       1.208   0.105  -4.179  0.00  0.00    -0.080 A 
ATOM      5  C6  UNL d   1       0.751   0.534  -5.541  0.00  0.00     0.076 C 
ATOM      6  C7  UNL d   1       1.830   1.026  -3.329  0.00  0.00     0.002 A 
ATOM      7  C8  UNL d   1       2.285   0.632  -2.068  0.00  0.00     0.006 A 
ENDROOT
BRANCH   1   8
ATOM      8  C1  UNL d   1       2.669  -1.127  -0.301  0.00  0.00     0.054 C 
ATOM      9  C   UNL d   1       2.201  -2.531   0.055  0.00  0.00     0.018 C 
ENDBRANCH   1   8
TORSDOF 1
ENDMDL
