MODEL 1
REMARK minimizedAffinity -0.582808375
REMARK minimizedRMSD -1
REMARK  1 active torsions:
REMARK  status: ('A' for Active; 'I' for Inactive)
REMARK    1  A    between atoms: C1_2  and  C2_3 
ROOT
ATOM      1  C2  UNL d   1      -3.050   1.867   1.802  0.00  0.00    -0.081 A 
ATOM      2  C3  UNL d   1      -3.119   0.938   0.756  0.00  0.00     0.006 A 
ATOM      3  C4  UNL d   1      -2.218   1.003  -0.309  0.00  0.00     0.002 A 
ATOM      4  C5  UNL d   1      -1.229   1.993  -0.343  0.00  0.00    -0.080 A 
ATOM      5  C6  UNL d   1      -0.237   2.055  -1.466  0.00  0.00     0.076 C 
ATOM      6  C7  UNL d   1      -1.172   2.931   0.692  0.00  0.00     0.002 A 
ATOM      7  C8  UNL d   1      -2.073   2.867   1.758  0.00  0.00     0.006 A 
ENDROOT
BRANCH   1   8
ATOM      8  C1  UNL d   1      -3.979   1.760   2.984  0.00  0.00     0.054 C 
ATOM      9  C   UNL d   1      -3.300   1.076   4.162  0.00  0.00     0.018 C 
ENDBRANCH   1   8
TORSDOF 1
ENDMDL
