MODEL 1
REMARK minimizedAffinity -1.84636724
REMARK minimizedRMSD -1
REMARK  1 active torsions:
REMARK  status: ('A' for Active; 'I' for Inactive)
REMARK    1  A    between atoms: C1_2  and  C2_3 
ROOT
ATOM      1  C2  UNL d   1      -1.476  -0.120   1.813  0.00  0.00    -0.081 A 
ATOM      2  C3  UNL d   1      -0.100  -0.030   2.058  0.00  0.00     0.006 A 
ATOM      3  C4  UNL d   1       0.808  -0.014   0.997  0.00  0.00     0.002 A 
ATOM      4  C5  UNL d   1       0.356  -0.081  -0.326  0.00  0.00    -0.080 A 
ATOM      5  C6  UNL d   1       1.319  -0.034  -1.475  0.00  0.00     0.076 C 
ATOM      6  C7  UNL d   1      -1.017  -0.188  -0.569  0.00  0.00     0.002 A 
ATOM      7  C8  UNL d   1      -1.926  -0.204   0.491  0.00  0.00     0.006 A 
ENDROOT
BRANCH   1   8
ATOM      8  C1  UNL d   1      -2.461  -0.071   2.953  0.00  0.00     0.054 C 
ATOM      9  C   UNL d   1      -2.213  -1.196   3.948  0.00  0.00     0.018 C 
ENDBRANCH   1   8
TORSDOF 1
ENDMDL
