MODEL 1
REMARK minimizedAffinity -1.29220939
REMARK minimizedRMSD -1
REMARK  1 active torsions:
REMARK  status: ('A' for Active; 'I' for Inactive)
REMARK    1  A    between atoms: C1_2  and  C2_3 
ROOT
ATOM      1  C2  UNL d   1      -0.916   0.078   0.189  0.00  0.00    -0.081 A 
ATOM      2  C3  UNL d   1      -0.424  -1.233   0.162  0.00  0.00     0.006 A 
ATOM      3  C4  UNL d   1       0.832  -1.507  -0.385  0.00  0.00     0.002 A 
ATOM      4  C5  UNL d   1       1.619  -0.475  -0.907  0.00  0.00    -0.080 A 
ATOM      5  C6  UNL d   1       2.982  -0.752  -1.470  0.00  0.00     0.076 C 
ATOM      6  C7  UNL d   1       1.121   0.832  -0.896  0.00  0.00     0.002 A 
ATOM      7  C8  UNL d   1      -0.135   1.106  -0.349  0.00  0.00     0.006 A 
ENDROOT
BRANCH   1   8
ATOM      8  C1  UNL d   1      -2.241   0.386   0.837  0.00  0.00     0.054 C 
ATOM      9  C   UNL d   1      -2.129   0.385   2.355  0.00  0.00     0.018 C 
ENDBRANCH   1   8
TORSDOF 1
ENDMDL
