MODEL 1
REMARK minimizedAffinity -1.49428868
REMARK minimizedRMSD -1
REMARK  1 active torsions:
REMARK  status: ('A' for Active; 'I' for Inactive)
REMARK    1  A    between atoms: C1_2  and  C2_3 
ROOT
ATOM      1  C2  UNL d   1      -0.991   0.332   0.851  0.00  0.00    -0.081 A 
ATOM      2  C3  UNL d   1      -0.525  -0.977   1.028  0.00  0.00     0.006 A 
ATOM      3  C4  UNL d   1       0.398  -1.527   0.135  0.00  0.00     0.002 A 
ATOM      4  C5  UNL d   1       0.876  -0.775  -0.944  0.00  0.00    -0.080 A 
ATOM      5  C6  UNL d   1       1.890  -1.343  -1.892  0.00  0.00     0.076 C 
ATOM      6  C7  UNL d   1       0.398   0.526  -1.130  0.00  0.00     0.002 A 
ATOM      7  C8  UNL d   1      -0.525   1.076  -0.239  0.00  0.00     0.006 A 
ENDROOT
BRANCH   1   8
ATOM      8  C1  UNL d   1      -1.936   0.950   1.849  0.00  0.00     0.054 C 
ATOM      9  C   UNL d   1      -2.227  -0.002   3.000  0.00  0.00     0.018 C 
ENDBRANCH   1   8
TORSDOF 1
ENDMDL
