MODEL 1
REMARK minimizedAffinity -4.39871883
REMARK minimizedRMSD -1
REMARK  1 active torsions:
REMARK  status: ('A' for Active; 'I' for Inactive)
REMARK    1  A    between atoms: C1_2  and  C2_3 
ROOT
ATOM      1  C2  UNL d   1      -0.689   0.311  -0.190  0.00  0.00    -0.081 A 
ATOM      2  C3  UNL d   1       0.031  -0.875  -0.002  0.00  0.00     0.006 A 
ATOM      3  C4  UNL d   1       1.309  -1.022  -0.547  0.00  0.00     0.002 A 
ATOM      4  C5  UNL d   1       1.890   0.016  -1.283  0.00  0.00    -0.080 A 
ATOM      5  C6  UNL d   1       3.273  -0.117  -1.848  0.00  0.00     0.076 C 
ATOM      6  C7  UNL d   1       1.164   1.195  -1.486  0.00  0.00     0.002 A 
ATOM      7  C8  UNL d   1      -0.114   1.342  -0.941  0.00  0.00     0.006 A 
ENDROOT
BRANCH   1   8
ATOM      8  C1  UNL d   1      -2.040   0.497   0.451  0.00  0.00     0.054 C 
ATOM      9  C   UNL d   1      -1.909   0.872   1.921  0.00  0.00     0.018 C 
ENDBRANCH   1   8
TORSDOF 1
ENDMDL
