MODEL 1
REMARK minimizedAffinity 10.546979
REMARK minimizedRMSD -1
REMARK  0 active torsions:
REMARK  status: ('A' for Active; 'I' for Inactive)
ROOT
ATOM      1  C1  DEN d   1       2.618  -1.716  -4.528  0.00  0.00     0.130 A 
ATOM      2  C2  DEN d   1       3.757  -2.294  -3.820  0.00  0.00    -0.031 A 
ATOM      3  C3  DEN d   1       3.271  -2.821  -2.528  0.00  0.00     0.027 A 
ATOM      4  C4  DEN d   1       0.879  -2.801  -1.564  0.00  0.00     0.027 A 
ATOM      5  C5  DEN d   1      -0.421  -2.409  -1.794  0.00  0.00    -0.003 A 
ATOM      6  C6  DEN d   1      -0.790  -1.733  -2.927  0.00  0.00     0.001 A 
ATOM      7  C7  DEN d   1       0.144  -1.469  -3.894  0.00  0.00     0.017 A 
ATOM      8  C8  DEN d   1       1.458  -1.855  -3.666  0.00  0.00    -0.094 A 
ATOM      9  C9  DEN d   1       1.809  -2.548  -2.519  0.00  0.00    -0.072 A 
ENDROOT
TORSDOF 0
ENDMDL
