MODEL 1
REMARK minimizedAffinity -0.556357503
REMARK minimizedRMSD -1
REMARK  0 active torsions:
REMARK  status: ('A' for Active; 'I' for Inactive)
ROOT
ATOM      1  C1  DEN d   1       4.509   5.972  -1.907  0.00  0.00     0.130 A 
ATOM      2  C2  DEN d   1       5.395   5.108  -1.131  0.00  0.00    -0.031 A 
ATOM      3  C3  DEN d   1       6.000   4.128  -2.055  0.00  0.00     0.027 A 
ATOM      4  C4  DEN d   1       5.655   3.866  -4.597  0.00  0.00     0.027 A 
ATOM      5  C5  DEN d   1       4.987   4.360  -5.696  0.00  0.00    -0.003 A 
ATOM      6  C6  DEN d   1       4.095   5.395  -5.604  0.00  0.00     0.001 A 
ATOM      7  C7  DEN d   1       3.880   6.000  -4.394  0.00  0.00     0.017 A 
ATOM      8  C8  DEN d   1       4.544   5.503  -3.280  0.00  0.00    -0.094 A 
ATOM      9  C9  DEN d   1       5.451   4.464  -3.396  0.00  0.00    -0.072 A 
ENDROOT
TORSDOF 0
ENDMDL
