MODEL 1
REMARK minimizedAffinity 5.77180195
REMARK minimizedRMSD -1
REMARK  0 active torsions:
REMARK  status: ('A' for Active; 'I' for Inactive)
ROOT
ATOM      1  C1  DEN d   1       5.999   4.481  -1.922  0.00  0.00     0.130 A 
ATOM      2  C2  DEN d   1       5.176   5.425  -1.172  0.00  0.00    -0.031 A 
ATOM      3  C3  DEN d   1       4.180   6.000  -2.098  0.00  0.00     0.027 A 
ATOM      4  C4  DEN d   1       3.832   5.517  -4.608  0.00  0.00     0.027 A 
ATOM      5  C5  DEN d   1       4.294   4.798  -5.688  0.00  0.00    -0.003 A 
ATOM      6  C6  DEN d   1       5.370   3.955  -5.596  0.00  0.00     0.001 A 
ATOM      7  C7  DEN d   1       5.991   3.776  -4.389  0.00  0.00     0.017 A 
ATOM      8  C8  DEN d   1       5.536   4.503  -3.298  0.00  0.00    -0.094 A 
ATOM      9  C9  DEN d   1       4.439   5.341  -3.407  0.00  0.00    -0.072 A 
ENDROOT
TORSDOF 0
ENDMDL
