MODEL 1
REMARK minimizedAffinity 3.52501345
REMARK minimizedRMSD -1
REMARK  0 active torsions:
REMARK  status: ('A' for Active; 'I' for Inactive)
ROOT
ATOM      1  C1  DEN d   1       4.013   3.248  -3.482  0.00  0.00     0.130 A 
ATOM      2  C2  DEN d   1       4.550   3.699  -4.763  0.00  0.00    -0.031 A 
ATOM      3  C3  DEN d   1       5.424   4.862  -4.509  0.00  0.00     0.027 A 
ATOM      4  C4  DEN d   1       5.999   5.999  -2.267  0.00  0.00     0.027 A 
ATOM      5  C5  DEN d   1       5.775   5.979  -0.908  0.00  0.00    -0.003 A 
ATOM      6  C6  DEN d   1       4.928   5.077  -0.320  0.00  0.00     0.001 A 
ATOM      7  C7  DEN d   1       4.309   4.127  -1.090  0.00  0.00     0.017 A 
ATOM      8  C8  DEN d   1       4.525   4.145  -2.461  0.00  0.00    -0.094 A 
ATOM      9  C9  DEN d   1       5.394   5.058  -3.034  0.00  0.00    -0.072 A 
ENDROOT
TORSDOF 0
ENDMDL
