MODEL 1
REMARK minimizedAffinity 14.8757076
REMARK minimizedRMSD -1
REMARK  0 active torsions:
REMARK  status: ('A' for Active; 'I' for Inactive)
ROOT
ATOM      1  C1  DEN d   1      -0.369  -1.693  -3.316  0.00  0.00     0.130 A 
ATOM      2  C2  DEN d   1       1.030  -2.026  -3.568  0.00  0.00    -0.031 A 
ATOM      3  C3  DEN d   1       1.582  -2.638  -2.343  0.00  0.00     0.027 A 
ATOM      4  C4  DEN d   1       0.410  -3.107  -0.093  0.00  0.00     0.027 A 
ATOM      5  C5  DEN d   1      -0.773  -2.990   0.602  0.00  0.00    -0.003 A 
ATOM      6  C6  DEN d   1      -1.886  -2.406   0.056  0.00  0.00     0.001 A 
ATOM      7  C7  DEN d   1      -1.852  -1.958  -1.238  0.00  0.00     0.017 A 
ATOM      8  C8  DEN d   1      -0.660  -2.066  -1.943  0.00  0.00    -0.094 A 
ATOM      9  C9  DEN d   1       0.450  -2.670  -1.378  0.00  0.00    -0.072 A 
ENDROOT
TORSDOF 0
ENDMDL
