MODEL 1
REMARK minimizedAffinity 21.7850342
REMARK minimizedRMSD -1
REMARK  0 active torsions:
REMARK  status: ('A' for Active; 'I' for Inactive)
ROOT
ATOM      1  C1  DEN d   1       2.697  -1.441  -3.819  0.00  0.00     0.130 A 
ATOM      2  C2  DEN d   1       3.852  -2.127  -3.246  0.00  0.00    -0.031 A 
ATOM      3  C3  DEN d   1       3.401  -2.850  -2.040  0.00  0.00     0.027 A 
ATOM      4  C4  DEN d   1       1.038  -2.979  -1.014  0.00  0.00     0.027 A 
ATOM      5  C5  DEN d   1      -0.265  -2.553  -1.141  0.00  0.00    -0.003 A 
ATOM      6  C6  DEN d   1      -0.663  -1.706  -2.141  0.00  0.00     0.001 A 
ATOM      7  C7  DEN d   1       0.244  -1.294  -3.081  0.00  0.00     0.017 A 
ATOM      8  C8  DEN d   1       1.562  -1.713  -2.956  0.00  0.00    -0.094 A 
ATOM      9  C9  DEN d   1       1.941  -2.579  -1.945  0.00  0.00    -0.072 A 
ENDROOT
TORSDOF 0
ENDMDL
