MODEL 1
REMARK minimizedAffinity 1.42021036
REMARK minimizedRMSD -1
REMARK  0 active torsions:
REMARK  status: ('A' for Active; 'I' for Inactive)
ROOT
ATOM      1  C1  DEN d   1       2.494   4.121  -3.435  0.00  0.00     0.130 A 
ATOM      2  C2  DEN d   1       3.031   3.411  -4.592  0.00  0.00    -0.031 A 
ATOM      3  C3  DEN d   1       4.505   3.459  -4.514  0.00  0.00     0.027 A 
ATOM      4  C4  DEN d   1       6.000   4.555  -2.720  0.00  0.00     0.027 A 
ATOM      5  C5  DEN d   1       6.000   5.285  -1.552  0.00  0.00    -0.003 A 
ATOM      6  C6  DEN d   1       4.841   5.704  -0.953  0.00  0.00     0.001 A 
ATOM      7  C7  DEN d   1       3.632   5.358  -1.496  0.00  0.00     0.017 A 
ATOM      8  C8  DEN d   1       3.624   4.628  -2.677  0.00  0.00    -0.094 A 
ATOM      9  C9  DEN d   1       4.806   4.203  -3.261  0.00  0.00    -0.072 A 
ENDROOT
TORSDOF 0
ENDMDL
