MODEL 1
REMARK minimizedAffinity -2.02886701
REMARK minimizedRMSD -1
REMARK  0 active torsions:
REMARK  status: ('A' for Active; 'I' for Inactive)
ROOT
ATOM      1  C1  DEN d   1       5.998   2.748  -4.894  0.00  0.00     0.130 A 
ATOM      2  C2  DEN d   1       5.074   2.511  -6.000  0.00  0.00    -0.031 A 
ATOM      3  C3  DEN d   1       3.995   3.517  -5.916  0.00  0.00     0.027 A 
ATOM      4  C4  DEN d   1       3.672   5.410  -4.194  0.00  0.00     0.027 A 
ATOM      5  C5  DEN d   1       4.193   6.000  -3.064  0.00  0.00    -0.003 A 
ATOM      6  C6  DEN d   1       5.324   5.530  -2.449  0.00  0.00     0.001 A 
ATOM      7  C7  DEN d   1       5.997   4.466  -2.989  0.00  0.00     0.017 A 
ATOM      8  C8  DEN d   1       5.474   3.861  -4.124  0.00  0.00    -0.094 A 
ATOM      9  C9  DEN d   1       4.336   4.358  -4.737  0.00  0.00    -0.072 A 
ENDROOT
TORSDOF 0
ENDMDL
