MODEL 1
REMARK minimizedAffinity -3.17256594
REMARK minimizedRMSD -1
REMARK  0 active torsions:
REMARK  status: ('A' for Active; 'I' for Inactive)
ROOT
ATOM      1  C1  DEN d   1       6.000   2.271  -4.833  0.00  0.00     0.130 A 
ATOM      2  C2  DEN d   1       5.104   1.959  -5.943  0.00  0.00    -0.031 A 
ATOM      3  C3  DEN d   1       4.062   3.005  -5.997  0.00  0.00     0.027 A 
ATOM      4  C4  DEN d   1       3.754   5.067  -4.479  0.00  0.00     0.027 A 
ATOM      5  C5  DEN d   1       4.259   5.747  -3.393  0.00  0.00    -0.003 A 
ATOM      6  C6  DEN d   1       5.350   5.301  -2.695  0.00  0.00     0.001 A 
ATOM      7  C7  DEN d   1       6.000   4.166  -3.104  0.00  0.00     0.017 A 
ATOM      8  C8  DEN d   1       5.492   3.472  -4.194  0.00  0.00    -0.094 A 
ATOM      9  C9  DEN d   1       4.396   3.946  -4.893  0.00  0.00    -0.072 A 
ENDROOT
TORSDOF 0
ENDMDL
