MODEL 1
REMARK minimizedAffinity -3.13552117
REMARK minimizedRMSD -1
REMARK  0 active torsions:
REMARK  status: ('A' for Active; 'I' for Inactive)
ROOT
ATOM      1  C1  DEN d   1       5.999   2.516  -4.678  0.00  0.00     0.130 A 
ATOM      2  C2  DEN d   1       5.286   2.510  -5.953  0.00  0.00    -0.031 A 
ATOM      3  C3  DEN d   1       4.426   3.709  -6.000  0.00  0.00     0.027 A 
ATOM      4  C4  DEN d   1       4.133   5.567  -4.235  0.00  0.00     0.027 A 
ATOM      5  C5  DEN d   1       4.521   6.000  -2.986  0.00  0.00    -0.003 A 
ATOM      6  C6  DEN d   1       5.395   5.290  -2.206  0.00  0.00     0.001 A 
ATOM      7  C7  DEN d   1       5.946   4.131  -2.685  0.00  0.00     0.017 A 
ATOM      8  C8  DEN d   1       5.554   3.685  -3.941  0.00  0.00    -0.094 A 
ATOM      9  C9  DEN d   1       4.679   4.423  -4.719  0.00  0.00    -0.072 A 
ENDROOT
TORSDOF 0
ENDMDL
