MODEL 1
REMARK minimizedAffinity 2.26215696
REMARK minimizedRMSD -1
REMARK  0 active torsions:
REMARK  status: ('A' for Active; 'I' for Inactive)
ROOT
ATOM      1  C1  DEN d   1       5.964   5.704  -2.279  0.00  0.00     0.130 A 
ATOM      2  C2  DEN d   1       5.059   4.979  -1.391  0.00  0.00    -0.031 A 
ATOM      3  C3  DEN d   1       4.033   4.319  -2.223  0.00  0.00     0.027 A 
ATOM      4  C4  DEN d   1       3.763   4.344  -4.788  0.00  0.00     0.027 A 
ATOM      5  C5  DEN d   1       4.283   4.831  -5.967  0.00  0.00    -0.003 A 
ATOM      6  C6  DEN d   1       5.369   5.665  -5.997  0.00  0.00     0.001 A 
ATOM      7  C7  DEN d   1       6.000   6.000  -4.828  0.00  0.00     0.017 A 
ATOM      8  C8  DEN d   1       5.478   5.518  -3.634  0.00  0.00    -0.094 A 
ATOM      9  C9  DEN d   1       4.386   4.667  -3.626  0.00  0.00    -0.072 A 
ENDROOT
TORSDOF 0
ENDMDL
