MODEL 1
REMARK minimizedAffinity 0.395594716
REMARK minimizedRMSD -1
REMARK  0 active torsions:
REMARK  status: ('A' for Active; 'I' for Inactive)
ROOT
ATOM      1  C1  DEN d   1       5.985   3.187  -4.403  0.00  0.00     0.130 A 
ATOM      2  C2  DEN d   1       5.054   3.188  -5.529  0.00  0.00    -0.031 A 
ATOM      3  C3  DEN d   1       3.981   4.159  -5.233  0.00  0.00     0.027 A 
ATOM      4  C4  DEN d   1       3.675   5.655  -3.155  0.00  0.00     0.027 A 
ATOM      5  C5  DEN d   1       4.203   5.996  -1.930  0.00  0.00    -0.003 A 
ATOM      6  C6  DEN d   1       5.334   5.405  -1.432  0.00  0.00     0.001 A 
ATOM      7  C7  DEN d   1       5.999   4.473  -2.183  0.00  0.00     0.017 A 
ATOM      8  C8  DEN d   1       5.469   4.119  -3.417  0.00  0.00    -0.094 A 
ATOM      9  C9  DEN d   1       4.331   4.737  -3.908  0.00  0.00    -0.072 A 
ENDROOT
TORSDOF 0
ENDMDL
