MODEL 1
REMARK minimizedAffinity -4.33853054
REMARK minimizedRMSD -1
REMARK  0 active torsions:
REMARK  status: ('A' for Active; 'I' for Inactive)
ROOT
ATOM      1  C1  DEN d   1       6.000   5.991  -2.484  0.00  0.00     0.130 A 
ATOM      2  C2  DEN d   1       5.133   5.541  -1.398  0.00  0.00    -0.031 A 
ATOM      3  C3  DEN d   1       4.126   4.624  -1.968  0.00  0.00     0.027 A 
ATOM      4  C4  DEN d   1       3.830   3.857  -4.413  0.00  0.00     0.027 A 
ATOM      5  C5  DEN d   1       4.318   3.980  -5.695  0.00  0.00    -0.003 A 
ATOM      6  C6  DEN d   1       5.371   4.801  -6.000  0.00  0.00     0.001 A 
ATOM      7  C7  DEN d   1       6.000   5.497  -5.002  0.00  0.00     0.017 A 
ATOM      8  C8  DEN d   1       5.508   5.384  -3.708  0.00  0.00    -0.094 A 
ATOM      9  C9  DEN d   1       4.450   4.540  -3.418  0.00  0.00    -0.072 A 
ENDROOT
TORSDOF 0
ENDMDL
