MODEL 1
REMARK minimizedAffinity 5.11245584
REMARK minimizedRMSD -1
REMARK  2 active torsions:
REMARK  status: ('A' for Active; 'I' for Inactive)
REMARK    1  A    between atoms: C1_2  and  C2_3 
REMARK    2  A    between atoms: C2_3  and  C3_4 
ROOT
ATOM      1  C3  UNL d   1       0.940   0.092  -1.463  0.00  0.00    -0.075 A 
ATOM      2  C4  UNL d   1      -0.054  -0.790  -1.012  0.00  0.00     0.002 A 
ATOM      3  C5  UNL d   1      -0.527  -0.713   0.298  0.00  0.00     0.002 A 
ATOM      4  C6  UNL d   1      -0.007   0.236   1.176  0.00  0.00    -0.004 A 
ATOM      5  C7  UNL d   1       0.992   1.105   0.743  0.00  0.00     0.002 A 
ATOM      6  C8  UNL d   1       1.464   1.034  -0.568  0.00  0.00     0.002 A 
ENDROOT
BRANCH   1   7
ATOM      7  C2  UNL d   1       1.435   0.033  -2.888  0.00  0.00     0.056 C 
BRANCH   7   8
ATOM      8  C1  UNL d   1       2.696   0.866  -3.145  0.00  0.00     0.007 C 
ATOM      9  C   UNL d   1       2.700   1.545  -4.508  0.00  0.00     0.009 C 
ENDBRANCH   7   8
ENDBRANCH   1   7
TORSDOF 2
ENDMDL
