MODEL 1
REMARK minimizedAffinity 9.57803917
REMARK minimizedRMSD -1
REMARK  2 active torsions:
REMARK  status: ('A' for Active; 'I' for Inactive)
REMARK    1  A    between atoms: C1_2  and  C2_3 
REMARK    2  A    between atoms: C2_3  and  C3_4 
ROOT
ATOM      1  C3  UNL d   1      -4.801   5.976   3.400  0.00  0.00    -0.075 A 
ATOM      2  C4  UNL d   1      -5.651   5.971   4.516  0.00  0.00     0.002 A 
ATOM      3  C5  UNL d   1      -5.123   5.987   5.808  0.00  0.00     0.002 A 
ATOM      4  C6  UNL d   1      -3.744   5.998   6.000  0.00  0.00    -0.004 A 
ATOM      5  C7  UNL d   1      -2.890   5.986   4.899  0.00  0.00     0.002 A 
ATOM      6  C8  UNL d   1      -3.415   5.975   3.605  0.00  0.00     0.002 A 
ENDROOT
BRANCH   1   7
ATOM      7  C2  UNL d   1      -5.366   5.989   2.000  0.00  0.00     0.056 C 
BRANCH   7   8
ATOM      8  C1  UNL d   1      -5.027   4.740   1.179  0.00  0.00     0.007 C 
ATOM      9  C   UNL d   1      -5.274   4.916  -0.313  0.00  0.00     0.009 C 
ENDBRANCH   7   8
ENDBRANCH   1   7
TORSDOF 2
ENDMDL
