MODEL 1
REMARK minimizedAffinity 3.46522713
REMARK minimizedRMSD -1
REMARK  2 active torsions:
REMARK  status: ('A' for Active; 'I' for Inactive)
REMARK    1  A    between atoms: C1_2  and  C2_3 
REMARK    2  A    between atoms: C2_3  and  C3_4 
ROOT
ATOM      1  C3  UNL d   1       0.834   0.583   0.259  0.00  0.00    -0.075 A 
ATOM      2  C4  UNL d   1       2.192   0.469  -0.073  0.00  0.00     0.002 A 
ATOM      3  C5  UNL d   1       2.607  -0.428  -1.057  0.00  0.00     0.002 A 
ATOM      4  C6  UNL d   1       1.675  -1.229  -1.712  0.00  0.00    -0.004 A 
ATOM      5  C7  UNL d   1       0.325  -1.136  -1.378  0.00  0.00     0.002 A 
ATOM      6  C8  UNL d   1      -0.094  -0.236  -0.397  0.00  0.00     0.002 A 
ENDROOT
BRANCH   1   7
ATOM      7  C2  UNL d   1       0.375   1.574   1.302  0.00  0.00     0.056 C 
BRANCH   7   8
ATOM      8  C1  UNL d   1       1.210   2.857   1.355  0.00  0.00     0.007 C 
ATOM      9  C   UNL d   1       1.265   3.482   2.742  0.00  0.00     0.009 C 
ENDBRANCH   7   8
ENDBRANCH   1   7
TORSDOF 2
ENDMDL
