MODEL 1
REMARK minimizedAffinity 8.35541916
REMARK minimizedRMSD -1
REMARK  2 active torsions:
REMARK  status: ('A' for Active; 'I' for Inactive)
REMARK    1  A    between atoms: C1_2  and  C2_3 
REMARK    2  A    between atoms: C2_3  and  C3_4 
ROOT
ATOM      1  C3  UNL d   1       5.237   0.504   3.471  0.00  0.00    -0.075 A 
ATOM      2  C4  UNL d   1       5.718   1.310   4.513  0.00  0.00     0.002 A 
ATOM      3  C5  UNL d   1       5.998   0.759   5.763  0.00  0.00     0.002 A 
ATOM      4  C6  UNL d   1       5.793  -0.600   5.991  0.00  0.00    -0.004 A 
ATOM      5  C7  UNL d   1       5.300  -1.407   4.968  0.00  0.00     0.002 A 
ATOM      6  C8  UNL d   1       5.022  -0.859   3.715  0.00  0.00     0.002 A 
ENDROOT
BRANCH   1   7
ATOM      7  C2  UNL d   1       4.959   1.089   2.107  0.00  0.00     0.056 C 
BRANCH   7   8
ATOM      8  C1  UNL d   1       5.049   0.073   0.963  0.00  0.00     0.007 C 
ATOM      9  C   UNL d   1       4.208   0.456  -0.248  0.00  0.00     0.009 C 
ENDBRANCH   7   8
ENDBRANCH   1   7
TORSDOF 2
ENDMDL
