MODEL 1
REMARK minimizedAffinity 8.37062073
REMARK minimizedRMSD -1
REMARK  2 active torsions:
REMARK  status: ('A' for Active; 'I' for Inactive)
REMARK    1  A    between atoms: C1_2  and  C2_3 
REMARK    2  A    between atoms: C2_3  and  C3_4 
ROOT
ATOM      1  C3  UNL d   1       5.863   3.436   2.664  0.00  0.00    -0.075 A 
ATOM      2  C4  UNL d   1       5.798   4.575   1.849  0.00  0.00     0.002 A 
ATOM      3  C5  UNL d   1       5.722   5.848   2.415  0.00  0.00     0.002 A 
ATOM      4  C6  UNL d   1       5.700   5.997   3.800  0.00  0.00    -0.004 A 
ATOM      5  C7  UNL d   1       5.747   4.872   4.619  0.00  0.00     0.002 A 
ATOM      6  C8  UNL d   1       5.828   3.597   4.055  0.00  0.00     0.002 A 
ENDROOT
BRANCH   1   7
ATOM      7  C2  UNL d   1       5.974   2.057   2.057  0.00  0.00     0.056 C 
BRANCH   7   8
ATOM      8  C1  UNL d   1       5.941   0.920   3.084  0.00  0.00     0.007 C 
ATOM      9  C   UNL d   1       5.991  -0.463   2.449  0.00  0.00     0.009 C 
ENDBRANCH   7   8
ENDBRANCH   1   7
TORSDOF 2
ENDMDL
