MODEL 1
REMARK minimizedAffinity 0.508066118
REMARK minimizedRMSD -1
REMARK  2 active torsions:
REMARK  status: ('A' for Active; 'I' for Inactive)
REMARK    1  A    between atoms: C1_2  and  C2_3 
REMARK    2  A    between atoms: C2_3  and  C3_4 
ROOT
ATOM      1  C3  UNL d   1       1.192   0.750   0.680  0.00  0.00    -0.075 A 
ATOM      2  C4  UNL d   1       2.505   1.047   0.285  0.00  0.00     0.002 A 
ATOM      3  C5  UNL d   1       3.141   0.280  -0.692  0.00  0.00     0.002 A 
ATOM      4  C6  UNL d   1       2.479  -0.797  -1.277  0.00  0.00    -0.004 A 
ATOM      5  C7  UNL d   1       1.180  -1.110  -0.881  0.00  0.00     0.002 A 
ATOM      6  C8  UNL d   1       0.540  -0.342   0.093  0.00  0.00     0.002 A 
ENDROOT
BRANCH   1   7
ATOM      7  C2  UNL d   1       0.488   1.594   1.715  0.00  0.00     0.056 C 
BRANCH   7   8
ATOM      8  C1  UNL d   1       0.581   3.102   1.459  0.00  0.00     0.007 C 
ATOM      9  C   UNL d   1      -0.715   3.843   1.759  0.00  0.00     0.009 C 
ENDBRANCH   7   8
ENDBRANCH   1   7
TORSDOF 2
ENDMDL
