MODEL 1
REMARK minimizedAffinity 9.9330349
REMARK minimizedRMSD -1
REMARK  2 active torsions:
REMARK  status: ('A' for Active; 'I' for Inactive)
REMARK    1  A    between atoms: C1_2  and  C2_3 
REMARK    2  A    between atoms: C2_3  and  C3_4 
ROOT
ATOM      1  C3  UNL d   1       3.359   4.103   3.235  0.00  0.00    -0.075 A 
ATOM      2  C4  UNL d   1       3.700   4.521   4.530  0.00  0.00     0.002 A 
ATOM      3  C5  UNL d   1       5.012   4.889   4.833  0.00  0.00     0.002 A 
ATOM      4  C6  UNL d   1       5.999   4.834   3.851  0.00  0.00    -0.004 A 
ATOM      5  C7  UNL d   1       5.675   4.404   2.566  0.00  0.00     0.002 A 
ATOM      6  C8  UNL d   1       4.362   4.040   2.259  0.00  0.00     0.002 A 
ENDROOT
BRANCH   1   7
ATOM      7  C2  UNL d   1       1.936   3.732   2.893  0.00  0.00     0.056 C 
BRANCH   7   8
ATOM      8  C1  UNL d   1       1.740   3.286   1.440  0.00  0.00     0.007 C 
ATOM      9  C   UNL d   1       0.391   2.624   1.192  0.00  0.00     0.009 C 
ENDBRANCH   7   8
ENDBRANCH   1   7
TORSDOF 2
ENDMDL
