MODEL 1
REMARK minimizedAffinity 2.3194418
REMARK minimizedRMSD -1
REMARK  2 active torsions:
REMARK  status: ('A' for Active; 'I' for Inactive)
REMARK    1  A    between atoms: C1_2  and  C2_3 
REMARK    2  A    between atoms: C2_3  and  C3_4 
ROOT
ATOM      1  C3  UNL d   1      -1.426  -2.515   0.100  0.00  0.00    -0.075 A 
ATOM      2  C4  UNL d   1      -2.791  -2.746  -0.125  0.00  0.00     0.002 A 
ATOM      3  C5  UNL d   1      -3.347  -4.001   0.126  0.00  0.00     0.002 A 
ATOM      4  C6  UNL d   1      -2.547  -5.040   0.594  0.00  0.00    -0.004 A 
ATOM      5  C7  UNL d   1      -1.186  -4.826   0.806  0.00  0.00     0.002 A 
ATOM      6  C8  UNL d   1      -0.628  -3.570   0.560  0.00  0.00     0.002 A 
ENDROOT
BRANCH   1   7
ATOM      7  C2  UNL d   1      -0.823  -1.151  -0.141  0.00  0.00     0.056 C 
BRANCH   7   8
ATOM      8  C1  UNL d   1      -0.710  -0.287   1.119  0.00  0.00     0.007 C 
ATOM      9  C   UNL d   1       0.049   1.013   0.889  0.00  0.00     0.009 C 
ENDBRANCH   7   8
ENDBRANCH   1   7
TORSDOF 2
ENDMDL
