MODEL 1
REMARK minimizedAffinity -3.28982997
REMARK minimizedRMSD -1
REMARK  2 active torsions:
REMARK  status: ('A' for Active; 'I' for Inactive)
REMARK    1  A    between atoms: C1_2  and  C2_3 
REMARK    2  A    between atoms: C2_3  and  C3_4 
ROOT
ATOM      1  C3  UNL d   1      -0.505  -2.387  -0.405  0.00  0.00    -0.075 A 
ATOM      2  C4  UNL d   1      -1.740  -1.722  -0.422  0.00  0.00     0.002 A 
ATOM      3  C5  UNL d   1      -2.930  -2.434  -0.269  0.00  0.00     0.002 A 
ATOM      4  C6  UNL d   1      -2.902  -3.817  -0.107  0.00  0.00    -0.004 A 
ATOM      5  C7  UNL d   1      -1.682  -4.490  -0.105  0.00  0.00     0.002 A 
ATOM      6  C8  UNL d   1      -0.489  -3.780  -0.254  0.00  0.00     0.002 A 
ENDROOT
BRANCH   1   7
ATOM      7  C2  UNL d   1       0.788  -1.619  -0.542  0.00  0.00     0.056 C 
BRANCH   7   8
ATOM      8  C1  UNL d   1       0.727  -0.192   0.012  0.00  0.00     0.007 C 
ATOM      9  C   UNL d   1       1.974   0.626  -0.297  0.00  0.00     0.009 C 
ENDBRANCH   7   8
ENDBRANCH   1   7
TORSDOF 2
ENDMDL
