MODEL 1
REMARK minimizedAffinity 3.01412177
REMARK minimizedRMSD -1
REMARK  2 active torsions:
REMARK  status: ('A' for Active; 'I' for Inactive)
REMARK    1  A    between atoms: C1_2  and  C2_3 
REMARK    2  A    between atoms: C2_3  and  C3_4 
ROOT
ATOM      1  C3  UNL d   1       1.723  -3.632   1.819  0.00  0.00    -0.075 A 
ATOM      2  C4  UNL d   1       2.231  -3.535   3.122  0.00  0.00     0.002 A 
ATOM      3  C5  UNL d   1       2.763  -4.655   3.760  0.00  0.00     0.002 A 
ATOM      4  C6  UNL d   1       2.784  -5.887   3.110  0.00  0.00    -0.004 A 
ATOM      5  C7  UNL d   1       2.266  -5.999   1.822  0.00  0.00     0.002 A 
ATOM      6  C8  UNL d   1       1.737  -4.879   1.179  0.00  0.00     0.002 A 
ENDROOT
BRANCH   1   7
ATOM      7  C2  UNL d   1       1.172  -2.417   1.111  0.00  0.00     0.056 C 
BRANCH   7   8
ATOM      8  C1  UNL d   1       0.022  -2.724   0.146  0.00  0.00     0.007 C 
ATOM      9  C   UNL d   1      -0.910  -1.540  -0.073  0.00  0.00     0.009 C 
ENDBRANCH   7   8
ENDBRANCH   1   7
TORSDOF 2
ENDMDL
