MODEL 1
REMARK minimizedAffinity 4.050488
REMARK minimizedRMSD -1
REMARK  2 active torsions:
REMARK  status: ('A' for Active; 'I' for Inactive)
REMARK    1  A    between atoms: C1_2  and  C2_3 
REMARK    2  A    between atoms: C2_3  and  C3_4 
ROOT
ATOM      1  C3  UNL d   1       3.859   3.348  -1.102  0.00  0.00    -0.075 A 
ATOM      2  C4  UNL d   1       3.571   4.709  -1.284  0.00  0.00     0.002 A 
ATOM      3  C5  UNL d   1       4.434   5.522  -2.019  0.00  0.00     0.002 A 
ATOM      4  C6  UNL d   1       5.597   4.990  -2.572  0.00  0.00    -0.004 A 
ATOM      5  C7  UNL d   1       5.900   3.644  -2.383  0.00  0.00     0.002 A 
ATOM      6  C8  UNL d   1       5.037   2.826  -1.651  0.00  0.00     0.002 A 
ENDROOT
BRANCH   1   7
ATOM      7  C2  UNL d   1       2.914   2.456  -0.332  0.00  0.00     0.056 C 
BRANCH   7   8
ATOM      8  C1  UNL d   1       3.098   0.961  -0.616  0.00  0.00     0.007 C 
ATOM      9  C   UNL d   1       3.346   0.138   0.641  0.00  0.00     0.009 C 
ENDBRANCH   7   8
ENDBRANCH   1   7
TORSDOF 2
ENDMDL
