MODEL 1
REMARK minimizedAffinity 9.71307468
REMARK minimizedRMSD -1
REMARK  2 active torsions:
REMARK  status: ('A' for Active; 'I' for Inactive)
REMARK    1  A    between atoms: C1_2  and  C2_3 
REMARK    2  A    between atoms: C2_3  and  C3_4 
ROOT
ATOM      1  C3  UNL d   1       0.418  -5.032   1.532  0.00  0.00    -0.075 A 
ATOM      2  C4  UNL d   1      -0.016  -3.861   0.894  0.00  0.00     0.002 A 
ATOM      3  C5  UNL d   1      -1.373  -3.541   0.846  0.00  0.00     0.002 A 
ATOM      4  C6  UNL d   1      -2.313  -4.391   1.425  0.00  0.00    -0.004 A 
ATOM      5  C7  UNL d   1      -1.895  -5.565   2.047  0.00  0.00     0.002 A 
ATOM      6  C8  UNL d   1      -0.537  -5.885   2.100  0.00  0.00     0.002 A 
ENDROOT
BRANCH   1   7
ATOM      7  C2  UNL d   1       1.887  -5.369   1.613  0.00  0.00     0.056 C 
BRANCH   7   8
ATOM      8  C1  UNL d   1       2.315  -5.974   2.954  0.00  0.00     0.007 C 
ATOM      9  C   UNL d   1       3.825  -5.987   3.152  0.00  0.00     0.009 C 
ENDBRANCH   7   8
ENDBRANCH   1   7
TORSDOF 2
ENDMDL
