MODEL 1
REMARK minimizedAffinity 14.6894894
REMARK minimizedRMSD -1
REMARK  2 active torsions:
REMARK  status: ('A' for Active; 'I' for Inactive)
REMARK    1  A    between atoms: C1_2  and  C2_3 
REMARK    2  A    between atoms: C2_3  and  C3_4 
ROOT
ATOM      1  C3  UNL d   1      -3.956   1.712   5.590  0.00  0.00    -0.075 A 
ATOM      2  C4  UNL d   1      -2.925   0.855   6.000  0.00  0.00     0.002 A 
ATOM      3  C5  UNL d   1      -2.912  -0.481   5.597  0.00  0.00     0.002 A 
ATOM      4  C6  UNL d   1      -3.933  -0.978   4.789  0.00  0.00    -0.004 A 
ATOM      5  C7  UNL d   1      -4.971  -0.139   4.390  0.00  0.00     0.002 A 
ATOM      6  C8  UNL d   1      -4.984   1.199   4.788  0.00  0.00     0.002 A 
ENDROOT
BRANCH   1   7
ATOM      7  C2  UNL d   1      -3.960   3.166   5.998  0.00  0.00     0.056 C 
BRANCH   7   8
ATOM      8  C1  UNL d   1      -3.859   4.144   4.823  0.00  0.00     0.007 C 
ATOM      9  C   UNL d   1      -3.729   5.597   5.261  0.00  0.00     0.009 C 
ENDBRANCH   7   8
ENDBRANCH   1   7
TORSDOF 2
ENDMDL
