MODEL 1
REMARK minimizedAffinity -4.66788292
REMARK minimizedRMSD -1
REMARK  0 active torsions:
REMARK  status: ('A' for Active; 'I' for Inactive)
ROOT
ATOM      1  C4' PXY d   1      -1.131  -2.641   1.599  0.00  0.00     0.077 C 
ATOM      2  C1' PXY d   1       1.014   1.463  -1.860  0.00  0.00     0.077 C 
ATOM      3  C1  PXY d   1       0.447   0.396  -0.945  0.00  0.00    -0.082 A 
ATOM      4  C2  PXY d   1       0.982  -0.814  -0.941  0.00  0.00     0.003 A 
ATOM      5  C3  PXY d   1       0.461  -1.800  -0.143  0.00  0.00     0.003 A 
ATOM      6  C4  PXY d   1      -0.585  -1.530   0.698  0.00  0.00    -0.082 A 
ATOM      7  C5  PXY d   1      -1.130  -0.295   0.707  0.00  0.00     0.003 A 
ATOM      8  C6  PXY d   1      -0.613   0.680  -0.140  0.00  0.00     0.003 A 
ENDROOT
TORSDOF 0
ENDMDL
