MODEL 1
REMARK minimizedAffinity -4.0885067
REMARK minimizedRMSD -1
REMARK  0 active torsions:
REMARK  status: ('A' for Active; 'I' for Inactive)
ROOT
ATOM      1  C4' PXY d   1      -1.502  -1.885   0.738  0.00  0.00     0.077 C 
ATOM      2  C1' PXY d   1       1.905   2.021  -1.821  0.00  0.00     0.077 C 
ATOM      3  C1  PXY d   1       1.003   1.006  -1.147  0.00  0.00    -0.082 A 
ATOM      4  C2  PXY d   1       1.516  -0.127  -0.695  0.00  0.00     0.003 A 
ATOM      5  C3  PXY d   1       0.709  -1.070  -0.112  0.00  0.00     0.003 A 
ATOM      6  C4  PXY d   1      -0.628  -0.827   0.059  0.00  0.00    -0.082 A 
ATOM      7  C5  PXY d   1      -1.157   0.331  -0.390  0.00  0.00     0.003 A 
ATOM      8  C6  PXY d   1      -0.328   1.257  -1.016  0.00  0.00     0.003 A 
ENDROOT
TORSDOF 0
ENDMDL
