MODEL 1
REMARK minimizedAffinity -5.11105061
REMARK minimizedRMSD -1
REMARK  0 active torsions:
REMARK  status: ('A' for Active; 'I' for Inactive)
ROOT
ATOM      1  C4' PXY d   1       1.449   1.423  -1.361  0.00  0.00     0.077 C 
ATOM      2  C1' PXY d   1      -1.325  -2.414   1.955  0.00  0.00     0.077 C 
ATOM      3  C1  PXY d   1      -0.609  -1.402   1.084  0.00  0.00    -0.082 A 
ATOM      4  C2  PXY d   1       0.518  -1.740   0.478  0.00  0.00     0.003 A 
ATOM      5  C3  PXY d   1       1.196  -0.827  -0.288  0.00  0.00     0.003 A 
ATOM      6  C4  PXY d   1       0.687   0.430  -0.479  0.00  0.00    -0.082 A 
ATOM      7  C5  PXY d   1      -0.468   0.780   0.126  0.00  0.00     0.003 A 
ATOM      8  C6  PXY d   1      -1.119  -0.149   0.933  0.00  0.00     0.003 A 
ENDROOT
TORSDOF 0
ENDMDL
