MODEL 1
REMARK minimizedAffinity -3.68624544
REMARK minimizedRMSD -1
REMARK  0 active torsions:
REMARK  status: ('A' for Active; 'I' for Inactive)
ROOT
ATOM      1  C4' PXY d   1      -0.481  -2.660   1.932  0.00  0.00     0.077 C 
ATOM      2  C1' PXY d   1       0.868   1.980  -1.241  0.00  0.00     0.077 C 
ATOM      3  C1  PXY d   1       0.503   0.768  -0.406  0.00  0.00    -0.082 A 
ATOM      4  C2  PXY d   1       1.461   0.005   0.093  0.00  0.00     0.003 A 
ATOM      5  C3  PXY d   1       1.148  -1.113   0.823  0.00  0.00     0.003 A 
ATOM      6  C4  PXY d   1      -0.158  -1.422   1.091  0.00  0.00    -0.082 A 
ATOM      7  C5  PXY d   1      -1.142  -0.641   0.595  0.00  0.00     0.003 A 
ATOM      8  C6  PXY d   1      -0.804   0.465  -0.179  0.00  0.00     0.003 A 
ENDROOT
TORSDOF 0
ENDMDL
