MODEL 1
REMARK minimizedAffinity -5.06474543
REMARK minimizedRMSD -1
REMARK  0 active torsions:
REMARK  status: ('A' for Active; 'I' for Inactive)
ROOT
ATOM      1  C4' PXY d   1      -1.428  -2.439   1.711  0.00  0.00     0.077 C 
ATOM      2  C1' PXY d   1       1.317   1.852  -1.020  0.00  0.00     0.077 C 
ATOM      3  C1  PXY d   1       0.605   0.718  -0.311  0.00  0.00    -0.082 A 
ATOM      4  C2  PXY d   1      -0.601   0.919   0.196  0.00  0.00     0.003 A 
ATOM      5  C3  PXY d   1      -1.247  -0.087   0.869  0.00  0.00     0.003 A 
ATOM      6  C4  PXY d   1      -0.675  -1.326   0.978  0.00  0.00    -0.082 A 
ATOM      7  C5  PXY d   1       0.551  -1.541   0.455  0.00  0.00     0.003 A 
ATOM      8  C6  PXY d   1       1.207  -0.496  -0.188  0.00  0.00     0.003 A 
ENDROOT
TORSDOF 0
ENDMDL
