MODEL 1
REMARK minimizedAffinity -3.77521372
REMARK minimizedRMSD -1
REMARK  0 active torsions:
REMARK  status: ('A' for Active; 'I' for Inactive)
ROOT
ATOM      1  C4' PXY d   1      -2.245  -0.011   2.445  0.00  0.00     0.077 C 
ATOM      2  C1' PXY d   1       1.350   1.731  -1.733  0.00  0.00     0.077 C 
ATOM      3  C1  PXY d   1       0.409   1.285  -0.631  0.00  0.00    -0.082 A 
ATOM      4  C2  PXY d   1       0.220  -0.006  -0.415  0.00  0.00     0.003 A 
ATOM      5  C3  PXY d   1      -0.652  -0.426   0.556  0.00  0.00     0.003 A 
ATOM      6  C4  PXY d   1      -1.297   0.485   1.350  0.00  0.00    -0.082 A 
ATOM      7  C5  PXY d   1      -1.101   1.804   1.142  0.00  0.00     0.003 A 
ATOM      8  C6  PXY d   1      -0.243   2.210   0.124  0.00  0.00     0.003 A 
ENDROOT
TORSDOF 0
ENDMDL
