MODEL 1
REMARK minimizedAffinity -4.15261793
REMARK minimizedRMSD -1
REMARK  0 active torsions:
REMARK  status: ('A' for Active; 'I' for Inactive)
ROOT
ATOM      1  C4' PXY d   1       1.502   1.671  -1.707  0.00  0.00     0.077 C 
ATOM      2  C1' PXY d   1      -0.749  -2.663   1.386  0.00  0.00     0.077 C 
ATOM      3  C1  PXY d   1      -0.170  -1.522   0.572  0.00  0.00    -0.082 A 
ATOM      4  C2  PXY d   1       1.043  -1.636   0.056  0.00  0.00     0.003 A 
ATOM      5  C3  PXY d   1       1.594  -0.602  -0.655  0.00  0.00     0.003 A 
ATOM      6  C4  PXY d   1       0.875   0.541  -0.886  0.00  0.00    -0.082 A 
ATOM      7  C5  PXY d   1      -0.368   0.660  -0.372  0.00  0.00     0.003 A 
ATOM      8  C6  PXY d   1      -0.893  -0.385   0.382  0.00  0.00     0.003 A 
ENDROOT
TORSDOF 0
ENDMDL
