MODEL 1
REMARK minimizedAffinity -3.07411146
REMARK minimizedRMSD -1
REMARK  0 active torsions:
REMARK  status: ('A' for Active; 'I' for Inactive)
ROOT
ATOM      1  C4' PXY d   1       1.097   1.986  -1.677  0.00  0.00     0.077 C 
ATOM      2  C1' PXY d   1      -0.764  -2.205   1.843  0.00  0.00     0.077 C 
ATOM      3  C1  PXY d   1      -0.287  -1.100   0.921  0.00  0.00    -0.082 A 
ATOM      4  C2  PXY d   1       0.671  -1.348   0.043  0.00  0.00     0.003 A 
ATOM      5  C3  PXY d   1       1.136  -0.352  -0.776  0.00  0.00     0.003 A 
ATOM      6  C4  PXY d   1       0.578   0.898  -0.733  0.00  0.00    -0.082 A 
ATOM      7  C5  PXY d   1      -0.408   1.156   0.153  0.00  0.00     0.003 A 
ATOM      8  C6  PXY d   1      -0.837   0.142   1.004  0.00  0.00     0.003 A 
ENDROOT
TORSDOF 0
ENDMDL
