MODEL 1
REMARK minimizedAffinity -3.41681075
REMARK minimizedRMSD -1
REMARK  0 active torsions:
REMARK  status: ('A' for Active; 'I' for Inactive)
ROOT
ATOM      1  C4' PXY d   1      -2.592   0.899   1.269  0.00  0.00     0.077 C 
ATOM      2  C1' PXY d   1       1.970  -2.513   0.289  0.00  0.00     0.077 C 
ATOM      3  C1  PXY d   1       0.781  -1.608   0.547  0.00  0.00    -0.082 A 
ATOM      4  C2  PXY d   1      -0.345  -2.123   1.013  0.00  0.00     0.003 A 
ATOM      5  C3  PXY d   1      -1.439  -1.325   1.222  0.00  0.00     0.003 A 
ATOM      6  C4  PXY d   1      -1.364   0.025   1.002  0.00  0.00    -0.082 A 
ATOM      7  C5  PXY d   1      -0.215   0.560   0.537  0.00  0.00     0.003 A 
ATOM      8  C6  PXY d   1       0.871  -0.274   0.292  0.00  0.00     0.003 A 
ENDROOT
TORSDOF 0
ENDMDL
