MODEL 1
REMARK minimizedAffinity -4.02270079
REMARK minimizedRMSD -1
REMARK  0 active torsions:
REMARK  status: ('A' for Active; 'I' for Inactive)
ROOT
ATOM      1  C4' PXY d   1       1.391   1.455  -0.466  0.00  0.00     0.077 C 
ATOM      2  C1' PXY d   1      -2.243  -2.693   1.266  0.00  0.00     0.077 C 
ATOM      3  C1  PXY d   1      -1.280  -1.613   0.815  0.00  0.00    -0.082 A 
ATOM      4  C2  PXY d   1      -1.681  -0.352   0.779  0.00  0.00     0.003 A 
ATOM      5  C3  PXY d   1      -0.833   0.633   0.344  0.00  0.00     0.003 A 
ATOM      6  C4  PXY d   1       0.456   0.333  -0.009  0.00  0.00    -0.082 A 
ATOM      7  C5  PXY d   1       0.876  -0.949   0.035  0.00  0.00     0.003 A 
ATOM      8  C6  PXY d   1      -0.013  -1.941   0.441  0.00  0.00     0.003 A 
ENDROOT
TORSDOF 0
ENDMDL
