MODEL 1
REMARK minimizedAffinity -4.60968208
REMARK minimizedRMSD -1
REMARK  0 active torsions:
REMARK  status: ('A' for Active; 'I' for Inactive)
ROOT
ATOM      1  C4' PXY d   1       1.194   1.549  -1.958  0.00  0.00     0.077 C 
ATOM      2  C1' PXY d   1      -0.390  -2.627   1.712  0.00  0.00     0.077 C 
ATOM      3  C1  PXY d   1       0.013  -1.528   0.749  0.00  0.00    -0.082 A 
ATOM      4  C2  PXY d   1       1.127  -1.651   0.046  0.00  0.00     0.003 A 
ATOM      5  C3  PXY d   1       1.523  -0.652  -0.806  0.00  0.00     0.003 A 
ATOM      6  C4  PXY d   1       0.743   0.460  -0.980  0.00  0.00    -0.082 A 
ATOM      7  C5  PXY d   1      -0.400   0.587  -0.275  0.00  0.00     0.003 A 
ATOM      8  C6  PXY d   1      -0.764  -0.419   0.616  0.00  0.00     0.003 A 
ENDROOT
TORSDOF 0
ENDMDL
