MODEL 1
REMARK minimizedAffinity -2.16890979
REMARK minimizedRMSD -1
REMARK  0 active torsions:
REMARK  status: ('A' for Active; 'I' for Inactive)
ROOT
ATOM      1  C4' PXY d   1       2.244  -1.193   0.410  0.00  0.00     0.077 C 
ATOM      2  C1' PXY d   1      -2.434   2.200   0.519  0.00  0.00     0.077 C 
ATOM      3  C1  PXY d   1      -1.213   1.301   0.497  0.00  0.00    -0.082 A 
ATOM      4  C2  PXY d   1      -0.015   1.830   0.313  0.00  0.00     0.003 A 
ATOM      5  C3  PXY d   1       1.096   1.028   0.258  0.00  0.00     0.003 A 
ATOM      6  C4  PXY d   1       0.985  -0.323   0.448  0.00  0.00    -0.082 A 
ATOM      7  C5  PXY d   1      -0.233  -0.869   0.648  0.00  0.00     0.003 A 
ATOM      8  C6  PXY d   1      -1.353  -0.043   0.658  0.00  0.00     0.003 A 
ENDROOT
TORSDOF 0
ENDMDL
