MODEL 1
REMARK minimizedAffinity -4.72441483
REMARK minimizedRMSD -1
REMARK  0 active torsions:
REMARK  status: ('A' for Active; 'I' for Inactive)
ROOT
ATOM      1  C4' PXY d   1       1.399   1.719  -1.851  0.00  0.00     0.077 C 
ATOM      2  C1' PXY d   1      -0.578  -2.403   1.688  0.00  0.00     0.077 C 
ATOM      3  C1  PXY d   1      -0.050  -1.330   0.756  0.00  0.00    -0.082 A 
ATOM      4  C2  PXY d   1      -0.358  -0.062   0.977  0.00  0.00     0.003 A 
ATOM      5  C3  PXY d   1       0.086   0.918   0.127  0.00  0.00     0.003 A 
ATOM      6  C4  PXY d   1       0.896   0.603  -0.931  0.00  0.00    -0.082 A 
ATOM      7  C5  PXY d   1       1.223  -0.687  -1.157  0.00  0.00     0.003 A 
ATOM      8  C6  PXY d   1       0.729  -1.671  -0.306  0.00  0.00     0.003 A 
ENDROOT
TORSDOF 0
ENDMDL
