MODEL 1
REMARK minimizedAffinity -5.05351734
REMARK minimizedRMSD -1
REMARK  0 active torsions:
REMARK  status: ('A' for Active; 'I' for Inactive)
ROOT
ATOM      1  C4' PXY d   1      -2.400  -2.498   1.663  0.00  0.00     0.077 C 
ATOM      2  C1' PXY d   1       1.360   0.934  -1.077  0.00  0.00     0.077 C 
ATOM      3  C1  PXY d   1       0.381   0.024  -0.361  0.00  0.00    -0.082 A 
ATOM      4  C2  PXY d   1      -0.887   0.383  -0.252  0.00  0.00     0.003 A 
ATOM      5  C3  PXY d   1      -1.779  -0.413   0.420  0.00  0.00     0.003 A 
ATOM      6  C4  PXY d   1      -1.379  -1.615   0.940  0.00  0.00    -0.082 A 
ATOM      7  C5  PXY d   1      -0.088  -1.993   0.825  0.00  0.00     0.003 A 
ATOM      8  C6  PXY d   1       0.810  -1.152   0.175  0.00  0.00     0.003 A 
ENDROOT
TORSDOF 0
ENDMDL
