MODEL 1
REMARK minimizedAffinity -5.17357874
REMARK minimizedRMSD -1
REMARK  0 active torsions:
REMARK  status: ('A' for Active; 'I' for Inactive)
ROOT
ATOM      1  C4' PXY d   1      -2.101  -2.682   1.897  0.00  0.00     0.077 C 
ATOM      2  C1' PXY d   1       0.927   1.438  -0.800  0.00  0.00     0.077 C 
ATOM      3  C1  PXY d   1       0.140   0.349  -0.099  0.00  0.00    -0.082 A 
ATOM      4  C2  PXY d   1      -1.086   0.601   0.332  0.00  0.00     0.003 A 
ATOM      5  C3  PXY d   1      -1.799  -0.363   0.996  0.00  0.00     0.003 A 
ATOM      6  C4  PXY d   1      -1.273  -1.615   1.175  0.00  0.00    -0.082 A 
ATOM      7  C5  PXY d   1      -0.028  -1.883   0.729  0.00  0.00     0.003 A 
ATOM      8  C6  PXY d   1       0.696  -0.878   0.093  0.00  0.00     0.003 A 
ENDROOT
TORSDOF 0
ENDMDL
