MODEL 1
REMARK minimizedAffinity -4.59811783
REMARK minimizedRMSD -1
REMARK  0 active torsions:
REMARK  status: ('A' for Active; 'I' for Inactive)
ROOT
ATOM      1  C4' PXY d   1       1.554   1.054  -0.742  0.00  0.00     0.077 C 
ATOM      2  C1' PXY d   1      -2.274  -2.606   1.574  0.00  0.00     0.077 C 
ATOM      3  C1  PXY d   1      -1.280  -1.639   0.962  0.00  0.00    -0.082 A 
ATOM      4  C2  PXY d   1      -0.053  -2.049   0.687  0.00  0.00     0.003 A 
ATOM      5  C3  PXY d   1       0.869  -1.179   0.163  0.00  0.00     0.003 A 
ATOM      6  C4  PXY d   1       0.514   0.110  -0.132  0.00  0.00    -0.082 A 
ATOM      7  C5  PXY d   1      -0.739   0.533   0.136  0.00  0.00     0.003 A 
ATOM      8  C6  PXY d   1      -1.647  -0.354   0.706  0.00  0.00     0.003 A 
ENDROOT
TORSDOF 0
ENDMDL
