MODEL 1
REMARK minimizedAffinity -2.66489005
REMARK minimizedRMSD -1
REMARK  0 active torsions:
REMARK  status: ('A' for Active; 'I' for Inactive)
ROOT
ATOM      1  C4' PXY d   1       1.361   1.735  -1.813  0.00  0.00     0.077 C 
ATOM      2  C1' PXY d   1      -0.856  -2.479   1.465  0.00  0.00     0.077 C 
ATOM      3  C1  PXY d   1      -0.285  -1.366   0.607  0.00  0.00    -0.082 A 
ATOM      4  C2  PXY d   1       0.632  -1.648  -0.304  0.00  0.00     0.003 A 
ATOM      5  C3  PXY d   1       1.182  -0.650  -1.067  0.00  0.00     0.003 A 
ATOM      6  C4  PXY d   1       0.750   0.643  -0.931  0.00  0.00    -0.082 A 
ATOM      7  C5  PXY d   1      -0.193   0.937  -0.011  0.00  0.00     0.003 A 
ATOM      8  C6  PXY d   1      -0.709  -0.085   0.781  0.00  0.00     0.003 A 
ENDROOT
TORSDOF 0
ENDMDL
