MODEL 1
REMARK minimizedAffinity -4.31354141
REMARK minimizedRMSD -1
REMARK  0 active torsions:
REMARK  status: ('A' for Active; 'I' for Inactive)
ROOT
ATOM      1  C4' PXY d   1       1.095   1.617  -0.420  0.00  0.00     0.077 C 
ATOM      2  C1' PXY d   1      -2.158  -3.015   0.754  0.00  0.00     0.077 C 
ATOM      3  C1  PXY d   1      -1.295  -1.805   0.452  0.00  0.00    -0.082 A 
ATOM      4  C2  PXY d   1      -1.869  -0.644   0.180  0.00  0.00     0.003 A 
ATOM      5  C3  PXY d   1      -1.104   0.452  -0.126  0.00  0.00     0.003 A 
ATOM      6  C4  PXY d   1       0.263   0.372  -0.101  0.00  0.00    -0.082 A 
ATOM      7  C5  PXY d   1       0.855  -0.806   0.187  0.00  0.00     0.003 A 
ATOM      8  C6  PXY d   1       0.061  -1.917   0.454  0.00  0.00     0.003 A 
ENDROOT
TORSDOF 0
ENDMDL
