MODEL 1
REMARK minimizedAffinity 7.39178419
REMARK minimizedRMSD -1
REMARK  2 active torsions:
REMARK  status: ('A' for Active; 'I' for Inactive)
REMARK    1  A    between atoms: C2'_3  and  C1'_4 
REMARK    2  A    between atoms: C1'_4  and  C1_5 
ROOT
ATOM      1  C1  I4B d   1       3.097   3.700  -5.992  0.00  0.00    -0.075 A 
ATOM      2  C2  I4B d   1       2.803   5.041  -5.994  0.00  0.00     0.003 A 
ATOM      3  C3  I4B d   1       3.846   5.999  -5.969  0.00  0.00     0.002 A 
ATOM      4  C4  I4B d   1       5.157   5.576  -5.894  0.00  0.00    -0.004 A 
ATOM      5  C5  I4B d   1       5.454   4.216  -5.916  0.00  0.00     0.002 A 
ATOM      6  C6  I4B d   1       4.418   3.272  -5.978  0.00  0.00     0.003 A 
ENDROOT
BRANCH   1   7
ATOM      7  C1' I4B d   1       1.971   2.716  -5.985  0.00  0.00     0.060 C 
BRANCH   7   8
ATOM      8  C2' I4B d   1       0.850   3.295  -5.148  0.00  0.00    -0.013 C 
ATOM      9  C4' I4B d   1      -0.349   3.628  -5.997  0.00  0.00     0.013 C 
ATOM     10  C3' I4B d   1       0.500   2.296  -4.086  0.00  0.00     0.013 C 
ENDBRANCH   7   8
ENDBRANCH   1   7
TORSDOF 2
ENDMDL
