MODEL 1
REMARK minimizedAffinity 8.72225952
REMARK minimizedRMSD -1
REMARK  2 active torsions:
REMARK  status: ('A' for Active; 'I' for Inactive)
REMARK    1  A    between atoms: C2'_3  and  C1'_4 
REMARK    2  A    between atoms: C1'_4  and  C1_5 
ROOT
ATOM      1  C1  I4B d   1       0.901   2.794  -3.151  0.00  0.00    -0.075 A 
ATOM      2  C2  I4B d   1       1.648   1.877  -3.847  0.00  0.00     0.003 A 
ATOM      3  C3  I4B d   1       2.227   0.772  -3.176  0.00  0.00     0.002 A 
ATOM      4  C4  I4B d   1       2.076   0.652  -1.810  0.00  0.00    -0.004 A 
ATOM      5  C5  I4B d   1       1.299   1.571  -1.109  0.00  0.00     0.002 A 
ATOM      6  C6  I4B d   1       0.697   2.642  -1.786  0.00  0.00     0.003 A 
ENDROOT
BRANCH   1   7
ATOM      7  C1' I4B d   1       0.331   3.966  -3.885  0.00  0.00     0.060 C 
BRANCH   7   8
ATOM      8  C2' I4B d   1       0.475   3.701  -5.370  0.00  0.00    -0.013 C 
ATOM      9  C4' I4B d   1      -0.857   3.390  -6.000  0.00  0.00     0.013 C 
ATOM     10  C3' I4B d   1       1.101   4.911  -5.998  0.00  0.00     0.013 C 
ENDBRANCH   7   8
ENDBRANCH   1   7
TORSDOF 2
ENDMDL
