MODEL 1
REMARK minimizedAffinity 5.54297876
REMARK minimizedRMSD -1
REMARK  2 active torsions:
REMARK  status: ('A' for Active; 'I' for Inactive)
REMARK    1  A    between atoms: C2'_3  and  C1'_4 
REMARK    2  A    between atoms: C1'_4  and  C1_5 
ROOT
ATOM      1  C1  I4B d   1      -1.823   4.597  -5.902  0.00  0.00    -0.075 A 
ATOM      2  C2  I4B d   1      -1.412   3.287  -5.892  0.00  0.00     0.003 A 
ATOM      3  C3  I4B d   1      -0.033   2.973  -5.835  0.00  0.00     0.002 A 
ATOM      4  C4  I4B d   1       0.897   3.992  -5.841  0.00  0.00    -0.004 A 
ATOM      5  C5  I4B d   1       0.479   5.320  -5.828  0.00  0.00     0.002 A 
ATOM      6  C6  I4B d   1      -0.890   5.624  -5.846  0.00  0.00     0.003 A 
ENDROOT
BRANCH   1   7
ATOM      7  C1' I4B d   1      -3.286   4.893  -5.995  0.00  0.00     0.060 C 
BRANCH   7   8
ATOM      8  C2' I4B d   1      -4.030   3.573  -5.998  0.00  0.00    -0.013 C 
ATOM      9  C4' I4B d   1      -3.621   2.714  -4.830  0.00  0.00     0.013 C 
ATOM     10  C3' I4B d   1      -5.499   3.870  -5.963  0.00  0.00     0.013 C 
ENDBRANCH   7   8
ENDBRANCH   1   7
TORSDOF 2
ENDMDL
