MODEL 1
REMARK minimizedAffinity 16.0424786
REMARK minimizedRMSD -1
REMARK  2 active torsions:
REMARK  status: ('A' for Active; 'I' for Inactive)
REMARK    1  A    between atoms: C2'_3  and  C1'_4 
REMARK    2  A    between atoms: C1'_4  and  C1_5 
ROOT
ATOM      1  C1  I4B d   1      -3.369  -3.397  -0.306  0.00  0.00    -0.075 A 
ATOM      2  C2  I4B d   1      -2.744  -3.956  -1.393  0.00  0.00     0.003 A 
ATOM      3  C3  I4B d   1      -3.075  -5.269  -1.808  0.00  0.00     0.002 A 
ATOM      4  C4  I4B d   1      -3.992  -6.000  -1.081  0.00  0.00    -0.004 A 
ATOM      5  C5  I4B d   1      -4.641  -5.423   0.007  0.00  0.00     0.002 A 
ATOM      6  C6  I4B d   1      -4.337  -4.109   0.390  0.00  0.00     0.003 A 
ENDROOT
BRANCH   1   7
ATOM      7  C1' I4B d   1      -2.971  -2.020   0.125  0.00  0.00     0.060 C 
BRANCH   7   8
ATOM      8  C2' I4B d   1      -2.522  -2.095   1.570  0.00  0.00    -0.013 C 
ATOM      9  C4' I4B d   1      -1.037  -2.328   1.668  0.00  0.00     0.013 C 
ATOM     10  C3' I4B d   1      -2.914  -0.813   2.243  0.00  0.00     0.013 C 
ENDBRANCH   7   8
ENDBRANCH   1   7
TORSDOF 2
ENDMDL
