MODEL 1
REMARK minimizedAffinity 11.6551075
REMARK minimizedRMSD -1
REMARK  2 active torsions:
REMARK  status: ('A' for Active; 'I' for Inactive)
REMARK    1  A    between atoms: C2'_3  and  C1'_4 
REMARK    2  A    between atoms: C1'_4  and  C1_5 
ROOT
ATOM      1  C1  I4B d   1      -1.530  -4.221   4.831  0.00  0.00    -0.075 A 
ATOM      2  C2  I4B d   1      -2.117  -3.014   4.543  0.00  0.00     0.003 A 
ATOM      3  C3  I4B d   1      -3.429  -2.733   4.996  0.00  0.00     0.002 A 
ATOM      4  C4  I4B d   1      -4.131  -3.700   5.687  0.00  0.00    -0.004 A 
ATOM      5  C5  I4B d   1      -3.526  -4.914   5.998  0.00  0.00     0.002 A 
ATOM      6  C6  I4B d   1      -2.213  -5.172   5.579  0.00  0.00     0.003 A 
ENDROOT
BRANCH   1   7
ATOM      7  C1' I4B d   1      -0.156  -4.497   4.309  0.00  0.00     0.060 C 
BRANCH   7   8
ATOM      8  C2' I4B d   1      -0.202  -4.393   2.798  0.00  0.00    -0.013 C 
ATOM      9  C4' I4B d   1       0.072  -2.985   2.340  0.00  0.00     0.013 C 
ATOM     10  C3' I4B d   1       0.808  -5.350   2.238  0.00  0.00     0.013 C 
ENDBRANCH   7   8
ENDBRANCH   1   7
TORSDOF 2
ENDMDL
