MODEL 1
REMARK minimizedAffinity 14.5622826
REMARK minimizedRMSD -1
REMARK  2 active torsions:
REMARK  status: ('A' for Active; 'I' for Inactive)
REMARK    1  A    between atoms: C2'_3  and  C1'_4 
REMARK    2  A    between atoms: C1'_4  and  C1_5 
ROOT
ATOM      1  C1  I4B d   1      -3.198   0.475   1.104  0.00  0.00    -0.075 A 
ATOM      2  C2  I4B d   1      -2.153   1.283   0.731  0.00  0.00     0.003 A 
ATOM      3  C3  I4B d   1      -2.391   2.446  -0.040  0.00  0.00     0.002 A 
ATOM      4  C4  I4B d   1      -3.674   2.734  -0.457  0.00  0.00    -0.004 A 
ATOM      5  C5  I4B d   1      -4.736   1.926  -0.059  0.00  0.00     0.002 A 
ATOM      6  C6  I4B d   1      -4.498   0.796   0.737  0.00  0.00     0.003 A 
ENDROOT
BRANCH   1   7
ATOM      7  C1' I4B d   1      -2.906  -0.763   1.891  0.00  0.00     0.060 C 
BRANCH   7   8
ATOM      8  C2' I4B d   1      -2.055  -1.674   1.030  0.00  0.00    -0.013 C 
ATOM      9  C4' I4B d   1      -1.151  -2.534   1.874  0.00  0.00     0.013 C 
ATOM     10  C3' I4B d   1      -2.975  -2.513   0.194  0.00  0.00     0.013 C 
ENDBRANCH   7   8
ENDBRANCH   1   7
TORSDOF 2
ENDMDL
