MODEL 1
REMARK minimizedAffinity 17.7786751
REMARK minimizedRMSD -1
REMARK  2 active torsions:
REMARK  status: ('A' for Active; 'I' for Inactive)
REMARK    1  A    between atoms: C2'_3  and  C1'_4 
REMARK    2  A    between atoms: C1'_4  and  C1_5 
ROOT
ATOM      1  C1  I4B d   1       3.859   3.112  -1.900  0.00  0.00    -0.075 A 
ATOM      2  C2  I4B d   1       3.799   2.455  -3.104  0.00  0.00     0.003 A 
ATOM      3  C3  I4B d   1       2.568   1.931  -3.569  0.00  0.00     0.002 A 
ATOM      4  C4  I4B d   1       1.441   2.041  -2.781  0.00  0.00    -0.004 A 
ATOM      5  C5  I4B d   1       1.499   2.728  -1.571  0.00  0.00     0.002 A 
ATOM      6  C6  I4B d   1       2.713   3.278  -1.134  0.00  0.00     0.003 A 
ENDROOT
BRANCH   1   7
ATOM      7  C1' I4B d   1       5.181   3.624  -1.424  0.00  0.00     0.060 C 
BRANCH   7   8
ATOM      8  C2' I4B d   1       4.923   4.629  -0.320  0.00  0.00    -0.013 C 
ATOM      9  C4' I4B d   1       5.954   4.518   0.771  0.00  0.00     0.013 C 
ATOM     10  C3' I4B d   1       4.927   5.999  -0.931  0.00  0.00     0.013 C 
ENDBRANCH   7   8
ENDBRANCH   1   7
TORSDOF 2
ENDMDL
