MODEL 1
REMARK minimizedAffinity 10.6816292
REMARK minimizedRMSD -1
REMARK  2 active torsions:
REMARK  status: ('A' for Active; 'I' for Inactive)
REMARK    1  A    between atoms: C2'_3  and  C1'_4 
REMARK    2  A    between atoms: C1'_4  and  C1_5 
ROOT
ATOM      1  C1  I4B d   1      -1.548  -3.294   3.275  0.00  0.00    -0.075 A 
ATOM      2  C2  I4B d   1      -2.333  -2.227   2.913  0.00  0.00     0.003 A 
ATOM      3  C3  I4B d   1      -3.476  -1.891   3.678  0.00  0.00     0.002 A 
ATOM      4  C4  I4B d   1      -3.823  -2.673   4.761  0.00  0.00    -0.004 A 
ATOM      5  C5  I4B d   1      -3.013  -3.740   5.140  0.00  0.00     0.002 A 
ATOM      6  C6  I4B d   1      -1.862  -4.045   4.400  0.00  0.00     0.003 A 
ENDROOT
BRANCH   1   7
ATOM      7  C1' I4B d   1      -0.367  -3.640   2.426  0.00  0.00     0.060 C 
BRANCH   7   8
ATOM      8  C2' I4B d   1       0.215  -4.940   2.943  0.00  0.00    -0.013 C 
ATOM      9  C4' I4B d   1       0.638  -5.838   1.810  0.00  0.00     0.013 C 
ATOM     10  C3' I4B d   1       1.376  -4.606   3.832  0.00  0.00     0.013 C 
ENDBRANCH   7   8
ENDBRANCH   1   7
TORSDOF 2
ENDMDL
