MODEL 1
REMARK minimizedAffinity -0.928664982
REMARK minimizedRMSD -1
REMARK  2 active torsions:
REMARK  status: ('A' for Active; 'I' for Inactive)
REMARK    1  A    between atoms: C2'_3  and  C1'_4 
REMARK    2  A    between atoms: C1'_4  and  C1_5 
ROOT
ATOM      1  C1  I4B d   1       1.869   4.075  -4.362  0.00  0.00    -0.075 A 
ATOM      2  C2  I4B d   1       3.165   4.468  -4.135  0.00  0.00     0.003 A 
ATOM      3  C3  I4B d   1       3.811   4.129  -2.921  0.00  0.00     0.002 A 
ATOM      4  C4  I4B d   1       3.113   3.444  -1.948  0.00  0.00    -0.004 A 
ATOM      5  C5  I4B d   1       1.807   3.025  -2.189  0.00  0.00     0.002 A 
ATOM      6  C6  I4B d   1       1.185   3.332  -3.408  0.00  0.00     0.003 A 
ENDROOT
BRANCH   1   7
ATOM      7  C1' I4B d   1       1.207   4.479  -5.640  0.00  0.00     0.060 C 
BRANCH   7   8
ATOM      8  C2' I4B d   1      -0.269   4.677  -5.359  0.00  0.00    -0.013 C 
ATOM      9  C4' I4B d   1      -0.753   6.000  -5.892  0.00  0.00     0.013 C 
ATOM     10  C3' I4B d   1      -1.016   3.536  -5.982  0.00  0.00     0.013 C 
ENDBRANCH   7   8
ENDBRANCH   1   7
TORSDOF 2
ENDMDL
