MODEL 1
REMARK minimizedAffinity 6.62751436
REMARK minimizedRMSD -1
REMARK  2 active torsions:
REMARK  status: ('A' for Active; 'I' for Inactive)
REMARK    1  A    between atoms: C2'_3  and  C1'_4 
REMARK    2  A    between atoms: C1'_4  and  C1_5 
ROOT
ATOM      1  C1  I4B d   1       0.822   2.968  -5.112  0.00  0.00    -0.075 A 
ATOM      2  C2  I4B d   1       0.950   4.256  -5.570  0.00  0.00     0.003 A 
ATOM      3  C3  I4B d   1      -0.192   4.977  -5.996  0.00  0.00     0.002 A 
ATOM      4  C4  I4B d   1      -1.425   4.359  -5.996  0.00  0.00    -0.004 A 
ATOM      5  C5  I4B d   1      -1.556   3.061  -5.510  0.00  0.00     0.002 A 
ATOM      6  C6  I4B d   1      -0.428   2.365  -5.054  0.00  0.00     0.003 A 
ENDROOT
BRANCH   1   7
ATOM      7  C1' I4B d   1       2.053   2.225  -4.700  0.00  0.00     0.060 C 
BRANCH   7   8
ATOM      8  C2' I4B d   1       1.775   1.565  -3.365  0.00  0.00    -0.013 C 
ATOM      9  C4' I4B d   1       2.535   0.272  -3.226  0.00  0.00     0.013 C 
ATOM     10  C3' I4B d   1       2.152   2.533  -2.283  0.00  0.00     0.013 C 
ENDBRANCH   7   8
ENDBRANCH   1   7
TORSDOF 2
ENDMDL
