MODEL 1
REMARK minimizedAffinity 10.8827381
REMARK minimizedRMSD -1
REMARK  2 active torsions:
REMARK  status: ('A' for Active; 'I' for Inactive)
REMARK    1  A    between atoms: C2'_3  and  C1'_4 
REMARK    2  A    between atoms: C1'_4  and  C1_5 
ROOT
ATOM      1  C1  I4B d   1      -0.821   3.589  -5.030  0.00  0.00    -0.075 A 
ATOM      2  C2  I4B d   1      -2.112   3.646  -5.493  0.00  0.00     0.003 A 
ATOM      3  C3  I4B d   1      -2.634   4.861  -5.999  0.00  0.00     0.002 A 
ATOM      4  C4  I4B d   1      -1.853   5.998  -5.977  0.00  0.00    -0.004 A 
ATOM      5  C5  I4B d   1      -0.537   5.933  -5.529  0.00  0.00     0.002 A 
ATOM      6  C6  I4B d   1      -0.013   4.718  -5.064  0.00  0.00     0.003 A 
ENDROOT
BRANCH   1   7
ATOM      7  C1' I4B d   1      -0.312   2.298  -4.472  0.00  0.00     0.060 C 
BRANCH   7   8
ATOM      8  C2' I4B d   1       0.978   2.586  -3.731  0.00  0.00    -0.013 C 
ATOM      9  C4' I4B d   1       0.712   2.944  -2.293  0.00  0.00     0.013 C 
ATOM     10  C3' I4B d   1       1.852   1.371  -3.834  0.00  0.00     0.013 C 
ENDBRANCH   7   8
ENDBRANCH   1   7
TORSDOF 2
ENDMDL
