MODEL 1
REMARK minimizedAffinity 10.6656828
REMARK minimizedRMSD -1
REMARK  2 active torsions:
REMARK  status: ('A' for Active; 'I' for Inactive)
REMARK    1  A    between atoms: C2'_3  and  C1'_4 
REMARK    2  A    between atoms: C1'_4  and  C1_5 
ROOT
ATOM      1  C1  I4B d   1      -3.736   2.960  -4.827  0.00  0.00    -0.075 A 
ATOM      2  C2  I4B d   1      -4.539   3.084  -3.721  0.00  0.00     0.003 A 
ATOM      3  C3  I4B d   1      -5.656   3.955  -3.746  0.00  0.00     0.002 A 
ATOM      4  C4  I4B d   1      -5.902   4.714  -4.871  0.00  0.00    -0.004 A 
ATOM      5  C5  I4B d   1      -5.100   4.569  -6.000  0.00  0.00     0.002 A 
ATOM      6  C6  I4B d   1      -4.017   3.678  -5.983  0.00  0.00     0.003 A 
ENDROOT
BRANCH   1   7
ATOM      7  C1' I4B d   1      -2.546   2.057  -4.756  0.00  0.00     0.060 C 
BRANCH   7   8
ATOM      8  C2' I4B d   1      -1.307   2.924  -4.666  0.00  0.00    -0.013 C 
ATOM      9  C4' I4B d   1      -0.083   2.097  -4.369  0.00  0.00     0.013 C 
ATOM     10  C3' I4B d   1      -1.161   3.659  -5.965  0.00  0.00     0.013 C 
ENDBRANCH   7   8
ENDBRANCH   1   7
TORSDOF 2
ENDMDL
