MODEL 1
REMARK minimizedAffinity 2.15822959
REMARK minimizedRMSD -1
REMARK  2 active torsions:
REMARK  status: ('A' for Active; 'I' for Inactive)
REMARK    1  A    between atoms: C2'_3  and  C1'_4 
REMARK    2  A    between atoms: C1'_4  and  C1_5 
ROOT
ATOM      1  C1  I4B d   1      -2.362   4.892  -5.846  0.00  0.00    -0.075 A 
ATOM      2  C2  I4B d   1      -2.613   3.543  -5.836  0.00  0.00     0.003 A 
ATOM      3  C3  I4B d   1      -1.544   2.619  -5.739  0.00  0.00     0.002 A 
ATOM      4  C4  I4B d   1      -0.245   3.085  -5.706  0.00  0.00    -0.004 A 
ATOM      5  C5  I4B d   1       0.006   4.454  -5.694  0.00  0.00     0.002 A 
ATOM      6  C6  I4B d   1      -1.059   5.364  -5.752  0.00  0.00     0.003 A 
ENDROOT
BRANCH   1   7
ATOM      7  C1' I4B d   1      -3.513   5.838  -5.983  0.00  0.00     0.060 C 
BRANCH   7   8
ATOM      8  C2' I4B d   1      -4.789   5.022  -5.997  0.00  0.00    -0.013 C 
ATOM      9  C4' I4B d   1      -4.850   4.085  -4.819  0.00  0.00     0.013 C 
ATOM     10  C3' I4B d   1      -5.948   5.974  -5.992  0.00  0.00     0.013 C 
ENDBRANCH   7   8
ENDBRANCH   1   7
TORSDOF 2
ENDMDL
