MODEL 1
REMARK minimizedAffinity 12.0289011
REMARK minimizedRMSD -1
REMARK  2 active torsions:
REMARK  status: ('A' for Active; 'I' for Inactive)
REMARK    1  A    between atoms: C2'_3  and  C1'_4 
REMARK    2  A    between atoms: C1'_4  and  C1_5 
ROOT
ATOM      1  C1  I4B d   1      -0.362   2.533  -4.727  0.00  0.00    -0.075 A 
ATOM      2  C2  I4B d   1      -1.633   2.560  -5.246  0.00  0.00     0.003 A 
ATOM      3  C3  I4B d   1      -2.105   3.715  -5.916  0.00  0.00     0.002 A 
ATOM      4  C4  I4B d   1      -1.296   4.830  -6.000  0.00  0.00    -0.004 A 
ATOM      5  C5  I4B d   1      -0.000   4.793  -5.493  0.00  0.00     0.002 A 
ATOM      6  C6  I4B d   1       0.475   3.633  -4.863  0.00  0.00     0.003 A 
ENDROOT
BRANCH   1   7
ATOM      7  C1' I4B d   1       0.092   1.309  -3.996  0.00  0.00     0.060 C 
BRANCH   7   8
ATOM      8  C2' I4B d   1       1.484   1.575  -3.461  0.00  0.00    -0.013 C 
ATOM      9  C4' I4B d   1       1.491   1.615  -1.956  0.00  0.00     0.013 C 
ATOM     10  C3' I4B d   1       2.392   0.499  -3.979  0.00  0.00     0.013 C 
ENDBRANCH   7   8
ENDBRANCH   1   7
TORSDOF 2
ENDMDL
