MODEL 1
REMARK minimizedAffinity -5.34395981
REMARK minimizedRMSD -1
REMARK  0 active torsions:
REMARK  status: ('A' for Active; 'I' for Inactive)
ROOT
ATOM      1  O1  BZF d   1       0.541  -1.787   2.027  0.00  0.00    -0.204 OA
ATOM      2  C2  BZF d   1       1.365  -2.299   3.011  0.00  0.00     0.174 A 
ATOM      3  C3  BZF d   1       2.609  -1.789   2.907  0.00  0.00    -0.012 A 
ATOM      4  C3A BZF d   1       2.536  -0.833   1.845  0.00  0.00    -0.107 A 
ATOM      5  C4  BZF d   1       3.447   0.013   1.279  0.00  0.00     0.055 A 
ATOM      6  C5  BZF d   1       3.074   0.765   0.210  0.00  0.00    -0.016 A 
ATOM      7  C6  BZF d   1       1.803   0.692  -0.321  0.00  0.00     0.022 A 
ATOM      8  C7  BZF d   1       0.864  -0.128   0.209  0.00  0.00     0.029 A 
ATOM      9  C7A BZF d   1       1.227  -0.865   1.310  0.00  0.00     0.058 A 
ENDROOT
TORSDOF 0
ENDMDL
