MODEL 1
REMARK minimizedAffinity -5.76397753
REMARK minimizedRMSD -1
REMARK  0 active torsions:
REMARK  status: ('A' for Active; 'I' for Inactive)
ROOT
ATOM      1  O1  BZF d   1      -0.409  -0.673   1.176  0.00  0.00    -0.204 OA
ATOM      2  C2  BZF d   1      -0.603   0.350   0.268  0.00  0.00     0.174 A 
ATOM      3  C3  BZF d   1       0.577   0.821  -0.183  0.00  0.00    -0.012 A 
ATOM      4  C3A BZF d   1       1.570  -0.019   0.415  0.00  0.00    -0.107 A 
ATOM      5  C4  BZF d   1       2.933  -0.061   0.339  0.00  0.00     0.055 A 
ATOM      6  C5  BZF d   1       3.609  -0.957   1.105  0.00  0.00    -0.016 A 
ATOM      7  C6  BZF d   1       2.956  -1.821   1.960  0.00  0.00     0.022 A 
ATOM      8  C7  BZF d   1       1.605  -1.819   2.066  0.00  0.00     0.029 A 
ATOM      9  C7A BZF d   1       0.917  -0.937   1.269  0.00  0.00     0.058 A 
ENDROOT
TORSDOF 0
ENDMDL
