MODEL 1
REMARK minimizedAffinity -2.95008683
REMARK minimizedRMSD -1
REMARK  0 active torsions:
REMARK  status: ('A' for Active; 'I' for Inactive)
ROOT
ATOM      1  O1  BZF d   1      -0.919  -0.477   0.355  0.00  0.00    -0.204 OA
ATOM      2  C2  BZF d   1      -1.133   0.737  -0.268  0.00  0.00     0.174 A 
ATOM      3  C3  BZF d   1      -0.017   1.494  -0.238  0.00  0.00    -0.012 A 
ATOM      4  C3A BZF d   1       0.983   0.666   0.365  0.00  0.00    -0.107 A 
ATOM      5  C4  BZF d   1       2.304   0.850   0.656  0.00  0.00     0.055 A 
ATOM      6  C5  BZF d   1       2.978  -0.130   1.313  0.00  0.00    -0.016 A 
ATOM      7  C6  BZF d   1       2.363  -1.303   1.697  0.00  0.00     0.022 A 
ATOM      8  C7  BZF d   1       1.055  -1.534   1.426  0.00  0.00     0.029 A 
ATOM      9  C7A BZF d   1       0.379  -0.559   0.734  0.00  0.00     0.058 A 
ENDROOT
TORSDOF 0
ENDMDL
