MODEL 1
REMARK minimizedAffinity 0.95637852
REMARK minimizedRMSD -1
REMARK  0 active torsions:
REMARK  status: ('A' for Active; 'I' for Inactive)
ROOT
ATOM      1  C   UNL d   1       1.186   3.470  -0.244  0.00  0.00    -0.002 A 
ATOM      2  C1  UNL d   1       0.061   3.761   0.515  0.00  0.00     0.010 A 
ATOM      3  C2  UNL d   1      -0.812   2.745   0.908  0.00  0.00     0.041 A 
ATOM      4  C3  UNL d   1      -0.532   1.419   0.524  0.00  0.00    -0.075 A 
ATOM      5  S   UNL d   1      -1.459   0.012   0.891  0.00  0.00     0.015 SA
ATOM      6  C4  UNL d   1      -0.383  -1.007   0.051  0.00  0.00     0.022 A 
ATOM      7  C5  UNL d   1       0.663  -0.309  -0.503  0.00  0.00     0.026 A 
ATOM      8  C6  UNL d   1       0.595   1.101  -0.239  0.00  0.00    -0.082 A 
ATOM      9  C7  UNL d   1       1.461   2.154  -0.623  0.00  0.00     0.045 A 
ENDROOT
TORSDOF 0
ENDMDL
