MODEL 1
REMARK minimizedAffinity -4.20407486
REMARK minimizedRMSD -1
REMARK  0 active torsions:
REMARK  status: ('A' for Active; 'I' for Inactive)
ROOT
ATOM      1  C   UNL d   1      -0.625   3.130   0.165  0.00  0.00    -0.002 A 
ATOM      2  C1  UNL d   1       0.658   3.028  -0.355  0.00  0.00     0.010 A 
ATOM      3  C2  UNL d   1       1.280   1.784  -0.473  0.00  0.00     0.041 A 
ATOM      4  C3  UNL d   1       0.584   0.632  -0.057  0.00  0.00    -0.075 A 
ATOM      5  S   UNL d   1       1.146  -0.997  -0.107  0.00  0.00     0.015 SA
ATOM      6  C4  UNL d   1      -0.304  -1.597   0.559  0.00  0.00     0.022 A 
ATOM      7  C5  UNL d   1      -1.205  -0.592   0.821  0.00  0.00     0.026 A 
ATOM      8  C6  UNL d   1      -0.709   0.709   0.470  0.00  0.00    -0.082 A 
ATOM      9  C7  UNL d   1      -1.312   1.985   0.577  0.00  0.00     0.045 A 
ENDROOT
TORSDOF 0
ENDMDL
