MODEL 1
REMARK minimizedAffinity -4.59913397
REMARK minimizedRMSD -1
REMARK  0 active torsions:
REMARK  status: ('A' for Active; 'I' for Inactive)
ROOT
ATOM      1  C   UNL d   1       2.537   2.981   0.183  0.00  0.00    -0.002 A 
ATOM      2  C1  UNL d   1       1.285   3.533   0.414  0.00  0.00     0.010 A 
ATOM      3  C2  UNL d   1       0.202   2.720   0.754  0.00  0.00     0.041 A 
ATOM      4  C3  UNL d   1       0.401   1.330   0.861  0.00  0.00    -0.075 A 
ATOM      5  S   UNL d   1      -0.779   0.139   1.267  0.00  0.00     0.015 SA
ATOM      6  C4  UNL d   1       0.352  -1.130   1.144  0.00  0.00     0.022 A 
ATOM      7  C5  UNL d   1       1.603  -0.675   0.802  0.00  0.00     0.026 A 
ATOM      8  C6  UNL d   1       1.652   0.750   0.634  0.00  0.00    -0.082 A 
ATOM      9  C7  UNL d   1       2.730   1.601   0.290  0.00  0.00     0.045 A 
ENDROOT
TORSDOF 0
ENDMDL
