MODEL 1
REMARK minimizedAffinity -2.5200963
REMARK minimizedRMSD -1
REMARK  0 active torsions:
REMARK  status: ('A' for Active; 'I' for Inactive)
ROOT
ATOM      1  C   UNL d   1       2.756   2.629   1.200  0.00  0.00    -0.002 A 
ATOM      2  C1  UNL d   1       3.104   1.285   1.201  0.00  0.00     0.010 A 
ATOM      3  C2  UNL d   1       2.148   0.305   0.927  0.00  0.00     0.041 A 
ATOM      4  C3  UNL d   1       0.826   0.701   0.647  0.00  0.00    -0.075 A 
ATOM      5  S   UNL d   1      -0.512  -0.324   0.282  0.00  0.00     0.015 SA
ATOM      6  C4  UNL d   1      -1.575   0.998   0.116  0.00  0.00     0.022 A 
ATOM      7  C5  UNL d   1      -0.942   2.199   0.330  0.00  0.00     0.026 A 
ATOM      8  C6  UNL d   1       0.452   2.048   0.640  0.00  0.00    -0.082 A 
ATOM      9  C7  UNL d   1       1.443   3.018   0.923  0.00  0.00     0.045 A 
ENDROOT
TORSDOF 0
ENDMDL
