MODEL 1
REMARK minimizedAffinity -1.48919082
REMARK minimizedRMSD -1
REMARK  0 active torsions:
REMARK  status: ('A' for Active; 'I' for Inactive)
ROOT
ATOM      1  C   UNL d   1       1.947   2.987  -0.498  0.00  0.00    -0.002 A 
ATOM      2  C1  UNL d   1       2.372   1.667  -0.537  0.00  0.00     0.010 A 
ATOM      3  C2  UNL d   1       1.594   0.653   0.026  0.00  0.00     0.041 A 
ATOM      4  C3  UNL d   1       0.369   0.992   0.634  0.00  0.00    -0.075 A 
ATOM      5  S   UNL d   1      -0.749  -0.082   1.387  0.00  0.00     0.015 SA
ATOM      6  C4  UNL d   1      -1.818   1.187   1.779  0.00  0.00     0.022 A 
ATOM      7  C5  UNL d   1      -1.348   2.407   1.353  0.00  0.00     0.026 A 
ATOM      8  C6  UNL d   1      -0.080   2.314   0.685  0.00  0.00    -0.082 A 
ATOM      9  C7  UNL d   1       0.732   3.319   0.106  0.00  0.00     0.045 A 
ENDROOT
TORSDOF 0
ENDMDL
