MODEL 1
REMARK minimizedAffinity -2.88985443
REMARK minimizedRMSD -1
REMARK  0 active torsions:
REMARK  status: ('A' for Active; 'I' for Inactive)
ROOT
ATOM      1  C   UNL d   1      -0.709   3.114   0.259  0.00  0.00    -0.002 A 
ATOM      2  C1  UNL d   1      -0.216   2.887  -1.018  0.00  0.00     0.010 A 
ATOM      3  C2  UNL d   1       0.188   1.608  -1.407  0.00  0.00     0.041 A 
ATOM      4  C3  UNL d   1       0.085   0.551  -0.482  0.00  0.00    -0.075 A 
ATOM      5  S   UNL d   1       0.519  -1.098  -0.736  0.00  0.00     0.015 SA
ATOM      6  C4  UNL d   1       0.059  -1.541   0.844  0.00  0.00     0.022 A 
ATOM      7  C5  UNL d   1      -0.416  -0.469   1.562  0.00  0.00     0.026 A 
ATOM      8  C6  UNL d   1      -0.409   0.754   0.810  0.00  0.00    -0.082 A 
ATOM      9  C7  UNL d   1      -0.810   2.063   1.174  0.00  0.00     0.045 A 
ENDROOT
TORSDOF 0
ENDMDL
