MODEL 1
REMARK minimizedAffinity -1.94187844
REMARK minimizedRMSD -1
REMARK  0 active torsions:
REMARK  status: ('A' for Active; 'I' for Inactive)
ROOT
ATOM      1  C   UNL d   1       0.135   2.797  -1.415  0.00  0.00    -0.002 A 
ATOM      2  C1  UNL d   1       0.150   2.996  -0.041  0.00  0.00     0.010 A 
ATOM      3  C2  UNL d   1       0.069   1.912   0.835  0.00  0.00     0.041 A 
ATOM      4  C3  UNL d   1      -0.027   0.611   0.302  0.00  0.00    -0.075 A 
ATOM      5  S   UNL d   1      -0.137  -0.867   1.183  0.00  0.00     0.015 SA
ATOM      6  C4  UNL d   1      -0.206  -1.798  -0.243  0.00  0.00     0.022 A 
ATOM      7  C5  UNL d   1      -0.149  -1.016  -1.373  0.00  0.00     0.026 A 
ATOM      8  C6  UNL d   1      -0.044   0.385  -1.077  0.00  0.00    -0.082 A 
ATOM      9  C7  UNL d   1       0.039   1.505  -1.939  0.00  0.00     0.045 A 
ENDROOT
TORSDOF 0
ENDMDL
