MODEL 1
REMARK minimizedAffinity -3.00067973
REMARK minimizedRMSD -1
REMARK  0 active torsions:
REMARK  status: ('A' for Active; 'I' for Inactive)
ROOT
ATOM      1  C   UNL d   1      -1.286   1.225   0.553  0.00  0.00    -0.002 A 
ATOM      2  C1  UNL d   1      -0.588   2.331   0.088  0.00  0.00     0.010 A 
ATOM      3  C2  UNL d   1       0.797   2.279  -0.075  0.00  0.00     0.041 A 
ATOM      4  C3  UNL d   1       1.476   1.085   0.237  0.00  0.00    -0.075 A 
ATOM      5  S   UNL d   1       3.170   0.790   0.115  0.00  0.00     0.015 SA
ATOM      6  C4  UNL d   1       3.008  -0.811   0.675  0.00  0.00     0.022 A 
ATOM      7  C5  UNL d   1       1.700  -1.130   0.954  0.00  0.00     0.026 A 
ATOM      8  C6  UNL d   1       0.795  -0.042   0.706  0.00  0.00    -0.082 A 
ATOM      9  C7  UNL d   1      -0.609   0.043   0.862  0.00  0.00     0.045 A 
ENDROOT
TORSDOF 0
ENDMDL
