MODEL 1
REMARK minimizedAffinity -4.06212902
REMARK minimizedRMSD -1
REMARK  0 active torsions:
REMARK  status: ('A' for Active; 'I' for Inactive)
ROOT
ATOM      1  C   UNL d   1      -1.232   3.013   0.342  0.00  0.00    -0.002 A 
ATOM      2  C1  UNL d   1       0.026   3.531   0.070  0.00  0.00     0.010 A 
ATOM      3  C2  UNL d   1       1.135   2.689  -0.030  0.00  0.00     0.041 A 
ATOM      4  C3  UNL d   1       0.957   1.303   0.147  0.00  0.00    -0.075 A 
ATOM      5  S   UNL d   1       2.169   0.080   0.068  0.00  0.00     0.015 SA
ATOM      6  C4  UNL d   1       1.046  -1.160   0.393  0.00  0.00     0.022 A 
ATOM      7  C5  UNL d   1      -0.228  -0.671   0.560  0.00  0.00     0.026 A 
ATOM      8  C6  UNL d   1      -0.300   0.757   0.421  0.00  0.00    -0.082 A 
ATOM      9  C7  UNL d   1      -1.405   1.637   0.517  0.00  0.00     0.045 A 
ENDROOT
TORSDOF 0
ENDMDL
