MODEL 1
REMARK minimizedAffinity 0.8777197
REMARK minimizedRMSD -1
REMARK  0 active torsions:
REMARK  status: ('A' for Active; 'I' for Inactive)
ROOT
ATOM      1  C   UNL d   1      -1.985   0.356   0.202  0.00  0.00    -0.002 A 
ATOM      2  C1  UNL d   1      -1.941   1.695   0.560  0.00  0.00     0.010 A 
ATOM      3  C2  UNL d   1      -0.730   2.299   0.904  0.00  0.00     0.041 A 
ATOM      4  C3  UNL d   1       0.448   1.527   0.881  0.00  0.00    -0.075 A 
ATOM      5  S   UNL d   1       2.044   2.053   1.263  0.00  0.00     0.015 SA
ATOM      6  C4  UNL d   1       2.706   0.512   0.959  0.00  0.00     0.022 A 
ATOM      7  C5  UNL d   1       1.746  -0.394   0.574  0.00  0.00     0.026 A 
ATOM      8  C6  UNL d   1       0.429   0.176   0.522  0.00  0.00    -0.082 A 
ATOM      9  C7  UNL d   1      -0.814  -0.408   0.179  0.00  0.00     0.045 A 
ENDROOT
TORSDOF 0
ENDMDL
