MODEL 1
REMARK minimizedAffinity -0.969377458
REMARK minimizedRMSD -1
REMARK  0 active torsions:
REMARK  status: ('A' for Active; 'I' for Inactive)
ROOT
ATOM      1  C   UNL d   1       0.336   2.925   0.181  0.00  0.00    -0.002 A 
ATOM      2  C1  UNL d   1       1.059   2.470  -0.912  0.00  0.00     0.010 A 
ATOM      3  C2  UNL d   1       1.097   1.109  -1.222  0.00  0.00     0.041 A 
ATOM      4  C3  UNL d   1       0.387   0.205  -0.408  0.00  0.00    -0.075 A 
ATOM      5  S   UNL d   1       0.288  -1.506  -0.596  0.00  0.00     0.015 SA
ATOM      6  C4  UNL d   1      -0.718  -1.673   0.770  0.00  0.00     0.022 A 
ATOM      7  C5  UNL d   1      -0.982  -0.463   1.367  0.00  0.00     0.026 A 
ATOM      8  C6  UNL d   1      -0.350   0.639   0.698  0.00  0.00    -0.082 A 
ATOM      9  C7  UNL d   1      -0.367   2.025   0.986  0.00  0.00     0.045 A 
ENDROOT
TORSDOF 0
ENDMDL
