MODEL 1
REMARK minimizedAffinity -4.17477036
REMARK minimizedRMSD -1
REMARK  0 active torsions:
REMARK  status: ('A' for Active; 'I' for Inactive)
ROOT
ATOM      1  C   UNL d   1      -0.703   2.265   0.642  0.00  0.00    -0.002 A 
ATOM      2  C1  UNL d   1       0.567   2.523   0.146  0.00  0.00     0.010 A 
ATOM      3  C2  UNL d   1       1.275   1.535  -0.542  0.00  0.00     0.041 A 
ATOM      4  C3  UNL d   1       0.678   0.273  -0.727  0.00  0.00    -0.075 A 
ATOM      5  S   UNL d   1       1.356  -1.089  -1.539  0.00  0.00     0.015 SA
ATOM      6  C4  UNL d   1      -0.025  -2.045  -1.246  0.00  0.00     0.022 A 
ATOM      7  C5  UNL d   1      -0.989  -1.358  -0.547  0.00  0.00     0.026 A 
ATOM      8  C6  UNL d   1      -0.600  -0.011  -0.237  0.00  0.00    -0.082 A 
ATOM      9  C7  UNL d   1      -1.291   1.011   0.458  0.00  0.00     0.045 A 
ENDROOT
TORSDOF 0
ENDMDL
