MODEL 1
REMARK minimizedAffinity -1.35659099
REMARK minimizedRMSD -1
REMARK  1 active torsions:
REMARK  status: ('A' for Active; 'I' for Inactive)
REMARK    1  A    between atoms: C1_2  and  C2_3 
ROOT
ATOM      1  C2  UNL d   1       1.287  -0.635  -0.165  0.00  0.00    -0.081 A 
ATOM      2  C3  UNL d   1       0.920  -0.821   1.174  0.00  0.00     0.006 A 
ATOM      3  C4  UNL d   1      -0.423  -0.770   1.554  0.00  0.00     0.002 A 
ATOM      4  C5  UNL d   1      -1.422  -0.540   0.601  0.00  0.00    -0.080 A 
ATOM      5  C6  UNL d   1      -2.870  -0.513   0.991  0.00  0.00     0.076 C 
ATOM      6  C7  UNL d   1      -1.054  -0.337  -0.733  0.00  0.00     0.002 A 
ATOM      7  C8  UNL d   1       0.289  -0.387  -1.113  0.00  0.00     0.006 A 
ENDROOT
BRANCH   1   8
ATOM      8  C1  UNL d   1       2.729  -0.754  -0.588  0.00  0.00     0.054 C 
ATOM      9  C   UNL d   1       2.853  -1.428  -1.947  0.00  0.00     0.018 C 
ENDBRANCH   1   8
TORSDOF 1
ENDMDL
