MODEL 1
REMARK minimizedAffinity 6.19929266
REMARK minimizedRMSD -1
REMARK  1 active torsions:
REMARK  status: ('A' for Active; 'I' for Inactive)
REMARK    1  A    between atoms: C1_2  and  C2_3 
ROOT
ATOM      1  C2  UNL d   1      -0.439  -1.914   1.850  0.00  0.00    -0.081 A 
ATOM      2  C3  UNL d   1      -1.631  -1.601   1.187  0.00  0.00     0.006 A 
ATOM      3  C4  UNL d   1      -2.342  -0.444   1.516  0.00  0.00     0.002 A 
ATOM      4  C5  UNL d   1      -1.867   0.422   2.507  0.00  0.00    -0.080 A 
ATOM      5  C6  UNL d   1      -2.604   1.683   2.849  0.00  0.00     0.076 C 
ATOM      6  C7  UNL d   1      -0.685   0.100   3.182  0.00  0.00     0.002 A 
ATOM      7  C8  UNL d   1       0.025  -1.057   2.854  0.00  0.00     0.006 A 
ENDROOT
BRANCH   1   8
ATOM      8  C1  UNL d   1       0.363  -3.128   1.453  0.00  0.00     0.054 C 
ATOM      9  C   UNL d   1       1.764  -2.741   1.001  0.00  0.00     0.018 C 
ENDBRANCH   1   8
TORSDOF 1
ENDMDL
