MODEL 1
REMARK minimizedAffinity 6.34193373
REMARK minimizedRMSD -1
REMARK  1 active torsions:
REMARK  status: ('A' for Active; 'I' for Inactive)
REMARK    1  A    between atoms: C1_2  and  C2_3 
ROOT
ATOM      1  C2  UNL d   1       0.229  -1.230   0.897  0.00  0.00    -0.081 A 
ATOM      2  C3  UNL d   1      -0.761  -0.706   0.058  0.00  0.00     0.006 A 
ATOM      3  C4  UNL d   1      -1.894  -0.092   0.596  0.00  0.00     0.002 A 
ATOM      4  C5  UNL d   1      -2.052   0.016   1.982  0.00  0.00    -0.080 A 
ATOM      5  C6  UNL d   1      -3.249   0.700   2.573  0.00  0.00     0.076 C 
ATOM      6  C7  UNL d   1      -1.071  -0.523   2.821  0.00  0.00     0.002 A 
ATOM      7  C8  UNL d   1       0.061  -1.138   2.284  0.00  0.00     0.006 A 
ENDROOT
BRANCH   1   8
ATOM      8  C1  UNL d   1       1.483  -1.836   0.319  0.00  0.00     0.054 C 
ATOM      9  C   UNL d   1       1.880  -3.102   1.064  0.00  0.00     0.018 C 
ENDBRANCH   1   8
TORSDOF 1
ENDMDL
