MODEL 1
REMARK minimizedAffinity -1.41841924
REMARK minimizedRMSD -1
REMARK  1 active torsions:
REMARK  status: ('A' for Active; 'I' for Inactive)
REMARK    1  A    between atoms: C1_2  and  C2_3 
ROOT
ATOM      1  C2  UNL d   1       1.586  -2.611   1.735  0.00  0.00    -0.081 A 
ATOM      2  C3  UNL d   1       0.628  -2.068   2.600  0.00  0.00     0.006 A 
ATOM      3  C4  UNL d   1      -0.224  -1.051   2.163  0.00  0.00     0.002 A 
ATOM      4  C5  UNL d   1      -0.138  -0.566   0.854  0.00  0.00    -0.080 A 
ATOM      5  C6  UNL d   1      -1.068   0.505   0.364  0.00  0.00     0.076 C 
ATOM      6  C7  UNL d   1       0.830  -1.096  -0.005  0.00  0.00     0.002 A 
ATOM      7  C8  UNL d   1       1.683  -2.113   0.431  0.00  0.00     0.006 A 
ENDROOT
BRANCH   1   8
ATOM      8  C1  UNL d   1       2.463  -3.752   2.183  0.00  0.00     0.054 C 
ATOM      9  C   UNL d   1       2.938  -4.582   0.999  0.00  0.00     0.018 C 
ENDBRANCH   1   8
TORSDOF 1
ENDMDL
