MODEL 1
REMARK minimizedAffinity 1.68327343
REMARK minimizedRMSD -1
REMARK  1 active torsions:
REMARK  status: ('A' for Active; 'I' for Inactive)
REMARK    1  A    between atoms: C1_2  and  C2_3 
ROOT
ATOM      1  C2  UNL d   1      -1.345  -1.375   0.253  0.00  0.00    -0.081 A 
ATOM      2  C3  UNL d   1      -0.993  -1.551   1.597  0.00  0.00     0.006 A 
ATOM      3  C4  UNL d   1       0.115  -0.889   2.131  0.00  0.00     0.002 A 
ATOM      4  C5  UNL d   1       0.884  -0.035   1.334  0.00  0.00    -0.080 A 
ATOM      5  C6  UNL d   1       2.058   0.705   1.904  0.00  0.00     0.076 C 
ATOM      6  C7  UNL d   1       0.543   0.128  -0.013  0.00  0.00     0.002 A 
ATOM      7  C8  UNL d   1      -0.564  -0.534  -0.548  0.00  0.00     0.006 A 
ENDROOT
BRANCH   1   8
ATOM      8  C1  UNL d   1      -2.577  -2.037  -0.310  0.00  0.00     0.054 C 
ATOM      9  C   UNL d   1      -3.650  -2.207   0.756  0.00  0.00     0.018 C 
ENDBRANCH   1   8
TORSDOF 1
ENDMDL
