MODEL 1
REMARK minimizedAffinity -1.81900084
REMARK minimizedRMSD -1
REMARK  0 active torsions:
REMARK  status: ('A' for Active; 'I' for Inactive)
ROOT
ATOM      1  C   UNL d   1      -0.256   0.322   0.337  0.00  0.00    -0.002 A 
ATOM      2  C1  UNL d   1      -1.013  -0.598   1.049  0.00  0.00     0.010 A 
ATOM      3  C2  UNL d   1      -0.965  -1.956   0.730  0.00  0.00     0.041 A 
ATOM      4  C3  UNL d   1      -0.134  -2.379  -0.326  0.00  0.00    -0.075 A 
ATOM      5  S   UNL d   1       0.085  -3.992  -0.894  0.00  0.00     0.015 SA
ATOM      6  C4  UNL d   1       1.190  -3.499  -2.094  0.00  0.00     0.022 A 
ATOM      7  C5  UNL d   1       1.397  -2.140  -2.077  0.00  0.00     0.026 A 
ATOM      8  C6  UNL d   1       0.638  -1.472  -1.057  0.00  0.00    -0.082 A 
ATOM      9  C7  UNL d   1       0.567  -0.102  -0.710  0.00  0.00     0.045 A 
ENDROOT
TORSDOF 0
ENDMDL
