MODEL 1
REMARK minimizedAffinity -0.144923031
REMARK minimizedRMSD -1
REMARK  0 active torsions:
REMARK  status: ('A' for Active; 'I' for Inactive)
ROOT
ATOM      1  C   UNL d   1      -1.785   1.624   1.937  0.00  0.00    -0.002 A 
ATOM      2  C1  UNL d   1      -1.762   2.363   0.763  0.00  0.00     0.010 A 
ATOM      3  C2  UNL d   1      -1.025   1.925  -0.339  0.00  0.00     0.041 A 
ATOM      4  C3  UNL d   1      -0.305   0.718  -0.241  0.00  0.00    -0.075 A 
ATOM      5  S   UNL d   1       0.667  -0.015  -1.461  0.00  0.00     0.015 SA
ATOM      6  C4  UNL d   1       1.074  -1.328  -0.454  0.00  0.00     0.022 A 
ATOM      7  C5  UNL d   1       0.491  -1.226   0.787  0.00  0.00     0.026 A 
ATOM      8  C6  UNL d   1      -0.314  -0.045   0.931  0.00  0.00    -0.082 A 
ATOM      9  C7  UNL d   1      -1.070   0.427   2.030  0.00  0.00     0.045 A 
ENDROOT
TORSDOF 0
ENDMDL
