MODEL 1
REMARK minimizedAffinity -1.98745489
REMARK minimizedRMSD -1
REMARK  0 active torsions:
REMARK  status: ('A' for Active; 'I' for Inactive)
ROOT
ATOM      1  C   UNL d   1      -0.858   0.729   2.289  0.00  0.00    -0.002 A 
ATOM      2  C1  UNL d   1      -1.485   1.529   1.345  0.00  0.00     0.010 A 
ATOM      3  C2  UNL d   1      -1.302   1.295  -0.019  0.00  0.00     0.041 A 
ATOM      4  C3  UNL d   1      -0.471   0.230  -0.422  0.00  0.00    -0.075 A 
ATOM      5  S   UNL d   1      -0.102  -0.245  -2.038  0.00  0.00     0.015 SA
ATOM      6  C4  UNL d   1       0.896  -1.523  -1.512  0.00  0.00     0.022 A 
ATOM      7  C5  UNL d   1       0.957  -1.599  -0.141  0.00  0.00     0.026 A 
ATOM      8  C6  UNL d   1       0.170  -0.591   0.510  0.00  0.00    -0.082 A 
ATOM      9  C7  UNL d   1      -0.035  -0.326   1.886  0.00  0.00     0.045 A 
ENDROOT
TORSDOF 0
ENDMDL
