MODEL 1
REMARK minimizedAffinity 2.32671714
REMARK minimizedRMSD -1
REMARK  0 active torsions:
REMARK  status: ('A' for Active; 'I' for Inactive)
ROOT
ATOM      1  C   UNL d   1      -1.698   2.178   1.182  0.00  0.00    -0.002 A 
ATOM      2  C1  UNL d   1      -2.084   1.934  -0.128  0.00  0.00     0.010 A 
ATOM      3  C2  UNL d   1      -1.480   0.917  -0.869  0.00  0.00     0.041 A 
ATOM      4  C3  UNL d   1      -0.473   0.138  -0.264  0.00  0.00    -0.075 A 
ATOM      5  S   UNL d   1       0.405  -1.162  -0.978  0.00  0.00     0.015 SA
ATOM      6  C4  UNL d   1       1.312  -1.426   0.440  0.00  0.00     0.022 A 
ATOM      7  C5  UNL d   1       0.967  -0.553   1.443  0.00  0.00     0.026 A 
ATOM      8  C6  UNL d   1      -0.068   0.363   1.054  0.00  0.00    -0.082 A 
ATOM      9  C7  UNL d   1      -0.699   1.403   1.779  0.00  0.00     0.045 A 
ENDROOT
TORSDOF 0
ENDMDL
