MODEL 1
REMARK minimizedAffinity -4.82965088
REMARK minimizedRMSD -1
REMARK  0 active torsions:
REMARK  status: ('A' for Active; 'I' for Inactive)
ROOT
ATOM      1  C   UNL d   1      -1.736   2.979   0.554  0.00  0.00    -0.002 A 
ATOM      2  C1  UNL d   1      -2.026   1.829   1.275  0.00  0.00     0.010 A 
ATOM      3  C2  UNL d   1      -1.271   0.669   1.094  0.00  0.00     0.041 A 
ATOM      4  C3  UNL d   1      -0.209   0.684   0.168  0.00  0.00    -0.075 A 
ATOM      5  S   UNL d   1       0.852  -0.619  -0.218  0.00  0.00     0.015 SA
ATOM      6  C4  UNL d   1       1.715   0.320  -1.348  0.00  0.00     0.022 A 
ATOM      7  C5  UNL d   1       1.219   1.599  -1.442  0.00  0.00     0.026 A 
ATOM      8  C6  UNL d   1       0.102   1.830  -0.569  0.00  0.00    -0.082 A 
ATOM      9  C7  UNL d   1      -0.682   2.990  -0.363  0.00  0.00     0.045 A 
ENDROOT
TORSDOF 0
ENDMDL
