MODEL 1
REMARK minimizedAffinity -2.53034377
REMARK minimizedRMSD -1
REMARK  0 active torsions:
REMARK  status: ('A' for Active; 'I' for Inactive)
ROOT
ATOM      1  C   UNL d   1       1.636  -3.223  -2.148  0.00  0.00    -0.002 A 
ATOM      2  C1  UNL d   1       1.013  -2.486  -3.145  0.00  0.00     0.010 A 
ATOM      3  C2  UNL d   1       0.343  -1.300  -2.837  0.00  0.00     0.041 A 
ATOM      4  C3  UNL d   1       0.311  -0.862  -1.499  0.00  0.00    -0.075 A 
ATOM      5  S   UNL d   1      -0.448   0.560  -0.888  0.00  0.00     0.015 SA
ATOM      6  C4  UNL d   1       0.038   0.223   0.711  0.00  0.00     0.022 A 
ATOM      7  C5  UNL d   1       0.762  -0.942   0.795  0.00  0.00     0.026 A 
ATOM      8  C6  UNL d   1       0.932  -1.587  -0.477  0.00  0.00    -0.082 A 
ATOM      9  C7  UNL d   1       1.603  -2.785  -0.821  0.00  0.00     0.045 A 
ENDROOT
TORSDOF 0
ENDMDL
