MODEL 1
REMARK minimizedAffinity -4.81482172
REMARK minimizedRMSD -1
REMARK  0 active torsions:
REMARK  status: ('A' for Active; 'I' for Inactive)
ROOT
ATOM      1  C   UNL d   1      -1.943   2.857   1.236  0.00  0.00    -0.002 A 
ATOM      2  C1  UNL d   1      -1.294   3.424   0.148  0.00  0.00     0.010 A 
ATOM      3  C2  UNL d   1      -0.399   2.672  -0.616  0.00  0.00     0.041 A 
ATOM      4  C3  UNL d   1      -0.167   1.327  -0.266  0.00  0.00    -0.075 A 
ATOM      5  S   UNL d   1       0.886   0.214  -1.057  0.00  0.00     0.015 SA
ATOM      6  C4  UNL d   1       0.498  -1.040   0.030  0.00  0.00     0.022 A 
ATOM      7  C5  UNL d   1      -0.411  -0.637   0.980  0.00  0.00     0.026 A 
ATOM      8  C6  UNL d   1      -0.809   0.734   0.825  0.00  0.00    -0.082 A 
ATOM      9  C7  UNL d   1      -1.710   1.523   1.580  0.00  0.00     0.045 A 
ENDROOT
TORSDOF 0
ENDMDL
