MODEL 1
REMARK minimizedAffinity -1.15395141
REMARK minimizedRMSD -1
REMARK  0 active torsions:
REMARK  status: ('A' for Active; 'I' for Inactive)
ROOT
ATOM      1  C   UNL d   1       0.711  -0.934  -0.900  0.00  0.00    -0.002 A 
ATOM      2  C1  UNL d   1       1.398  -1.180   0.280  0.00  0.00     0.010 A 
ATOM      3  C2  UNL d   1       0.990  -0.586   1.476  0.00  0.00     0.041 A 
ATOM      4  C3  UNL d   1      -0.131   0.267   1.467  0.00  0.00    -0.075 A 
ATOM      5  S   UNL d   1      -0.813   1.104   2.811  0.00  0.00     0.015 SA
ATOM      6  C4  UNL d   1      -2.032   1.806   1.851  0.00  0.00     0.022 A 
ATOM      7  C5  UNL d   1      -1.937   1.423   0.534  0.00  0.00     0.026 A 
ATOM      8  C6  UNL d   1      -0.840   0.529   0.291  0.00  0.00    -0.082 A 
ATOM      9  C7  UNL d   1      -0.402  -0.088  -0.905  0.00  0.00     0.045 A 
ENDROOT
TORSDOF 0
ENDMDL
