MODEL 1
REMARK minimizedAffinity -1.23586714
REMARK minimizedRMSD -1
REMARK  0 active torsions:
REMARK  status: ('A' for Active; 'I' for Inactive)
ROOT
ATOM      1  C   UNL d   1      -0.897   0.891   2.747  0.00  0.00    -0.002 A 
ATOM      2  C1  UNL d   1      -1.077   1.921   1.835  0.00  0.00     0.010 A 
ATOM      3  C2  UNL d   1      -0.692   1.764   0.501  0.00  0.00     0.041 A 
ATOM      4  C3  UNL d   1      -0.120   0.542   0.096  0.00  0.00    -0.075 A 
ATOM      5  S   UNL d   1       0.425   0.123  -1.485  0.00  0.00     0.015 SA
ATOM      6  C4  UNL d   1       0.909  -1.433  -0.987  0.00  0.00     0.022 A 
ATOM      7  C5  UNL d   1       0.667  -1.645   0.350  0.00  0.00     0.026 A 
ATOM      8  C6  UNL d   1       0.070  -0.510   0.996  0.00  0.00    -0.082 A 
ATOM      9  C7  UNL d   1      -0.329  -0.320   2.341  0.00  0.00     0.045 A 
ENDROOT
TORSDOF 0
ENDMDL
