MODEL 1
REMARK minimizedAffinity -2.9898572
REMARK minimizedRMSD -1
REMARK  0 active torsions:
REMARK  status: ('A' for Active; 'I' for Inactive)
ROOT
ATOM      1  C   UNL d   1      -1.097   1.651   1.800  0.00  0.00    -0.002 A 
ATOM      2  C1  UNL d   1      -1.902   1.601   0.671  0.00  0.00     0.010 A 
ATOM      3  C2  UNL d   1      -1.564   0.778  -0.405  0.00  0.00     0.041 A 
ATOM      4  C3  UNL d   1      -0.394  -0.003  -0.326  0.00  0.00    -0.075 A 
ATOM      5  S   UNL d   1       0.217  -1.085  -1.521  0.00  0.00     0.015 SA
ATOM      6  C4  UNL d   1       1.560  -1.506  -0.560  0.00  0.00     0.022 A 
ATOM      7  C5  UNL d   1       1.558  -0.847   0.646  0.00  0.00     0.026 A 
ATOM      8  C6  UNL d   1       0.432   0.030   0.802  0.00  0.00    -0.082 A 
ATOM      9  C7  UNL d   1       0.063   0.876   1.876  0.00  0.00     0.045 A 
ENDROOT
TORSDOF 0
ENDMDL
