MODEL 1
REMARK minimizedAffinity -3.12543035
REMARK minimizedRMSD -1
REMARK  0 active torsions:
REMARK  status: ('A' for Active; 'I' for Inactive)
ROOT
ATOM      1  C   UNL d   1      -1.975   2.699   0.057  0.00  0.00    -0.002 A 
ATOM      2  C1  UNL d   1      -2.011   2.392   1.410  0.00  0.00     0.010 A 
ATOM      3  C2  UNL d   1      -1.146   1.435   1.945  0.00  0.00     0.041 A 
ATOM      4  C3  UNL d   1      -0.234   0.787   1.089  0.00  0.00    -0.075 A 
ATOM      5  S   UNL d   1       0.921  -0.418   1.521  0.00  0.00     0.015 SA
ATOM      6  C4  UNL d   1       1.491  -0.553  -0.080  0.00  0.00     0.022 A 
ATOM      7  C5  UNL d   1       0.827   0.293  -0.936  0.00  0.00     0.026 A 
ATOM      8  C6  UNL d   1      -0.178   1.080  -0.277  0.00  0.00    -0.082 A 
ATOM      9  C7  UNL d   1      -1.069   2.054  -0.789  0.00  0.00     0.045 A 
ENDROOT
TORSDOF 0
ENDMDL
