MODEL 1
REMARK minimizedAffinity 0.560144901
REMARK minimizedRMSD -1
REMARK  0 active torsions:
REMARK  status: ('A' for Active; 'I' for Inactive)
ROOT
ATOM      1  C   UNL d   1       0.503  -1.128  -1.178  0.00  0.00    -0.002 A 
ATOM      2  C1  UNL d   1       1.025  -1.415   0.075  0.00  0.00     0.010 A 
ATOM      3  C2  UNL d   1       0.573  -0.732   1.207  0.00  0.00     0.041 A 
ATOM      4  C3  UNL d   1      -0.424   0.251   1.056  0.00  0.00    -0.075 A 
ATOM      5  S   UNL d   1      -1.132   1.213   2.299  0.00  0.00     0.015 SA
ATOM      6  C4  UNL d   1      -2.145   2.027   1.196  0.00  0.00     0.022 A 
ATOM      7  C5  UNL d   1      -1.960   1.588  -0.093  0.00  0.00     0.026 A 
ATOM      8  C6  UNL d   1      -0.966   0.557  -0.196  0.00  0.00    -0.082 A 
ATOM      9  C7  UNL d   1      -0.486  -0.151  -1.323  0.00  0.00     0.045 A 
ENDROOT
TORSDOF 0
ENDMDL
