MODEL 1
REMARK minimizedAffinity -5.39533043
REMARK minimizedRMSD -1
REMARK  0 active torsions:
REMARK  status: ('A' for Active; 'I' for Inactive)
ROOT
ATOM      1  C   UNL d   1       1.340   1.265  -1.511  0.00  0.00    -0.002 A 
ATOM      2  C1  UNL d   1       1.536  -0.012  -1.004  0.00  0.00     0.010 A 
ATOM      3  C2  UNL d   1       0.661  -0.540  -0.053  0.00  0.00     0.041 A 
ATOM      4  C3  UNL d   1      -0.427   0.242   0.382  0.00  0.00    -0.075 A 
ATOM      5  S   UNL d   1      -1.628  -0.198   1.537  0.00  0.00     0.015 SA
ATOM      6  C4  UNL d   1      -2.431   1.298   1.383  0.00  0.00     0.022 A 
ATOM      7  C5  UNL d   1      -1.811   2.125   0.477  0.00  0.00     0.026 A 
ATOM      8  C6  UNL d   1      -0.646   1.530  -0.116  0.00  0.00    -0.082 A 
ATOM      9  C7  UNL d   1       0.260   2.038  -1.078  0.00  0.00     0.045 A 
ENDROOT
TORSDOF 0
ENDMDL
