MODEL 1
REMARK minimizedAffinity 5.356915
REMARK minimizedRMSD -1
REMARK  1 active torsions:
REMARK  status: ('A' for Active; 'I' for Inactive)
REMARK    1  A    between atoms: C1_2  and  C2_3 
ROOT
ATOM      1  C2  UNL d   1       0.991  -2.110   1.976  0.00  0.00    -0.077 A 
ATOM      2  C3  UNL d   1      -0.151  -2.890   2.210  0.00  0.00     0.002 A 
ATOM      3  C4  UNL d   1      -1.179  -2.411   3.025  0.00  0.00     0.002 A 
ATOM      4  C5  UNL d   1      -1.077  -1.149   3.608  0.00  0.00    -0.004 A 
ATOM      5  C6  UNL d   1       0.055  -0.367   3.382  0.00  0.00     0.002 A 
ATOM      6  C7  UNL d   1       1.084  -0.845   2.570  0.00  0.00     0.002 A 
ENDROOT
BRANCH   1   7
ATOM      7  C1  UNL d   1       2.078  -2.605   1.058  0.00  0.00     0.055 C 
ATOM      8  C   UNL d   1       2.045  -4.121   0.927  0.00  0.00     0.019 C 
ENDBRANCH   1   7
TORSDOF 1
ENDMDL
