MODEL 1
REMARK minimizedAffinity 9.75623035
REMARK minimizedRMSD -1
REMARK  1 active torsions:
REMARK  status: ('A' for Active; 'I' for Inactive)
REMARK    1  A    between atoms: C1_2  and  C2_3 
ROOT
ATOM      1  C2  UNL d   1       1.408  -1.847   1.529  0.00  0.00    -0.077 A 
ATOM      2  C3  UNL d   1       1.455  -0.587   2.142  0.00  0.00     0.002 A 
ATOM      3  C4  UNL d   1       0.310  -0.042   2.726  0.00  0.00     0.002 A 
ATOM      4  C5  UNL d   1      -0.889  -0.751   2.706  0.00  0.00    -0.004 A 
ATOM      5  C6  UNL d   1      -0.947  -2.004   2.097  0.00  0.00     0.002 A 
ATOM      6  C7  UNL d   1       0.197  -2.550   1.512  0.00  0.00     0.002 A 
ENDROOT
BRANCH   1   7
ATOM      7  C1  UNL d   1       2.653  -2.458   0.942  0.00  0.00     0.055 C 
ATOM      8  C   UNL d   1       2.516  -3.966   0.799  0.00  0.00     0.019 C 
ENDBRANCH   1   7
TORSDOF 1
ENDMDL
