MODEL 1
REMARK minimizedAffinity 8.48143291
REMARK minimizedRMSD -1
REMARK  1 active torsions:
REMARK  status: ('A' for Active; 'I' for Inactive)
REMARK    1  A    between atoms: C1_2  and  C2_3 
ROOT
ATOM      1  C2  UNL d   1       1.346   4.027   3.972  0.00  0.00    -0.077 A 
ATOM      2  C3  UNL d   1       0.346   5.009   3.954  0.00  0.00     0.002 A 
ATOM      3  C4  UNL d   1       0.298   5.986   4.951  0.00  0.00     0.002 A 
ATOM      4  C5  UNL d   1       1.248   5.992   5.969  0.00  0.00    -0.004 A 
ATOM      5  C6  UNL d   1       2.246   5.018   5.997  0.00  0.00     0.002 A 
ATOM      6  C7  UNL d   1       2.295   4.040   5.002  0.00  0.00     0.002 A 
ENDROOT
BRANCH   1   7
ATOM      7  C1  UNL d   1       1.430   3.002   2.871  0.00  0.00     0.055 C 
ATOM      8  C   UNL d   1       1.137   1.603   3.393  0.00  0.00     0.019 C 
ENDBRANCH   1   7
TORSDOF 1
ENDMDL
