MODEL 1
REMARK minimizedAffinity 12.0763741
REMARK minimizedRMSD -1
REMARK  1 active torsions:
REMARK  status: ('A' for Active; 'I' for Inactive)
REMARK    1  A    between atoms: C1_2  and  C2_3 
ROOT
ATOM      1  C2  UNL d   1      -0.674   1.650  -3.266  0.00  0.00    -0.077 A 
ATOM      2  C3  UNL d   1      -0.766   0.369  -2.703  0.00  0.00     0.002 A 
ATOM      3  C4  UNL d   1      -1.914  -0.015  -2.007  0.00  0.00     0.002 A 
ATOM      4  C5  UNL d   1      -2.978   0.874  -1.870  0.00  0.00    -0.004 A 
ATOM      5  C6  UNL d   1      -2.894   2.151  -2.425  0.00  0.00     0.002 A 
ATOM      6  C7  UNL d   1      -1.748   2.537  -3.120  0.00  0.00     0.002 A 
ENDROOT
BRANCH   1   7
ATOM      7  C1  UNL d   1       0.543   2.048  -4.060  0.00  0.00     0.055 C 
ATOM      8  C   UNL d   1       1.216   0.836  -4.688  0.00  0.00     0.019 C 
ENDBRANCH   1   7
TORSDOF 1
ENDMDL
