MODEL 1
REMARK minimizedAffinity 15.0176353
REMARK minimizedRMSD -1
REMARK  1 active torsions:
REMARK  status: ('A' for Active; 'I' for Inactive)
REMARK    1  A    between atoms: C1_2  and  C2_3 
ROOT
ATOM      1  C2  UNL d   1      -4.379   0.695   1.190  0.00  0.00    -0.077 A 
ATOM      2  C3  UNL d   1      -4.448   1.355  -0.044  0.00  0.00     0.002 A 
ATOM      3  C4  UNL d   1      -4.037   0.712  -1.213  0.00  0.00     0.002 A 
ATOM      4  C5  UNL d   1      -3.558  -0.596  -1.160  0.00  0.00    -0.004 A 
ATOM      5  C6  UNL d   1      -3.483  -1.260   0.064  0.00  0.00     0.002 A 
ATOM      6  C7  UNL d   1      -3.892  -0.618   1.233  0.00  0.00     0.002 A 
ENDROOT
BRANCH   1   7
ATOM      7  C1  UNL d   1      -4.867   1.369   2.445  0.00  0.00     0.055 C 
ATOM      8  C   UNL d   1      -3.762   1.470   3.486  0.00  0.00     0.019 C 
ENDBRANCH   1   7
TORSDOF 1
ENDMDL
