MODEL 1
REMARK minimizedAffinity 5.49570847
REMARK minimizedRMSD -1
REMARK  1 active torsions:
REMARK  status: ('A' for Active; 'I' for Inactive)
REMARK    1  A    between atoms: C1_2  and  C2_3 
ROOT
ATOM      1  C2  UNL d   1       0.410  -1.333   2.450  0.00  0.00    -0.077 A 
ATOM      2  C3  UNL d   1       1.497  -0.783   3.143  0.00  0.00     0.002 A 
ATOM      3  C4  UNL d   1       2.775  -0.800   2.580  0.00  0.00     0.002 A 
ATOM      4  C5  UNL d   1       2.976  -1.363   1.321  0.00  0.00    -0.004 A 
ATOM      5  C6  UNL d   1       1.901  -1.914   0.625  0.00  0.00     0.002 A 
ATOM      6  C7  UNL d   1       0.623  -1.899   1.187  0.00  0.00     0.002 A 
ENDROOT
BRANCH   1   7
ATOM      7  C1  UNL d   1      -0.978  -1.271   3.034  0.00  0.00     0.055 C 
ATOM      8  C   UNL d   1      -1.621  -2.649   3.080  0.00  0.00     0.019 C 
ENDBRANCH   1   7
TORSDOF 1
ENDMDL
