MODEL 1
REMARK minimizedAffinity 5.91481161
REMARK minimizedRMSD -1
REMARK  1 active torsions:
REMARK  status: ('A' for Active; 'I' for Inactive)
REMARK    1  A    between atoms: C1_2  and  C2_3 
ROOT
ATOM      1  C2  UNL d   1      -4.599   2.227   4.593  0.00  0.00    -0.077 A 
ATOM      2  C3  UNL d   1      -3.635   1.353   4.071  0.00  0.00     0.002 A 
ATOM      3  C4  UNL d   1      -3.754   0.867   2.768  0.00  0.00     0.002 A 
ATOM      4  C5  UNL d   1      -4.832   1.253   1.974  0.00  0.00    -0.004 A 
ATOM      5  C6  UNL d   1      -5.797   2.120   2.485  0.00  0.00     0.002 A 
ATOM      6  C7  UNL d   1      -5.681   2.605   3.788  0.00  0.00     0.002 A 
ENDROOT
BRANCH   1   7
ATOM      7  C1  UNL d   1      -4.446   2.790   5.982  0.00  0.00     0.055 C 
ATOM      8  C   UNL d   1      -4.172   4.287   5.945  0.00  0.00     0.019 C 
ENDBRANCH   1   7
TORSDOF 1
ENDMDL
