MODEL 1
REMARK minimizedAffinity -4.46294594
REMARK minimizedRMSD -1
REMARK  0 active torsions:
REMARK  status: ('A' for Active; 'I' for Inactive)
ROOT
ATOM      1  N1  IND d   1      -0.011   0.244  -1.608  0.00  0.00    -0.196 N 
ATOM      2  C2  IND d   1      -0.418  -1.050  -1.434  0.00  0.00     0.054 A 
ATOM      3  C3  IND d   1      -0.615  -1.308  -0.122  0.00  0.00    -0.031 A 
ATOM      4  C4  IND d   1      -0.429   0.272   1.902  0.00  0.00     0.051 A 
ATOM      5  C5  IND d   1      -0.054   1.540   2.248  0.00  0.00    -0.031 A 
ATOM      6  C6  IND d   1       0.360   2.460   1.307  0.00  0.00     0.015 A 
ATOM      7  C7  IND d   1       0.404   2.148  -0.023  0.00  0.00    -0.016 A 
ATOM      8  C8  IND d   1       0.031   0.860  -0.377  0.00  0.00    -0.047 A 
ATOM      9  C9  IND d   1      -0.350  -0.091   0.579  0.00  0.00    -0.096 A 
ATOM     10  HN1 IND d   1       0.186   0.611  -2.360  0.00  0.00     0.298 HD
ENDROOT
TORSDOF 0
ENDMDL
