MODEL 1
REMARK minimizedAffinity -3.68148017
REMARK minimizedRMSD -1
REMARK  0 active torsions:
REMARK  status: ('A' for Active; 'I' for Inactive)
ROOT
ATOM      1  N1  IND d   1       0.652  -0.176  -0.986  0.00  0.00    -0.196 N 
ATOM      2  C2  IND d   1      -0.239  -1.213  -1.019  0.00  0.00     0.054 A 
ATOM      3  C3  IND d   1      -0.910  -1.294   0.152  0.00  0.00    -0.031 A 
ATOM      4  C4  IND d   1      -0.780   0.233   2.220  0.00  0.00     0.051 A 
ATOM      5  C5  IND d   1      -0.087   1.292   2.736  0.00  0.00    -0.031 A 
ATOM      6  C6  IND d   1       0.907   1.930   2.021  0.00  0.00     0.015 A 
ATOM      7  C7  IND d   1       1.237   1.539   0.755  0.00  0.00    -0.016 A 
ATOM      8  C8  IND d   1       0.540   0.459   0.231  0.00  0.00    -0.047 A 
ATOM      9  C9  IND d   1      -0.440  -0.219   0.967  0.00  0.00    -0.096 A 
ATOM     10  HN1 IND d   1       1.191   0.042  -1.619  0.00  0.00     0.298 HD
ENDROOT
TORSDOF 0
ENDMDL
