MODEL 1
REMARK minimizedAffinity -1.12892151
REMARK minimizedRMSD -1
REMARK  0 active torsions:
REMARK  status: ('A' for Active; 'I' for Inactive)
ROOT
ATOM      1  N1  IND d   1       0.785  -0.992  -1.128  0.00  0.00    -0.196 N 
ATOM      2  C2  IND d   1      -0.422  -1.633  -1.129  0.00  0.00     0.054 A 
ATOM      3  C3  IND d   1      -1.231  -1.116  -0.176  0.00  0.00    -0.031 A 
ATOM      4  C4  IND d   1      -0.815   0.854   1.428  0.00  0.00     0.051 A 
ATOM      5  C5  IND d   1       0.153   1.732   1.828  0.00  0.00    -0.031 A 
ATOM      6  C6  IND d   1       1.406   1.749   1.249  0.00  0.00     0.015 A 
ATOM      7  C7  IND d   1       1.735   0.893   0.237  0.00  0.00    -0.016 A 
ATOM      8  C8  IND d   1       0.756  -0.005  -0.167  0.00  0.00    -0.047 A 
ATOM      9  C9  IND d   1      -0.503  -0.056   0.446  0.00  0.00    -0.096 A 
ATOM     10  HN1 IND d   1       1.450  -1.174  -1.641  0.00  0.00     0.298 HD
ENDROOT
TORSDOF 0
ENDMDL
