MODEL 1
REMARK minimizedAffinity -1.93597436
REMARK minimizedRMSD -1
REMARK  0 active torsions:
REMARK  status: ('A' for Active; 'I' for Inactive)
ROOT
ATOM      1  N1  IND d   1       0.159  -0.351  -2.070  0.00  0.00    -0.196 N 
ATOM      2  C2  IND d   1       0.415  -0.332  -0.728  0.00  0.00     0.054 A 
ATOM      3  C3  IND d   1      -0.489  -1.089  -0.066  0.00  0.00    -0.031 A 
ATOM      4  C4  IND d   1      -2.412  -2.527  -0.996  0.00  0.00     0.051 A 
ATOM      5  C5  IND d   1      -3.062  -2.834  -2.158  0.00  0.00    -0.031 A 
ATOM      6  C6  IND d   1      -2.663  -2.321  -3.375  0.00  0.00     0.015 A 
ATOM      7  C7  IND d   1      -1.586  -1.487  -3.477  0.00  0.00    -0.016 A 
ATOM      8  C8  IND d   1      -0.927  -1.167  -2.298  0.00  0.00    -0.047 A 
ATOM      9  C9  IND d   1      -1.354  -1.651  -1.055  0.00  0.00    -0.096 A 
ATOM     10  HN1 IND d   1       0.602   0.076  -2.671  0.00  0.00     0.298 HD
ENDROOT
TORSDOF 0
ENDMDL
