MODEL 1
REMARK minimizedAffinity 1.89022315
REMARK minimizedRMSD -1
REMARK  0 active torsions:
REMARK  status: ('A' for Active; 'I' for Inactive)
ROOT
ATOM      1  N1  IND d   1       2.205   1.236  -0.547  0.00  0.00    -0.196 N 
ATOM      2  C2  IND d   1       1.769   2.197   0.323  0.00  0.00     0.054 A 
ATOM      3  C3  IND d   1       0.591   1.831   0.876  0.00  0.00    -0.031 A 
ATOM      4  C4  IND d   1      -0.750  -0.346   0.577  0.00  0.00     0.051 A 
ATOM      5  C5  IND d   1      -0.772  -1.508  -0.143  0.00  0.00    -0.031 A 
ATOM      6  C6  IND d   1       0.219  -1.821  -1.051  0.00  0.00     0.015 A 
ATOM      7  C7  IND d   1       1.280  -0.987  -1.265  0.00  0.00    -0.016 A 
ATOM      8  C8  IND d   1       1.301   0.197  -0.541  0.00  0.00    -0.047 A 
ATOM      9  C9  IND d   1       0.276   0.540   0.350  0.00  0.00    -0.096 A 
ATOM     10  HN1 IND d   1       2.923   1.275  -1.018  0.00  0.00     0.298 HD
ENDROOT
TORSDOF 0
ENDMDL
