MODEL 1
REMARK minimizedAffinity -5.79398966
REMARK minimizedRMSD -1
REMARK  0 active torsions:
REMARK  status: ('A' for Active; 'I' for Inactive)
ROOT
ATOM      1  N1  IND d   1       1.829   2.704   1.503  0.00  0.00    -0.196 N 
ATOM      2  C2  IND d   1       2.696   2.420   0.484  0.00  0.00     0.054 A 
ATOM      3  C3  IND d   1       2.217   1.405  -0.270  0.00  0.00    -0.031 A 
ATOM      4  C4  IND d   1      -0.013   0.133  -0.076  0.00  0.00     0.051 A 
ATOM      5  C5  IND d   1      -1.118   0.012   0.718  0.00  0.00    -0.031 A 
ATOM      6  C6  IND d   1      -1.303   0.800   1.835  0.00  0.00     0.015 A 
ATOM      7  C7  IND d   1      -0.390   1.751   2.195  0.00  0.00    -0.016 A 
ATOM      8  C8  IND d   1       0.737   1.871   1.395  0.00  0.00    -0.047 A 
ATOM      9  C9  IND d   1       0.951   1.045   0.284  0.00  0.00    -0.096 A 
ATOM     10  HN1 IND d   1       1.947   3.303   2.109  0.00  0.00     0.298 HD
ENDROOT
TORSDOF 0
ENDMDL
