MODEL 1
REMARK minimizedAffinity -3.10698414
REMARK minimizedRMSD -1
REMARK  0 active torsions:
REMARK  status: ('A' for Active; 'I' for Inactive)
ROOT
ATOM      1  N1  IND d   1       0.142   0.900   2.342  0.00  0.00    -0.196 N 
ATOM      2  C2  IND d   1       0.857   1.867   1.692  0.00  0.00     0.054 A 
ATOM      3  C3  IND d   1       0.999   1.549   0.386  0.00  0.00    -0.031 A 
ATOM      4  C4  IND d   1       0.053  -0.457  -0.922  0.00  0.00     0.051 A 
ATOM      5  C5  IND d   1      -0.633  -1.626  -0.752  0.00  0.00    -0.031 A 
ATOM      6  C6  IND d   1      -1.108  -2.020   0.483  0.00  0.00     0.015 A 
ATOM      7  C7  IND d   1      -0.923  -1.250   1.596  0.00  0.00    -0.016 A 
ATOM      8  C8  IND d   1      -0.221  -0.065   1.428  0.00  0.00    -0.047 A 
ATOM      9  C9  IND d   1       0.300   0.319   0.186  0.00  0.00    -0.096 A 
ATOM     10  HN1 IND d   1      -0.049   0.896   3.180  0.00  0.00     0.298 HD
ENDROOT
TORSDOF 0
ENDMDL
