MODEL 1
REMARK minimizedAffinity -3.26596212
REMARK minimizedRMSD -1
REMARK  0 active torsions:
REMARK  status: ('A' for Active; 'I' for Inactive)
ROOT
ATOM      1  N1  IND d   1       0.934   1.680   2.340  0.00  0.00    -0.196 N 
ATOM      2  C2  IND d   1       0.261   0.892   3.232  0.00  0.00     0.054 A 
ATOM      3  C3  IND d   1      -0.401  -0.093   2.583  0.00  0.00    -0.031 A 
ATOM      4  C4  IND d   1      -0.437  -0.660   0.072  0.00  0.00     0.051 A 
ATOM      5  C5  IND d   1      -0.004  -0.204  -1.141  0.00  0.00    -0.031 A 
ATOM      6  C6  IND d   1       0.782   0.924  -1.259  0.00  0.00     0.015 A 
ATOM      7  C7  IND d   1       1.175   1.636  -0.160  0.00  0.00    -0.016 A 
ATOM      8  C8  IND d   1       0.732   1.180   1.073  0.00  0.00    -0.047 A 
ATOM      9  C9  IND d   1      -0.101   0.060   1.195  0.00  0.00    -0.096 A 
ATOM     10  HN1 IND d   1       1.405   2.372   2.538  0.00  0.00     0.298 HD
ENDROOT
TORSDOF 0
ENDMDL
