MODEL 1
REMARK minimizedAffinity -4.99766827
REMARK minimizedRMSD -1
REMARK  0 active torsions:
REMARK  status: ('A' for Active; 'I' for Inactive)
ROOT
ATOM      1  N1  IND d   1       1.510  -0.860  -0.660  0.00  0.00    -0.196 N 
ATOM      2  C2  IND d   1       0.172  -1.119  -0.771  0.00  0.00     0.054 A 
ATOM      3  C3  IND d   1      -0.548  -0.135  -0.188  0.00  0.00    -0.031 A 
ATOM      4  C4  IND d   1       0.259   2.045   0.918  0.00  0.00     0.051 A 
ATOM      5  C5  IND d   1       1.394   2.708   1.291  0.00  0.00    -0.031 A 
ATOM      6  C6  IND d   1       2.652   2.206   1.025  0.00  0.00     0.015 A 
ATOM      7  C7  IND d   1       2.821   1.023   0.363  0.00  0.00    -0.016 A 
ATOM      8  C8  IND d   1       1.670   0.344  -0.011  0.00  0.00    -0.047 A 
ATOM      9  C9  IND d   1       0.391   0.828   0.294  0.00  0.00    -0.096 A 
ATOM     10  HN1 IND d   1       2.144  -1.365  -0.947  0.00  0.00     0.298 HD
ENDROOT
TORSDOF 0
ENDMDL
