MODEL 1
REMARK minimizedAffinity 1.21133506
REMARK minimizedRMSD -1
REMARK  0 active torsions:
REMARK  status: ('A' for Active; 'I' for Inactive)
ROOT
ATOM      1  N1  IND d   1       0.161  -1.150  -2.191  0.00  0.00    -0.196 N 
ATOM      2  C2  IND d   1       0.236  -1.501  -0.872  0.00  0.00     0.054 A 
ATOM      3  C3  IND d   1      -0.976  -1.890  -0.419  0.00  0.00    -0.031 A 
ATOM      4  C4  IND d   1      -3.201  -2.125  -1.694  0.00  0.00     0.051 A 
ATOM      5  C5  IND d   1      -3.775  -1.886  -2.911  0.00  0.00    -0.031 A 
ATOM      6  C6  IND d   1      -3.051  -1.382  -3.972  0.00  0.00     0.015 A 
ATOM      7  C7  IND d   1      -1.718  -1.108  -3.859  0.00  0.00    -0.016 A 
ATOM      8  C8  IND d   1      -1.133  -1.342  -2.622  0.00  0.00    -0.047 A 
ATOM      9  C9  IND d   1      -1.872  -1.813  -1.529  0.00  0.00    -0.096 A 
ATOM     10  HN1 IND d   1       0.812  -0.858  -2.670  0.00  0.00     0.298 HD
ENDROOT
TORSDOF 0
ENDMDL
