MODEL 1
REMARK minimizedAffinity -5.13402319
REMARK minimizedRMSD -1
REMARK  0 active torsions:
REMARK  status: ('A' for Active; 'I' for Inactive)
ROOT
ATOM      1  N1  IND d   1       1.115  -0.641  -0.725  0.00  0.00    -0.196 N 
ATOM      2  C2  IND d   1      -0.023  -1.383  -0.565  0.00  0.00     0.054 A 
ATOM      3  C3  IND d   1      -0.871  -0.765   0.287  0.00  0.00    -0.031 A 
ATOM      4  C4  IND d   1      -0.642   1.517   1.456  0.00  0.00     0.051 A 
ATOM      5  C5  IND d   1       0.237   2.547   1.646  0.00  0.00    -0.031 A 
ATOM      6  C6  IND d   1       1.477   2.568   1.041  0.00  0.00     0.015 A 
ATOM      7  C7  IND d   1       1.882   1.561   0.211  0.00  0.00    -0.016 A 
ATOM      8  C8  IND d   1       0.995   0.511   0.021  0.00  0.00    -0.047 A 
ATOM      9  C9  IND d   1      -0.248   0.463   0.666  0.00  0.00    -0.096 A 
ATOM     10  HN1 IND d   1       1.791  -0.857  -1.210  0.00  0.00     0.298 HD
ENDROOT
TORSDOF 0
ENDMDL
