MODEL 1
REMARK minimizedAffinity -5.64436579
REMARK minimizedRMSD -1
REMARK  0 active torsions:
REMARK  status: ('A' for Active; 'I' for Inactive)
ROOT
ATOM      1  N1  IND d   1       1.926  -0.825  -0.357  0.00  0.00    -0.196 N 
ATOM      2  C2  IND d   1       0.850  -1.664  -0.442  0.00  0.00     0.054 A 
ATOM      3  C3  IND d   1      -0.237  -1.095   0.127  0.00  0.00    -0.031 A 
ATOM      4  C4  IND d   1      -0.501   1.245   1.167  0.00  0.00     0.051 A 
ATOM      5  C5  IND d   1       0.213   2.360   1.507  0.00  0.00    -0.031 A 
ATOM      6  C6  IND d   1       1.561   2.473   1.235  0.00  0.00     0.015 A 
ATOM      7  C7  IND d   1       2.246   1.476   0.600  0.00  0.00    -0.016 A 
ATOM      8  C8  IND d   1       1.526   0.340   0.260  0.00  0.00    -0.047 A 
ATOM      9  C9  IND d   1       0.167   0.202   0.571  0.00  0.00    -0.096 A 
ATOM     10  HN1 IND d   1       2.719  -0.997  -0.640  0.00  0.00     0.298 HD
ENDROOT
TORSDOF 0
ENDMDL
