MODEL 1
REMARK minimizedAffinity -3.42840457
REMARK minimizedRMSD -1
REMARK  0 active torsions:
REMARK  status: ('A' for Active; 'I' for Inactive)
ROOT
ATOM      1  N1  IND d   1      -1.000  -0.417   0.931  0.00  0.00    -0.196 N 
ATOM      2  C2  IND d   1      -0.809  -1.205  -0.169  0.00  0.00     0.054 A 
ATOM      3  C3  IND d   1       0.137  -0.671  -0.973  0.00  0.00    -0.031 A 
ATOM      4  C4  IND d   1       1.575   1.437  -0.629  0.00  0.00     0.051 A 
ATOM      5  C5  IND d   1       1.738   2.505   0.208  0.00  0.00    -0.031 A 
ATOM      6  C6  IND d   1       0.984   2.655   1.354  0.00  0.00     0.015 A 
ATOM      7  C7  IND d   1       0.042   1.733   1.712  0.00  0.00    -0.016 A 
ATOM      8  C8  IND d   1      -0.132   0.651   0.861  0.00  0.00    -0.047 A 
ATOM      9  C9  IND d   1       0.601   0.515  -0.325  0.00  0.00    -0.096 A 
ATOM     10  HN1 IND d   1      -1.567  -0.563   1.561  0.00  0.00     0.298 HD
ENDROOT
TORSDOF 0
ENDMDL
