MODEL 1
REMARK minimizedAffinity -2.67579651
REMARK minimizedRMSD -1
REMARK  0 active torsions:
REMARK  status: ('A' for Active; 'I' for Inactive)
ROOT
ATOM      1  N1  IND d   1      -1.515  -0.514  -1.879  0.00  0.00    -0.196 N 
ATOM      2  C2  IND d   1      -1.486  -1.859  -1.634  0.00  0.00     0.054 A 
ATOM      3  C3  IND d   1      -1.048  -2.100  -0.378  0.00  0.00    -0.031 A 
ATOM      4  C4  IND d   1      -0.419  -0.435   1.482  0.00  0.00     0.051 A 
ATOM      5  C5  IND d   1      -0.252   0.900   1.721  0.00  0.00    -0.031 A 
ATOM      6  C6  IND d   1      -0.505   1.852   0.754  0.00  0.00     0.015 A 
ATOM      7  C7  IND d   1      -0.947   1.502  -0.491  0.00  0.00    -0.016 A 
ATOM      8  C8  IND d   1      -1.112   0.147  -0.739  0.00  0.00    -0.047 A 
ATOM      9  C9  IND d   1      -0.816  -0.826   0.225  0.00  0.00    -0.096 A 
ATOM     10  HN1 IND d   1      -1.746  -0.144  -2.619  0.00  0.00     0.298 HD
ENDROOT
TORSDOF 0
ENDMDL
