MODEL 1
REMARK minimizedAffinity -4.17374277
REMARK minimizedRMSD -1
REMARK  0 active torsions:
REMARK  status: ('A' for Active; 'I' for Inactive)
ROOT
ATOM      1  N1  IND d   1      -1.371   1.307   2.277  0.00  0.00    -0.196 N 
ATOM      2  C2  IND d   1      -2.004   0.167   1.866  0.00  0.00     0.054 A 
ATOM      3  C3  IND d   1      -1.383  -0.351   0.782  0.00  0.00    -0.031 A 
ATOM      4  C4  IND d   1       0.747   0.450  -0.421  0.00  0.00     0.051 A 
ATOM      5  C5  IND d   1       1.659   1.468  -0.433  0.00  0.00    -0.031 A 
ATOM      6  C6  IND d   1       1.608   2.504   0.477  0.00  0.00     0.015 A 
ATOM      7  C7  IND d   1       0.646   2.554   1.446  0.00  0.00    -0.016 A 
ATOM      8  C8  IND d   1      -0.286   1.526   1.457  0.00  0.00    -0.047 A 
ATOM      9  C9  IND d   1      -0.265   0.495   0.508  0.00  0.00    -0.096 A 
ATOM     10  HN1 IND d   1      -1.610   1.803   2.937  0.00  0.00     0.298 HD
ENDROOT
TORSDOF 0
ENDMDL
