MODEL 1
REMARK minimizedAffinity 14.3228331
REMARK minimizedRMSD -1
REMARK  1 active torsions:
REMARK  status: ('A' for Active; 'I' for Inactive)
REMARK    1  A    between atoms: N_2  and  C1_3 
ROOT
ATOM      1  C1  UNL d   1       4.789   4.621   2.477  0.00  0.00     0.143 A 
ATOM      2  C2  UNL d   1       5.302   5.854   2.894  0.00  0.00    -0.057 A 
ATOM      3  C3  UNL d   1       5.915   6.000   4.144  0.00  0.00     0.033 A 
ATOM      4  C4  UNL d   1       6.000   4.918   5.014  0.00  0.00    -0.042 A 
ATOM      5  C5  UNL d   1       5.474   3.689   4.631  0.00  0.00     0.033 A 
ATOM      6  C6  UNL d   1       4.870   3.548   3.378  0.00  0.00    -0.057 A 
ENDROOT
BRANCH   1   7
ATOM      7  N   UNL d   1       4.081   4.436   1.287  0.00  0.00    -0.732 N 
ATOM      8  C   UNL d   1       3.335   3.217   1.055  0.00  0.00     0.284 C 
ATOM      9  H3  UNL d   1       3.602   5.281   0.984  0.00  0.00     0.395 HD
ENDBRANCH   1   7
TORSDOF 1
ENDMDL
