MODEL 1
REMARK minimizedAffinity 11.6948013
REMARK minimizedRMSD -1
REMARK  1 active torsions:
REMARK  status: ('A' for Active; 'I' for Inactive)
REMARK    1  A    between atoms: N_2  and  C1_3 
ROOT
ATOM      1  C1  UNL d   1       1.025  -3.241  -5.924  0.00  0.00     0.143 A 
ATOM      2  C2  UNL d   1       2.408  -3.228  -5.716  0.00  0.00    -0.057 A 
ATOM      3  C3  UNL d   1       3.140  -4.419  -5.632  0.00  0.00     0.033 A 
ATOM      4  C4  UNL d   1       2.495  -5.647  -5.726  0.00  0.00    -0.042 A 
ATOM      5  C5  UNL d   1       1.117  -5.684  -5.907  0.00  0.00     0.033 A 
ATOM      6  C6  UNL d   1       0.392  -4.492  -5.997  0.00  0.00    -0.057 A 
ENDROOT
BRANCH   1   7
ATOM      7  N   UNL d   1       0.227  -2.094  -5.918  0.00  0.00    -0.732 N 
ATOM      8  C   UNL d   1       0.756  -0.830  -5.451  0.00  0.00     0.284 C 
ATOM      9  H3  UNL d   1      -0.353  -2.020  -6.750  0.00  0.00     0.395 HD
ENDBRANCH   1   7
TORSDOF 1
ENDMDL
