MODEL 1
REMARK minimizedAffinity 15.1888351
REMARK minimizedRMSD -1
REMARK  1 active torsions:
REMARK  status: ('A' for Active; 'I' for Inactive)
REMARK    1  A    between atoms: N_2  and  C1_3 
ROOT
ATOM      1  C1  UNL d   1       3.326  -3.355   5.138  0.00  0.00     0.143 A 
ATOM      2  C2  UNL d   1       4.219  -2.291   5.310  0.00  0.00    -0.057 A 
ATOM      3  C3  UNL d   1       5.540  -2.511   5.719  0.00  0.00     0.033 A 
ATOM      4  C4  UNL d   1       5.984  -3.800   5.992  0.00  0.00    -0.042 A 
ATOM      5  C5  UNL d   1       5.107  -4.870   5.852  0.00  0.00     0.033 A 
ATOM      6  C6  UNL d   1       3.791  -4.645   5.437  0.00  0.00    -0.057 A 
ENDROOT
BRANCH   1   7
ATOM      7  N   UNL d   1       1.973  -3.192   4.829  0.00  0.00    -0.732 N 
ATOM      8  C   UNL d   1       1.503  -1.983   4.188  0.00  0.00     0.284 C 
ATOM      9  H3  UNL d   1       1.553  -4.045   4.467  0.00  0.00     0.395 HD
ENDBRANCH   1   7
TORSDOF 1
ENDMDL
