MODEL 1
REMARK minimizedAffinity 9.4104166
REMARK minimizedRMSD -1
REMARK  1 active torsions:
REMARK  status: ('A' for Active; 'I' for Inactive)
REMARK    1  A    between atoms: N_2  and  C1_3 
ROOT
ATOM      1  C1  UNL d   1       2.613  -0.391  -4.836  0.00  0.00     0.143 A 
ATOM      2  C2  UNL d   1       1.825  -0.109  -3.715  0.00  0.00    -0.057 A 
ATOM      3  C3  UNL d   1       0.444  -0.336  -3.722  0.00  0.00     0.033 A 
ATOM      4  C4  UNL d   1      -0.181  -0.824  -4.866  0.00  0.00    -0.042 A 
ATOM      5  C5  UNL d   1       0.578  -1.088  -6.000  0.00  0.00     0.033 A 
ATOM      6  C6  UNL d   1       1.959  -0.865  -5.984  0.00  0.00    -0.057 A 
ENDROOT
BRANCH   1   7
ATOM      7  N   UNL d   1       3.975  -0.094  -4.924  0.00  0.00    -0.732 N 
ATOM      8  C   UNL d   1       4.482   0.731  -6.000  0.00  0.00     0.284 C 
ATOM      9  H3  UNL d   1       4.388   0.107  -4.016  0.00  0.00     0.395 HD
ENDBRANCH   1   7
TORSDOF 1
ENDMDL
