MODEL 1
REMARK minimizedAffinity 4.154778
REMARK minimizedRMSD -1
REMARK  1 active torsions:
REMARK  status: ('A' for Active; 'I' for Inactive)
REMARK    1  A    between atoms: N_2  and  C1_3 
ROOT
ATOM      1  C1  UNL d   1      -1.265  -0.531   2.877  0.00  0.00     0.143 A 
ATOM      2  C2  UNL d   1      -0.683  -1.645   3.491  0.00  0.00    -0.057 A 
ATOM      3  C3  UNL d   1       0.672  -1.656   3.843  0.00  0.00     0.033 A 
ATOM      4  C4  UNL d   1       1.479  -0.559   3.559  0.00  0.00    -0.042 A 
ATOM      5  C5  UNL d   1       0.928   0.550   2.926  0.00  0.00     0.033 A 
ATOM      6  C6  UNL d   1      -0.428   0.557   2.584  0.00  0.00    -0.057 A 
ENDROOT
BRANCH   1   7
ATOM      7  N   UNL d   1      -2.583  -0.497   2.414  0.00  0.00    -0.732 N 
ATOM      8  C   UNL d   1      -3.517  -1.542   2.773  0.00  0.00     0.284 C 
ATOM      9  H3  UNL d   1      -2.978   0.440   2.437  0.00  0.00     0.395 HD
ENDBRANCH   1   7
TORSDOF 1
ENDMDL
