MODEL 1
REMARK minimizedAffinity 6.04519463
REMARK minimizedRMSD -1
REMARK  1 active torsions:
REMARK  status: ('A' for Active; 'I' for Inactive)
REMARK    1  A    between atoms: N_2  and  C1_3 
ROOT
ATOM      1  C1  UNL d   1       0.663  -2.046  -5.762  0.00  0.00     0.143 A 
ATOM      2  C2  UNL d   1       0.551  -0.776  -5.186  0.00  0.00    -0.057 A 
ATOM      3  C3  UNL d   1       1.686  -0.016  -4.879  0.00  0.00     0.033 A 
ATOM      4  C4  UNL d   1       2.958  -0.526  -5.116  0.00  0.00    -0.042 A 
ATOM      5  C5  UNL d   1       3.094  -1.796  -5.664  0.00  0.00     0.033 A 
ATOM      6  C6  UNL d   1       1.957  -2.548  -5.976  0.00  0.00    -0.057 A 
ENDROOT
BRANCH   1   7
ATOM      7  N   UNL d   1      -0.424  -2.891  -6.000  0.00  0.00    -0.732 N 
ATOM      8  C   UNL d   1      -0.254  -4.328  -5.997  0.00  0.00     0.284 C 
ATOM      9  H3  UNL d   1      -1.272  -2.572  -5.538  0.00  0.00     0.395 HD
ENDBRANCH   1   7
TORSDOF 1
ENDMDL
