MODEL 1
REMARK minimizedAffinity 8.00722504
REMARK minimizedRMSD -1
REMARK  1 active torsions:
REMARK  status: ('A' for Active; 'I' for Inactive)
REMARK    1  A    between atoms: N_2  and  C1_3 
ROOT
ATOM      1  C1  UNL d   1      -0.676  -1.477  -3.744  0.00  0.00     0.143 A 
ATOM      2  C2  UNL d   1       0.367  -0.544  -3.757  0.00  0.00    -0.057 A 
ATOM      3  C3  UNL d   1       1.192  -0.393  -4.878  0.00  0.00     0.033 A 
ATOM      4  C4  UNL d   1       1.005  -1.195  -5.999  0.00  0.00    -0.042 A 
ATOM      5  C5  UNL d   1      -0.009  -2.146  -5.999  0.00  0.00     0.033 A 
ATOM      6  C6  UNL d   1      -0.834  -2.287  -4.879  0.00  0.00    -0.057 A 
ENDROOT
BRANCH   1   7
ATOM      7  N   UNL d   1      -1.468  -1.743  -2.624  0.00  0.00    -0.732 N 
ATOM      8  C   UNL d   1      -0.988  -2.613  -1.572  0.00  0.00     0.284 C 
ATOM      9  H3  UNL d   1      -1.957  -0.916  -2.289  0.00  0.00     0.395 HD
ENDBRANCH   1   7
TORSDOF 1
ENDMDL
