MODEL 1
REMARK minimizedAffinity 11.0342636
REMARK minimizedRMSD -1
REMARK  1 active torsions:
REMARK  status: ('A' for Active; 'I' for Inactive)
REMARK    1  A    between atoms: N_2  and  C1_3 
ROOT
ATOM      1  C1  UNL d   1       0.003  -2.593  -5.185  0.00  0.00     0.143 A 
ATOM      2  C2  UNL d   1      -0.317  -3.687  -5.995  0.00  0.00    -0.057 A 
ATOM      3  C3  UNL d   1      -1.391  -4.531  -5.686  0.00  0.00     0.033 A 
ATOM      4  C4  UNL d   1      -2.148  -4.310  -4.540  0.00  0.00    -0.042 A 
ATOM      5  C5  UNL d   1      -1.833  -3.243  -3.707  0.00  0.00     0.033 A 
ATOM      6  C6  UNL d   1      -0.764  -2.401  -4.025  0.00  0.00    -0.057 A 
ENDROOT
BRANCH   1   7
ATOM      7  N   UNL d   1       1.119  -1.776  -5.385  0.00  0.00    -0.732 N 
ATOM      8  C   UNL d   1       1.022  -0.342  -5.217  0.00  0.00     0.284 C 
ATOM      9  H3  UNL d   1       1.971  -2.183  -5.006  0.00  0.00     0.395 HD
ENDBRANCH   1   7
TORSDOF 1
ENDMDL
