MODEL 1
REMARK minimizedAffinity 2.5576427
REMARK minimizedRMSD -1
REMARK  0 active torsions:
REMARK  status: ('A' for Active; 'I' for Inactive)
ROOT
ATOM      1  C   UNL d   1       0.103   1.430  -0.595  0.00  0.00     0.020 A 
ATOM      2  C1  UNL d   1       0.032   1.547   0.792  0.00  0.00     0.020 A 
ATOM      3  C2  UNL d   1      -0.241   0.422   1.574  0.00  0.00     0.034 A 
ATOM      4  C3  UNL d   1      -0.443  -0.824   0.970  0.00  0.00     0.017 A 
ATOM      5  C4  UNL d   1      -0.371  -0.940  -0.423  0.00  0.00     0.017 A 
ATOM      6  C5  UNL d   1      -0.097   0.189  -1.201  0.00  0.00     0.034 A 
ATOM      7 Cl   UNL d   1      -0.609  -2.444  -1.241  0.00  0.00    -0.070 Cl
ATOM      8 Cl1  UNL d   1      -0.776  -2.171   1.999  0.00  0.00    -0.070 Cl
ENDROOT
TORSDOF 0
ENDMDL
