MODEL 1
REMARK minimizedAffinity -0.918412089
REMARK minimizedRMSD -1
REMARK  0 active torsions:
REMARK  status: ('A' for Active; 'I' for Inactive)
ROOT
ATOM      1  C   UNL d   1       2.979  -5.525  -2.063  0.00  0.00     0.020 A 
ATOM      2  C1  UNL d   1       3.755  -4.405  -1.771  0.00  0.00     0.020 A 
ATOM      3  C2  UNL d   1       4.458  -3.758  -2.790  0.00  0.00     0.034 A 
ATOM      4  C3  UNL d   1       4.386  -4.231  -4.105  0.00  0.00     0.017 A 
ATOM      5  C4  UNL d   1       3.606  -5.355  -4.397  0.00  0.00     0.017 A 
ATOM      6  C5  UNL d   1       2.904  -5.999  -3.374  0.00  0.00     0.034 A 
ATOM      7 Cl   UNL d   1       3.467  -5.998  -5.996  0.00  0.00    -0.070 Cl
ATOM      8 Cl1  UNL d   1       5.281  -3.382  -5.315  0.00  0.00    -0.070 Cl
ENDROOT
TORSDOF 0
ENDMDL
