MODEL 1
REMARK minimizedAffinity 3.21378255
REMARK minimizedRMSD -1
REMARK  0 active torsions:
REMARK  status: ('A' for Active; 'I' for Inactive)
ROOT
ATOM      1  C   UNL d   1       2.379   2.005   0.695  0.00  0.00     0.020 A 
ATOM      2  C1  UNL d   1       1.624   1.571  -0.394  0.00  0.00     0.020 A 
ATOM      3  C2  UNL d   1       0.943   0.354  -0.331  0.00  0.00     0.034 A 
ATOM      4  C3  UNL d   1       1.016  -0.435   0.824  0.00  0.00     0.017 A 
ATOM      5  C4  UNL d   1       1.774   0.002   1.916  0.00  0.00     0.017 A 
ATOM      6  C5  UNL d   1       2.453   1.222   1.848  0.00  0.00     0.034 A 
ATOM      7 Cl   UNL d   1       1.911  -0.916   3.375  0.00  0.00    -0.070 Cl
ATOM      8 Cl1  UNL d   1       0.148  -1.929   0.832  0.00  0.00    -0.070 Cl
ENDROOT
TORSDOF 0
ENDMDL
