MODEL 1
REMARK minimizedAffinity -4.17203283
REMARK minimizedRMSD -1
REMARK  0 active torsions:
REMARK  status: ('A' for Active; 'I' for Inactive)
ROOT
ATOM      1  C   UNL d   1       4.548  -0.650  -4.360  0.00  0.00     0.020 A 
ATOM      2  C1  UNL d   1       3.757  -0.678  -5.508  0.00  0.00     0.020 A 
ATOM      3  C2  UNL d   1       3.281  -1.896  -5.997  0.00  0.00     0.034 A 
ATOM      4  C3  UNL d   1       3.595  -3.091  -5.339  0.00  0.00     0.017 A 
ATOM      5  C4  UNL d   1       4.389  -3.061  -4.187  0.00  0.00     0.017 A 
ATOM      6  C5  UNL d   1       4.863  -1.839  -3.701  0.00  0.00     0.034 A 
ATOM      7 Cl   UNL d   1       4.819  -4.493  -3.320  0.00  0.00    -0.070 Cl
ATOM      8 Cl1  UNL d   1       2.972  -4.560  -6.000  0.00  0.00    -0.070 Cl
ENDROOT
TORSDOF 0
ENDMDL
