MODEL 1
REMARK minimizedAffinity 7.65482044
REMARK minimizedRMSD -1
REMARK  0 active torsions:
REMARK  status: ('A' for Active; 'I' for Inactive)
ROOT
ATOM      1  C   UNL d   1      -1.253   2.581   0.175  0.00  0.00     0.020 A 
ATOM      2  C1  UNL d   1      -0.198   3.490   0.090  0.00  0.00     0.020 A 
ATOM      3  C2  UNL d   1       1.118   3.048   0.240  0.00  0.00     0.034 A 
ATOM      4  C3  UNL d   1       1.383   1.694   0.476  0.00  0.00     0.017 A 
ATOM      5  C4  UNL d   1       0.325   0.783   0.561  0.00  0.00     0.017 A 
ATOM      6  C5  UNL d   1      -0.991   1.231   0.410  0.00  0.00     0.034 A 
ATOM      7 Cl   UNL d   1       0.574  -0.903   0.850  0.00  0.00    -0.070 Cl
ATOM      8 Cl1  UNL d   1       3.035   1.218   0.652  0.00  0.00    -0.070 Cl
ENDROOT
TORSDOF 0
ENDMDL
