MODEL 1
REMARK minimizedAffinity 8.14040661
REMARK minimizedRMSD -1
REMARK  0 active torsions:
REMARK  status: ('A' for Active; 'I' for Inactive)
ROOT
ATOM      1  C   UNL d   1      -1.130   1.891  -0.593  0.00  0.00     0.020 A 
ATOM      2  C1  UNL d   1      -0.106   2.837  -0.574  0.00  0.00     0.020 A 
ATOM      3  C2  UNL d   1       1.162   2.484  -0.108  0.00  0.00     0.034 A 
ATOM      4  C3  UNL d   1       1.409   1.182   0.342  0.00  0.00     0.017 A 
ATOM      5  C4  UNL d   1       0.381   0.233   0.322  0.00  0.00     0.017 A 
ATOM      6  C5  UNL d   1      -0.887   0.591  -0.146  0.00  0.00     0.034 A 
ATOM      7 Cl   UNL d   1       0.610  -1.394   0.860  0.00  0.00    -0.070 Cl
ATOM      8 Cl1  UNL d   1       3.001   0.815   0.904  0.00  0.00    -0.070 Cl
ENDROOT
TORSDOF 0
ENDMDL
