MODEL 1
REMARK minimizedAffinity 0.643145621
REMARK minimizedRMSD -1
REMARK  0 active torsions:
REMARK  status: ('A' for Active; 'I' for Inactive)
ROOT
ATOM      1  C   UNL d   1      -0.542  -1.047   0.483  0.00  0.00     0.020 A 
ATOM      2  C1  UNL d   1      -0.824   0.301   0.271  0.00  0.00     0.020 A 
ATOM      3  C2  UNL d   1      -1.377   0.716  -0.943  0.00  0.00     0.034 A 
ATOM      4  C3  UNL d   1      -1.650  -0.219  -1.948  0.00  0.00     0.017 A 
ATOM      5  C4  UNL d   1      -1.366  -1.573  -1.733  0.00  0.00     0.017 A 
ATOM      6  C5  UNL d   1      -0.812  -1.982  -0.517  0.00  0.00     0.034 A 
ATOM      7 Cl   UNL d   1      -1.675  -2.785  -2.926  0.00  0.00    -0.070 Cl
ATOM      8 Cl1  UNL d   1      -2.335   0.364  -3.423  0.00  0.00    -0.070 Cl
ENDROOT
TORSDOF 0
ENDMDL
