MODEL 1
REMARK minimizedAffinity -0.966172636
REMARK minimizedRMSD -1
REMARK  0 active torsions:
REMARK  status: ('A' for Active; 'I' for Inactive)
ROOT
ATOM      1  C   UNL d   1       2.782   0.999   0.850  0.00  0.00     0.020 A 
ATOM      2  C1  UNL d   1       2.677   1.679   2.063  0.00  0.00     0.020 A 
ATOM      3  C2  UNL d   1       2.374   0.978   3.232  0.00  0.00     0.034 A 
ATOM      4  C3  UNL d   1       2.176  -0.407   3.191  0.00  0.00     0.017 A 
ATOM      5  C4  UNL d   1       2.282  -1.088   1.973  0.00  0.00     0.017 A 
ATOM      6  C5  UNL d   1       2.585  -0.381   0.805  0.00  0.00     0.034 A 
ATOM      7 Cl   UNL d   1       2.050  -2.796   1.843  0.00  0.00    -0.070 Cl
ATOM      8 Cl1  UNL d   1       1.805  -1.210   4.676  0.00  0.00    -0.070 Cl
ENDROOT
TORSDOF 0
ENDMDL
