MODEL 1
REMARK minimizedAffinity 8.57214642
REMARK minimizedRMSD -1
REMARK  1 active torsions:
REMARK  status: ('A' for Active; 'I' for Inactive)
REMARK    1  A    between atoms: C1_2  and  C2_3 
ROOT
ATOM      1  C2  UNL d   1       0.700   1.189   1.892  0.00  0.00    -0.076 A 
ATOM      2  C3  UNL d   1      -0.099   1.739   2.910  0.00  0.00     0.004 A 
ATOM      3  C4  UNL d   1      -1.488   1.635   2.867  0.00  0.00    -0.003 A 
ATOM      4  C5  UNL d   1      -2.102   0.979   1.806  0.00  0.00     0.000 A 
ATOM      5  C6  UNL d   1      -1.324   0.412   0.797  0.00  0.00     0.000 A 
ATOM      6  C7  UNL d   1       0.078   0.494   0.833  0.00  0.00    -0.073 A 
ATOM      7  C8  UNL d   1       0.867  -0.130  -0.286  0.00  0.00     0.078 C 
ENDROOT
BRANCH   1   8
ATOM      8  C1  UNL d   1       2.200   1.357   1.978  0.00  0.00     0.053 C 
ATOM      9  C   UNL d   1       2.664   2.717   1.478  0.00  0.00     0.018 C 
ENDBRANCH   1   8
TORSDOF 1
ENDMDL
