MODEL 1
REMARK minimizedAffinity 5.95969725
REMARK minimizedRMSD -1
REMARK  1 active torsions:
REMARK  status: ('A' for Active; 'I' for Inactive)
REMARK    1  A    between atoms: C1_2  and  C2_3 
ROOT
ATOM      1  C2  UNL d   1      -3.865  -3.609   0.832  0.00  0.00    -0.076 A 
ATOM      2  C3  UNL d   1      -3.239  -4.858   0.671  0.00  0.00     0.004 A 
ATOM      3  C4  UNL d   1      -3.981  -5.999   0.375  0.00  0.00    -0.003 A 
ATOM      4  C5  UNL d   1      -5.362  -5.911   0.233  0.00  0.00     0.000 A 
ATOM      5  C6  UNL d   1      -5.998  -4.678   0.372  0.00  0.00     0.000 A 
ATOM      6  C7  UNL d   1      -5.262  -3.514   0.655  0.00  0.00    -0.073 A 
ATOM      7  C8  UNL d   1      -6.000  -2.211   0.799  0.00  0.00     0.078 C 
ENDROOT
BRANCH   1   8
ATOM      8  C1  UNL d   1      -3.012  -2.410   1.180  0.00  0.00     0.053 C 
ATOM      9  C   UNL d   1      -2.932  -1.403   0.043  0.00  0.00     0.018 C 
ENDBRANCH   1   8
TORSDOF 1
ENDMDL
