MODEL 1
REMARK minimizedAffinity 3.36230659
REMARK minimizedRMSD -1
REMARK  1 active torsions:
REMARK  status: ('A' for Active; 'I' for Inactive)
REMARK    1  A    between atoms: C1_2  and  C2_3 
ROOT
ATOM      1  C2  UNL d   1      -1.577  -0.173   0.371  0.00  0.00    -0.076 A 
ATOM      2  C3  UNL d   1      -1.754  -0.479   1.731  0.00  0.00     0.004 A 
ATOM      3  C4  UNL d   1      -1.086   0.239   2.721  0.00  0.00    -0.003 A 
ATOM      4  C5  UNL d   1      -0.229   1.276   2.367  0.00  0.00     0.000 A 
ATOM      5  C6  UNL d   1      -0.055   1.605   1.023  0.00  0.00     0.000 A 
ATOM      6  C7  UNL d   1      -0.734   0.901   0.013  0.00  0.00    -0.073 A 
ATOM      7  C8  UNL d   1      -0.504   1.295  -1.420  0.00  0.00     0.078 C 
ENDROOT
BRANCH   1   8
ATOM      8  C1  UNL d   1      -2.308  -1.004  -0.660  0.00  0.00     0.053 C 
ATOM      9  C   UNL d   1      -3.217  -2.047  -0.029  0.00  0.00     0.018 C 
ENDBRANCH   1   8
TORSDOF 1
ENDMDL
