MODEL 1
REMARK minimizedAffinity 7.16703701
REMARK minimizedRMSD -1
REMARK  1 active torsions:
REMARK  status: ('A' for Active; 'I' for Inactive)
REMARK    1  A    between atoms: C1_2  and  C2_3 
ROOT
ATOM      1  C2  UNL d   1      -0.567  -5.856   2.184  0.00  0.00    -0.076 A 
ATOM      2  C3  UNL d   1      -1.061  -5.789   3.498  0.00  0.00     0.004 A 
ATOM      3  C4  UNL d   1      -0.198  -5.835   4.592  0.00  0.00    -0.003 A 
ATOM      4  C5  UNL d   1       1.173  -5.947   4.389  0.00  0.00     0.000 A 
ATOM      5  C6  UNL d   1       1.682  -5.997   3.092  0.00  0.00     0.000 A 
ATOM      6  C7  UNL d   1       0.827  -5.935   1.978  0.00  0.00    -0.073 A 
ATOM      7  C8  UNL d   1       1.430  -5.999   0.601  0.00  0.00     0.078 C 
ENDROOT
BRANCH   1   8
ATOM      8  C1  UNL d   1      -1.552  -5.830   1.038  0.00  0.00     0.053 C 
ATOM      9  C   UNL d   1      -2.991  -5.994   1.502  0.00  0.00     0.018 C 
ENDBRANCH   1   8
TORSDOF 1
ENDMDL
