MODEL 1
REMARK minimizedAffinity 8.26883793
REMARK minimizedRMSD -1
REMARK  1 active torsions:
REMARK  status: ('A' for Active; 'I' for Inactive)
REMARK    1  A    between atoms: C1_2  and  C2_3 
ROOT
ATOM      1  C2  UNL d   1      -1.291  -0.644   0.416  0.00  0.00    -0.076 A 
ATOM      2  C3  UNL d   1      -0.474   0.082  -0.469  0.00  0.00     0.004 A 
ATOM      3  C4  UNL d   1       0.553   0.895   0.007  0.00  0.00    -0.003 A 
ATOM      4  C5  UNL d   1       0.782   0.994   1.375  0.00  0.00     0.000 A 
ATOM      5  C6  UNL d   1      -0.007   0.267   2.266  0.00  0.00     0.000 A 
ATOM      6  C7  UNL d   1      -1.037  -0.570   1.802  0.00  0.00    -0.073 A 
ATOM      7  C8  UNL d   1      -1.861  -1.326   2.807  0.00  0.00     0.078 C 
ENDROOT
BRANCH   1   8
ATOM      8  C1  UNL d   1      -2.408  -1.487  -0.157  0.00  0.00     0.053 C 
ATOM      9  C   UNL d   1      -2.759  -1.097  -1.585  0.00  0.00     0.018 C 
ENDBRANCH   1   8
TORSDOF 1
ENDMDL
