MODEL 1
REMARK minimizedAffinity 6.96276426
REMARK minimizedRMSD -1
REMARK  1 active torsions:
REMARK  status: ('A' for Active; 'I' for Inactive)
REMARK    1  A    between atoms: C1_2  and  C2_3 
ROOT
ATOM      1  C2  UNL d   1      -1.165  -1.201   1.203  0.00  0.00    -0.076 A 
ATOM      2  C3  UNL d   1      -0.426  -0.792   0.080  0.00  0.00     0.004 A 
ATOM      3  C4  UNL d   1       0.441   0.297   0.149  0.00  0.00    -0.003 A 
ATOM      4  C5  UNL d   1       0.584   0.995   1.344  0.00  0.00     0.000 A 
ATOM      5  C6  UNL d   1      -0.128   0.592   2.473  0.00  0.00     0.000 A 
ATOM      6  C7  UNL d   1      -0.994  -0.514   2.425  0.00  0.00    -0.073 A 
ATOM      7  C8  UNL d   1      -1.742  -0.901   3.671  0.00  0.00     0.078 C 
ENDROOT
BRANCH   1   8
ATOM      8  C1  UNL d   1      -2.111  -2.372   1.061  0.00  0.00     0.053 C 
ATOM      9  C   UNL d   1      -3.164  -2.143  -0.012  0.00  0.00     0.018 C 
ENDBRANCH   1   8
TORSDOF 1
ENDMDL
