MODEL 1
REMARK minimizedAffinity 8.36724186
REMARK minimizedRMSD -1
REMARK  1 active torsions:
REMARK  status: ('A' for Active; 'I' for Inactive)
REMARK    1  A    between atoms: C1_2  and  C2_3 
ROOT
ATOM      1  C2  UNL d   1      -0.270   0.040   1.478  0.00  0.00    -0.076 A 
ATOM      2  C3  UNL d   1       0.761  -0.266   2.384  0.00  0.00     0.004 A 
ATOM      3  C4  UNL d   1       2.096  -0.044   2.052  0.00  0.00    -0.003 A 
ATOM      4  C5  UNL d   1       2.423   0.488   0.810  0.00  0.00     0.000 A 
ATOM      5  C6  UNL d   1       1.412   0.814  -0.094  0.00  0.00     0.000 A 
ATOM      6  C7  UNL d   1       0.060   0.612   0.231  0.00  0.00    -0.073 A 
ATOM      7  C8  UNL d   1      -0.989   0.975  -0.784  0.00  0.00     0.078 C 
ENDROOT
BRANCH   1   8
ATOM      8  C1  UNL d   1      -1.698  -0.248   1.883  0.00  0.00     0.053 C 
ATOM      9  C   UNL d   1      -1.880  -1.661   2.415  0.00  0.00     0.018 C 
ENDBRANCH   1   8
TORSDOF 1
ENDMDL
