MODEL 1
REMARK minimizedAffinity 10.6659813
REMARK minimizedRMSD -1
REMARK  1 active torsions:
REMARK  status: ('A' for Active; 'I' for Inactive)
REMARK    1  A    between atoms: C1_2  and  C2_3 
ROOT
ATOM      1  C2  UNL d   1      -2.210  -1.573  -0.569  0.00  0.00    -0.076 A 
ATOM      2  C3  UNL d   1      -3.317  -2.267  -0.050  0.00  0.00     0.004 A 
ATOM      3  C4  UNL d   1      -3.277  -2.834   1.222  0.00  0.00    -0.003 A 
ATOM      4  C5  UNL d   1      -2.129  -2.716   1.998  0.00  0.00     0.000 A 
ATOM      5  C6  UNL d   1      -1.027  -2.015   1.506  0.00  0.00     0.000 A 
ATOM      6  C7  UNL d   1      -1.058  -1.424   0.232  0.00  0.00    -0.073 A 
ATOM      7  C8  UNL d   1       0.161  -0.685  -0.251  0.00  0.00     0.078 C 
ENDROOT
BRANCH   1   8
ATOM      8  C1  UNL d   1      -2.303  -1.003  -1.966  0.00  0.00     0.053 C 
ATOM      9  C   UNL d   1      -3.049  -1.921  -2.922  0.00  0.00     0.018 C 
ENDBRANCH   1   8
TORSDOF 1
ENDMDL
