MODEL 1
REMARK minimizedAffinity 7.35873652
REMARK minimizedRMSD -1
REMARK  1 active torsions:
REMARK  status: ('A' for Active; 'I' for Inactive)
REMARK    1  A    between atoms: C1_2  and  C2_3 
ROOT
ATOM      1  C2  UNL d   1       1.786  -5.931   3.526  0.00  0.00    -0.076 A 
ATOM      2  C3  UNL d   1       1.484  -5.915   2.153  0.00  0.00     0.004 A 
ATOM      3  C4  UNL d   1       0.163  -5.934   1.709  0.00  0.00    -0.003 A 
ATOM      4  C5  UNL d   1      -0.878  -5.968   2.630  0.00  0.00     0.000 A 
ATOM      5  C6  UNL d   1      -0.597  -5.967   3.996  0.00  0.00     0.000 A 
ATOM      6  C7  UNL d   1       0.729  -5.931   4.461  0.00  0.00    -0.073 A 
ATOM      7  C8  UNL d   1       0.973  -5.937   5.945  0.00  0.00     0.078 C 
ENDROOT
BRANCH   1   8
ATOM      8  C1  UNL d   1       3.238  -5.937   3.949  0.00  0.00     0.053 C 
ATOM      9  C   UNL d   1       4.190  -5.883   2.764  0.00  0.00     0.018 C 
ENDBRANCH   1   8
TORSDOF 1
ENDMDL
