MODEL 1
REMARK minimizedAffinity 6.87849855
REMARK minimizedRMSD -1
REMARK  1 active torsions:
REMARK  status: ('A' for Active; 'I' for Inactive)
REMARK    1  A    between atoms: C1_2  and  C2_3 
ROOT
ATOM      1  C2  UNL d   1       1.396  -5.979   3.352  0.00  0.00    -0.076 A 
ATOM      2  C3  UNL d   1       0.502  -5.957   2.268  0.00  0.00     0.004 A 
ATOM      3  C4  UNL d   1      -0.877  -5.964   2.475  0.00  0.00    -0.003 A 
ATOM      4  C5  UNL d   1      -1.383  -5.993   3.769  0.00  0.00     0.000 A 
ATOM      5  C6  UNL d   1      -0.510  -5.997   4.857  0.00  0.00     0.000 A 
ATOM      6  C7  UNL d   1       0.882  -5.974   4.666  0.00  0.00    -0.073 A 
ATOM      7  C8  UNL d   1       1.777  -5.985   5.875  0.00  0.00     0.078 C 
ENDROOT
BRANCH   1   8
ATOM      8  C1  UNL d   1       2.881  -5.998   3.065  0.00  0.00     0.053 C 
ATOM      9  C   UNL d   1       3.441  -4.609   2.800  0.00  0.00     0.018 C 
ENDBRANCH   1   8
TORSDOF 1
ENDMDL
