MODEL 1
REMARK minimizedAffinity 1.12742841
REMARK minimizedRMSD -1
REMARK  1 active torsions:
REMARK  status: ('A' for Active; 'I' for Inactive)
REMARK    1  A    between atoms: C1_2  and  C2_3 
ROOT
ATOM      1  C2  UNL d   1      -0.898  -5.984   2.684  0.00  0.00    -0.076 A 
ATOM      2  C3  UNL d   1      -2.233  -5.998   2.243  0.00  0.00     0.004 A 
ATOM      3  C4  UNL d   1      -2.539  -5.994   0.883  0.00  0.00    -0.003 A 
ATOM      4  C5  UNL d   1      -1.515  -5.976  -0.058  0.00  0.00     0.000 A 
ATOM      5  C6  UNL d   1      -0.185  -5.979   0.362  0.00  0.00     0.000 A 
ATOM      6  C7  UNL d   1       0.141  -6.000   1.729  0.00  0.00    -0.073 A 
ATOM      7  C8  UNL d   1       1.592  -5.996   2.125  0.00  0.00     0.078 C 
ENDROOT
BRANCH   1   8
ATOM      8  C1  UNL d   1      -0.627  -5.962   4.171  0.00  0.00     0.053 C 
ATOM      9  C   UNL d   1       0.859  -6.000   4.494  0.00  0.00     0.018 C 
ENDBRANCH   1   8
TORSDOF 1
ENDMDL
