MODEL 1
REMARK minimizedAffinity 8.41327381
REMARK minimizedRMSD -1
REMARK  1 active torsions:
REMARK  status: ('A' for Active; 'I' for Inactive)
REMARK    1  A    between atoms: C1_2  and  C2_3 
ROOT
ATOM      1  C2  UNL d   1      -1.916  -2.452  -3.579  0.00  0.00    -0.076 A 
ATOM      2  C3  UNL d   1      -2.978  -2.982  -4.333  0.00  0.00     0.004 A 
ATOM      3  C4  UNL d   1      -4.290  -2.568  -4.113  0.00  0.00    -0.003 A 
ATOM      4  C5  UNL d   1      -4.563  -1.617  -3.137  0.00  0.00     0.000 A 
ATOM      5  C6  UNL d   1      -3.520  -1.067  -2.392  0.00  0.00     0.000 A 
ATOM      6  C7  UNL d   1      -2.189  -1.462  -2.612  0.00  0.00    -0.073 A 
ATOM      7  C8  UNL d   1      -1.104  -0.840  -1.775  0.00  0.00     0.078 C 
ENDROOT
BRANCH   1   8
ATOM      8  C1  UNL d   1      -0.516  -2.959  -3.844  0.00  0.00     0.053 C 
ATOM      9  C   UNL d   1      -0.006  -2.570  -5.223  0.00  0.00     0.018 C 
ENDBRANCH   1   8
TORSDOF 1
ENDMDL
