MODEL 1
REMARK minimizedAffinity 9.08490562
REMARK minimizedRMSD -1
REMARK  1 active torsions:
REMARK  status: ('A' for Active; 'I' for Inactive)
REMARK    1  A    between atoms: C1_2  and  C2_3 
ROOT
ATOM      1  C2  UNL d   1       1.674  -0.067  -0.825  0.00  0.00    -0.076 A 
ATOM      2  C3  UNL d   1       2.571  -0.569   0.133  0.00  0.00     0.004 A 
ATOM      3  C4  UNL d   1       2.504  -0.158   1.463  0.00  0.00    -0.003 A 
ATOM      4  C5  UNL d   1       1.538   0.762   1.857  0.00  0.00     0.000 A 
ATOM      5  C6  UNL d   1       0.628   1.256   0.923  0.00  0.00     0.000 A 
ATOM      6  C7  UNL d   1       0.672   0.840  -0.419  0.00  0.00    -0.073 A 
ATOM      7  C8  UNL d   1      -0.330   1.410  -1.385  0.00  0.00     0.078 C 
ENDROOT
BRANCH   1   8
ATOM      8  C1  UNL d   1       1.812  -0.530  -2.258  0.00  0.00     0.053 C 
ATOM      9  C   UNL d   1       3.026   0.071  -2.950  0.00  0.00     0.018 C 
ENDBRANCH   1   8
TORSDOF 1
ENDMDL
