MODEL 1
REMARK minimizedAffinity 7.36688089
REMARK minimizedRMSD -1
REMARK  1 active torsions:
REMARK  status: ('A' for Active; 'I' for Inactive)
REMARK    1  A    between atoms: C1_2  and  C2_3 
ROOT
ATOM      1  C2  UNL d   1      -0.655  -5.965   2.653  0.00  0.00    -0.076 A 
ATOM      2  C3  UNL d   1      -1.108  -5.950   3.984  0.00  0.00     0.004 A 
ATOM      3  C4  UNL d   1      -0.208  -5.964   5.048  0.00  0.00    -0.003 A 
ATOM      4  C5  UNL d   1       1.160  -5.994   4.799  0.00  0.00     0.000 A 
ATOM      5  C6  UNL d   1       1.627  -5.991   3.485  0.00  0.00     0.000 A 
ATOM      6  C7  UNL d   1       0.734  -5.960   2.400  0.00  0.00    -0.073 A 
ATOM      7  C8  UNL d   1       1.293  -5.965   1.004  0.00  0.00     0.078 C 
ENDROOT
BRANCH   1   8
ATOM      8  C1  UNL d   1      -1.678  -5.975   1.540  0.00  0.00     0.053 C 
ATOM      9  C   UNL d   1      -3.106  -5.936   2.061  0.00  0.00     0.018 C 
ENDBRANCH   1   8
TORSDOF 1
ENDMDL
