MODEL 1
REMARK minimizedAffinity -5.73717165
REMARK minimizedRMSD -1
REMARK  1 active torsions:
REMARK  status: ('A' for Active; 'I' for Inactive)
REMARK    1  A    between atoms: C1_2  and  C2_3 
ROOT
ATOM      1  C2  UNL d   1      -0.240   0.316   0.008  0.00  0.00    -0.073 A 
ATOM      2  C3  UNL d   1       0.992   0.980   0.029  0.00  0.00    -0.002 A 
ATOM      3  C4  UNL d   1       2.178   0.261   0.189  0.00  0.00     0.004 A 
ATOM      4  C5  UNL d   1       2.145  -1.126   0.323  0.00  0.00    -0.004 A 
ATOM      5  C6  UNL d   1       0.924  -1.809   0.293  0.00  0.00    -0.075 A 
ATOM      6  C7  UNL d   1       0.871  -3.302   0.437  0.00  0.00     0.076 C 
ATOM      7  C8  UNL d   1      -0.262  -1.080   0.134  0.00  0.00     0.001 A 
ENDROOT
BRANCH   1   8
ATOM      8  C1  UNL d   1      -1.522   1.088  -0.170  0.00  0.00     0.053 C 
ATOM      9  C   UNL d   1      -2.269   0.667  -1.426  0.00  0.00     0.018 C 
ENDBRANCH   1   8
TORSDOF 1
ENDMDL
