MODEL 1
REMARK minimizedAffinity -2.10988808
REMARK minimizedRMSD -1
REMARK  1 active torsions:
REMARK  status: ('A' for Active; 'I' for Inactive)
REMARK    1  A    between atoms: C1_2  and  C2_3 
ROOT
ATOM      1  C2  UNL d   1       2.400  -1.796   1.457  0.00  0.00    -0.073 A 
ATOM      2  C3  UNL d   1       1.722  -3.020   1.475  0.00  0.00    -0.002 A 
ATOM      3  C4  UNL d   1       0.510  -3.165   0.799  0.00  0.00     0.004 A 
ATOM      4  C5  UNL d   1      -0.032  -2.091   0.093  0.00  0.00    -0.004 A 
ATOM      5  C6  UNL d   1       0.636  -0.864   0.053  0.00  0.00    -0.075 A 
ATOM      6  C7  UNL d   1       0.065   0.302  -0.700  0.00  0.00     0.076 C 
ATOM      7  C8  UNL d   1       1.852  -0.725   0.737  0.00  0.00     0.001 A 
ENDROOT
BRANCH   1   8
ATOM      8  C1  UNL d   1       3.713  -1.637   2.180  0.00  0.00     0.053 C 
ATOM      9  C   UNL d   1       3.521  -1.162   3.612  0.00  0.00     0.018 C 
ENDBRANCH   1   8
TORSDOF 1
ENDMDL
