MODEL 1
REMARK minimizedAffinity -3.49950767
REMARK minimizedRMSD -1
REMARK  1 active torsions:
REMARK  status: ('A' for Active; 'I' for Inactive)
REMARK    1  A    between atoms: C1_2  and  C2_3 
ROOT
ATOM      1  C2  UNL d   1      -0.505  -0.343  -0.064  0.00  0.00    -0.073 A 
ATOM      2  C3  UNL d   1      -0.933  -1.585   0.417  0.00  0.00    -0.002 A 
ATOM      3  C4  UNL d   1      -0.001  -2.555   0.791  0.00  0.00     0.004 A 
ATOM      4  C5  UNL d   1       1.365  -2.291   0.693  0.00  0.00    -0.004 A 
ATOM      5  C6  UNL d   1       1.812  -1.051   0.226  0.00  0.00    -0.075 A 
ATOM      6  C7  UNL d   1       3.278  -0.752   0.113  0.00  0.00     0.076 C 
ATOM      7  C8  UNL d   1       0.871  -0.083  -0.150  0.00  0.00     0.001 A 
ENDROOT
BRANCH   1   8
ATOM      8  C1  UNL d   1      -1.507   0.710  -0.463  0.00  0.00     0.053 C 
ATOM      9  C   UNL d   1      -1.640   0.828  -1.973  0.00  0.00     0.018 C 
ENDBRANCH   1   8
TORSDOF 1
ENDMDL
