MODEL 1
REMARK minimizedAffinity -4.12920094
REMARK minimizedRMSD -1
REMARK  1 active torsions:
REMARK  status: ('A' for Active; 'I' for Inactive)
REMARK    1  A    between atoms: C1_2  and  C2_3 
ROOT
ATOM      1  C2  UNL d   1       0.147   0.048  -0.048  0.00  0.00    -0.073 A 
ATOM      2  C3  UNL d   1       1.358   0.635  -0.433  0.00  0.00    -0.002 A 
ATOM      3  C4  UNL d   1       2.559  -0.059  -0.274  0.00  0.00     0.004 A 
ATOM      4  C5  UNL d   1       2.561  -1.346   0.264  0.00  0.00    -0.004 A 
ATOM      5  C6  UNL d   1       1.359  -1.953   0.643  0.00  0.00    -0.075 A 
ATOM      6  C7  UNL d   1       1.344  -3.336   1.225  0.00  0.00     0.076 C 
ATOM      7  C8  UNL d   1       0.158  -1.250   0.483  0.00  0.00     0.001 A 
ENDROOT
BRANCH   1   8
ATOM      8  C1  UNL d   1      -1.153   0.790  -0.224  0.00  0.00     0.053 C 
ATOM      9  C   UNL d   1      -1.430   1.117  -1.683  0.00  0.00     0.018 C 
ENDBRANCH   1   8
TORSDOF 1
ENDMDL
