MODEL 1
REMARK minimizedAffinity -4.88974142
REMARK minimizedRMSD -1
REMARK  1 active torsions:
REMARK  status: ('A' for Active; 'I' for Inactive)
REMARK    1  A    between atoms: C1_2  and  C2_3 
ROOT
ATOM      1  C2  UNL d   1      -0.099   0.573  -0.305  0.00  0.00    -0.073 A 
ATOM      2  C3  UNL d   1       1.090   1.211  -0.678  0.00  0.00    -0.002 A 
ATOM      3  C4  UNL d   1       2.319   0.580  -0.480  0.00  0.00     0.004 A 
ATOM      4  C5  UNL d   1       2.372  -0.693   0.086  0.00  0.00    -0.004 A 
ATOM      5  C6  UNL d   1       1.194  -1.351   0.454  0.00  0.00    -0.075 A 
ATOM      6  C7  UNL d   1       1.234  -2.721   1.065  0.00  0.00     0.076 C 
ATOM      7  C8  UNL d   1      -0.036  -0.711   0.254  0.00  0.00     0.001 A 
ENDROOT
BRANCH   1   8
ATOM      8  C1  UNL d   1      -1.429   1.247  -0.524  0.00  0.00     0.053 C 
ATOM      9  C   UNL d   1      -1.821   1.273  -1.993  0.00  0.00     0.018 C 
ENDBRANCH   1   8
TORSDOF 1
ENDMDL
