MODEL 1
REMARK minimizedAffinity -3.00023627
REMARK minimizedRMSD -1
REMARK  1 active torsions:
REMARK  status: ('A' for Active; 'I' for Inactive)
REMARK    1  A    between atoms: C1_2  and  C2_3 
ROOT
ATOM      1  C2  UNL d   1      -0.080   0.475  -0.350  0.00  0.00    -0.073 A 
ATOM      2  C3  UNL d   1       1.193   1.039  -0.492  0.00  0.00    -0.002 A 
ATOM      3  C4  UNL d   1       2.333   0.280  -0.226  0.00  0.00     0.004 A 
ATOM      4  C5  UNL d   1       2.213  -1.049   0.178  0.00  0.00    -0.004 A 
ATOM      5  C6  UNL d   1       0.950  -1.634   0.314  0.00  0.00    -0.075 A 
ATOM      6  C7  UNL d   1       0.804  -3.063   0.750  0.00  0.00     0.076 C 
ATOM      7  C8  UNL d   1      -0.190  -0.865   0.047  0.00  0.00     0.001 A 
ENDROOT
BRANCH   1   8
ATOM      8  C1  UNL d   1      -1.315   1.288  -0.643  0.00  0.00     0.053 C 
ATOM      9  C   UNL d   1      -1.709   1.218  -2.109  0.00  0.00     0.018 C 
ENDBRANCH   1   8
TORSDOF 1
ENDMDL
