MODEL 1
REMARK minimizedAffinity -3.58437586
REMARK minimizedRMSD -1
REMARK  1 active torsions:
REMARK  status: ('A' for Active; 'I' for Inactive)
REMARK    1  A    between atoms: C1_2  and  C2_3 
ROOT
ATOM      1  C2  UNL d   1      -0.227  -0.124   0.186  0.00  0.00    -0.073 A 
ATOM      2  C3  UNL d   1      -0.719  -1.398   0.490  0.00  0.00    -0.002 A 
ATOM      3  C4  UNL d   1       0.160  -2.449   0.752  0.00  0.00     0.004 A 
ATOM      4  C5  UNL d   1       1.538  -2.237   0.719  0.00  0.00    -0.004 A 
ATOM      5  C6  UNL d   1       2.049  -0.968   0.429  0.00  0.00    -0.075 A 
ATOM      6  C7  UNL d   1       3.529  -0.723   0.388  0.00  0.00     0.076 C 
ATOM      7  C8  UNL d   1       1.160   0.082   0.164  0.00  0.00     0.001 A 
ENDROOT
BRANCH   1   8
ATOM      8  C1  UNL d   1      -1.172   1.016  -0.091  0.00  0.00     0.053 C 
ATOM      9  C   UNL d   1      -1.550   1.099  -1.562  0.00  0.00     0.018 C 
ENDBRANCH   1   8
TORSDOF 1
ENDMDL
