MODEL 1
REMARK minimizedAffinity -4.81507444
REMARK minimizedRMSD -1
REMARK  1 active torsions:
REMARK  status: ('A' for Active; 'I' for Inactive)
REMARK    1  A    between atoms: C1_2  and  C2_3 
ROOT
ATOM      1  C2  UNL d   1       0.113  -1.337   0.748  0.00  0.00    -0.073 A 
ATOM      2  C3  UNL d   1      -0.810  -1.377   1.799  0.00  0.00    -0.002 A 
ATOM      3  C4  UNL d   1      -1.817  -0.415   1.890  0.00  0.00     0.004 A 
ATOM      4  C5  UNL d   1      -1.916   0.591   0.928  0.00  0.00    -0.004 A 
ATOM      5  C6  UNL d   1      -1.010   0.641  -0.136  0.00  0.00    -0.075 A 
ATOM      6  C7  UNL d   1      -1.101   1.717  -1.177  0.00  0.00     0.076 C 
ATOM      7  C8  UNL d   1       0.000  -0.327  -0.219  0.00  0.00     0.001 A 
ENDROOT
BRANCH   1   8
ATOM      8  C1  UNL d   1       1.199  -2.377   0.643  0.00  0.00     0.053 C 
ATOM      9  C   UNL d   1       2.565  -1.812   0.997  0.00  0.00     0.018 C 
ENDBRANCH   1   8
TORSDOF 1
ENDMDL
