MODEL 1
REMARK minimizedAffinity -4.54221725
REMARK minimizedRMSD -1
REMARK  1 active torsions:
REMARK  status: ('A' for Active; 'I' for Inactive)
REMARK    1  A    between atoms: C1_2  and  C2_3 
ROOT
ATOM      1  C2  UNL d   1      -1.501   1.286  -1.178  0.00  0.00    -0.073 A 
ATOM      2  C3  UNL d   1      -2.653   0.789  -1.797  0.00  0.00    -0.002 A 
ATOM      3  C4  UNL d   1      -2.996   1.202  -3.085  0.00  0.00     0.004 A 
ATOM      4  C5  UNL d   1      -2.187   2.109  -3.770  0.00  0.00    -0.004 A 
ATOM      5  C6  UNL d   1      -1.025   2.609  -3.172  0.00  0.00    -0.075 A 
ATOM      6  C7  UNL d   1      -0.146   3.587  -3.894  0.00  0.00     0.076 C 
ATOM      7  C8  UNL d   1      -0.690   2.191  -1.877  0.00  0.00     0.001 A 
ENDROOT
BRANCH   1   8
ATOM      8  C1  UNL d   1      -1.124   0.838   0.210  0.00  0.00     0.053 C 
ATOM      9  C   UNL d   1      -0.395  -0.496   0.201  0.00  0.00     0.018 C 
ENDBRANCH   1   8
TORSDOF 1
ENDMDL
