MODEL 1
REMARK minimizedAffinity -1.54559171
REMARK minimizedRMSD -1
REMARK  1 active torsions:
REMARK  status: ('A' for Active; 'I' for Inactive)
REMARK    1  A    between atoms: C1_2  and  C2_3 
ROOT
ATOM      1  C2  UNL d   1      -0.347  -0.811   0.594  0.00  0.00    -0.073 A 
ATOM      2  C3  UNL d   1      -1.487  -0.761   1.404  0.00  0.00    -0.002 A 
ATOM      3  C4  UNL d   1      -1.555  -1.518   2.573  0.00  0.00     0.004 A 
ATOM      4  C5  UNL d   1      -0.482  -2.327   2.949  0.00  0.00    -0.004 A 
ATOM      5  C6  UNL d   1       0.671  -2.381   2.159  0.00  0.00    -0.075 A 
ATOM      6  C7  UNL d   1       1.832  -3.248   2.548  0.00  0.00     0.076 C 
ATOM      7  C8  UNL d   1       0.730  -1.620   0.984  0.00  0.00     0.001 A 
ENDROOT
BRANCH   1   8
ATOM      8  C1  UNL d   1      -0.267   0.011  -0.667  0.00  0.00     0.053 C 
ATOM      9  C   UNL d   1      -1.357   1.068  -0.729  0.00  0.00     0.018 C 
ENDBRANCH   1   8
TORSDOF 1
ENDMDL
