MODEL 1
REMARK minimizedAffinity -4.71038723
REMARK minimizedRMSD -1
REMARK  1 active torsions:
REMARK  status: ('A' for Active; 'I' for Inactive)
REMARK    1  A    between atoms: C1_2  and  C2_3 
ROOT
ATOM      1  C2  UNL d   1       0.051  -0.227  -0.255  0.00  0.00    -0.077 A 
ATOM      2  C3  UNL d   1       1.053   0.368   0.524  0.00  0.00     0.002 A 
ATOM      3  C4  UNL d   1       0.734   0.973   1.742  0.00  0.00     0.002 A 
ATOM      4  C5  UNL d   1      -0.584   0.983   2.193  0.00  0.00    -0.004 A 
ATOM      5  C6  UNL d   1      -1.588   0.395   1.424  0.00  0.00     0.002 A 
ATOM      6  C7  UNL d   1      -1.271  -0.208   0.206  0.00  0.00     0.002 A 
ENDROOT
BRANCH   1   7
ATOM      7  C1  UNL d   1       0.400  -0.923  -1.545  0.00  0.00     0.055 C 
ATOM      8  C   UNL d   1       0.709   0.079  -2.648  0.00  0.00     0.019 C 
ENDBRANCH   1   7
TORSDOF 1
ENDMDL
