MODEL 1
REMARK minimizedAffinity -2.106534
REMARK minimizedRMSD -1
REMARK  1 active torsions:
REMARK  status: ('A' for Active; 'I' for Inactive)
REMARK    1  A    between atoms: C1_2  and  C2_3 
ROOT
ATOM      1  C2  UNL d   1      -0.549   0.125   1.550  0.00  0.00    -0.077 A 
ATOM      2  C3  UNL d   1      -1.129  -0.283   0.341  0.00  0.00     0.002 A 
ATOM      3  C4  UNL d   1      -0.341  -0.841  -0.668  0.00  0.00     0.002 A 
ATOM      4  C5  UNL d   1       1.029  -1.000  -0.475  0.00  0.00    -0.004 A 
ATOM      5  C6  UNL d   1       1.616  -0.596   0.723  0.00  0.00     0.002 A 
ATOM      6  C7  UNL d   1       0.830  -0.037   1.732  0.00  0.00     0.002 A 
ENDROOT
BRANCH   1   7
ATOM      7  C1  UNL d   1      -1.405   0.681   2.658  0.00  0.00     0.055 C 
ATOM      8  C   UNL d   1      -0.670   1.764   3.435  0.00  0.00     0.019 C 
ENDBRANCH   1   7
TORSDOF 1
ENDMDL
