MODEL 1
REMARK minimizedAffinity -4.09623003
REMARK minimizedRMSD -1
REMARK  1 active torsions:
REMARK  status: ('A' for Active; 'I' for Inactive)
REMARK    1  A    between atoms: C1_2  and  C2_3 
ROOT
ATOM      1  C2  UNL d   1       0.032  -0.197   0.323  0.00  0.00    -0.077 A 
ATOM      2  C3  UNL d   1      -1.368  -0.165   0.393  0.00  0.00     0.002 A 
ATOM      3  C4  UNL d   1      -2.010   0.636   1.339  0.00  0.00     0.002 A 
ATOM      4  C5  UNL d   1      -1.261   1.415   2.219  0.00  0.00    -0.004 A 
ATOM      5  C6  UNL d   1       0.132   1.389   2.158  0.00  0.00     0.002 A 
ATOM      6  C7  UNL d   1       0.775   0.587   1.214  0.00  0.00     0.002 A 
ENDROOT
BRANCH   1   7
ATOM      7  C1  UNL d   1       0.725  -1.023  -0.729  0.00  0.00     0.055 C 
ATOM      8  C   UNL d   1       0.431  -0.499  -2.127  0.00  0.00     0.019 C 
ENDBRANCH   1   7
TORSDOF 1
ENDMDL
