MODEL 1
REMARK minimizedAffinity -5.34630632
REMARK minimizedRMSD -1
REMARK  1 active torsions:
REMARK  status: ('A' for Active; 'I' for Inactive)
REMARK    1  A    between atoms: C1_2  and  C2_3 
ROOT
ATOM      1  C2  UNL d   1       0.048  -0.040   0.639  0.00  0.00    -0.077 A 
ATOM      2  C3  UNL d   1      -1.350  -0.141   0.694  0.00  0.00     0.002 A 
ATOM      3  C4  UNL d   1      -2.081   0.654   1.578  0.00  0.00     0.002 A 
ATOM      4  C5  UNL d   1      -1.425   1.559   2.410  0.00  0.00    -0.004 A 
ATOM      5  C6  UNL d   1      -0.036   1.666   2.364  0.00  0.00     0.002 A 
ATOM      6  C7  UNL d   1       0.697   0.871   1.482  0.00  0.00     0.002 A 
ENDROOT
BRANCH   1   7
ATOM      7  C1  UNL d   1       0.834  -0.861  -0.349  0.00  0.00     0.055 C 
ATOM      8  C   UNL d   1       0.499  -0.475  -1.782  0.00  0.00     0.019 C 
ENDBRANCH   1   7
TORSDOF 1
ENDMDL
