MODEL 1
REMARK minimizedAffinity -5.35281801
REMARK minimizedRMSD -1
REMARK  1 active torsions:
REMARK  status: ('A' for Active; 'I' for Inactive)
REMARK    1  A    between atoms: C1_2  and  C2_3 
ROOT
ATOM      1  C2  UNL d   1       0.154   0.190  -0.178  0.00  0.00    -0.077 A 
ATOM      2  C3  UNL d   1       0.736   0.444   1.072  0.00  0.00     0.002 A 
ATOM      3  C4  UNL d   1      -0.014   1.027   2.095  0.00  0.00     0.002 A 
ATOM      4  C5  UNL d   1      -1.350   1.357   1.880  0.00  0.00    -0.004 A 
ATOM      5  C6  UNL d   1      -1.938   1.111   0.640  0.00  0.00     0.002 A 
ATOM      6  C7  UNL d   1      -1.190   0.529  -0.384  0.00  0.00     0.002 A 
ENDROOT
BRANCH   1   7
ATOM      7  C1  UNL d   1       0.947  -0.484  -1.267  0.00  0.00     0.055 C 
ATOM      8  C   UNL d   1       0.988   0.366  -2.528  0.00  0.00     0.019 C 
ENDBRANCH   1   7
TORSDOF 1
ENDMDL
