MODEL 1
REMARK minimizedAffinity -3.70832753
REMARK minimizedRMSD -1
REMARK  1 active torsions:
REMARK  status: ('A' for Active; 'I' for Inactive)
REMARK    1  A    between atoms: C1_2  and  C2_3 
ROOT
ATOM      1  C2  UNL d   1      -0.170  -0.169  -0.304  0.00  0.00    -0.077 A 
ATOM      2  C3  UNL d   1      -1.410   0.224   0.221  0.00  0.00     0.002 A 
ATOM      3  C4  UNL d   1      -1.484   0.839   1.473  0.00  0.00     0.002 A 
ATOM      4  C5  UNL d   1      -0.323   1.069   2.207  0.00  0.00    -0.004 A 
ATOM      5  C6  UNL d   1       0.914   0.680   1.695  0.00  0.00     0.002 A 
ATOM      6  C7  UNL d   1       0.990   0.065   0.445  0.00  0.00     0.002 A 
ENDROOT
BRANCH   1   7
ATOM      7  C1  UNL d   1      -0.083  -0.788  -1.674  0.00  0.00     0.055 C 
ATOM      8  C   UNL d   1       0.340   0.236  -2.718  0.00  0.00     0.019 C 
ENDBRANCH   1   7
TORSDOF 1
ENDMDL
