MODEL 1
REMARK minimizedAffinity 7.10354185
REMARK minimizedRMSD -1
REMARK  0 active torsions:
REMARK  status: ('A' for Active; 'I' for Inactive)
ROOT
ATOM      1  O1  BZF d   1       2.293   0.179   4.561  0.00  0.00    -0.204 OA
ATOM      2  C2  BZF d   1       2.090  -1.165   4.315  0.00  0.00     0.174 A 
ATOM      3  C3  BZF d   1       2.120  -1.419   2.991  0.00  0.00    -0.012 A 
ATOM      4  C3A BZF d   1       2.449  -0.170   2.376  0.00  0.00    -0.107 A 
ATOM      5  C4  BZF d   1       2.640   0.217   1.080  0.00  0.00     0.055 A 
ATOM      6  C5  BZF d   1       2.878   1.527   0.810  0.00  0.00    -0.016 A 
ATOM      7  C6  BZF d   1       2.927   2.477   1.809  0.00  0.00     0.022 A 
ATOM      8  C7  BZF d   1       2.748   2.141   3.110  0.00  0.00     0.029 A 
ATOM      9  C7A BZF d   1       2.540   0.812   3.389  0.00  0.00     0.058 A 
ENDROOT
TORSDOF 0
ENDMDL
