MODEL 1
REMARK minimizedAffinity 10.9327078
REMARK minimizedRMSD -1
REMARK  0 active torsions:
REMARK  status: ('A' for Active; 'I' for Inactive)
ROOT
ATOM      1  O1  BZF d   1       0.412  -0.844   0.583  0.00  0.00    -0.204 OA
ATOM      2  C2  BZF d   1      -0.340  -1.797  -0.076  0.00  0.00     0.174 A 
ATOM      3  C3  BZF d   1      -0.221  -2.999   0.523  0.00  0.00    -0.012 A 
ATOM      4  C3A BZF d   1       0.586  -2.764   1.681  0.00  0.00    -0.107 A 
ATOM      5  C4  BZF d   1       1.042  -3.568   2.687  0.00  0.00     0.055 A 
ATOM      6  C5  BZF d   1       1.870  -3.043   3.627  0.00  0.00    -0.016 A 
ATOM      7  C6  BZF d   1       2.267  -1.722   3.590  0.00  0.00     0.022 A 
ATOM      8  C7  BZF d   1       1.838  -0.885   2.615  0.00  0.00     0.029 A 
ATOM      9  C7A BZF d   1       0.974  -1.404   1.681  0.00  0.00     0.058 A 
ENDROOT
TORSDOF 0
ENDMDL
