MODEL 1
REMARK minimizedAffinity 12.606596
REMARK minimizedRMSD -1
REMARK  0 active torsions:
REMARK  status: ('A' for Active; 'I' for Inactive)
ROOT
ATOM      1  O1  BZF d   1       3.092  -1.107   2.437  0.00  0.00    -0.204 OA
ATOM      2  C2  BZF d   1       1.738  -1.164   2.169  0.00  0.00     0.174 A 
ATOM      3  C3  BZF d   1       1.198  -2.293   2.673  0.00  0.00    -0.012 A 
ATOM      4  C3A BZF d   1       2.264  -2.939   3.375  0.00  0.00    -0.107 A 
ATOM      5  C4  BZF d   1       2.347  -4.094   4.099  0.00  0.00     0.055 A 
ATOM      6  C5  BZF d   1       3.553  -4.478   4.593  0.00  0.00    -0.016 A 
ATOM      7  C6  BZF d   1       4.696  -3.736   4.378  0.00  0.00     0.022 A 
ATOM      8  C7  BZF d   1       4.663  -2.581   3.670  0.00  0.00     0.029 A 
ATOM      9  C7A BZF d   1       3.439  -2.173   3.197  0.00  0.00     0.058 A 
ENDROOT
TORSDOF 0
ENDMDL
