MODEL 1
REMARK minimizedAffinity 8.2453804
REMARK minimizedRMSD -1
REMARK  0 active torsions:
REMARK  status: ('A' for Active; 'I' for Inactive)
ROOT
ATOM      1  O1  BZF d   1       2.288  -2.241   4.265  0.00  0.00    -0.204 OA
ATOM      2  C2  BZF d   1       1.930  -3.498   4.714  0.00  0.00     0.174 A 
ATOM      3  C3  BZF d   1       0.999  -4.047   3.907  0.00  0.00    -0.012 A 
ATOM      4  C3A BZF d   1       0.828  -3.111   2.839  0.00  0.00    -0.107 A 
ATOM      5  C4  BZF d   1       0.049  -3.099   1.717  0.00  0.00     0.055 A 
ATOM      6  C5  BZF d   1       0.063  -2.001   0.916  0.00  0.00    -0.016 A 
ATOM      7  C6  BZF d   1       0.837  -0.898   1.208  0.00  0.00     0.022 A 
ATOM      8  C7  BZF d   1       1.630  -0.866   2.307  0.00  0.00     0.029 A 
ATOM      9  C7A BZF d   1       1.644  -1.986   3.101  0.00  0.00     0.058 A 
ENDROOT
TORSDOF 0
ENDMDL
