MODEL 1
REMARK minimizedAffinity 3.31150937
REMARK minimizedRMSD -1
REMARK  0 active torsions:
REMARK  status: ('A' for Active; 'I' for Inactive)
ROOT
ATOM      1  O1  BZF d   1       2.981  -1.342   1.991  0.00  0.00    -0.204 OA
ATOM      2  C2  BZF d   1       1.752  -1.518   2.598  0.00  0.00     0.174 A 
ATOM      3  C3  BZF d   1       1.876  -2.244   3.727  0.00  0.00    -0.012 A 
ATOM      4  C3A BZF d   1       3.281  -2.463   3.882  0.00  0.00    -0.107 A 
ATOM      5  C4  BZF d   1       4.033  -3.106   4.823  0.00  0.00     0.055 A 
ATOM      6  C5  BZF d   1       5.377  -3.202   4.644  0.00  0.00    -0.016 A 
ATOM      7  C6  BZF d   1       6.000  -2.670   3.533  0.00  0.00     0.022 A 
ATOM      8  C7  BZF d   1       5.297  -2.019   2.575  0.00  0.00     0.029 A 
ATOM      9  C7A BZF d   1       3.943  -1.892   2.771  0.00  0.00     0.058 A 
ENDROOT
TORSDOF 0
ENDMDL
