MODEL 1
REMARK minimizedAffinity 4.57212543
REMARK minimizedRMSD -1
REMARK  0 active torsions:
REMARK  status: ('A' for Active; 'I' for Inactive)
ROOT
ATOM      1  O1  BZF d   1       1.336  -0.301   4.370  0.00  0.00    -0.204 OA
ATOM      2  C2  BZF d   1       1.414  -1.656   4.115  0.00  0.00     0.174 A 
ATOM      3  C3  BZF d   1       1.941  -1.884   2.894  0.00  0.00    -0.012 A 
ATOM      4  C3A BZF d   1       2.295  -0.592   2.390  0.00  0.00    -0.107 A 
ATOM      5  C4  BZF d   1       2.876  -0.164   1.231  0.00  0.00     0.055 A 
ATOM      6  C5  BZF d   1       3.016   1.171   1.017  0.00  0.00    -0.016 A 
ATOM      7  C6  BZF d   1       2.583   2.103   1.936  0.00  0.00     0.022 A 
ATOM      8  C7  BZF d   1       2.005   1.726   3.103  0.00  0.00     0.029 A 
ATOM      9  C7A BZF d   1       1.892   0.378   3.337  0.00  0.00     0.058 A 
ENDROOT
TORSDOF 0
ENDMDL
