MODEL 1
REMARK minimizedAffinity 2.10814047
REMARK minimizedRMSD -1
REMARK  0 active torsions:
REMARK  status: ('A' for Active; 'I' for Inactive)
ROOT
ATOM      1  O1  BZF d   1       1.541  -1.330   3.344  0.00  0.00    -0.204 OA
ATOM      2  C2  BZF d   1       2.269  -0.889   4.432  0.00  0.00     0.174 A 
ATOM      3  C3  BZF d   1       2.971   0.219   4.121  0.00  0.00    -0.012 A 
ATOM      4  C3A BZF d   1       2.591   0.542   2.780  0.00  0.00    -0.107 A 
ATOM      5  C4  BZF d   1       2.937   1.546   1.921  0.00  0.00     0.055 A 
ATOM      6  C5  BZF d   1       2.442   1.532   0.656  0.00  0.00    -0.016 A 
ATOM      7  C6  BZF d   1       1.604   0.529   0.215  0.00  0.00     0.022 A 
ATOM      8  C7  BZF d   1       1.228  -0.485   1.031  0.00  0.00     0.029 A 
ATOM      9  C7A BZF d   1       1.701  -0.457   2.321  0.00  0.00     0.058 A 
ENDROOT
TORSDOF 0
ENDMDL
