MODEL 1
REMARK minimizedAffinity 2.26359749
REMARK minimizedRMSD -1
REMARK  0 active torsions:
REMARK  status: ('A' for Active; 'I' for Inactive)
ROOT
ATOM      1  O1  BZF d   1       1.139  -1.588   2.746  0.00  0.00    -0.204 OA
ATOM      2  C2  BZF d   1       0.608  -2.128   1.591  0.00  0.00     0.174 A 
ATOM      3  C3  BZF d   1       0.689  -1.250   0.571  0.00  0.00    -0.012 A 
ATOM      4  C3A BZF d   1       1.394  -0.123   1.100  0.00  0.00    -0.107 A 
ATOM      5  C4  BZF d   1       1.798   1.067   0.566  0.00  0.00     0.055 A 
ATOM      6  C5  BZF d   1       2.401   1.982   1.370  0.00  0.00    -0.016 A 
ATOM      7  C6  BZF d   1       2.610   1.742   2.712  0.00  0.00     0.022 A 
ATOM      8  C7  BZF d   1       2.231   0.574   3.287  0.00  0.00     0.029 A 
ATOM      9  C7A BZF d   1       1.652  -0.365   2.469  0.00  0.00     0.058 A 
ENDROOT
TORSDOF 0
ENDMDL
