MODEL 1
REMARK minimizedAffinity 3.37354279
REMARK minimizedRMSD -1
REMARK  0 active torsions:
REMARK  status: ('A' for Active; 'I' for Inactive)
ROOT
ATOM      1  O1  BZF d   1       2.534  -2.191  -5.968  0.00  0.00    -0.204 OA
ATOM      2  C2  BZF d   1       3.039  -3.477  -5.954  0.00  0.00     0.174 A 
ATOM      3  C3  BZF d   1       4.387  -3.462  -5.999  0.00  0.00    -0.012 A 
ATOM      4  C3A BZF d   1       4.750  -2.079  -5.952  0.00  0.00    -0.107 A 
ATOM      5  C4  BZF d   1       5.947  -1.422  -5.949  0.00  0.00     0.055 A 
ATOM      6  C5  BZF d   1       5.955  -0.063  -5.971  0.00  0.00    -0.016 A 
ATOM      7  C6  BZF d   1       4.787   0.669  -6.000  0.00  0.00     0.022 A 
ATOM      8  C7  BZF d   1       3.575   0.062  -5.998  0.00  0.00     0.029 A 
ATOM      9  C7A BZF d   1       3.563  -1.310  -5.943  0.00  0.00     0.058 A 
ENDROOT
TORSDOF 0
ENDMDL
