MODEL 1
REMARK minimizedAffinity 2.50478864
REMARK minimizedRMSD -1
REMARK  0 active torsions:
REMARK  status: ('A' for Active; 'I' for Inactive)
ROOT
ATOM      1  O1  BZF d   1      -1.681  -0.934   0.178  0.00  0.00    -0.204 OA
ATOM      2  C2  BZF d   1      -0.965  -2.047   0.574  0.00  0.00     0.174 A 
ATOM      3  C3  BZF d   1       0.324  -1.728   0.810  0.00  0.00    -0.012 A 
ATOM      4  C3A BZF d   1       0.399  -0.310   0.635  0.00  0.00    -0.107 A 
ATOM      5  C4  BZF d   1       1.413   0.598   0.747  0.00  0.00     0.055 A 
ATOM      6  C5  BZF d   1       1.172   1.899   0.437  0.00  0.00    -0.016 A 
ATOM      7  C6  BZF d   1      -0.067   2.325   0.007  0.00  0.00     0.022 A 
ATOM      8  C7  BZF d   1      -1.105   1.463  -0.115  0.00  0.00     0.029 A 
ATOM      9  C7A BZF d   1      -0.874   0.153   0.229  0.00  0.00     0.058 A 
ENDROOT
TORSDOF 0
ENDMDL
