MODEL 1
REMARK minimizedAffinity 0.665172637
REMARK minimizedRMSD -1
REMARK  0 active torsions:
REMARK  status: ('A' for Active; 'I' for Inactive)
ROOT
ATOM      1  C2' OXE d   1      -1.662   2.014  -0.181  0.00  0.00     0.078 C 
ATOM      2  C1' OXE d   1      -2.307   0.227   1.886  0.00  0.00     0.078 C 
ATOM      3  C1  OXE d   1      -1.057  -0.044   1.086  0.00  0.00    -0.078 A 
ATOM      4  C2  OXE d   1      -0.774   0.809   0.047  0.00  0.00    -0.078 A 
ATOM      5  C3  OXE d   1       0.395   0.636  -0.688  0.00  0.00     0.003 A 
ATOM      6  C4  OXE d   1       1.206  -0.486  -0.477  0.00  0.00    -0.002 A 
ATOM      7  C5  OXE d   1       0.914  -1.389   0.551  0.00  0.00    -0.002 A 
ATOM      8  C6  OXE d   1      -0.188  -1.160   1.367  0.00  0.00     0.003 A 
ENDROOT
TORSDOF 0
ENDMDL
