MODEL 1
REMARK minimizedAffinity 0.823941231
REMARK minimizedRMSD -1
REMARK  0 active torsions:
REMARK  status: ('A' for Active; 'I' for Inactive)
ROOT
ATOM      1  C2' OXE d   1      -3.498  -0.972   2.319  0.00  0.00     0.078 C 
ATOM      2  C1' OXE d   1      -1.923   0.473   0.498  0.00  0.00     0.078 C 
ATOM      3  C1  OXE d   1      -2.011   0.985   1.914  0.00  0.00    -0.078 A 
ATOM      4  C2  OXE d   1      -2.820   0.299   2.786  0.00  0.00    -0.078 A 
ATOM      5  C3  OXE d   1      -2.894   0.697   4.118  0.00  0.00     0.003 A 
ATOM      6  C4  OXE d   1      -2.272   1.879   4.539  0.00  0.00    -0.002 A 
ATOM      7  C5  OXE d   1      -1.475   2.615   3.657  0.00  0.00    -0.002 A 
ATOM      8  C6  OXE d   1      -1.299   2.160   2.355  0.00  0.00     0.003 A 
ENDROOT
TORSDOF 0
ENDMDL
