MODEL 1
REMARK minimizedAffinity -2.65887976
REMARK minimizedRMSD -1
REMARK  0 active torsions:
REMARK  status: ('A' for Active; 'I' for Inactive)
ROOT
ATOM      1  C2' OXE d   1      -1.106  -3.471   0.363  0.00  0.00     0.078 C 
ATOM      2  C1' OXE d   1       0.723  -2.530  -1.548  0.00  0.00     0.078 C 
ATOM      3  C1  OXE d   1       0.128  -1.528  -0.591  0.00  0.00    -0.078 A 
ATOM      4  C2  OXE d   1      -0.801  -1.989   0.310  0.00  0.00    -0.078 A 
ATOM      5  C3  OXE d   1      -1.340  -1.117   1.252  0.00  0.00     0.003 A 
ATOM      6  C4  OXE d   1      -1.061   0.253   1.190  0.00  0.00    -0.002 A 
ATOM      7  C5  OXE d   1      -0.147   0.750   0.255  0.00  0.00    -0.002 A 
ATOM      8  C6  OXE d   1       0.487  -0.132  -0.613  0.00  0.00     0.003 A 
ENDROOT
TORSDOF 0
ENDMDL
