MODEL 1
REMARK minimizedAffinity -3.78674793
REMARK minimizedRMSD -1
REMARK  0 active torsions:
REMARK  status: ('A' for Active; 'I' for Inactive)
ROOT
ATOM      1  C2' OXE d   1       0.211  -1.576   0.628  0.00  0.00     0.078 C 
ATOM      2  C1' OXE d   1      -0.814   1.014   0.284  0.00  0.00     0.078 C 
ATOM      3  C1  OXE d   1       0.391   0.620  -0.533  0.00  0.00    -0.078 A 
ATOM      4  C2  OXE d   1       0.914  -0.633  -0.324  0.00  0.00    -0.078 A 
ATOM      5  C3  OXE d   1       1.992  -1.067  -1.090  0.00  0.00     0.003 A 
ATOM      6  C4  OXE d   1       2.643  -0.184  -1.961  0.00  0.00    -0.002 A 
ATOM      7  C5  OXE d   1       2.151   1.110  -2.160  0.00  0.00    -0.002 A 
ATOM      8  C6  OXE d   1       1.003   1.513  -1.486  0.00  0.00     0.003 A 
ENDROOT
TORSDOF 0
ENDMDL
