MODEL 1
REMARK minimizedAffinity -1.35996139
REMARK minimizedRMSD -1
REMARK  0 active torsions:
REMARK  status: ('A' for Active; 'I' for Inactive)
ROOT
ATOM      1  C2' OXE d   1       2.514  -0.681  -1.967  0.00  0.00     0.078 C 
ATOM      2  C1' OXE d   1       1.317   1.783  -2.579  0.00  0.00     0.078 C 
ATOM      3  C1  OXE d   1       0.755   0.997  -1.421  0.00  0.00    -0.078 A 
ATOM      4  C2  OXE d   1       1.317  -0.230  -1.158  0.00  0.00    -0.078 A 
ATOM      5  C3  OXE d   1       0.873  -0.971  -0.067  0.00  0.00     0.003 A 
ATOM      6  C4  OXE d   1      -0.240  -0.551   0.670  0.00  0.00    -0.002 A 
ATOM      7  C5  OXE d   1      -0.853   0.676   0.394  0.00  0.00    -0.002 A 
ATOM      8  C6  OXE d   1      -0.341   1.480  -0.619  0.00  0.00     0.003 A 
ENDROOT
TORSDOF 0
ENDMDL
