MODEL 1
REMARK minimizedAffinity -4.91561556
REMARK minimizedRMSD -1
REMARK  0 active torsions:
REMARK  status: ('A' for Active; 'I' for Inactive)
ROOT
ATOM      1  C2' OXE d   1       0.005  -2.386   0.313  0.00  0.00     0.078 C 
ATOM      2  C1' OXE d   1      -0.837   0.278   0.586  0.00  0.00     0.078 C 
ATOM      3  C1  OXE d   1       0.387   0.010  -0.253  0.00  0.00    -0.078 A 
ATOM      4  C2  OXE d   1       0.819  -1.291  -0.343  0.00  0.00    -0.078 A 
ATOM      5  C3  OXE d   1       1.911  -1.601  -1.149  0.00  0.00     0.003 A 
ATOM      6  C4  OXE d   1       2.664  -0.581  -1.744  0.00  0.00    -0.002 A 
ATOM      7  C5  OXE d   1       2.265   0.755  -1.632  0.00  0.00    -0.002 A 
ATOM      8  C6  OXE d   1       1.106   1.063  -0.927  0.00  0.00     0.003 A 
ENDROOT
TORSDOF 0
ENDMDL
