MODEL 1
REMARK minimizedAffinity -5.42121077
REMARK minimizedRMSD -1
REMARK  0 active torsions:
REMARK  status: ('A' for Active; 'I' for Inactive)
ROOT
ATOM      1  C2' OXE d   1      -0.023   1.163   4.259  0.00  0.00     0.078 C 
ATOM      2  C1' OXE d   1      -2.377   1.710   2.831  0.00  0.00     0.078 C 
ATOM      3  C1  OXE d   1      -1.298   0.922   2.132  0.00  0.00    -0.078 A 
ATOM      4  C2  OXE d   1      -0.131   0.699   2.822  0.00  0.00    -0.078 A 
ATOM      5  C3  OXE d   1       0.876  -0.069   2.244  0.00  0.00     0.003 A 
ATOM      6  C4  OXE d   1       0.773  -0.486   0.911  0.00  0.00    -0.002 A 
ATOM      7  C5  OXE d   1      -0.391  -0.235   0.177  0.00  0.00    -0.002 A 
ATOM      8  C6  OXE d   1      -1.450   0.429   0.785  0.00  0.00     0.003 A 
ENDROOT
TORSDOF 0
ENDMDL
