MODEL 1
REMARK minimizedAffinity -4.31418085
REMARK minimizedRMSD -1
REMARK  0 active torsions:
REMARK  status: ('A' for Active; 'I' for Inactive)
ROOT
ATOM      1  C2' OXE d   1       2.295  -1.136  -2.509  0.00  0.00     0.078 C 
ATOM      2  C1' OXE d   1       2.320   1.416  -1.341  0.00  0.00     0.078 C 
ATOM      3  C1  OXE d   1       1.382   0.387  -0.762  0.00  0.00    -0.078 A 
ATOM      4  C2  OXE d   1       1.342  -0.845  -1.370  0.00  0.00    -0.078 A 
ATOM      5  C3  OXE d   1       0.534  -1.848  -0.843  0.00  0.00     0.003 A 
ATOM      6  C4  OXE d   1      -0.352  -1.567   0.205  0.00  0.00    -0.002 A 
ATOM      7  C5  OXE d   1      -0.356  -0.307   0.813  0.00  0.00    -0.002 A 
ATOM      8  C6  OXE d   1       0.533   0.666   0.370  0.00  0.00     0.003 A 
ENDROOT
TORSDOF 0
ENDMDL
