MODEL 1
REMARK minimizedAffinity -1.43655157
REMARK minimizedRMSD -1
REMARK  0 active torsions:
REMARK  status: ('A' for Active; 'I' for Inactive)
ROOT
ATOM      1  C2' OXE d   1       1.629  -2.389  -1.101  0.00  0.00     0.078 C 
ATOM      2  C1' OXE d   1       2.643  -0.802   0.981  0.00  0.00     0.078 C 
ATOM      3  C1  OXE d   1       1.197  -0.615   0.595  0.00  0.00    -0.078 A 
ATOM      4  C2  OXE d   1       0.722  -1.363  -0.456  0.00  0.00    -0.078 A 
ATOM      5  C3  OXE d   1      -0.619  -1.270  -0.817  0.00  0.00     0.003 A 
ATOM      6  C4  OXE d   1      -1.448  -0.311  -0.223  0.00  0.00    -0.002 A 
ATOM      7  C5  OXE d   1      -0.974   0.488   0.822  0.00  0.00    -0.002 A 
ATOM      8  C6  OXE d   1       0.332   0.319   1.271  0.00  0.00     0.003 A 
ENDROOT
TORSDOF 0
ENDMDL
