MODEL 1
REMARK minimizedAffinity -3.46450567
REMARK minimizedRMSD -1
REMARK  0 active torsions:
REMARK  status: ('A' for Active; 'I' for Inactive)
ROOT
ATOM      1  C2' OXE d   1      -1.430   1.097  -0.589  0.00  0.00     0.078 C 
ATOM      2  C1' OXE d   1      -0.872   0.592   2.115  0.00  0.00     0.078 C 
ATOM      3  C1  OXE d   1       0.098   0.066   1.087  0.00  0.00    -0.078 A 
ATOM      4  C2  OXE d   1      -0.208   0.278  -0.236  0.00  0.00    -0.078 A 
ATOM      5  C3  OXE d   1       0.680  -0.139  -1.224  0.00  0.00     0.003 A 
ATOM      6  C4  OXE d   1       1.804  -0.905  -0.890  0.00  0.00    -0.002 A 
ATOM      7  C5  OXE d   1       2.112  -1.166   0.449  0.00  0.00    -0.002 A 
ATOM      8  C6  OXE d   1       1.294  -0.653   1.450  0.00  0.00     0.003 A 
ENDROOT
TORSDOF 0
ENDMDL
