MODEL 1
REMARK minimizedAffinity -4.82561636
REMARK minimizedRMSD -1
REMARK  0 active torsions:
REMARK  status: ('A' for Active; 'I' for Inactive)
ROOT
ATOM      1  C2' OXE d   1       0.319  -1.098   0.089  0.00  0.00     0.078 C 
ATOM      2  C1' OXE d   1      -1.043   1.149  -0.899  0.00  0.00     0.078 C 
ATOM      3  C1  OXE d   1       0.316   0.840  -1.476  0.00  0.00    -0.078 A 
ATOM      4  C2  OXE d   1       0.995  -0.235  -0.954  0.00  0.00    -0.078 A 
ATOM      5  C3  OXE d   1       2.228  -0.597  -1.488  0.00  0.00     0.003 A 
ATOM      6  C4  OXE d   1       2.851   0.213  -2.446  0.00  0.00    -0.002 A 
ATOM      7  C5  OXE d   1       2.194   1.335  -2.963  0.00  0.00    -0.002 A 
ATOM      8  C6  OXE d   1       0.911   1.637  -2.520  0.00  0.00     0.003 A 
ENDROOT
TORSDOF 0
ENDMDL
