MODEL 1
REMARK minimizedAffinity -6.20629549
REMARK minimizedRMSD -1
REMARK  0 active torsions:
REMARK  status: ('A' for Active; 'I' for Inactive)
ROOT
ATOM      1  C2' OXE d   1       1.620   1.019  -2.939  0.00  0.00     0.078 C 
ATOM      2  C1' OXE d   1      -0.714   1.215  -1.392  0.00  0.00     0.078 C 
ATOM      3  C1  OXE d   1       0.319   0.196  -0.981  0.00  0.00    -0.078 A 
ATOM      4  C2  OXE d   1       1.437   0.075  -1.770  0.00  0.00    -0.078 A 
ATOM      5  C3  OXE d   1       2.446  -0.812  -1.405  0.00  0.00     0.003 A 
ATOM      6  C4  OXE d   1       2.263  -1.689  -0.329  0.00  0.00    -0.002 A 
ATOM      7  C5  OXE d   1       1.114  -1.609   0.465  0.00  0.00    -0.002 A 
ATOM      8  C6  OXE d   1       0.154  -0.646   0.179  0.00  0.00     0.003 A 
ENDROOT
TORSDOF 0
ENDMDL
