MODEL 1
REMARK minimizedAffinity -2.2298646
REMARK minimizedRMSD -1
REMARK  0 active torsions:
REMARK  status: ('A' for Active; 'I' for Inactive)
ROOT
ATOM      1  C2' OXE d   1       1.520   1.653  -3.151  0.00  0.00     0.078 C 
ATOM      2  C1' OXE d   1       2.637  -0.894  -2.771  0.00  0.00     0.078 C 
ATOM      3  C1  OXE d   1       1.446  -0.515  -1.927  0.00  0.00    -0.078 A 
ATOM      4  C2  OXE d   1       0.935   0.750  -2.087  0.00  0.00    -0.078 A 
ATOM      5  C3  OXE d   1      -0.197   1.132  -1.372  0.00  0.00     0.003 A 
ATOM      6  C4  OXE d   1      -0.726   0.295  -0.383  0.00  0.00    -0.002 A 
ATOM      7  C5  OXE d   1      -0.196  -0.983  -0.176  0.00  0.00    -0.002 A 
ATOM      8  C6  OXE d   1       0.861  -1.419  -0.967  0.00  0.00     0.003 A 
ENDROOT
TORSDOF 0
ENDMDL
