MODEL 1
REMARK minimizedAffinity -4.38852453
REMARK minimizedRMSD -1
REMARK  0 active torsions:
REMARK  status: ('A' for Active; 'I' for Inactive)
ROOT
ATOM      1  C2' OXE d   1      -0.420   0.524   1.291  0.00  0.00     0.078 C 
ATOM      2  C1' OXE d   1      -0.868  -1.742  -0.304  0.00  0.00     0.078 C 
ATOM      3  C1  OXE d   1       0.527  -1.170  -0.271  0.00  0.00    -0.078 A 
ATOM      4  C2  OXE d   1       0.726  -0.034   0.475  0.00  0.00    -0.078 A 
ATOM      5  C3  OXE d   1       2.006   0.504   0.584  0.00  0.00     0.003 A 
ATOM      6  C4  OXE d   1       3.059  -0.012  -0.182  0.00  0.00    -0.002 A 
ATOM      7  C5  OXE d   1       2.868  -1.145  -0.980  0.00  0.00    -0.002 A 
ATOM      8  C6  OXE d   1       1.621  -1.760  -1.002  0.00  0.00     0.003 A 
ENDROOT
TORSDOF 0
ENDMDL
