MODEL 1
REMARK minimizedAffinity 1.64991105
REMARK minimizedRMSD -1
REMARK  0 active torsions:
REMARK  status: ('A' for Active; 'I' for Inactive)
ROOT
ATOM      1  C2' OXE d   1      -0.726  -1.032  -0.118  0.00  0.00     0.078 C 
ATOM      2  C1' OXE d   1       0.691   1.373  -0.419  0.00  0.00     0.078 C 
ATOM      3  C1  OXE d   1       0.084   1.078   0.930  0.00  0.00    -0.078 A 
ATOM      4  C2  OXE d   1      -0.647  -0.079   1.055  0.00  0.00    -0.078 A 
ATOM      5  C3  OXE d   1      -1.182  -0.426   2.292  0.00  0.00     0.003 A 
ATOM      6  C4  OXE d   1      -1.113   0.466   3.370  0.00  0.00    -0.002 A 
ATOM      7  C5  OXE d   1      -0.407   1.668   3.252  0.00  0.00    -0.002 A 
ATOM      8  C6  OXE d   1       0.233   1.968   2.054  0.00  0.00     0.003 A 
ENDROOT
TORSDOF 0
ENDMDL
