MODEL 1
REMARK minimizedAffinity -4.14310741
REMARK minimizedRMSD -1
REMARK  0 active torsions:
REMARK  status: ('A' for Active; 'I' for Inactive)
ROOT
ATOM      1  C2' OXE d   1      -1.185   0.194   0.781  0.00  0.00     0.078 C 
ATOM      2  C1' OXE d   1      -0.591  -2.502   0.271  0.00  0.00     0.078 C 
ATOM      3  C1  OXE d   1       0.434  -1.469  -0.125  0.00  0.00    -0.078 A 
ATOM      4  C2  OXE d   1       0.115  -0.149   0.085  0.00  0.00    -0.078 A 
ATOM      5  C3  OXE d   1       1.048   0.841  -0.211  0.00  0.00     0.003 A 
ATOM      6  C4  OXE d   1       2.243   0.516  -0.864  0.00  0.00    -0.002 A 
ATOM      7  C5  OXE d   1       2.570  -0.819  -1.123  0.00  0.00    -0.002 A 
ATOM      8  C6  OXE d   1       1.697  -1.825  -0.723  0.00  0.00     0.003 A 
ENDROOT
TORSDOF 0
ENDMDL
