MODEL 1
REMARK minimizedAffinity -5.24539995
REMARK minimizedRMSD -1
REMARK  2 active torsions:
REMARK  status: ('A' for Active; 'I' for Inactive)
REMARK    1  A    between atoms: C2'_3  and  C1'_4 
REMARK    2  A    between atoms: C1'_4  and  C1_5 
ROOT
ATOM      1  C1  I4B d   1       0.713  -0.351  -0.568  0.00  0.00    -0.075 A 
ATOM      2  C2  I4B d   1       1.645  -1.354  -0.477  0.00  0.00     0.003 A 
ATOM      3  C3  I4B d   1       2.897  -1.224  -1.125  0.00  0.00     0.002 A 
ATOM      4  C4  I4B d   1       3.154  -0.104  -1.889  0.00  0.00    -0.004 A 
ATOM      5  C5  I4B d   1       2.217   0.922  -1.961  0.00  0.00     0.002 A 
ATOM      6  C6  I4B d   1       0.993   0.804  -1.286  0.00  0.00     0.003 A 
ENDROOT
BRANCH   1   7
ATOM      7  C1' I4B d   1      -0.612  -0.536   0.102  0.00  0.00     0.060 C 
BRANCH   7   8
ATOM      8  C2' I4B d   1      -1.123   0.831   0.512  0.00  0.00    -0.013 C 
ATOM      9  C4' I4B d   1      -2.068   1.391  -0.518  0.00  0.00     0.013 C 
ATOM     10  C3' I4B d   1      -1.794   0.693   1.845  0.00  0.00     0.013 C 
ENDBRANCH   7   8
ENDBRANCH   1   7
TORSDOF 2
ENDMDL
