MODEL 1
REMARK minimizedAffinity -5.75748348
REMARK minimizedRMSD -1
REMARK  2 active torsions:
REMARK  status: ('A' for Active; 'I' for Inactive)
REMARK    1  A    between atoms: C2'_3  and  C1'_4 
REMARK    2  A    between atoms: C1'_4  and  C1_5 
ROOT
ATOM      1  C1  I4B d   1      -0.000   0.079  -0.043  0.00  0.00    -0.075 A 
ATOM      2  C2  I4B d   1       0.043  -1.280   0.144  0.00  0.00     0.003 A 
ATOM      3  C3  I4B d   1       1.090  -2.045  -0.424  0.00  0.00     0.002 A 
ATOM      4  C4  I4B d   1       2.039  -1.422  -1.208  0.00  0.00    -0.004 A 
ATOM      5  C5  I4B d   1       2.007  -0.041  -1.378  0.00  0.00     0.002 A 
ATOM      6  C6  I4B d   1       0.988   0.717  -0.782  0.00  0.00     0.003 A 
ENDROOT
BRANCH   1   7
ATOM      7  C1' I4B d   1      -1.139   0.852   0.543  0.00  0.00     0.060 C 
BRANCH   7   8
ATOM      8  C2' I4B d   1      -1.204   0.536   2.024  0.00  0.00    -0.013 C 
ATOM      9  C4' I4B d   1      -0.908   1.756   2.855  0.00  0.00     0.013 C 
ATOM     10  C3' I4B d   1      -2.571  -0.004   2.322  0.00  0.00     0.013 C 
ENDBRANCH   7   8
ENDBRANCH   1   7
TORSDOF 2
ENDMDL
