MODEL 1
REMARK minimizedAffinity -4.26473141
REMARK minimizedRMSD -1
REMARK  2 active torsions:
REMARK  status: ('A' for Active; 'I' for Inactive)
REMARK    1  A    between atoms: C2'_3  and  C1'_4 
REMARK    2  A    between atoms: C1'_4  and  C1_5 
ROOT
ATOM      1  C1  I4B d   1      -0.311   0.156  -0.525  0.00  0.00    -0.075 A 
ATOM      2  C2  I4B d   1       0.165  -1.017   0.007  0.00  0.00     0.003 A 
ATOM      3  C3  I4B d   1       1.331  -1.619  -0.524  0.00  0.00     0.002 A 
ATOM      4  C4  I4B d   1       1.957  -1.046  -1.612  0.00  0.00    -0.004 A 
ATOM      5  C5  I4B d   1       1.486   0.154  -2.136  0.00  0.00     0.002 A 
ATOM      6  C6  I4B d   1       0.353   0.766  -1.582  0.00  0.00     0.003 A 
ENDROOT
BRANCH   1   7
ATOM      7  C1' I4B d   1      -1.564   0.748   0.038  0.00  0.00     0.060 C 
BRANCH   7   8
ATOM      8  C2' I4B d   1      -1.720   0.243   1.459  0.00  0.00    -0.013 C 
ATOM      9  C4' I4B d   1      -1.760   1.384   2.441  0.00  0.00     0.013 C 
ATOM     10  C3' I4B d   1      -2.977  -0.572   1.524  0.00  0.00     0.013 C 
ENDBRANCH   7   8
ENDBRANCH   1   7
TORSDOF 2
ENDMDL
