MODEL 1
REMARK minimizedAffinity -1.15441668
REMARK minimizedRMSD -1
REMARK  2 active torsions:
REMARK  status: ('A' for Active; 'I' for Inactive)
REMARK    1  A    between atoms: C2'_3  and  C1'_4 
REMARK    2  A    between atoms: C1'_4  and  C1_5 
ROOT
ATOM      1  C1  I4B d   1       0.107  -0.136  -0.609  0.00  0.00    -0.075 A 
ATOM      2  C2  I4B d   1       0.596   0.667  -1.610  0.00  0.00     0.003 A 
ATOM      3  C3  I4B d   1       1.651   0.212  -2.437  0.00  0.00     0.002 A 
ATOM      4  C4  I4B d   1       2.217  -1.024  -2.198  0.00  0.00    -0.004 A 
ATOM      5  C5  I4B d   1       1.705  -1.846  -1.199  0.00  0.00     0.002 A 
ATOM      6  C6  I4B d   1       0.635  -1.405  -0.407  0.00  0.00     0.003 A 
ENDROOT
BRANCH   1   7
ATOM      7  C1' I4B d   1      -0.986   0.389   0.267  0.00  0.00     0.060 C 
BRANCH   7   8
ATOM      8  C2' I4B d   1      -0.757  -0.143   1.667  0.00  0.00    -0.013 C 
ATOM      9  C4' I4B d   1       0.180   0.746   2.442  0.00  0.00     0.013 C 
ATOM     10  C3' I4B d   1      -2.090  -0.247   2.347  0.00  0.00     0.013 C 
ENDBRANCH   7   8
ENDBRANCH   1   7
TORSDOF 2
ENDMDL
