MODEL 1
REMARK minimizedAffinity -3.99062729
REMARK minimizedRMSD -1
REMARK  2 active torsions:
REMARK  status: ('A' for Active; 'I' for Inactive)
REMARK    1  A    between atoms: C2'_3  and  C1'_4 
REMARK    2  A    between atoms: C1'_4  and  C1_5 
ROOT
ATOM      1  C1  I4B d   1       0.080   0.164   0.056  0.00  0.00    -0.075 A 
ATOM      2  C2  I4B d   1      -0.076  -1.065  -0.535  0.00  0.00     0.003 A 
ATOM      3  C3  I4B d   1       1.014  -1.683  -1.193  0.00  0.00     0.002 A 
ATOM      4  C4  I4B d   1       2.221  -1.019  -1.279  0.00  0.00    -0.004 A 
ATOM      5  C5  I4B d   1       2.384   0.216  -0.660  0.00  0.00     0.002 A 
ATOM      6  C6  I4B d   1       1.311   0.807   0.023  0.00  0.00     0.003 A 
ENDROOT
BRANCH   1   7
ATOM      7  C1' I4B d   1      -1.102   0.803   0.714  0.00  0.00     0.060 C 
BRANCH   7   8
ATOM      8  C2' I4B d   1      -0.879   0.764   2.213  0.00  0.00    -0.013 C 
ATOM      9  C4' I4B d   1      -0.710   2.151   2.775  0.00  0.00     0.013 C 
ATOM     10  C3' I4B d   1      -2.051   0.066   2.837  0.00  0.00     0.013 C 
ENDBRANCH   7   8
ENDBRANCH   1   7
TORSDOF 2
ENDMDL
