MODEL 1
REMARK minimizedAffinity -2.98354387
REMARK minimizedRMSD -1
REMARK  2 active torsions:
REMARK  status: ('A' for Active; 'I' for Inactive)
REMARK    1  A    between atoms: C2'_3  and  C1'_4 
REMARK    2  A    between atoms: C1'_4  and  C1_5 
ROOT
ATOM      1  C1  I4B d   1      -0.480  -0.161   0.004  0.00  0.00    -0.075 A 
ATOM      2  C2  I4B d   1      -0.619  -1.500   0.270  0.00  0.00     0.003 A 
ATOM      3  C3  I4B d   1       0.364  -2.420  -0.170  0.00  0.00     0.002 A 
ATOM      4  C4  I4B d   1       1.436  -1.966  -0.911  0.00  0.00    -0.004 A 
ATOM      5  C5  I4B d   1       1.587  -0.605  -1.160  0.00  0.00     0.002 A 
ATOM      6  C6  I4B d   1       0.630   0.305  -0.689  0.00  0.00     0.003 A 
ENDROOT
BRANCH   1   7
ATOM      7  C1' I4B d   1      -1.553   0.779   0.455  0.00  0.00     0.060 C 
BRANCH   7   8
ATOM      8  C2' I4B d   1      -1.573   0.771   1.970  0.00  0.00    -0.013 C 
ATOM      9  C4' I4B d   1      -1.454   2.167   2.524  0.00  0.00     0.013 C 
ATOM     10  C3' I4B d   1      -2.850   0.121   2.413  0.00  0.00     0.013 C 
ENDBRANCH   7   8
ENDBRANCH   1   7
TORSDOF 2
ENDMDL
