MODEL 1
REMARK minimizedAffinity -4.6872344
REMARK minimizedRMSD -1
REMARK  2 active torsions:
REMARK  status: ('A' for Active; 'I' for Inactive)
REMARK    1  A    between atoms: C2'_3  and  C1'_4 
REMARK    2  A    between atoms: C1'_4  and  C1_5 
ROOT
ATOM      1  C1  I4B d   1       1.285  -0.177  -1.131  0.00  0.00    -0.075 A 
ATOM      2  C2  I4B d   1       0.442   0.905  -1.058  0.00  0.00     0.003 A 
ATOM      3  C3  I4B d   1       0.432   1.871  -2.093  0.00  0.00     0.002 A 
ATOM      4  C4  I4B d   1       1.311   1.745  -3.149  0.00  0.00    -0.004 A 
ATOM      5  C5  I4B d   1       2.148   0.636  -3.233  0.00  0.00     0.002 A 
ATOM      6  C6  I4B d   1       2.126  -0.337  -2.224  0.00  0.00     0.003 A 
ENDROOT
BRANCH   1   7
ATOM      7  C1' I4B d   1       1.293  -1.161  -0.005  0.00  0.00     0.060 C 
BRANCH   7   8
ATOM      8  C2' I4B d   1      -0.107  -1.726   0.132  0.00  0.00    -0.013 C 
ATOM      9  C4' I4B d   1      -0.092  -3.231   0.111  0.00  0.00     0.013 C 
ATOM     10  C3' I4B d   1      -0.692  -1.207   1.411  0.00  0.00     0.013 C 
ENDBRANCH   7   8
ENDBRANCH   1   7
TORSDOF 2
ENDMDL
