MODEL 1
REMARK minimizedAffinity -2.15041065
REMARK minimizedRMSD -1
REMARK  2 active torsions:
REMARK  status: ('A' for Active; 'I' for Inactive)
REMARK    1  A    between atoms: C2'_3  and  C1'_4 
REMARK    2  A    between atoms: C1'_4  and  C1_5 
ROOT
ATOM      1  C1  I4B d   1       0.587  -0.644  -1.036  0.00  0.00    -0.075 A 
ATOM      2  C2  I4B d   1       0.179   0.658  -1.182  0.00  0.00     0.003 A 
ATOM      3  C3  I4B d   1       0.841   1.515  -2.094  0.00  0.00     0.002 A 
ATOM      4  C4  I4B d   1       1.931   1.046  -2.798  0.00  0.00    -0.004 A 
ATOM      5  C5  I4B d   1       2.329  -0.281  -2.666  0.00  0.00     0.002 A 
ATOM      6  C6  I4B d   1       1.646  -1.135  -1.789  0.00  0.00     0.003 A 
ENDROOT
BRANCH   1   7
ATOM      7  C1' I4B d   1      -0.114  -1.512  -0.040  0.00  0.00     0.060 C 
BRANCH   7   8
ATOM      8  C2' I4B d   1       0.833  -2.627   0.355  0.00  0.00    -0.013 C 
ATOM      9  C4' I4B d   1       1.390  -2.407   1.737  0.00  0.00     0.013 C 
ATOM     10  C3' I4B d   1       0.081  -3.923   0.275  0.00  0.00     0.013 C 
ENDBRANCH   7   8
ENDBRANCH   1   7
TORSDOF 2
ENDMDL
