MODEL 1
REMARK minimizedAffinity 8.60179424
REMARK minimizedRMSD -1
REMARK  2 active torsions:
REMARK  status: ('A' for Active; 'I' for Inactive)
REMARK    1  A    between atoms: C2'_3  and  C1'_4 
REMARK    2  A    between atoms: C1'_4  and  C1_5 
ROOT
ATOM      1  C1  I4B d   1      -0.937  -1.125   0.725  0.00  0.00    -0.075 A 
ATOM      2  C2  I4B d   1      -1.070  -1.654  -0.534  0.00  0.00     0.003 A 
ATOM      3  C3  I4B d   1       0.024  -2.306  -1.153  0.00  0.00     0.002 A 
ATOM      4  C4  I4B d   1       1.239  -2.361  -0.501  0.00  0.00    -0.004 A 
ATOM      5  C5  I4B d   1       1.366  -1.844   0.785  0.00  0.00     0.002 A 
ATOM      6  C6  I4B d   1       0.267  -1.233   1.408  0.00  0.00     0.003 A 
ENDROOT
BRANCH   1   7
ATOM      7  C1' I4B d   1      -2.104  -0.415   1.335  0.00  0.00     0.060 C 
BRANCH   7   8
ATOM      8  C2' I4B d   1      -1.887  -0.363   2.834  0.00  0.00    -0.013 C 
ATOM      9  C4' I4B d   1      -1.968   1.051   3.348  0.00  0.00     0.013 C 
ATOM     10  C3' I4B d   1      -2.920  -1.235   3.482  0.00  0.00     0.013 C 
ENDBRANCH   7   8
ENDBRANCH   1   7
TORSDOF 2
ENDMDL
