MODEL 1
REMARK minimizedAffinity 6.00097895
REMARK minimizedRMSD -1
REMARK  2 active torsions:
REMARK  status: ('A' for Active; 'I' for Inactive)
REMARK    1  A    between atoms: C2'_3  and  C1'_4 
REMARK    2  A    between atoms: C1'_4  and  C1_5 
ROOT
ATOM      1  C1  I4B d   1      -3.657  -0.266   3.457  0.00  0.00    -0.075 A 
ATOM      2  C2  I4B d   1      -4.512  -0.671   2.463  0.00  0.00     0.003 A 
ATOM      3  C3  I4B d   1      -5.452  -1.702   2.707  0.00  0.00     0.002 A 
ATOM      4  C4  I4B d   1      -5.467  -2.330   3.936  0.00  0.00    -0.004 A 
ATOM      5  C5  I4B d   1      -4.615  -1.903   4.950  0.00  0.00     0.002 A 
ATOM      6  C6  I4B d   1      -3.712  -0.856   4.713  0.00  0.00     0.003 A 
ENDROOT
BRANCH   1   7
ATOM      7  C1' I4B d   1      -2.655   0.803   3.155  0.00  0.00     0.060 C 
BRANCH   7   8
ATOM      8  C2' I4B d   1      -3.008   2.021   3.983  0.00  0.00    -0.013 C 
ATOM      9  C4' I4B d   1      -1.926   2.333   4.983  0.00  0.00     0.013 C 
ATOM     10  C3' I4B d   1      -3.226   3.171   3.046  0.00  0.00     0.013 C 
ENDBRANCH   7   8
ENDBRANCH   1   7
TORSDOF 2
ENDMDL
