MODEL 1
REMARK minimizedAffinity -0.363868833
REMARK minimizedRMSD -1
REMARK  2 active torsions:
REMARK  status: ('A' for Active; 'I' for Inactive)
REMARK    1  A    between atoms: C2'_3  and  C1'_4 
REMARK    2  A    between atoms: C1'_4  and  C1_5 
ROOT
ATOM      1  C1  I4B d   1      -1.181  -0.012   1.679  0.00  0.00    -0.075 A 
ATOM      2  C2  I4B d   1      -1.303  -1.160   0.936  0.00  0.00     0.003 A 
ATOM      3  C3  I4B d   1      -0.853  -1.192  -0.406  0.00  0.00     0.002 A 
ATOM      4  C4  I4B d   1      -0.337  -0.047  -0.977  0.00  0.00    -0.004 A 
ATOM      5  C5  I4B d   1      -0.193   1.110  -0.216  0.00  0.00     0.002 A 
ATOM      6  C6  I4B d   1      -0.606   1.124   1.124  0.00  0.00     0.003 A 
ENDROOT
BRANCH   1   7
ATOM      7  C1' I4B d   1      -1.697  -0.004   3.083  0.00  0.00     0.060 C 
BRANCH   7   8
ATOM      8  C2' I4B d   1      -3.186   0.271   3.031  0.00  0.00    -0.013 C 
ATOM      9  C4' I4B d   1      -3.970  -0.853   3.658  0.00  0.00     0.013 C 
ATOM     10  C3' I4B d   1      -3.443   1.569   3.737  0.00  0.00     0.013 C 
ENDBRANCH   7   8
ENDBRANCH   1   7
TORSDOF 2
ENDMDL
