MODEL 1
REMARK minimizedAffinity 9.88528252
REMARK minimizedRMSD -1
REMARK  0 active torsions:
REMARK  status: ('A' for Active; 'I' for Inactive)
ROOT
ATOM      1  C   UNL d   1       0.969  -1.740   2.720  0.00  0.00     0.020 A 
ATOM      2  C1  UNL d   1       1.549  -2.524   3.717  0.00  0.00     0.020 A 
ATOM      3  C2  UNL d   1       2.930  -2.730   3.728  0.00  0.00     0.034 A 
ATOM      4  C3  UNL d   1       3.736  -2.151   2.740  0.00  0.00     0.017 A 
ATOM      5  C4  UNL d   1       3.152  -1.364   1.740  0.00  0.00     0.017 A 
ATOM      6  C5  UNL d   1       1.769  -1.161   1.734  0.00  0.00     0.034 A 
ATOM      7 Cl   UNL d   1       4.082  -0.618   0.489  0.00  0.00    -0.070 Cl
ATOM      8 Cl1  UNL d   1       5.436  -2.448   2.815  0.00  0.00    -0.070 Cl
ENDROOT
TORSDOF 0
ENDMDL
