MODEL 1
REMARK minimizedAffinity 2.93332028
REMARK minimizedRMSD -1
REMARK  0 active torsions:
REMARK  status: ('A' for Active; 'I' for Inactive)
ROOT
ATOM      1  C   UNL d   1       4.420   5.354  -5.706  0.00  0.00     0.020 A 
ATOM      2  C1  UNL d   1       5.681   5.823  -5.343  0.00  0.00     0.020 A 
ATOM      3  C2  UNL d   1       6.000   5.997  -3.995  0.00  0.00     0.034 A 
ATOM      4  C3  UNL d   1       5.055   5.703  -3.004  0.00  0.00     0.017 A 
ATOM      5  C4  UNL d   1       3.789   5.232  -3.370  0.00  0.00     0.017 A 
ATOM      6  C5  UNL d   1       3.476   5.060  -4.722  0.00  0.00     0.034 A 
ATOM      7 Cl   UNL d   1       2.571   4.848  -2.205  0.00  0.00    -0.070 Cl
ATOM      8 Cl1  UNL d   1       5.518   5.942  -1.357  0.00  0.00    -0.070 Cl
ENDROOT
TORSDOF 0
ENDMDL
