MODEL 1
REMARK minimizedAffinity 7.82184887
REMARK minimizedRMSD -1
REMARK  0 active torsions:
REMARK  status: ('A' for Active; 'I' for Inactive)
ROOT
ATOM      1  C   UNL d   1       1.468  -1.389   2.292  0.00  0.00     0.020 A 
ATOM      2  C1  UNL d   1       0.831  -1.025   3.478  0.00  0.00     0.020 A 
ATOM      3  C2  UNL d   1       0.632  -1.973   4.483  0.00  0.00     0.034 A 
ATOM      4  C3  UNL d   1       1.071  -3.290   4.305  0.00  0.00     0.017 A 
ATOM      5  C4  UNL d   1       1.710  -3.655   3.114  0.00  0.00     0.017 A 
ATOM      6  C5  UNL d   1       1.906  -2.701   2.111  0.00  0.00     0.034 A 
ATOM      7 Cl   UNL d   1       2.278  -5.261   2.822  0.00  0.00    -0.070 Cl
ATOM      8 Cl1  UNL d   1       0.792  -4.411   5.591  0.00  0.00    -0.070 Cl
ENDROOT
TORSDOF 0
ENDMDL
