MODEL 1
REMARK minimizedAffinity 2.41826224
REMARK minimizedRMSD -1
REMARK  0 active torsions:
REMARK  status: ('A' for Active; 'I' for Inactive)
ROOT
ATOM      1  C   UNL d   1       1.086   0.450   2.438  0.00  0.00     0.020 A 
ATOM      2  C1  UNL d   1       1.484   0.149   1.136  0.00  0.00     0.020 A 
ATOM      3  C2  UNL d   1       1.622  -1.183   0.738  0.00  0.00     0.034 A 
ATOM      4  C3  UNL d   1       1.362  -2.218   1.643  0.00  0.00     0.017 A 
ATOM      5  C4  UNL d   1       0.962  -1.915   2.950  0.00  0.00     0.017 A 
ATOM      6  C5  UNL d   1       0.826  -0.580   3.343  0.00  0.00     0.034 A 
ATOM      7 Cl   UNL d   1       0.623  -3.138   4.123  0.00  0.00    -0.070 Cl
ATOM      8 Cl1  UNL d   1       1.552  -3.842   1.083  0.00  0.00    -0.070 Cl
ENDROOT
TORSDOF 0
ENDMDL
