MODEL 1
REMARK minimizedAffinity 6.45183897
REMARK minimizedRMSD -1
REMARK  0 active torsions:
REMARK  status: ('A' for Active; 'I' for Inactive)
ROOT
ATOM      1  C   UNL d   1       1.248  -2.173   2.253  0.00  0.00     0.020 A 
ATOM      2  C1  UNL d   1       1.477  -1.200   1.281  0.00  0.00     0.020 A 
ATOM      3  C2  UNL d   1       1.564   0.145   1.647  0.00  0.00     0.034 A 
ATOM      4  C3  UNL d   1       1.423   0.520   2.988  0.00  0.00     0.017 A 
ATOM      5  C4  UNL d   1       1.193  -0.457   3.962  0.00  0.00     0.017 A 
ATOM      6  C5  UNL d   1       1.107  -1.803   3.590  0.00  0.00     0.034 A 
ATOM      7 Cl   UNL d   1       1.008  -0.071   5.637  0.00  0.00    -0.070 Cl
ATOM      8 Cl1  UNL d   1       1.543   2.201   3.368  0.00  0.00    -0.070 Cl
ENDROOT
TORSDOF 0
ENDMDL
