MODEL 1
REMARK minimizedAffinity -0.00626432663
REMARK minimizedRMSD -1
REMARK  0 active torsions:
REMARK  status: ('A' for Active; 'I' for Inactive)
ROOT
ATOM      1  C   UNL d   1      -2.890  -0.327  -2.507  0.00  0.00     0.020 A 
ATOM      2  C1  UNL d   1      -3.678   0.820  -2.432  0.00  0.00     0.020 A 
ATOM      3  C2  UNL d   1      -3.405   1.793  -1.468  0.00  0.00     0.034 A 
ATOM      4  C3  UNL d   1      -2.341   1.621  -0.576  0.00  0.00     0.017 A 
ATOM      5  C4  UNL d   1      -1.550   0.469  -0.652  0.00  0.00     0.017 A 
ATOM      6  C5  UNL d   1      -1.828  -0.503  -1.619  0.00  0.00     0.034 A 
ATOM      7 Cl   UNL d   1      -0.220   0.185   0.415  0.00  0.00    -0.070 Cl
ATOM      8 Cl1  UNL d   1      -2.060   2.865   0.590  0.00  0.00    -0.070 Cl
ENDROOT
TORSDOF 0
ENDMDL
