MODEL 1
REMARK minimizedAffinity 14.9110842
REMARK minimizedRMSD -1
REMARK  0 active torsions:
REMARK  status: ('A' for Active; 'I' for Inactive)
ROOT
ATOM      1  C   UNL d   1      -3.803  -0.752  -3.538  0.00  0.00     0.020 A 
ATOM      2  C1  UNL d   1      -2.642  -0.754  -2.766  0.00  0.00     0.020 A 
ATOM      3  C2  UNL d   1      -2.469   0.201  -1.761  0.00  0.00     0.034 A 
ATOM      4  C3  UNL d   1      -3.460   1.161  -1.526  0.00  0.00     0.017 A 
ATOM      5  C4  UNL d   1      -4.625   1.163  -2.301  0.00  0.00     0.017 A 
ATOM      6  C5  UNL d   1      -4.792   0.204  -3.305  0.00  0.00     0.034 A 
ATOM      7 Cl   UNL d   1      -5.891   2.316  -2.069  0.00  0.00    -0.070 Cl
ATOM      8 Cl1  UNL d   1      -3.181   2.312  -0.267  0.00  0.00    -0.070 Cl
ENDROOT
TORSDOF 0
ENDMDL
