MODEL 1
REMARK minimizedAffinity 9.13893509
REMARK minimizedRMSD -1
REMARK  0 active torsions:
REMARK  status: ('A' for Active; 'I' for Inactive)
ROOT
ATOM      1  C   UNL d   1       1.607  -0.619   1.204  0.00  0.00     0.020 A 
ATOM      2  C1  UNL d   1       1.333   0.286   2.229  0.00  0.00     0.020 A 
ATOM      3  C2  UNL d   1       1.181  -0.170   3.540  0.00  0.00     0.034 A 
ATOM      4  C3  UNL d   1       1.303  -1.534   3.830  0.00  0.00     0.017 A 
ATOM      5  C4  UNL d   1       1.577  -2.442   2.800  0.00  0.00     0.017 A 
ATOM      6  C5  UNL d   1       1.728  -1.980   1.489  0.00  0.00     0.034 A 
ATOM      7 Cl   UNL d   1       1.741  -4.139   3.079  0.00  0.00    -0.070 Cl
ATOM      8 Cl1  UNL d   1       1.103  -2.028   5.474  0.00  0.00    -0.070 Cl
ENDROOT
TORSDOF 0
ENDMDL
