MODEL 1
REMARK minimizedAffinity 7.62065983
REMARK minimizedRMSD -1
REMARK  0 active torsions:
REMARK  status: ('A' for Active; 'I' for Inactive)
ROOT
ATOM      1  C   UNL d   1      -3.866  -5.980  -4.159  0.00  0.00     0.020 A 
ATOM      2  C1  UNL d   1      -4.389  -6.000  -5.451  0.00  0.00     0.020 A 
ATOM      3  C2  UNL d   1      -4.939  -4.839  -6.000  0.00  0.00     0.034 A 
ATOM      4  C3  UNL d   1      -4.967  -3.654  -5.256  0.00  0.00     0.017 A 
ATOM      5  C4  UNL d   1      -4.443  -3.635  -3.959  0.00  0.00     0.017 A 
ATOM      6  C5  UNL d   1      -3.893  -4.800  -3.414  0.00  0.00     0.034 A 
ATOM      7 Cl   UNL d   1      -4.442  -2.211  -2.979  0.00  0.00    -0.070 Cl
ATOM      8 Cl1  UNL d   1      -5.662  -2.257  -5.997  0.00  0.00    -0.070 Cl
ENDROOT
TORSDOF 0
ENDMDL
