MODEL 1
REMARK minimizedAffinity 2.45511627
REMARK minimizedRMSD -1
REMARK  0 active torsions:
REMARK  status: ('A' for Active; 'I' for Inactive)
ROOT
ATOM      1  C   UNL d   1       5.651  -2.052   1.248  0.00  0.00     0.020 A 
ATOM      2  C1  UNL d   1       5.225  -2.866   0.199  0.00  0.00     0.020 A 
ATOM      3  C2  UNL d   1       3.869  -3.165   0.053  0.00  0.00     0.034 A 
ATOM      4  C3  UNL d   1       2.933  -2.651   0.958  0.00  0.00     0.017 A 
ATOM      5  C4  UNL d   1       3.361  -1.834   2.011  0.00  0.00     0.017 A 
ATOM      6  C5  UNL d   1       4.720  -1.537   2.152  0.00  0.00     0.034 A 
ATOM      7 Cl   UNL d   1       2.266  -1.162   3.166  0.00  0.00    -0.070 Cl
ATOM      8 Cl1  UNL d   1       1.273  -3.062   0.716  0.00  0.00    -0.070 Cl
ENDROOT
TORSDOF 0
ENDMDL
