MODEL 1
REMARK minimizedAffinity -0.362693131
REMARK minimizedRMSD -1
REMARK  0 active torsions:
REMARK  status: ('A' for Active; 'I' for Inactive)
ROOT
ATOM      1  C   UNL d   1       2.121  -2.092   1.867  0.00  0.00     0.020 A 
ATOM      2  C1  UNL d   1       2.120  -0.732   1.562  0.00  0.00     0.020 A 
ATOM      3  C2  UNL d   1       1.842   0.207   2.558  0.00  0.00     0.034 A 
ATOM      4  C3  UNL d   1       1.562  -0.213   3.863  0.00  0.00     0.017 A 
ATOM      5  C4  UNL d   1       1.563  -1.579   4.168  0.00  0.00     0.017 A 
ATOM      6  C5  UNL d   1       1.843  -2.515   3.168  0.00  0.00     0.034 A 
ATOM      7 Cl   UNL d   1       1.228  -2.174   5.756  0.00  0.00    -0.070 Cl
ATOM      8 Cl1  UNL d   1       1.227   1.002   5.044  0.00  0.00    -0.070 Cl
ENDROOT
TORSDOF 0
ENDMDL
