MODEL 1
REMARK minimizedAffinity 2.86706042
REMARK minimizedRMSD -1
REMARK  0 active torsions:
REMARK  status: ('A' for Active; 'I' for Inactive)
ROOT
ATOM      1  C2' OXE d   1       3.853   5.919  -5.992  0.00  0.00     0.078 C 
ATOM      2  C1' OXE d   1       5.899   3.997  -5.999  0.00  0.00     0.078 C 
ATOM      3  C1  OXE d   1       5.441   4.532  -4.665  0.00  0.00    -0.078 A 
ATOM      4  C2  OXE d   1       4.472   5.506  -4.674  0.00  0.00    -0.078 A 
ATOM      5  C3  OXE d   1       3.974   5.994  -3.469  0.00  0.00     0.003 A 
ATOM      6  C4  OXE d   1       4.559   5.614  -2.254  0.00  0.00    -0.002 A 
ATOM      7  C5  OXE d   1       5.575   4.653  -2.226  0.00  0.00    -0.002 A 
ATOM      8  C6  OXE d   1       5.997   4.072  -3.417  0.00  0.00     0.003 A 
ENDROOT
TORSDOF 0
ENDMDL
