MODEL 1
REMARK minimizedAffinity 3.51376295
REMARK minimizedRMSD -1
REMARK  0 active torsions:
REMARK  status: ('A' for Active; 'I' for Inactive)
ROOT
ATOM      1  C2' OXE d   1       2.707  -1.410  -2.531  0.00  0.00     0.078 C 
ATOM      2  C1' OXE d   1       0.404  -1.360  -0.926  0.00  0.00     0.078 C 
ATOM      3  C1  OXE d   1       0.375  -2.210  -2.172  0.00  0.00    -0.078 A 
ATOM      4  C2  OXE d   1       1.490  -2.191  -2.976  0.00  0.00    -0.078 A 
ATOM      5  C3  OXE d   1       1.536  -2.999  -4.108  0.00  0.00     0.003 A 
ATOM      6  C4  OXE d   1       0.403  -3.712  -4.518  0.00  0.00    -0.002 A 
ATOM      7  C5  OXE d   1      -0.757  -3.713  -3.735  0.00  0.00    -0.002 A 
ATOM      8  C6  OXE d   1      -0.772  -3.003  -2.539  0.00  0.00     0.003 A 
ENDROOT
TORSDOF 0
ENDMDL
