MODEL 1
REMARK minimizedAffinity 6.12889767
REMARK minimizedRMSD -1
REMARK  0 active torsions:
REMARK  status: ('A' for Active; 'I' for Inactive)
ROOT
ATOM      1  C2' OXE d   1       5.949  -3.030   6.000  0.00  0.00     0.078 C 
ATOM      2  C1' OXE d   1       4.329  -5.322   6.000  0.00  0.00     0.078 C 
ATOM      3  C1  OXE d   1       3.856  -4.126   5.212  0.00  0.00    -0.078 A 
ATOM      4  C2  OXE d   1       4.632  -2.993   5.256  0.00  0.00    -0.078 A 
ATOM      5  C3  OXE d   1       4.269  -1.880   4.503  0.00  0.00     0.003 A 
ATOM      6  C4  OXE d   1       3.044  -1.851   3.826  0.00  0.00    -0.002 A 
ATOM      7  C5  OXE d   1       2.219  -2.980   3.801  0.00  0.00    -0.002 A 
ATOM      8  C6  OXE d   1       2.630  -4.138   4.452  0.00  0.00     0.003 A 
ENDROOT
TORSDOF 0
ENDMDL
