MODEL 1
REMARK minimizedAffinity -1.28990412
REMARK minimizedRMSD -1
REMARK  0 active torsions:
REMARK  status: ('A' for Active; 'I' for Inactive)
ROOT
ATOM      1  C2' OXE d   1       5.961  -5.188   5.649  0.00  0.00     0.078 C 
ATOM      2  C1' OXE d   1       3.408  -4.955   4.506  0.00  0.00     0.078 C 
ATOM      3  C1  OXE d   1       4.081  -3.694   4.987  0.00  0.00    -0.078 A 
ATOM      4  C2  OXE d   1       5.310  -3.823   5.588  0.00  0.00    -0.078 A 
ATOM      5  C3  OXE d   1       5.999  -2.686   6.000  0.00  0.00     0.003 A 
ATOM      6  C4  OXE d   1       5.385  -1.428   5.948  0.00  0.00    -0.002 A 
ATOM      7  C5  OXE d   1       4.117  -1.280   5.376  0.00  0.00    -0.002 A 
ATOM      8  C6  OXE d   1       3.471  -2.394   4.853  0.00  0.00     0.003 A 
ENDROOT
TORSDOF 0
ENDMDL
