MODEL 1
REMARK minimizedAffinity 6.96571159
REMARK minimizedRMSD -1
REMARK  0 active torsions:
REMARK  status: ('A' for Active; 'I' for Inactive)
ROOT
ATOM      1  C2' OXE d   1       5.337  -3.254   5.995  0.00  0.00     0.078 C 
ATOM      2  C1' OXE d   1       3.817  -0.893   6.000  0.00  0.00     0.078 C 
ATOM      3  C1  OXE d   1       3.784  -1.749   4.758  0.00  0.00    -0.078 A 
ATOM      4  C2  OXE d   1       4.567  -2.879   4.748  0.00  0.00    -0.078 A 
ATOM      5  C3  OXE d   1       4.531  -3.732   3.649  0.00  0.00     0.003 A 
ATOM      6  C4  OXE d   1       3.824  -3.373   2.495  0.00  0.00    -0.002 A 
ATOM      7  C5  OXE d   1       3.051  -2.207   2.470  0.00  0.00    -0.002 A 
ATOM      8  C6  OXE d   1       2.986  -1.408   3.606  0.00  0.00     0.003 A 
ENDROOT
TORSDOF 0
ENDMDL
