MODEL 1
REMARK minimizedAffinity 8.01107025
REMARK minimizedRMSD -1
REMARK  0 active torsions:
REMARK  status: ('A' for Active; 'I' for Inactive)
ROOT
ATOM      1  C2' OXE d   1       5.523   3.568  -1.545  0.00  0.00     0.078 C 
ATOM      2  C1' OXE d   1       3.931   5.865  -1.813  0.00  0.00     0.078 C 
ATOM      3  C1  OXE d   1       4.592   5.318  -3.054  0.00  0.00    -0.078 A 
ATOM      4  C2  OXE d   1       5.407   4.222  -2.905  0.00  0.00    -0.078 A 
ATOM      5  C3  OXE d   1       5.998   3.645  -4.026  0.00  0.00     0.003 A 
ATOM      6  C4  OXE d   1       5.893   4.261  -5.278  0.00  0.00    -0.002 A 
ATOM      7  C5  OXE d   1       5.100   5.402  -5.445  0.00  0.00    -0.002 A 
ATOM      8  C6  OXE d   1       4.410   5.917  -4.353  0.00  0.00     0.003 A 
ENDROOT
TORSDOF 0
ENDMDL
