MODEL 1
REMARK minimizedAffinity 0.603053212
REMARK minimizedRMSD -1
REMARK  0 active torsions:
REMARK  status: ('A' for Active; 'I' for Inactive)
ROOT
ATOM      1  C2' OXE d   1       4.973   5.294  -1.858  0.00  0.00     0.078 C 
ATOM      2  C1' OXE d   1       2.771   5.970  -3.462  0.00  0.00     0.078 C 
ATOM      3  C1  OXE d   1       3.879   5.164  -4.092  0.00  0.00    -0.078 A 
ATOM      4  C2  OXE d   1       4.974   4.877  -3.313  0.00  0.00    -0.078 A 
ATOM      5  C3  OXE d   1       6.000   4.090  -3.828  0.00  0.00     0.003 A 
ATOM      6  C4  OXE d   1       5.998   3.717  -5.177  0.00  0.00    -0.002 A 
ATOM      7  C5  OXE d   1       4.910   4.032  -5.999  0.00  0.00    -0.002 A 
ATOM      8  C6  OXE d   1       3.826   4.717  -5.462  0.00  0.00     0.003 A 
ENDROOT
TORSDOF 0
ENDMDL
