MODEL 1
REMARK minimizedAffinity 5.33772039
REMARK minimizedRMSD -1
REMARK  0 active torsions:
REMARK  status: ('A' for Active; 'I' for Inactive)
ROOT
ATOM      1  C2' OXE d   1       2.776   5.994  -5.831  0.00  0.00     0.078 C 
ATOM      2  C1' OXE d   1       2.003   5.398  -3.199  0.00  0.00     0.078 C 
ATOM      3  C1  OXE d   1       3.418   5.072  -3.607  0.00  0.00    -0.078 A 
ATOM      4  C2  OXE d   1       3.774   5.324  -4.910  0.00  0.00    -0.078 A 
ATOM      5  C3  OXE d   1       5.083   5.094  -5.324  0.00  0.00     0.003 A 
ATOM      6  C4  OXE d   1       5.997   4.466  -4.469  0.00  0.00    -0.002 A 
ATOM      7  C5  OXE d   1       5.643   4.164  -3.150  0.00  0.00    -0.002 A 
ATOM      8  C6  OXE d   1       4.374   4.499  -2.691  0.00  0.00     0.003 A 
ENDROOT
TORSDOF 0
ENDMDL
