MODEL 1
REMARK minimizedAffinity 1.03920829
REMARK minimizedRMSD -1
REMARK  0 active torsions:
REMARK  status: ('A' for Active; 'I' for Inactive)
ROOT
ATOM      1  C2' OXE d   1       5.839  -3.100   5.999  0.00  0.00     0.078 C 
ATOM      2  C1' OXE d   1       4.125  -0.884   5.820  0.00  0.00     0.078 C 
ATOM      3  C1  OXE d   1       4.652  -1.472   4.535  0.00  0.00    -0.078 A 
ATOM      4  C2  OXE d   1       5.527  -2.527   4.634  0.00  0.00    -0.078 A 
ATOM      5  C3  OXE d   1       6.000  -3.141   3.478  0.00  0.00     0.003 A 
ATOM      6  C4  OXE d   1       5.715  -2.599   2.219  0.00  0.00    -0.002 A 
ATOM      7  C5  OXE d   1       4.858  -1.500   2.098  0.00  0.00    -0.002 A 
ATOM      8  C6  OXE d   1       4.285  -0.952   3.240  0.00  0.00     0.003 A 
ENDROOT
TORSDOF 0
ENDMDL
