MODEL 1
REMARK minimizedAffinity 3.32829714
REMARK minimizedRMSD -1
REMARK  0 active torsions:
REMARK  status: ('A' for Active; 'I' for Inactive)
ROOT
ATOM      1  C2' OXE d   1       2.664  -1.644  -2.702  0.00  0.00     0.078 C 
ATOM      2  C1' OXE d   1       2.051  -1.570   0.036  0.00  0.00     0.078 C 
ATOM      3  C1  OXE d   1       1.047  -2.206  -0.893  0.00  0.00    -0.078 A 
ATOM      4  C2  OXE d   1       1.334  -2.196  -2.236  0.00  0.00    -0.078 A 
ATOM      5  C3  OXE d   1       0.468  -2.818  -3.131  0.00  0.00     0.003 A 
ATOM      6  C4  OXE d   1      -0.765  -3.317  -2.693  0.00  0.00    -0.002 A 
ATOM      7  C5  OXE d   1      -1.095  -3.302  -1.334  0.00  0.00    -0.002 A 
ATOM      8  C6  OXE d   1      -0.183  -2.789  -0.417  0.00  0.00     0.003 A 
ENDROOT
TORSDOF 0
ENDMDL
