MODEL 1
REMARK minimizedAffinity 5.43193769
REMARK minimizedRMSD -1
REMARK  0 active torsions:
REMARK  status: ('A' for Active; 'I' for Inactive)
ROOT
ATOM      1  C2' OXE d   1      -0.389  -2.538  -4.353  0.00  0.00     0.078 C 
ATOM      2  C1' OXE d   1       1.821  -3.254  -2.778  0.00  0.00     0.078 C 
ATOM      3  C1  OXE d   1       0.518  -2.971  -2.074  0.00  0.00    -0.078 A 
ATOM      4  C2  OXE d   1      -0.546  -2.576  -2.848  0.00  0.00    -0.078 A 
ATOM      5  C3  OXE d   1      -1.786  -2.355  -2.255  0.00  0.00     0.003 A 
ATOM      6  C4  OXE d   1      -1.920  -2.382  -0.862  0.00  0.00    -0.002 A 
ATOM      7  C5  OXE d   1      -0.839  -2.744  -0.051  0.00  0.00    -0.002 A 
ATOM      8  C6  OXE d   1       0.373  -3.082  -0.643  0.00  0.00     0.003 A 
ENDROOT
TORSDOF 0
ENDMDL
