MODEL 1
REMARK minimizedAffinity 3.47264051
REMARK minimizedRMSD -1
REMARK  0 active torsions:
REMARK  status: ('A' for Active; 'I' for Inactive)
ROOT
ATOM      1  C2' OXE d   1       5.420   3.316  -5.174  0.00  0.00     0.078 C 
ATOM      2  C1' OXE d   1       4.271   5.872  -5.007  0.00  0.00     0.078 C 
ATOM      3  C1  OXE d   1       4.869   5.285  -3.752  0.00  0.00    -0.078 A 
ATOM      4  C2  OXE d   1       5.387   4.015  -3.832  0.00  0.00    -0.078 A 
ATOM      5  C3  OXE d   1       6.000   3.449  -2.718  0.00  0.00     0.003 A 
ATOM      6  C4  OXE d   1       5.956   4.098  -1.478  0.00  0.00    -0.002 A 
ATOM      7  C5  OXE d   1       5.397   5.376  -1.366  0.00  0.00    -0.002 A 
ATOM      8  C6  OXE d   1       4.889   6.000  -2.499  0.00  0.00     0.003 A 
ENDROOT
TORSDOF 0
ENDMDL
