MODEL 1
REMARK minimizedAffinity 1.34243464
REMARK minimizedRMSD -1
REMARK  0 active torsions:
REMARK  status: ('A' for Active; 'I' for Inactive)
ROOT
ATOM      1  C2' OXE d   1       2.510   6.000  -2.784  0.00  0.00     0.078 C 
ATOM      2  C1' OXE d   1       4.718   5.922  -1.053  0.00  0.00     0.078 C 
ATOM      3  C1  OXE d   1       4.815   5.161  -2.352  0.00  0.00    -0.078 A 
ATOM      4  C2  OXE d   1       3.713   5.166  -3.172  0.00  0.00    -0.078 A 
ATOM      5  C3  OXE d   1       3.768   4.526  -4.406  0.00  0.00     0.003 A 
ATOM      6  C4  OXE d   1       4.881   3.750  -4.753  0.00  0.00    -0.002 A 
ATOM      7  C5  OXE d   1       5.999   3.698  -3.914  0.00  0.00    -0.002 A 
ATOM      8  C6  OXE d   1       6.000   4.431  -2.732  0.00  0.00     0.003 A 
ENDROOT
TORSDOF 0
ENDMDL
