MODEL 1
REMARK minimizedAffinity 5.63348198
REMARK minimizedRMSD -1
REMARK  0 active torsions:
REMARK  status: ('A' for Active; 'I' for Inactive)
ROOT
ATOM      1  C2' OXE d   1       2.587   5.930  -3.027  0.00  0.00     0.078 C 
ATOM      2  C1' OXE d   1       4.780   5.999  -1.276  0.00  0.00     0.078 C 
ATOM      3  C1  OXE d   1       4.848   5.056  -2.451  0.00  0.00    -0.078 A 
ATOM      4  C2  OXE d   1       3.750   4.995  -3.276  0.00  0.00    -0.078 A 
ATOM      5  C3  OXE d   1       3.782   4.182  -4.406  0.00  0.00     0.003 A 
ATOM      6  C4  OXE d   1       4.858   3.313  -4.624  0.00  0.00    -0.002 A 
ATOM      7  C5  OXE d   1       5.969   3.331  -3.773  0.00  0.00    -0.002 A 
ATOM      8  C6  OXE d   1       5.998   4.225  -2.709  0.00  0.00     0.003 A 
ENDROOT
TORSDOF 0
ENDMDL
