MODEL 1
REMARK minimizedAffinity -0.901979208
REMARK minimizedRMSD -1
REMARK  0 active torsions:
REMARK  status: ('A' for Active; 'I' for Inactive)
ROOT
ATOM      1  C2' OXE d   1       4.818   5.870  -1.493  0.00  0.00     0.078 C 
ATOM      2  C1' OXE d   1       2.378   5.199  -2.709  0.00  0.00     0.078 C 
ATOM      3  C1  OXE d   1       3.623   5.153  -3.559  0.00  0.00    -0.078 A 
ATOM      4  C2  OXE d   1       4.806   5.528  -2.968  0.00  0.00    -0.078 A 
ATOM      5  C3  OXE d   1       5.993   5.451  -3.691  0.00  0.00     0.003 A 
ATOM      6  C4  OXE d   1       5.972   5.144  -5.057  0.00  0.00    -0.002 A 
ATOM      7  C5  OXE d   1       4.773   4.798  -5.688  0.00  0.00    -0.002 A 
ATOM      8  C6  OXE d   1       3.598   4.756  -4.945  0.00  0.00     0.003 A 
ENDROOT
TORSDOF 0
ENDMDL
