MODEL 1
REMARK minimizedAffinity 1.24184251
REMARK minimizedRMSD -1
REMARK  0 active torsions:
REMARK  status: ('A' for Active; 'I' for Inactive)
ROOT
ATOM      1  C2' OXE d   1      -2.164  -2.830  -0.567  0.00  0.00     0.078 C 
ATOM      2  C1' OXE d   1      -0.163  -0.929  -0.054  0.00  0.00     0.078 C 
ATOM      3  C1  OXE d   1       0.002  -1.815  -1.263  0.00  0.00    -0.078 A 
ATOM      4  C2  OXE d   1      -0.959  -2.774  -1.480  0.00  0.00    -0.078 A 
ATOM      5  C3  OXE d   1      -0.883  -3.581  -2.611  0.00  0.00     0.003 A 
ATOM      6  C4  OXE d   1       0.240  -3.530  -3.446  0.00  0.00    -0.002 A 
ATOM      7  C5  OXE d   1       1.249  -2.587  -3.220  0.00  0.00    -0.002 A 
ATOM      8  C6  OXE d   1       1.124  -1.696  -2.160  0.00  0.00     0.003 A 
ENDROOT
TORSDOF 0
ENDMDL
