MODEL 1
REMARK minimizedAffinity 2.72213721
REMARK minimizedRMSD -1
REMARK  0 active torsions:
REMARK  status: ('A' for Active; 'I' for Inactive)
ROOT
ATOM      1  C2' OXE d   1       3.281  -2.261   5.995  0.00  0.00     0.078 C 
ATOM      2  C1' OXE d   1       5.999  -1.561   5.999  0.00  0.00     0.078 C 
ATOM      3  C1  OXE d   1       5.315  -1.716   4.664  0.00  0.00    -0.078 A 
ATOM      4  C2  OXE d   1       3.997  -2.105   4.670  0.00  0.00    -0.078 A 
ATOM      5  C3  OXE d   1       3.303  -2.210   3.468  0.00  0.00     0.003 A 
ATOM      6  C4  OXE d   1       3.975  -2.073   2.248  0.00  0.00    -0.002 A 
ATOM      7  C5  OXE d   1       5.328  -1.717   2.218  0.00  0.00    -0.002 A 
ATOM      8  C6  OXE d   1       6.000  -1.493   3.414  0.00  0.00     0.003 A 
ENDROOT
TORSDOF 0
ENDMDL
