MODEL 1
REMARK minimizedAffinity 7.01208687
REMARK minimizedRMSD -1
REMARK  1 active torsions:
REMARK  status: ('A' for Active; 'I' for Inactive)
REMARK    1  A    between atoms: C1_2  and  C2_3 
ROOT
ATOM      1  C2  UNL d   1       0.907   0.086   1.402  0.00  0.00    -0.081 A 
ATOM      2  C3  UNL d   1       0.829  -1.301   1.229  0.00  0.00     0.006 A 
ATOM      3  C4  UNL d   1      -0.054  -2.062   2.000  0.00  0.00     0.002 A 
ATOM      4  C5  UNL d   1      -0.878  -1.448   2.949  0.00  0.00    -0.080 A 
ATOM      5  C6  UNL d   1      -1.852  -2.250   3.761  0.00  0.00     0.076 C 
ATOM      6  C7  UNL d   1      -0.788  -0.065   3.134  0.00  0.00     0.002 A 
ATOM      7  C8  UNL d   1       0.095   0.697   2.364  0.00  0.00     0.006 A 
ENDROOT
BRANCH   1   8
ATOM      8  C1  UNL d   1       1.810   0.918   0.528  0.00  0.00     0.054 C 
ATOM      9  C   UNL d   1       2.004   0.275  -0.838  0.00  0.00     0.018 C 
ENDBRANCH   1   8
TORSDOF 1
ENDMDL
