MODEL 1
REMARK minimizedAffinity 16.9386654
REMARK minimizedRMSD -1
REMARK  1 active torsions:
REMARK  status: ('A' for Active; 'I' for Inactive)
REMARK    1  A    between atoms: C1_2  and  C2_3 
ROOT
ATOM      1  C2  UNL d   1       4.105   1.229  -2.595  0.00  0.00    -0.081 A 
ATOM      2  C3  UNL d   1       5.307   1.478  -3.269  0.00  0.00     0.006 A 
ATOM      3  C4  UNL d   1       5.848   0.520  -4.129  0.00  0.00     0.002 A 
ATOM      4  C5  UNL d   1       5.193  -0.699  -4.336  0.00  0.00    -0.080 A 
ATOM      5  C6  UNL d   1       5.748  -1.724  -5.280  0.00  0.00     0.076 C 
ATOM      6  C7  UNL d   1       4.001  -0.955  -3.650  0.00  0.00     0.002 A 
ATOM      7  C8  UNL d   1       3.460   0.002  -2.789  0.00  0.00     0.006 A 
ENDROOT
BRANCH   1   8
ATOM      8  C1  UNL d   1       3.485   2.286  -1.717  0.00  0.00     0.054 C 
ATOM      9  C   UNL d   1       4.533   2.968  -0.849  0.00  0.00     0.018 C 
ENDBRANCH   1   8
TORSDOF 1
ENDMDL
