MODEL 1
REMARK minimizedAffinity 11.1311798
REMARK minimizedRMSD -1
REMARK  1 active torsions:
REMARK  status: ('A' for Active; 'I' for Inactive)
REMARK    1  A    between atoms: C1_2  and  C2_3 
ROOT
ATOM      1  C2  UNL d   1      -0.155  -0.858  -0.622  0.00  0.00    -0.081 A 
ATOM      2  C3  UNL d   1       1.009  -0.648   0.129  0.00  0.00     0.006 A 
ATOM      3  C4  UNL d   1       2.258  -0.616  -0.495  0.00  0.00     0.002 A 
ATOM      4  C5  UNL d   1       2.364  -0.783  -1.880  0.00  0.00    -0.080 A 
ATOM      5  C6  UNL d   1       3.697  -0.720  -2.566  0.00  0.00     0.076 C 
ATOM      6  C7  UNL d   1       1.204  -1.010  -2.628  0.00  0.00     0.002 A 
ATOM      7  C8  UNL d   1      -0.045  -1.044  -2.004  0.00  0.00     0.006 A 
ENDROOT
BRANCH   1   8
ATOM      8  C1  UNL d   1      -1.509  -0.829   0.039  0.00  0.00     0.054 C 
ATOM      9  C   UNL d   1      -2.626  -0.737  -0.991  0.00  0.00     0.018 C 
ENDBRANCH   1   8
TORSDOF 1
ENDMDL
