MODEL 1
REMARK minimizedAffinity 9.02358818
REMARK minimizedRMSD -1
REMARK  1 active torsions:
REMARK  status: ('A' for Active; 'I' for Inactive)
REMARK    1  A    between atoms: C1_2  and  C2_3 
ROOT
ATOM      1  C2  UNL d   1       4.301   1.152  -2.255  0.00  0.00    -0.081 A 
ATOM      2  C3  UNL d   1       5.453   1.362  -3.022  0.00  0.00     0.006 A 
ATOM      3  C4  UNL d   1       5.998   0.323  -3.780  0.00  0.00     0.002 A 
ATOM      4  C5  UNL d   1       5.396  -0.940  -3.790  0.00  0.00    -0.080 A 
ATOM      5  C6  UNL d   1       5.954  -2.056  -4.623  0.00  0.00     0.076 C 
ATOM      6  C7  UNL d   1       4.254  -1.154  -3.010  0.00  0.00     0.002 A 
ATOM      7  C8  UNL d   1       3.709  -0.116  -2.252  0.00  0.00     0.006 A 
ENDROOT
BRANCH   1   8
ATOM      8  C1  UNL d   1       3.674   2.288  -1.488  0.00  0.00     0.054 C 
ATOM      9  C   UNL d   1       4.725   3.107  -0.753  0.00  0.00     0.018 C 
ENDBRANCH   1   8
TORSDOF 1
ENDMDL
