MODEL 1
REMARK minimizedAffinity 7.10340357
REMARK minimizedRMSD -1
REMARK  1 active torsions:
REMARK  status: ('A' for Active; 'I' for Inactive)
REMARK    1  A    between atoms: C1_2  and  C2_3 
ROOT
ATOM      1  C2  UNL d   1       0.159  -0.806   1.713  0.00  0.00    -0.081 A 
ATOM      2  C3  UNL d   1      -0.656  -0.620   2.836  0.00  0.00     0.006 A 
ATOM      3  C4  UNL d   1      -0.126  -0.743   4.123  0.00  0.00     0.002 A 
ATOM      4  C5  UNL d   1       1.227  -1.045   4.308  0.00  0.00    -0.080 A 
ATOM      5  C6  UNL d   1       1.814  -1.149   5.684  0.00  0.00     0.076 C 
ATOM      6  C7  UNL d   1       2.037  -1.248   3.186  0.00  0.00     0.002 A 
ATOM      7  C8  UNL d   1       1.509  -1.126   1.899  0.00  0.00     0.006 A 
ENDROOT
BRANCH   1   8
ATOM      8  C1  UNL d   1      -0.394  -0.611   0.324  0.00  0.00     0.054 C 
ATOM      9  C   UNL d   1      -1.560  -1.551   0.056  0.00  0.00     0.018 C 
ENDBRANCH   1   8
TORSDOF 1
ENDMDL
