MODEL 1
REMARK minimizedAffinity 21.7270927
REMARK minimizedRMSD -1
REMARK  1 active torsions:
REMARK  status: ('A' for Active; 'I' for Inactive)
REMARK    1  A    between atoms: C1_2  and  C2_3 
ROOT
ATOM      1  C2  UNL d   1      -2.922   3.425  -4.367  0.00  0.00    -0.081 A 
ATOM      2  C3  UNL d   1      -3.922   2.901  -5.195  0.00  0.00     0.006 A 
ATOM      3  C4  UNL d   1      -4.926   3.728  -5.704  0.00  0.00     0.002 A 
ATOM      4  C5  UNL d   1      -4.942   5.094  -5.400  0.00  0.00    -0.080 A 
ATOM      5  C6  UNL d   1      -5.997   5.999  -5.964  0.00  0.00     0.076 C 
ATOM      6  C7  UNL d   1      -3.953   5.614  -4.558  0.00  0.00     0.002 A 
ATOM      7  C8  UNL d   1      -2.949   4.787  -4.049  0.00  0.00     0.006 A 
ENDROOT
BRANCH   1   8
ATOM      8  C1  UNL d   1      -1.801   2.548  -3.870  0.00  0.00     0.054 C 
ATOM      9  C   UNL d   1      -0.639   2.525  -4.852  0.00  0.00     0.018 C 
ENDBRANCH   1   8
TORSDOF 1
ENDMDL
