MODEL 1
REMARK minimizedAffinity 0.866850793
REMARK minimizedRMSD -1
REMARK  1 active torsions:
REMARK  status: ('A' for Active; 'I' for Inactive)
REMARK    1  A    between atoms: C1_2  and  C2_3 
ROOT
ATOM      1  C2  UNL d   1       3.339   4.962   5.510  0.00  0.00    -0.081 A 
ATOM      2  C3  UNL d   1       4.414   5.327   4.690  0.00  0.00     0.006 A 
ATOM      3  C4  UNL d   1       5.284   4.357   4.188  0.00  0.00     0.002 A 
ATOM      4  C5  UNL d   1       5.090   3.005   4.491  0.00  0.00    -0.080 A 
ATOM      5  C6  UNL d   1       5.998   1.949   3.934  0.00  0.00     0.076 C 
ATOM      6  C7  UNL d   1       4.027   2.641   5.325  0.00  0.00     0.002 A 
ATOM      7  C8  UNL d   1       3.157   3.612   5.827  0.00  0.00     0.006 A 
ENDROOT
BRANCH   1   8
ATOM      8  C1  UNL d   1       2.362   6.000   6.000  0.00  0.00     0.054 C 
ATOM      9  C   UNL d   1       1.088   5.996   5.167  0.00  0.00     0.018 C 
ENDBRANCH   1   8
TORSDOF 1
ENDMDL
