MODEL 1
REMARK minimizedAffinity -3.60951734
REMARK minimizedRMSD -1
REMARK  1 active torsions:
REMARK  status: ('A' for Active; 'I' for Inactive)
REMARK    1  A    between atoms: C1_2  and  C2_3 
ROOT
ATOM      1  C2  UNL d   1       0.390   0.238   0.017  0.00  0.00    -0.081 A 
ATOM      2  C3  UNL d   1      -0.427   0.593  -1.064  0.00  0.00     0.006 A 
ATOM      3  C4  UNL d   1      -1.766   0.199  -1.098  0.00  0.00     0.002 A 
ATOM      4  C5  UNL d   1      -2.314  -0.549  -0.050  0.00  0.00    -0.080 A 
ATOM      5  C6  UNL d   1      -3.758  -0.953  -0.060  0.00  0.00     0.076 C 
ATOM      6  C7  UNL d   1      -1.493  -0.918   1.021  0.00  0.00     0.002 A 
ATOM      7  C8  UNL d   1      -0.154  -0.525   1.056  0.00  0.00     0.006 A 
ENDROOT
BRANCH   1   8
ATOM      8  C1  UNL d   1       1.818   0.717   0.088  0.00  0.00     0.054 C 
ATOM      9  C   UNL d   1       1.888   2.233   0.208  0.00  0.00     0.018 C 
ENDBRANCH   1   8
TORSDOF 1
ENDMDL
