MODEL 1
REMARK minimizedAffinity -1.39456117
REMARK minimizedRMSD -1
REMARK  1 active torsions:
REMARK  status: ('A' for Active; 'I' for Inactive)
REMARK    1  A    between atoms: C1_2  and  C2_3 
ROOT
ATOM      1  C2  UNL d   1      -1.283  -0.518  -0.793  0.00  0.00    -0.081 A 
ATOM      2  C3  UNL d   1      -0.444   0.094  -1.732  0.00  0.00     0.006 A 
ATOM      3  C4  UNL d   1       0.929   0.192  -1.497  0.00  0.00     0.002 A 
ATOM      4  C5  UNL d   1       1.488  -0.326  -0.324  0.00  0.00    -0.080 A 
ATOM      5  C6  UNL d   1       2.965  -0.254  -0.073  0.00  0.00     0.076 C 
ATOM      6  C7  UNL d   1       0.647  -0.922   0.623  0.00  0.00     0.002 A 
ATOM      7  C8  UNL d   1      -0.726  -1.020   0.389  0.00  0.00     0.006 A 
ENDROOT
BRANCH   1   8
ATOM      8  C1  UNL d   1      -2.755  -0.684  -1.073  0.00  0.00     0.054 C 
ATOM      9  C   UNL d   1      -3.379  -1.724  -0.153  0.00  0.00     0.018 C 
ENDBRANCH   1   8
TORSDOF 1
ENDMDL
