MODEL 1
REMARK minimizedAffinity 3.29632401
REMARK minimizedRMSD -1
REMARK  1 active torsions:
REMARK  status: ('A' for Active; 'I' for Inactive)
REMARK    1  A    between atoms: C1_2  and  C2_3 
ROOT
ATOM      1  C2  UNL d   1       5.626   0.973  -0.659  0.00  0.00    -0.081 A 
ATOM      2  C3  UNL d   1       6.000   1.379  -1.946  0.00  0.00     0.006 A 
ATOM      3  C4  UNL d   1       5.999   0.467  -3.004  0.00  0.00     0.002 A 
ATOM      4  C5  UNL d   1       5.617  -0.863  -2.795  0.00  0.00    -0.080 A 
ATOM      5  C6  UNL d   1       5.583  -1.844  -3.929  0.00  0.00     0.076 C 
ATOM      6  C7  UNL d   1       5.261  -1.273  -1.506  0.00  0.00     0.002 A 
ATOM      7  C8  UNL d   1       5.263  -0.362  -0.447  0.00  0.00     0.006 A 
ENDROOT
BRANCH   1   8
ATOM      8  C1  UNL d   1       5.564   1.968   0.471  0.00  0.00     0.054 C 
ATOM      9  C   UNL d   1       4.852   3.244   0.046  0.00  0.00     0.018 C 
ENDBRANCH   1   8
TORSDOF 1
ENDMDL
