MODEL 1
REMARK minimizedAffinity -1.73756456
REMARK minimizedRMSD -1
REMARK  1 active torsions:
REMARK  status: ('A' for Active; 'I' for Inactive)
REMARK    1  A    between atoms: C1_2  and  C2_3 
ROOT
ATOM      1  C2  UNL d   1      -0.769  -0.651  -0.560  0.00  0.00    -0.081 A 
ATOM      2  C3  UNL d   1      -1.703  -1.269  -1.400  0.00  0.00     0.006 A 
ATOM      3  C4  UNL d   1      -3.007  -1.502  -0.959  0.00  0.00     0.002 A 
ATOM      4  C5  UNL d   1      -3.402  -1.114   0.326  0.00  0.00    -0.080 A 
ATOM      5  C6  UNL d   1      -4.808  -1.330   0.801  0.00  0.00     0.076 C 
ATOM      6  C7  UNL d   1      -2.464  -0.512   1.172  0.00  0.00     0.002 A 
ATOM      7  C8  UNL d   1      -1.159  -0.280   0.731  0.00  0.00     0.006 A 
ENDROOT
BRANCH   1   8
ATOM      8  C1  UNL d   1       0.621  -0.340  -1.055  0.00  0.00     0.054 C 
ATOM      9  C   UNL d   1       0.745   1.117  -1.476  0.00  0.00     0.018 C 
ENDBRANCH   1   8
TORSDOF 1
ENDMDL
