MODEL 1
REMARK minimizedAffinity 2.19750929
REMARK minimizedRMSD -1
REMARK  1 active torsions:
REMARK  status: ('A' for Active; 'I' for Inactive)
REMARK    1  A    between atoms: C1_2  and  C2_3 
ROOT
ATOM      1  C2  UNL d   1      -0.987  -1.033   0.169  0.00  0.00    -0.081 A 
ATOM      2  C3  UNL d   1       0.154  -0.300  -0.179  0.00  0.00     0.006 A 
ATOM      3  C4  UNL d   1       0.123   0.592  -1.253  0.00  0.00     0.002 A 
ATOM      4  C5  UNL d   1      -1.051   0.772  -1.992  0.00  0.00    -0.080 A 
ATOM      5  C6  UNL d   1      -1.107   1.748  -3.129  0.00  0.00     0.076 C 
ATOM      6  C7  UNL d   1      -2.186   0.026  -1.656  0.00  0.00     0.002 A 
ATOM      7  C8  UNL d   1      -2.155  -0.866  -0.582  0.00  0.00     0.006 A 
ENDROOT
BRANCH   1   8
ATOM      8  C1  UNL d   1      -0.975  -1.948   1.367  0.00  0.00     0.054 C 
ATOM      9  C   UNL d   1       0.224  -1.670   2.263  0.00  0.00     0.018 C 
ENDBRANCH   1   8
TORSDOF 1
ENDMDL
