MODEL 1
REMARK minimizedAffinity -2.79669929
REMARK minimizedRMSD -1
REMARK  1 active torsions:
REMARK  status: ('A' for Active; 'I' for Inactive)
REMARK    1  A    between atoms: C1_2  and  C2_3 
ROOT
ATOM      1  C2  UNL d   1      -1.312  -0.982   0.180  0.00  0.00    -0.081 A 
ATOM      2  C3  UNL d   1      -0.319  -1.115   1.159  0.00  0.00     0.006 A 
ATOM      3  C4  UNL d   1       0.876  -0.400   1.057  0.00  0.00     0.002 A 
ATOM      4  C5  UNL d   1       1.096   0.466  -0.020  0.00  0.00    -0.080 A 
ATOM      5  C6  UNL d   1       2.362   1.262  -0.125  0.00  0.00     0.076 C 
ATOM      6  C7  UNL d   1       0.112   0.585  -1.007  0.00  0.00     0.002 A 
ATOM      7  C8  UNL d   1      -1.083  -0.130  -0.906  0.00  0.00     0.006 A 
ENDROOT
BRANCH   1   8
ATOM      8  C1  UNL d   1      -2.628  -1.703   0.320  0.00  0.00     0.054 C 
ATOM      9  C   UNL d   1      -3.770  -0.890  -0.273  0.00  0.00     0.018 C 
ENDBRANCH   1   8
TORSDOF 1
ENDMDL
