MODEL 1
REMARK minimizedAffinity -4.32765293
REMARK minimizedRMSD -1
REMARK  0 active torsions:
REMARK  status: ('A' for Active; 'I' for Inactive)
ROOT
ATOM      1  C   UNL d   1       0.028   1.472   3.258  0.00  0.00     0.077 C 
ATOM      2  C1  UNL d   1      -0.445   0.881   1.963  0.00  0.00    -0.074 A 
ATOM      3  C2  UNL d   1      -1.810   0.763   1.683  0.00  0.00    -0.005 A 
ATOM      4  C3  UNL d   1      -2.235   0.221   0.471  0.00  0.00     0.006 A 
ATOM      5  C4  UNL d   1      -1.301  -0.208  -0.473  0.00  0.00    -0.005 A 
ATOM      6  C5  UNL d   1       0.068  -0.097  -0.211  0.00  0.00    -0.074 A 
ATOM      7  C6  UNL d   1       1.086  -0.544  -1.219  0.00  0.00     0.077 C 
ATOM      8  C7  UNL d   1       0.488   0.455   1.007  0.00  0.00    -0.001 A 
ENDROOT
TORSDOF 0
ENDMDL
