MODEL 1
REMARK minimizedAffinity -2.48964381
REMARK minimizedRMSD -1
REMARK  0 active torsions:
REMARK  status: ('A' for Active; 'I' for Inactive)
ROOT
ATOM      1  C   UNL d   1       2.824  -0.930   0.726  0.00  0.00     0.077 C 
ATOM      2  C1  UNL d   1       1.377  -0.538   0.777  0.00  0.00    -0.074 A 
ATOM      3  C2  UNL d   1       0.497  -0.900  -0.248  0.00  0.00    -0.005 A 
ATOM      4  C3  UNL d   1      -0.848  -0.536  -0.181  0.00  0.00     0.006 A 
ATOM      5  C4  UNL d   1      -1.326   0.192   0.909  0.00  0.00    -0.005 A 
ATOM      6  C5  UNL d   1      -0.461   0.562   1.944  0.00  0.00    -0.074 A 
ATOM      7  C6  UNL d   1      -0.960   1.336   3.128  0.00  0.00     0.077 C 
ATOM      8  C7  UNL d   1       0.888   0.187   1.873  0.00  0.00    -0.001 A 
ENDROOT
TORSDOF 0
ENDMDL
