MODEL 1
REMARK minimizedAffinity -4.96113014
REMARK minimizedRMSD -1
REMARK  0 active torsions:
REMARK  status: ('A' for Active; 'I' for Inactive)
ROOT
ATOM      1  C   UNL d   1      -0.602   1.000   3.857  0.00  0.00     0.077 C 
ATOM      2  C1  UNL d   1      -0.609   0.602   2.411  0.00  0.00    -0.074 A 
ATOM      3  C2  UNL d   1      -1.731   0.832   1.608  0.00  0.00    -0.005 A 
ATOM      4  C3  UNL d   1      -1.719   0.464   0.263  0.00  0.00     0.006 A 
ATOM      5  C4  UNL d   1      -0.588  -0.135  -0.293  0.00  0.00    -0.005 A 
ATOM      6  C5  UNL d   1       0.543  -0.372   0.495  0.00  0.00    -0.074 A 
ATOM      7  C6  UNL d   1       1.771  -1.006  -0.088  0.00  0.00     0.077 C 
ATOM      8  C7  UNL d   1       0.526   0.007   1.844  0.00  0.00    -0.001 A 
ENDROOT
TORSDOF 0
ENDMDL
