MODEL 1
REMARK minimizedAffinity -3.80729914
REMARK minimizedRMSD -1
REMARK  0 active torsions:
REMARK  status: ('A' for Active; 'I' for Inactive)
ROOT
ATOM      1  C   UNL d   1      -0.707   1.498   3.171  0.00  0.00     0.077 C 
ATOM      2  C1  UNL d   1      -0.875   0.831   1.838  0.00  0.00    -0.074 A 
ATOM      3  C2  UNL d   1      -2.123   0.787   1.208  0.00  0.00    -0.005 A 
ATOM      4  C3  UNL d   1      -2.261   0.171  -0.036  0.00  0.00     0.006 A 
ATOM      5  C4  UNL d   1      -1.155  -0.407  -0.661  0.00  0.00    -0.005 A 
ATOM      6  C5  UNL d   1       0.100  -0.372  -0.047  0.00  0.00    -0.074 A 
ATOM      7  C6  UNL d   1       1.301  -0.979  -0.709  0.00  0.00     0.077 C 
ATOM      8  C7  UNL d   1       0.233   0.255   1.200  0.00  0.00    -0.001 A 
ENDROOT
TORSDOF 0
ENDMDL
