MODEL 1
REMARK minimizedAffinity -3.00376391
REMARK minimizedRMSD -1
REMARK  0 active torsions:
REMARK  status: ('A' for Active; 'I' for Inactive)
ROOT
ATOM      1  C   UNL d   1      -0.814   1.801   3.023  0.00  0.00     0.077 C 
ATOM      2  C1  UNL d   1      -0.886   1.039   1.733  0.00  0.00    -0.074 A 
ATOM      3  C2  UNL d   1      -2.082   0.956   1.012  0.00  0.00    -0.005 A 
ATOM      4  C3  UNL d   1      -2.131   0.252  -0.190  0.00  0.00     0.006 A 
ATOM      5  C4  UNL d   1      -0.987  -0.377  -0.684  0.00  0.00    -0.005 A 
ATOM      6  C5  UNL d   1       0.218  -0.305   0.023  0.00  0.00    -0.074 A 
ATOM      7  C6  UNL d   1       1.459  -0.966  -0.498  0.00  0.00     0.077 C 
ATOM      8  C7  UNL d   1       0.261   0.411   1.227  0.00  0.00    -0.001 A 
ENDROOT
TORSDOF 0
ENDMDL
