MODEL 1
REMARK minimizedAffinity -2.41443324
REMARK minimizedRMSD -1
REMARK  0 active torsions:
REMARK  status: ('A' for Active; 'I' for Inactive)
ROOT
ATOM      1  C   UNL d   1       1.941   0.437  -3.123  0.00  0.00     0.077 C 
ATOM      2  C1  UNL d   1       0.932   0.058  -2.079  0.00  0.00    -0.074 A 
ATOM      3  C2  UNL d   1      -0.287  -0.527  -2.437  0.00  0.00    -0.005 A 
ATOM      4  C3  UNL d   1      -1.211  -0.883  -1.455  0.00  0.00     0.006 A 
ATOM      5  C4  UNL d   1      -0.926  -0.658  -0.107  0.00  0.00    -0.005 A 
ATOM      6  C5  UNL d   1       0.288  -0.075   0.269  0.00  0.00    -0.074 A 
ATOM      7  C6  UNL d   1       0.615   0.164   1.714  0.00  0.00     0.077 C 
ATOM      8  C7  UNL d   1       1.215   0.273  -0.723  0.00  0.00    -0.001 A 
ENDROOT
TORSDOF 0
ENDMDL
