MODEL 1
REMARK minimizedAffinity -3.33332157
REMARK minimizedRMSD -1
REMARK  0 active torsions:
REMARK  status: ('A' for Active; 'I' for Inactive)
ROOT
ATOM      1  C   UNL d   1      -0.009   1.745   4.059  0.00  0.00     0.077 C 
ATOM      2  C1  UNL d   1      -0.461   1.088   2.789  0.00  0.00    -0.074 A 
ATOM      3  C2  UNL d   1      -1.808   0.779   2.579  0.00  0.00    -0.005 A 
ATOM      4  C3  UNL d   1      -2.215   0.177   1.388  0.00  0.00     0.006 A 
ATOM      5  C4  UNL d   1      -1.279  -0.121   0.397  0.00  0.00    -0.005 A 
ATOM      6  C5  UNL d   1       0.073   0.182   0.588  0.00  0.00    -0.074 A 
ATOM      7  C6  UNL d   1       1.090  -0.123  -0.471  0.00  0.00     0.077 C 
ATOM      8  C7  UNL d   1       0.472   0.793   1.784  0.00  0.00    -0.001 A 
ENDROOT
TORSDOF 0
ENDMDL
