MODEL 1
REMARK minimizedAffinity -2.02000189
REMARK minimizedRMSD -1
REMARK  0 active torsions:
REMARK  status: ('A' for Active; 'I' for Inactive)
ROOT
ATOM      1  C   UNL d   1       1.678   0.621   1.927  0.00  0.00     0.077 C 
ATOM      2  C1  UNL d   1       0.790   0.181   0.801  0.00  0.00    -0.074 A 
ATOM      3  C2  UNL d   1      -0.455  -0.404   1.054  0.00  0.00    -0.005 A 
ATOM      4  C3  UNL d   1      -1.274  -0.799  -0.003  0.00  0.00     0.006 A 
ATOM      5  C4  UNL d   1      -0.857  -0.614  -1.322  0.00  0.00    -0.005 A 
ATOM      6  C5  UNL d   1       0.384  -0.030  -1.594  0.00  0.00    -0.074 A 
ATOM      7  C6  UNL d   1       0.842   0.186  -3.006  0.00  0.00     0.077 C 
ATOM      8  C7  UNL d   1       1.198   0.371  -0.526  0.00  0.00    -0.001 A 
ENDROOT
TORSDOF 0
ENDMDL
