MODEL 1
REMARK minimizedAffinity 17.9862156
REMARK minimizedRMSD -1
REMARK  2 active torsions:
REMARK  status: ('A' for Active; 'I' for Inactive)
REMARK    1  A    between atoms: C1_2  and  C2_3 
REMARK    2  A    between atoms: C2_3  and  C3_4 
ROOT
ATOM      1  C3  UNL d   1       2.363   1.790  -1.583  0.00  0.00    -0.075 A 
ATOM      2  C4  UNL d   1       1.136   2.440  -1.775  0.00  0.00     0.002 A 
ATOM      3  C5  UNL d   1       0.367   2.841  -0.681  0.00  0.00     0.002 A 
ATOM      4  C6  UNL d   1       0.811   2.587   0.615  0.00  0.00    -0.004 A 
ATOM      5  C7  UNL d   1       2.021   1.927   0.817  0.00  0.00     0.002 A 
ATOM      6  C8  UNL d   1       2.794   1.530  -0.276  0.00  0.00     0.002 A 
ENDROOT
BRANCH   1   7
ATOM      7  C2  UNL d   1       3.213   1.381  -2.763  0.00  0.00     0.056 C 
BRANCH   7   8
ATOM      8  C1  UNL d   1       4.604   0.866  -2.380  0.00  0.00     0.007 C 
ATOM      9  C   UNL d   1       4.733  -0.648  -2.481  0.00  0.00     0.009 C 
ENDBRANCH   7   8
ENDBRANCH   1   7
TORSDOF 2
ENDMDL
