MODEL 1
REMARK minimizedAffinity 9.53700352
REMARK minimizedRMSD -1
REMARK  2 active torsions:
REMARK  status: ('A' for Active; 'I' for Inactive)
REMARK    1  A    between atoms: C1_2  and  C2_3 
REMARK    2  A    between atoms: C2_3  and  C3_4 
ROOT
ATOM      1  C3  UNL d   1       1.978  -0.759   1.011  0.00  0.00    -0.075 A 
ATOM      2  C4  UNL d   1       2.583  -1.748   0.222  0.00  0.00     0.002 A 
ATOM      3  C5  UNL d   1       2.151  -3.073   0.292  0.00  0.00     0.002 A 
ATOM      4  C6  UNL d   1       1.119  -3.427   1.158  0.00  0.00    -0.004 A 
ATOM      5  C7  UNL d   1       0.522  -2.456   1.959  0.00  0.00     0.002 A 
ATOM      6  C8  UNL d   1       0.949  -1.129   1.887  0.00  0.00     0.002 A 
ENDROOT
BRANCH   1   7
ATOM      7  C2  UNL d   1       2.420   0.682   0.918  0.00  0.00     0.056 C 
BRANCH   7   8
ATOM      8  C1  UNL d   1       1.582   1.531  -0.043  0.00  0.00     0.007 C 
ATOM      9  C   UNL d   1       1.865   3.023   0.071  0.00  0.00     0.009 C 
ENDBRANCH   7   8
ENDBRANCH   1   7
TORSDOF 2
ENDMDL
