MODEL 1
REMARK minimizedAffinity 9.12966251
REMARK minimizedRMSD -1
REMARK  2 active torsions:
REMARK  status: ('A' for Active; 'I' for Inactive)
REMARK    1  A    between atoms: C1_2  and  C2_3 
REMARK    2  A    between atoms: C2_3  and  C3_4 
ROOT
ATOM      1  C3  UNL d   1       0.753  -2.830   1.275  0.00  0.00    -0.075 A 
ATOM      2  C4  UNL d   1      -0.529  -3.396   1.333  0.00  0.00     0.002 A 
ATOM      3  C5  UNL d   1      -0.690  -4.761   1.571  0.00  0.00     0.002 A 
ATOM      4  C6  UNL d   1       0.425  -5.578   1.743  0.00  0.00    -0.004 A 
ATOM      5  C7  UNL d   1       1.704  -5.030   1.671  0.00  0.00     0.002 A 
ATOM      6  C8  UNL d   1       1.868  -3.663   1.437  0.00  0.00     0.002 A 
ENDROOT
BRANCH   1   7
ATOM      7  C2  UNL d   1       0.934  -1.348   1.047  0.00  0.00     0.056 C 
BRANCH   7   8
ATOM      8  C1  UNL d   1       2.145  -0.749   1.770  0.00  0.00     0.007 C 
ATOM      9  C   UNL d   1       3.332  -0.500   0.848  0.00  0.00     0.009 C 
ENDBRANCH   7   8
ENDBRANCH   1   7
TORSDOF 2
ENDMDL
