MODEL 1
REMARK minimizedAffinity 7.41974211
REMARK minimizedRMSD -1
REMARK  2 active torsions:
REMARK  status: ('A' for Active; 'I' for Inactive)
REMARK    1  A    between atoms: C1_2  and  C2_3 
REMARK    2  A    between atoms: C2_3  and  C3_4 
ROOT
ATOM      1  C3  UNL d   1      -0.408  -1.787   2.434  0.00  0.00    -0.075 A 
ATOM      2  C4  UNL d   1       0.486  -2.867   2.417  0.00  0.00     0.002 A 
ATOM      3  C5  UNL d   1       1.727  -2.750   1.791  0.00  0.00     0.002 A 
ATOM      4  C6  UNL d   1       2.086  -1.558   1.167  0.00  0.00    -0.004 A 
ATOM      5  C7  UNL d   1       1.199  -0.483   1.163  0.00  0.00     0.002 A 
ATOM      6  C8  UNL d   1      -0.042  -0.596   1.792  0.00  0.00     0.002 A 
ENDROOT
BRANCH   1   7
ATOM      7  C2  UNL d   1      -1.741  -1.898   3.135  0.00  0.00     0.056 C 
BRANCH   7   8
ATOM      8  C1  UNL d   1      -2.743  -2.817   2.428  0.00  0.00     0.007 C 
ATOM      9  C   UNL d   1      -3.740  -3.463   3.380  0.00  0.00     0.009 C 
ENDBRANCH   7   8
ENDBRANCH   1   7
TORSDOF 2
ENDMDL
