MODEL 1
REMARK minimizedAffinity 9.17389297
REMARK minimizedRMSD -1
REMARK  2 active torsions:
REMARK  status: ('A' for Active; 'I' for Inactive)
REMARK    1  A    between atoms: C1_2  and  C2_3 
REMARK    2  A    between atoms: C2_3  and  C3_4 
ROOT
ATOM      1  C3  UNL d   1      -4.986  -5.047   2.697  0.00  0.00    -0.075 A 
ATOM      2  C4  UNL d   1      -4.104  -3.997   2.994  0.00  0.00     0.002 A 
ATOM      3  C5  UNL d   1      -4.163  -3.351   4.229  0.00  0.00     0.002 A 
ATOM      4  C6  UNL d   1      -5.107  -3.738   5.177  0.00  0.00    -0.004 A 
ATOM      5  C7  UNL d   1      -5.998  -4.769   4.887  0.00  0.00     0.002 A 
ATOM      6  C8  UNL d   1      -5.939  -5.420   3.654  0.00  0.00     0.002 A 
ENDROOT
BRANCH   1   7
ATOM      7  C2  UNL d   1      -4.908  -5.770   1.374  0.00  0.00     0.056 C 
BRANCH   7   8
ATOM      8  C1  UNL d   1      -4.431  -4.893   0.211  0.00  0.00     0.007 C 
ATOM      9  C   UNL d   1      -4.397  -5.629  -1.122  0.00  0.00     0.009 C 
ENDBRANCH   7   8
ENDBRANCH   1   7
TORSDOF 2
ENDMDL
