MODEL 1
REMARK minimizedAffinity 0.579281032
REMARK minimizedRMSD -1
REMARK  2 active torsions:
REMARK  status: ('A' for Active; 'I' for Inactive)
REMARK    1  A    between atoms: C1_2  and  C2_3 
REMARK    2  A    between atoms: C2_3  and  C3_4 
ROOT
ATOM      1  C3  UNL d   1      -4.916  -4.214   2.362  0.00  0.00    -0.075 A 
ATOM      2  C4  UNL d   1      -4.227  -3.756   1.229  0.00  0.00     0.002 A 
ATOM      3  C5  UNL d   1      -4.372  -4.404   0.002  0.00  0.00     0.002 A 
ATOM      4  C6  UNL d   1      -5.197  -5.522  -0.106  0.00  0.00    -0.004 A 
ATOM      5  C7  UNL d   1      -5.872  -5.995   1.016  0.00  0.00     0.002 A 
ATOM      6  C8  UNL d   1      -5.733  -5.346   2.244  0.00  0.00     0.002 A 
ENDROOT
BRANCH   1   7
ATOM      7  C2  UNL d   1      -4.786  -3.500   3.686  0.00  0.00     0.056 C 
BRANCH   7   8
ATOM      8  C1  UNL d   1      -5.999  -3.669   4.607  0.00  0.00     0.007 C 
ATOM      9  C   UNL d   1      -5.801  -3.044   5.981  0.00  0.00     0.009 C 
ENDBRANCH   7   8
ENDBRANCH   1   7
TORSDOF 2
ENDMDL
