MODEL 1
REMARK minimizedAffinity 6.17186022
REMARK minimizedRMSD -1
REMARK  2 active torsions:
REMARK  status: ('A' for Active; 'I' for Inactive)
REMARK    1  A    between atoms: C1_2  and  C2_3 
REMARK    2  A    between atoms: C2_3  and  C3_4 
ROOT
ATOM      1  C3  UNL d   1      -0.792  -1.924   2.643  0.00  0.00    -0.075 A 
ATOM      2  C4  UNL d   1      -0.168  -0.880   3.343  0.00  0.00     0.002 A 
ATOM      3  C5  UNL d   1       1.105  -0.443   2.977  0.00  0.00     0.002 A 
ATOM      4  C6  UNL d   1       1.775  -1.049   1.917  0.00  0.00    -0.004 A 
ATOM      5  C7  UNL d   1       1.172  -2.098   1.225  0.00  0.00     0.002 A 
ATOM      6  C8  UNL d   1      -0.104  -2.534   1.586  0.00  0.00     0.002 A 
ENDROOT
BRANCH   1   7
ATOM      7  C2  UNL d   1      -2.182  -2.381   3.015  0.00  0.00     0.056 C 
BRANCH   7   8
ATOM      8  C1  UNL d   1      -2.899  -3.161   1.908  0.00  0.00     0.007 C 
ATOM      9  C   UNL d   1      -4.231  -3.749   2.354  0.00  0.00     0.009 C 
ENDBRANCH   7   8
ENDBRANCH   1   7
TORSDOF 2
ENDMDL
