MODEL 1
REMARK minimizedAffinity 12.4937763
REMARK minimizedRMSD -1
REMARK  2 active torsions:
REMARK  status: ('A' for Active; 'I' for Inactive)
REMARK    1  A    between atoms: C1_2  and  C2_3 
REMARK    2  A    between atoms: C2_3  and  C3_4 
ROOT
ATOM      1  C3  UNL d   1       1.844   2.210  -0.163  0.00  0.00    -0.075 A 
ATOM      2  C4  UNL d   1       1.632   2.281  -1.547  0.00  0.00     0.002 A 
ATOM      3  C5  UNL d   1       1.117   3.442  -2.126  0.00  0.00     0.002 A 
ATOM      4  C6  UNL d   1       0.799   4.539  -1.329  0.00  0.00    -0.004 A 
ATOM      5  C7  UNL d   1       0.991   4.473   0.050  0.00  0.00     0.002 A 
ATOM      6  C8  UNL d   1       1.510   3.315   0.631  0.00  0.00     0.002 A 
ENDROOT
BRANCH   1   7
ATOM      7  C2  UNL d   1       2.429   0.968   0.466  0.00  0.00     0.056 C 
BRANCH   7   8
ATOM      8  C1  UNL d   1       1.383   0.019   1.062  0.00  0.00     0.007 C 
ATOM      9  C   UNL d   1       1.856  -1.427   1.135  0.00  0.00     0.009 C 
ENDBRANCH   7   8
ENDBRANCH   1   7
TORSDOF 2
ENDMDL
