MODEL 1
REMARK minimizedAffinity 6.14409447
REMARK minimizedRMSD -1
REMARK  2 active torsions:
REMARK  status: ('A' for Active; 'I' for Inactive)
REMARK    1  A    between atoms: C1_2  and  C2_3 
REMARK    2  A    between atoms: C2_3  and  C3_4 
ROOT
ATOM      1  C3  UNL d   1      -4.912  -4.946   3.740  0.00  0.00    -0.075 A 
ATOM      2  C4  UNL d   1      -4.020  -3.864   3.765  0.00  0.00     0.002 A 
ATOM      3  C5  UNL d   1      -4.095  -2.908   4.779  0.00  0.00     0.002 A 
ATOM      4  C6  UNL d   1      -5.066  -3.015   5.772  0.00  0.00    -0.004 A 
ATOM      5  C7  UNL d   1      -5.968  -4.076   5.747  0.00  0.00     0.002 A 
ATOM      6  C8  UNL d   1      -5.893  -5.037   4.737  0.00  0.00     0.002 A 
ENDROOT
BRANCH   1   7
ATOM      7  C2  UNL d   1      -4.818  -6.000   2.663  0.00  0.00     0.056 C 
BRANCH   7   8
ATOM      8  C1  UNL d   1      -5.989  -5.987   1.674  0.00  0.00     0.007 C 
ATOM      9  C   UNL d   1      -5.544  -5.989   0.218  0.00  0.00     0.009 C 
ENDBRANCH   7   8
ENDBRANCH   1   7
TORSDOF 2
ENDMDL
