MODEL 1
REMARK minimizedAffinity 11.9059801
REMARK minimizedRMSD -1
REMARK  2 active torsions:
REMARK  status: ('A' for Active; 'I' for Inactive)
REMARK    1  A    between atoms: C1_2  and  C2_3 
REMARK    2  A    between atoms: C2_3  and  C3_4 
ROOT
ATOM      1  C3  UNL d   1      -3.196  -4.830   0.416  0.00  0.00    -0.075 A 
ATOM      2  C4  UNL d   1      -3.923  -3.740   0.917  0.00  0.00     0.002 A 
ATOM      3  C5  UNL d   1      -5.316  -3.787   0.983  0.00  0.00     0.002 A 
ATOM      4  C6  UNL d   1      -5.999  -4.918   0.540  0.00  0.00    -0.004 A 
ATOM      5  C7  UNL d   1      -5.289  -6.000   0.025  0.00  0.00     0.002 A 
ATOM      6  C8  UNL d   1      -3.895  -5.957  -0.038  0.00  0.00     0.002 A 
ENDROOT
BRANCH   1   7
ATOM      7  C2  UNL d   1      -1.687  -4.797   0.370  0.00  0.00     0.056 C 
BRANCH   7   8
ATOM      8  C1  UNL d   1      -1.109  -3.485  -0.170  0.00  0.00     0.007 C 
ATOM      9  C   UNL d   1      -1.231  -3.352  -1.682  0.00  0.00     0.009 C 
ENDBRANCH   7   8
ENDBRANCH   1   7
TORSDOF 2
ENDMDL
