MODEL 1
REMARK minimizedAffinity 0.309662819
REMARK minimizedRMSD -1
REMARK  2 active torsions:
REMARK  status: ('A' for Active; 'I' for Inactive)
REMARK    1  A    between atoms: C1_2  and  C2_3 
REMARK    2  A    between atoms: C2_3  and  C3_4 
ROOT
ATOM      1  C3  UNL d   1      -5.107  -5.215   2.859  0.00  0.00    -0.075 A 
ATOM      2  C4  UNL d   1      -5.982  -5.553   3.902  0.00  0.00     0.002 A 
ATOM      3  C5  UNL d   1      -6.000  -4.808   5.081  0.00  0.00     0.002 A 
ATOM      4  C6  UNL d   1      -5.138  -3.724   5.237  0.00  0.00    -0.004 A 
ATOM      5  C7  UNL d   1      -4.253  -3.390   4.214  0.00  0.00     0.002 A 
ATOM      6  C8  UNL d   1      -4.236  -4.131   3.031  0.00  0.00     0.002 A 
ENDROOT
BRANCH   1   7
ATOM      7  C2  UNL d   1      -5.103  -6.000   1.569  0.00  0.00     0.056 C 
BRANCH   7   8
ATOM      8  C1  UNL d   1      -4.853  -5.147   0.321  0.00  0.00     0.007 C 
ATOM      9  C   UNL d   1      -4.664  -5.974  -0.944  0.00  0.00     0.009 C 
ENDBRANCH   7   8
ENDBRANCH   1   7
TORSDOF 2
ENDMDL
