MODEL 1
REMARK minimizedAffinity 10.0782137
REMARK minimizedRMSD -1
REMARK  2 active torsions:
REMARK  status: ('A' for Active; 'I' for Inactive)
REMARK    1  A    between atoms: C1_2  and  C2_3 
REMARK    2  A    between atoms: C2_3  and  C3_4 
ROOT
ATOM      1  C3  UNL d   1      -5.105  -4.751   3.341  0.00  0.00    -0.075 A 
ATOM      2  C4  UNL d   1      -5.629  -4.374   2.097  0.00  0.00     0.002 A 
ATOM      3  C5  UNL d   1      -4.794  -3.875   1.097  0.00  0.00     0.002 A 
ATOM      4  C6  UNL d   1      -3.427  -3.737   1.332  0.00  0.00    -0.004 A 
ATOM      5  C7  UNL d   1      -2.897  -4.094   2.570  0.00  0.00     0.002 A 
ATOM      6  C8  UNL d   1      -3.731  -4.597   3.571  0.00  0.00     0.002 A 
ENDROOT
BRANCH   1   7
ATOM      7  C2  UNL d   1      -5.999  -5.320   4.417  0.00  0.00     0.056 C 
BRANCH   7   8
ATOM      8  C1  UNL d   1      -6.000  -4.512   5.719  0.00  0.00     0.007 C 
ATOM      9  C   UNL d   1      -5.998  -3.006   5.491  0.00  0.00     0.009 C 
ENDBRANCH   7   8
ENDBRANCH   1   7
TORSDOF 2
ENDMDL
