MODEL 1
REMARK minimizedAffinity 13.5126143
REMARK minimizedRMSD -1
REMARK  2 active torsions:
REMARK  status: ('A' for Active; 'I' for Inactive)
REMARK    1  A    between atoms: C1_2  and  C2_3 
REMARK    2  A    between atoms: C2_3  and  C3_4 
ROOT
ATOM      1  C3  UNL d   1      -1.803  -2.469   3.190  0.00  0.00    -0.075 A 
ATOM      2  C4  UNL d   1      -1.563  -1.258   3.854  0.00  0.00     0.002 A 
ATOM      3  C5  UNL d   1      -0.401  -0.528   3.599  0.00  0.00     0.002 A 
ATOM      4  C6  UNL d   1       0.537  -1.004   2.686  0.00  0.00    -0.004 A 
ATOM      5  C7  UNL d   1       0.317  -2.215   2.033  0.00  0.00     0.002 A 
ATOM      6  C8  UNL d   1      -0.847  -2.945   2.283  0.00  0.00     0.002 A 
ENDROOT
BRANCH   1   7
ATOM      7  C2  UNL d   1      -3.072  -3.249   3.439  0.00  0.00     0.056 C 
BRANCH   7   8
ATOM      8  C1  UNL d   1      -3.965  -3.400   2.203  0.00  0.00     0.007 C 
ATOM      9  C   UNL d   1      -4.229  -4.852   1.827  0.00  0.00     0.009 C 
ENDBRANCH   7   8
ENDBRANCH   1   7
TORSDOF 2
ENDMDL
