MODEL 1
REMARK minimizedAffinity 13.7325583
REMARK minimizedRMSD -1
REMARK  2 active torsions:
REMARK  status: ('A' for Active; 'I' for Inactive)
REMARK    1  A    between atoms: C1_2  and  C2_3 
REMARK    2  A    between atoms: C2_3  and  C3_4 
ROOT
ATOM      1  C3  UNL d   1       2.686  -4.651  -5.960  0.00  0.00    -0.075 A 
ATOM      2  C4  UNL d   1       3.336  -5.893  -5.997  0.00  0.00     0.002 A 
ATOM      3  C5  UNL d   1       4.729  -5.963  -5.994  0.00  0.00     0.002 A 
ATOM      4  C6  UNL d   1       5.489  -4.796  -5.963  0.00  0.00    -0.004 A 
ATOM      5  C7  UNL d   1       4.854  -3.556  -5.942  0.00  0.00     0.002 A 
ATOM      6  C8  UNL d   1       3.459  -3.483  -5.942  0.00  0.00     0.002 A 
ENDROOT
BRANCH   1   7
ATOM      7  C2  UNL d   1       1.178  -4.569  -5.934  0.00  0.00     0.056 C 
BRANCH   7   8
ATOM      8  C1  UNL d   1       0.569  -4.720  -4.536  0.00  0.00     0.007 C 
ATOM      9  C   UNL d   1       0.442  -3.398  -3.790  0.00  0.00     0.009 C 
ENDBRANCH   7   8
ENDBRANCH   1   7
TORSDOF 2
ENDMDL
