MODEL 1
REMARK minimizedAffinity 1.96997023
REMARK minimizedRMSD -1
REMARK  2 active torsions:
REMARK  status: ('A' for Active; 'I' for Inactive)
REMARK    1  A    between atoms: C1_2  and  C2_3 
REMARK    2  A    between atoms: C2_3  and  C3_4 
ROOT
ATOM      1  C3  UNL d   1      -4.112  -5.106   0.397  0.00  0.00    -0.075 A 
ATOM      2  C4  UNL d   1      -4.854  -5.875   1.306  0.00  0.00     0.002 A 
ATOM      3  C5  UNL d   1      -5.129  -5.390   2.585  0.00  0.00     0.002 A 
ATOM      4  C6  UNL d   1      -4.658  -4.138   2.975  0.00  0.00    -0.004 A 
ATOM      5  C7  UNL d   1      -3.906  -3.373   2.086  0.00  0.00     0.002 A 
ATOM      6  C8  UNL d   1      -3.633  -3.854   0.804  0.00  0.00     0.002 A 
ENDROOT
BRANCH   1   7
ATOM      7  C2  UNL d   1      -3.836  -5.612  -0.998  0.00  0.00     0.056 C 
BRANCH   7   8
ATOM      8  C1  UNL d   1      -5.096  -5.988  -1.786  0.00  0.00     0.007 C 
ATOM      9  C   UNL d   1      -4.881  -5.997  -3.294  0.00  0.00     0.009 C 
ENDBRANCH   7   8
ENDBRANCH   1   7
TORSDOF 2
ENDMDL
