MODEL 1
REMARK minimizedAffinity -0.520845413
REMARK minimizedRMSD -1
REMARK  0 active torsions:
REMARK  status: ('A' for Active; 'I' for Inactive)
ROOT
ATOM      1  C4' PXY d   1       0.943   2.023  -1.386  0.00  0.00     0.077 C 
ATOM      2  C1' PXY d   1      -1.846  -2.508   0.875  0.00  0.00     0.077 C 
ATOM      3  C1  PXY d   1      -1.104  -1.323   0.289  0.00  0.00    -0.082 A 
ATOM      4  C2  PXY d   1      -1.786  -0.286  -0.170  0.00  0.00     0.003 A 
ATOM      5  C3  PXY d   1      -1.132   0.780  -0.733  0.00  0.00     0.003 A 
ATOM      6  C4  PXY d   1       0.236   0.809  -0.777  0.00  0.00    -0.082 A 
ATOM      7  C5  PXY d   1       0.939  -0.240  -0.301  0.00  0.00     0.003 A 
ATOM      8  C6  PXY d   1       0.255  -1.331   0.229  0.00  0.00     0.003 A 
ENDROOT
TORSDOF 0
ENDMDL
