MODEL 1
REMARK minimizedAffinity -5.70918751
REMARK minimizedRMSD -1
REMARK  0 active torsions:
REMARK  status: ('A' for Active; 'I' for Inactive)
ROOT
ATOM      1  C4' PXY d   1      -3.404  -0.051   1.953  0.00  0.00     0.077 C 
ATOM      2  C1' PXY d   1       1.622  -2.453   0.410  0.00  0.00     0.077 C 
ATOM      3  C1  PXY d   1       0.300  -1.835   0.818  0.00  0.00    -0.082 A 
ATOM      4  C2  PXY d   1      -0.101  -0.710   0.247  0.00  0.00     0.003 A 
ATOM      5  C3  PXY d   1      -1.279  -0.121   0.628  0.00  0.00     0.003 A 
ATOM      6  C4  PXY d   1      -2.081  -0.716   1.565  0.00  0.00    -0.082 A 
ATOM      7  C5  PXY d   1      -1.684  -1.869   2.144  0.00  0.00     0.003 A 
ATOM      8  C6  PXY d   1      -0.465  -2.430   1.773  0.00  0.00     0.003 A 
ENDROOT
TORSDOF 0
ENDMDL
