MODEL 1
REMARK minimizedAffinity -4.17677975
REMARK minimizedRMSD -1
REMARK  0 active torsions:
REMARK  status: ('A' for Active; 'I' for Inactive)
ROOT
ATOM      1  C4' PXY d   1       0.993   2.034  -1.100  0.00  0.00     0.077 C 
ATOM      2  C1' PXY d   1      -1.601  -2.593   1.197  0.00  0.00     0.077 C 
ATOM      3  C1  PXY d   1      -0.910  -1.386   0.595  0.00  0.00    -0.082 A 
ATOM      4  C2  PXY d   1      -1.470  -0.192   0.699  0.00  0.00     0.003 A 
ATOM      5  C3  PXY d   1      -0.874   0.906   0.133  0.00  0.00     0.003 A 
ATOM      6  C4  PXY d   1       0.335   0.789  -0.499  0.00  0.00    -0.082 A 
ATOM      7  C5  PXY d   1       0.918  -0.424  -0.600  0.00  0.00     0.003 A 
ATOM      8  C6  PXY d   1       0.277  -1.533  -0.055  0.00  0.00     0.003 A 
ENDROOT
TORSDOF 0
ENDMDL
