MODEL 1
REMARK minimizedAffinity -1.05458772
REMARK minimizedRMSD -1
REMARK  0 active torsions:
REMARK  status: ('A' for Active; 'I' for Inactive)
ROOT
ATOM      1  C4' PXY d   1       1.553   1.150  -1.031  0.00  0.00     0.077 C 
ATOM      2  C1' PXY d   1      -3.267  -1.037   1.293  0.00  0.00     0.077 C 
ATOM      3  C1  PXY d   1      -2.008  -0.451   0.685  0.00  0.00    -0.082 A 
ATOM      4  C2  PXY d   1      -1.233  -1.211  -0.072  0.00  0.00     0.003 A 
ATOM      5  C3  PXY d   1      -0.074  -0.706  -0.604  0.00  0.00     0.003 A 
ATOM      6  C4  PXY d   1       0.268   0.604  -0.403  0.00  0.00    -0.082 A 
ATOM      7  C5  PXY d   1      -0.523   1.389   0.359  0.00  0.00     0.003 A 
ATOM      8  C6  PXY d   1      -1.674   0.846   0.924  0.00  0.00     0.003 A 
ENDROOT
TORSDOF 0
ENDMDL
