MODEL 1
REMARK minimizedAffinity -2.34918714
REMARK minimizedRMSD -1
REMARK  0 active torsions:
REMARK  status: ('A' for Active; 'I' for Inactive)
ROOT
ATOM      1  C4' PXY d   1       0.956   2.131  -1.023  0.00  0.00     0.077 C 
ATOM      2  C1' PXY d   1      -0.986  -2.677   1.529  0.00  0.00     0.077 C 
ATOM      3  C1  PXY d   1      -0.489  -1.413   0.857  0.00  0.00    -0.082 A 
ATOM      4  C2  PXY d   1       0.747  -1.364   0.387  0.00  0.00     0.003 A 
ATOM      5  C3  PXY d   1       1.223  -0.218  -0.195  0.00  0.00     0.003 A 
ATOM      6  C4  PXY d   1       0.409   0.872  -0.345  0.00  0.00    -0.082 A 
ATOM      7  C5  PXY d   1      -0.857   0.827   0.122  0.00  0.00     0.003 A 
ATOM      8  C6  PXY d   1      -1.308  -0.332   0.746  0.00  0.00     0.003 A 
ENDROOT
TORSDOF 0
ENDMDL
