MODEL 1
REMARK minimizedAffinity -1.61235833
REMARK minimizedRMSD -1
REMARK  0 active torsions:
REMARK  status: ('A' for Active; 'I' for Inactive)
ROOT
ATOM      1  C4' PXY d   1      -2.650  -2.649   1.290  0.00  0.00     0.077 C 
ATOM      2  C1' PXY d   1       1.443   1.147  -0.211  0.00  0.00     0.077 C 
ATOM      3  C1  PXY d   1       0.360   0.160   0.180  0.00  0.00    -0.082 A 
ATOM      4  C2  PXY d   1       0.660  -0.864   0.962  0.00  0.00     0.003 A 
ATOM      5  C3  PXY d   1      -0.299  -1.783   1.300  0.00  0.00     0.003 A 
ATOM      6  C4  PXY d   1      -1.592  -1.623   0.876  0.00  0.00    -0.082 A 
ATOM      7  C5  PXY d   1      -1.908  -0.575   0.087  0.00  0.00     0.003 A 
ATOM      8  C6  PXY d   1      -0.911   0.324  -0.278  0.00  0.00     0.003 A 
ENDROOT
TORSDOF 0
ENDMDL
