MODEL 1
REMARK minimizedAffinity -4.59116125
REMARK minimizedRMSD -1
REMARK  0 active torsions:
REMARK  status: ('A' for Active; 'I' for Inactive)
ROOT
ATOM      1  C4' PXY d   1       1.481   1.952  -0.830  0.00  0.00     0.077 C 
ATOM      2  C1' PXY d   1      -1.234  -2.778   1.087  0.00  0.00     0.077 C 
ATOM      3  C1  PXY d   1      -0.512  -1.541   0.591  0.00  0.00    -0.082 A 
ATOM      4  C2  PXY d   1      -1.209  -0.476   0.230  0.00  0.00     0.003 A 
ATOM      5  C3  PXY d   1      -0.573   0.639  -0.251  0.00  0.00     0.003 A 
ATOM      6  C4  PXY d   1       0.794   0.685  -0.314  0.00  0.00    -0.082 A 
ATOM      7  C5  PXY d   1       1.513  -0.394   0.062  0.00  0.00     0.003 A 
ATOM      8  C6  PXY d   1       0.847  -1.531   0.509  0.00  0.00     0.003 A 
ENDROOT
TORSDOF 0
ENDMDL
