MODEL 1
REMARK minimizedAffinity -4.5408988
REMARK minimizedRMSD -1
REMARK  0 active torsions:
REMARK  status: ('A' for Active; 'I' for Inactive)
ROOT
ATOM      1  C4' PXY d   1      -3.405   0.730   1.959  0.00  0.00     0.077 C 
ATOM      2  C1' PXY d   1       1.248  -2.105   0.028  0.00  0.00     0.077 C 
ATOM      3  C1  PXY d   1       0.021  -1.373   0.534  0.00  0.00    -0.082 A 
ATOM      4  C2  PXY d   1      -0.081  -0.066   0.354  0.00  0.00     0.003 A 
ATOM      5  C3  PXY d   1      -1.169   0.617   0.834  0.00  0.00     0.003 A 
ATOM      6  C4  PXY d   1      -2.188  -0.052   1.457  0.00  0.00    -0.082 A 
ATOM      7  C5  PXY d   1      -2.096  -1.387   1.634  0.00  0.00     0.003 A 
ATOM      8  C6  PXY d   1      -0.964  -2.056   1.177  0.00  0.00     0.003 A 
ENDROOT
TORSDOF 0
ENDMDL
