MODEL 1
REMARK minimizedAffinity -3.02422285
REMARK minimizedRMSD -1
REMARK  0 active torsions:
REMARK  status: ('A' for Active; 'I' for Inactive)
ROOT
ATOM      1  C4' PXY d   1      -1.661  -2.251   1.073  0.00  0.00     0.077 C 
ATOM      2  C1' PXY d   1       0.649   2.477  -1.319  0.00  0.00     0.077 C 
ATOM      3  C1  PXY d   1       0.036   1.245  -0.684  0.00  0.00    -0.082 A 
ATOM      4  C2  PXY d   1       0.703   0.102  -0.696  0.00  0.00     0.003 A 
ATOM      5  C3  PXY d   1       0.149  -1.030  -0.155  0.00  0.00     0.003 A 
ATOM      6  C4  PXY d   1      -1.077  -0.979   0.452  0.00  0.00    -0.082 A 
ATOM      7  C5  PXY d   1      -1.759   0.186   0.478  0.00  0.00     0.003 A 
ATOM      8  C6  PXY d   1      -1.198   1.313  -0.114  0.00  0.00     0.003 A 
ENDROOT
TORSDOF 0
ENDMDL
