MODEL 1
REMARK minimizedAffinity -2.39042902
REMARK minimizedRMSD -1
REMARK  0 active torsions:
REMARK  status: ('A' for Active; 'I' for Inactive)
ROOT
ATOM      1  C4' PXY d   1       0.642   1.873  -0.782  0.00  0.00     0.077 C 
ATOM      2  C1' PXY d   1      -1.539  -2.994   1.447  0.00  0.00     0.077 C 
ATOM      3  C1  PXY d   1      -0.955  -1.722   0.866  0.00  0.00    -0.082 A 
ATOM      4  C2  PXY d   1      -1.731  -0.663   0.698  0.00  0.00     0.003 A 
ATOM      5  C3  PXY d   1      -1.227   0.486   0.144  0.00  0.00     0.003 A 
ATOM      6  C4  PXY d   1       0.098   0.570  -0.191  0.00  0.00    -0.082 A 
ATOM      7  C5  PXY d   1       0.898  -0.502  -0.012  0.00  0.00     0.003 A 
ATOM      8  C6  PXY d   1       0.358  -1.673   0.513  0.00  0.00     0.003 A 
ENDROOT
TORSDOF 0
ENDMDL
