MODEL 1
REMARK minimizedAffinity -3.67358375
REMARK minimizedRMSD -1
REMARK  0 active torsions:
REMARK  status: ('A' for Active; 'I' for Inactive)
ROOT
ATOM      1  C4' PXY d   1      -1.734  -1.629   1.103  0.00  0.00     0.077 C 
ATOM      2  C1' PXY d   1       1.268   2.674  -1.324  0.00  0.00     0.077 C 
ATOM      3  C1  PXY d   1       0.476   1.554  -0.679  0.00  0.00    -0.082 A 
ATOM      4  C2  PXY d   1       0.892   0.304  -0.800  0.00  0.00     0.003 A 
ATOM      5  C3  PXY d   1       0.170  -0.724  -0.250  0.00  0.00     0.003 A 
ATOM      6  C4  PXY d   1      -0.961  -0.465   0.477  0.00  0.00    -0.082 A 
ATOM      7  C5  PXY d   1      -1.386   0.809   0.614  0.00  0.00     0.003 A 
ATOM      8  C6  PXY d   1      -0.662   1.834   0.013  0.00  0.00     0.003 A 
ENDROOT
TORSDOF 0
ENDMDL
