MODEL 1
REMARK minimizedAffinity -3.95375705
REMARK minimizedRMSD -1
REMARK  0 active torsions:
REMARK  status: ('A' for Active; 'I' for Inactive)
ROOT
ATOM      1  C4' PXY d   1      -1.116  -2.606   1.025  0.00  0.00     0.077 C 
ATOM      2  C1' PXY d   1       1.207   2.243  -1.097  0.00  0.00     0.077 C 
ATOM      3  C1  PXY d   1       0.606   0.964  -0.548  0.00  0.00    -0.082 A 
ATOM      4  C2  PXY d   1      -0.620   0.979  -0.049  0.00  0.00     0.003 A 
ATOM      5  C3  PXY d   1      -1.167  -0.161   0.481  0.00  0.00     0.003 A 
ATOM      6  C4  PXY d   1      -0.472  -1.341   0.451  0.00  0.00    -0.082 A 
ATOM      7  C5  PXY d   1       0.774  -1.367  -0.066  0.00  0.00     0.003 A 
ATOM      8  C6  PXY d   1       1.327  -0.189  -0.561  0.00  0.00     0.003 A 
ENDROOT
TORSDOF 0
ENDMDL
