MODEL 1
REMARK minimizedAffinity -4.09735489
REMARK minimizedRMSD -1
REMARK  0 active torsions:
REMARK  status: ('A' for Active; 'I' for Inactive)
ROOT
ATOM      1  C4' PXY d   1       1.566   1.508  -1.284  0.00  0.00     0.077 C 
ATOM      2  C1' PXY d   1      -1.584  -1.687   2.362  0.00  0.00     0.077 C 
ATOM      3  C1  PXY d   1      -0.768  -0.841   1.404  0.00  0.00    -0.082 A 
ATOM      4  C2  PXY d   1       0.259  -1.380   0.768  0.00  0.00     0.003 A 
ATOM      5  C3  PXY d   1       1.027  -0.621  -0.078  0.00  0.00     0.003 A 
ATOM      6  C4  PXY d   1       0.708   0.689  -0.315  0.00  0.00    -0.082 A 
ATOM      7  C5  PXY d   1      -0.345   1.244   0.323  0.00  0.00     0.003 A 
ATOM      8  C6  PXY d   1      -1.087   0.467   1.208  0.00  0.00     0.003 A 
ENDROOT
TORSDOF 0
ENDMDL
