MODEL 1
REMARK minimizedAffinity -3.78252745
REMARK minimizedRMSD -1
REMARK  0 active torsions:
REMARK  status: ('A' for Active; 'I' for Inactive)
ROOT
ATOM      1  C4' PXY d   1       0.851   1.414  -1.384  0.00  0.00     0.077 C 
ATOM      2  C1' PXY d   1      -0.833  -2.993   1.956  0.00  0.00     0.077 C 
ATOM      3  C1  PXY d   1      -0.379  -1.838   1.084  0.00  0.00    -0.082 A 
ATOM      4  C2  PXY d   1      -1.249  -0.908   0.726  0.00  0.00     0.003 A 
ATOM      5  C3  PXY d   1      -0.863   0.125  -0.089  0.00  0.00     0.003 A 
ATOM      6  C4  PXY d   1       0.440   0.236  -0.497  0.00  0.00    -0.082 A 
ATOM      7  C5  PXY d   1       1.335  -0.703  -0.126  0.00  0.00     0.003 A 
ATOM      8  C6  PXY d   1       0.914  -1.766   0.667  0.00  0.00     0.003 A 
ENDROOT
TORSDOF 0
ENDMDL
