MODEL 1
REMARK minimizedAffinity -1.23424101
REMARK minimizedRMSD -1
REMARK  0 active torsions:
REMARK  status: ('A' for Active; 'I' for Inactive)
ROOT
ATOM      1  C4' PXY d   1       1.150   2.022  -1.469  0.00  0.00     0.077 C 
ATOM      2  C1' PXY d   1       0.066  -2.866   1.420  0.00  0.00     0.077 C 
ATOM      3  C1  PXY d   1       0.338  -1.582   0.661  0.00  0.00    -0.082 A 
ATOM      4  C2  PXY d   1       1.471  -1.444  -0.007  0.00  0.00     0.003 A 
ATOM      5  C3  PXY d   1       1.747  -0.277  -0.672  0.00  0.00     0.003 A 
ATOM      6  C4  PXY d   1       0.830   0.739  -0.697  0.00  0.00    -0.082 A 
ATOM      7  C5  PXY d   1      -0.334   0.602  -0.027  0.00  0.00     0.003 A 
ATOM      8  C6  PXY d   1      -0.577  -0.575   0.676  0.00  0.00     0.003 A 
ENDROOT
TORSDOF 0
ENDMDL
