MODEL 1
REMARK minimizedAffinity -4.42976809
REMARK minimizedRMSD -1
REMARK  0 active torsions:
REMARK  status: ('A' for Active; 'I' for Inactive)
ROOT
ATOM      1  C4' PXY d   1       0.744   1.772  -1.086  0.00  0.00     0.077 C 
ATOM      2  C1' PXY d   1      -1.760  -2.645   1.677  0.00  0.00     0.077 C 
ATOM      3  C1  PXY d   1      -1.115  -1.482   0.950  0.00  0.00    -0.082 A 
ATOM      4  C2  PXY d   1       0.089  -1.627   0.422  0.00  0.00     0.003 A 
ATOM      5  C3  PXY d   1       0.700  -0.575  -0.211  0.00  0.00     0.003 A 
ATOM      6  C4  PXY d   1       0.050   0.622  -0.351  0.00  0.00    -0.082 A 
ATOM      7  C5  PXY d   1      -1.183   0.774   0.175  0.00  0.00     0.003 A 
ATOM      8  C6  PXY d   1      -1.770  -0.293   0.850  0.00  0.00     0.003 A 
ENDROOT
TORSDOF 0
ENDMDL
