MODEL 1
REMARK minimizedAffinity -3.83219314
REMARK minimizedRMSD -1
REMARK  0 active torsions:
REMARK  status: ('A' for Active; 'I' for Inactive)
ROOT
ATOM      1  C4' PXY d   1       1.824   2.007  -1.181  0.00  0.00     0.077 C 
ATOM      2  C1' PXY d   1      -0.846  -2.198   1.752  0.00  0.00     0.077 C 
ATOM      3  C1  PXY d   1      -0.157  -1.090   0.979  0.00  0.00    -0.082 A 
ATOM      4  C2  PXY d   1       1.093  -1.253   0.576  0.00  0.00     0.003 A 
ATOM      5  C3  PXY d   1       1.741  -0.249  -0.096  0.00  0.00     0.003 A 
ATOM      6  C4  PXY d   1       1.086   0.912  -0.406  0.00  0.00    -0.082 A 
ATOM      7  C5  PXY d   1      -0.193   1.082  -0.009  0.00  0.00     0.003 A 
ATOM      8  C6  PXY d   1      -0.820   0.067   0.709  0.00  0.00     0.003 A 
ENDROOT
TORSDOF 0
ENDMDL
