MODEL 1
REMARK minimizedAffinity -3.27205563
REMARK minimizedRMSD -1
REMARK  0 active torsions:
REMARK  status: ('A' for Active; 'I' for Inactive)
ROOT
ATOM      1  C4' PXY d   1       1.055   2.103  -2.434  0.00  0.00     0.077 C 
ATOM      2  C1' PXY d   1      -1.155  -1.746   1.270  0.00  0.00     0.077 C 
ATOM      3  C1  PXY d   1      -0.588  -0.731   0.297  0.00  0.00    -0.082 A 
ATOM      4  C2  PXY d   1       0.527  -1.007  -0.360  0.00  0.00     0.003 A 
ATOM      5  C3  PXY d   1       1.072  -0.088  -1.219  0.00  0.00     0.003 A 
ATOM      6  C4  PXY d   1       0.440   1.105  -1.449  0.00  0.00    -0.082 A 
ATOM      7  C5  PXY d   1      -0.703   1.390  -0.791  0.00  0.00     0.003 A 
ATOM      8  C6  PXY d   1      -1.218   0.460   0.108  0.00  0.00     0.003 A 
ENDROOT
TORSDOF 0
ENDMDL
