MODEL 1
REMARK minimizedAffinity -4.2522645
REMARK minimizedRMSD -1
REMARK  0 active torsions:
REMARK  status: ('A' for Active; 'I' for Inactive)
ROOT
ATOM      1  C4' PXY d   1      -1.525  -2.991   0.790  0.00  0.00     0.077 C 
ATOM      2  C1' PXY d   1       0.870   2.148  -0.336  0.00  0.00     0.077 C 
ATOM      3  C1  PXY d   1       0.253   0.795  -0.046  0.00  0.00    -0.082 A 
ATOM      4  C2  PXY d   1      -1.063   0.676   0.017  0.00  0.00     0.003 A 
ATOM      5  C3  PXY d   1      -1.637  -0.534   0.311  0.00  0.00     0.003 A 
ATOM      6  C4  PXY d   1      -0.858  -1.646   0.490  0.00  0.00    -0.082 A 
ATOM      7  C5  PXY d   1       0.486  -1.535   0.417  0.00  0.00     0.003 A 
ATOM      8  C6  PXY d   1       1.050  -0.289   0.158  0.00  0.00     0.003 A 
ENDROOT
TORSDOF 0
ENDMDL
