MODEL 1
REMARK minimizedAffinity -1.83810139
REMARK minimizedRMSD -1
REMARK  2 active torsions:
REMARK  status: ('A' for Active; 'I' for Inactive)
REMARK    1  A    between atoms: C2'_3  and  C1'_4 
REMARK    2  A    between atoms: C1'_4  and  C1_5 
ROOT
ATOM      1  C1  I4B d   1      -2.568   0.741  -1.972  0.00  0.00    -0.075 A 
ATOM      2  C2  I4B d   1      -3.047   1.613  -1.027  0.00  0.00     0.003 A 
ATOM      3  C3  I4B d   1      -3.526   2.889  -1.412  0.00  0.00     0.002 A 
ATOM      4  C4  I4B d   1      -3.462   3.267  -2.737  0.00  0.00    -0.004 A 
ATOM      5  C5  I4B d   1      -2.998   2.373  -3.697  0.00  0.00     0.002 A 
ATOM      6  C6  I4B d   1      -2.559   1.097  -3.314  0.00  0.00     0.003 A 
ENDROOT
BRANCH   1   7
ATOM      7  C1' I4B d   1      -2.039  -0.585  -1.526  0.00  0.00     0.060 C 
BRANCH   7   8
ATOM      8  C2' I4B d   1      -2.361  -0.746  -0.055  0.00  0.00    -0.013 C 
ATOM      9  C4' I4B d   1      -3.438  -1.776   0.159  0.00  0.00     0.013 C 
ATOM     10  C3' I4B d   1      -1.097  -1.129   0.657  0.00  0.00     0.013 C 
ENDBRANCH   7   8
ENDBRANCH   1   7
TORSDOF 2
ENDMDL
