MODEL 1
REMARK minimizedAffinity 1.59838831
REMARK minimizedRMSD -1
REMARK  2 active torsions:
REMARK  status: ('A' for Active; 'I' for Inactive)
REMARK    1  A    between atoms: C2'_3  and  C1'_4 
REMARK    2  A    between atoms: C1'_4  and  C1_5 
ROOT
ATOM      1  C1  I4B d   1      -3.044   4.425  -2.934  0.00  0.00    -0.075 A 
ATOM      2  C2  I4B d   1      -3.007   3.392  -3.837  0.00  0.00     0.003 A 
ATOM      3  C3  I4B d   1      -2.764   3.653  -5.208  0.00  0.00     0.002 A 
ATOM      4  C4  I4B d   1      -2.615   4.956  -5.636  0.00  0.00    -0.004 A 
ATOM      5  C5  I4B d   1      -2.630   6.000  -4.715  0.00  0.00     0.002 A 
ATOM      6  C6  I4B d   1      -2.834   5.732  -3.354  0.00  0.00     0.003 A 
ENDROOT
BRANCH   1   7
ATOM      7  C1' I4B d   1      -3.336   4.118  -1.499  0.00  0.00     0.060 C 
BRANCH   7   8
ATOM      8  C2' I4B d   1      -4.106   2.813  -1.449  0.00  0.00    -0.013 C 
ATOM      9  C4' I4B d   1      -3.197   1.656  -1.130  0.00  0.00     0.013 C 
ATOM     10  C3' I4B d   1      -5.186   2.953  -0.418  0.00  0.00     0.013 C 
ENDBRANCH   7   8
ENDBRANCH   1   7
TORSDOF 2
ENDMDL
