MODEL 1
REMARK minimizedAffinity 4.65082502
REMARK minimizedRMSD -1
REMARK  2 active torsions:
REMARK  status: ('A' for Active; 'I' for Inactive)
REMARK    1  A    between atoms: C2'_3  and  C1'_4 
REMARK    2  A    between atoms: C1'_4  and  C1_5 
ROOT
ATOM      1  C1  I4B d   1      -3.662   3.486  -2.539  0.00  0.00    -0.075 A 
ATOM      2  C2  I4B d   1      -3.416   4.829  -2.680  0.00  0.00     0.003 A 
ATOM      3  C3  I4B d   1      -3.138   5.373  -3.957  0.00  0.00     0.002 A 
ATOM      4  C4  I4B d   1      -3.066   4.536  -5.051  0.00  0.00    -0.004 A 
ATOM      5  C5  I4B d   1      -3.338   3.178  -4.911  0.00  0.00     0.002 A 
ATOM      6  C6  I4B d   1      -3.650   2.651  -3.649  0.00  0.00     0.003 A 
ENDROOT
BRANCH   1   7
ATOM      7  C1' I4B d   1      -3.920   2.940  -1.171  0.00  0.00     0.060 C 
BRANCH   7   8
ATOM      8  C2' I4B d   1      -2.659   2.243  -0.701  0.00  0.00    -0.013 C 
ATOM      9  C4' I4B d   1      -2.306   1.088  -1.602  0.00  0.00     0.013 C 
ATOM     10  C3' I4B d   1      -1.555   3.258  -0.665  0.00  0.00     0.013 C 
ENDBRANCH   7   8
ENDBRANCH   1   7
TORSDOF 2
ENDMDL
