MODEL 1
REMARK minimizedAffinity 0.926181257
REMARK minimizedRMSD -1
REMARK  2 active torsions:
REMARK  status: ('A' for Active; 'I' for Inactive)
REMARK    1  A    between atoms: C2'_3  and  C1'_4 
REMARK    2  A    between atoms: C1'_4  and  C1_5 
ROOT
ATOM      1  C1  I4B d   1      -1.709  -0.861   1.131  0.00  0.00    -0.075 A 
ATOM      2  C2  I4B d   1      -0.537  -1.536   0.900  0.00  0.00     0.003 A 
ATOM      3  C3  I4B d   1       0.504  -1.507   1.860  0.00  0.00     0.002 A 
ATOM      4  C4  I4B d   1       0.350  -0.755   3.006  0.00  0.00    -0.004 A 
ATOM      5  C5  I4B d   1      -0.848  -0.089   3.249  0.00  0.00     0.002 A 
ATOM      6  C6  I4B d   1      -1.889  -0.152   2.312  0.00  0.00     0.003 A 
ENDROOT
BRANCH   1   7
ATOM      7  C1' I4B d   1      -2.775  -0.886   0.081  0.00  0.00     0.060 C 
BRANCH   7   8
ATOM      8  C2' I4B d   1      -2.107  -0.693  -1.265  0.00  0.00    -0.013 C 
ATOM      9  C4' I4B d   1      -2.216  -1.934  -2.111  0.00  0.00     0.013 C 
ATOM     10  C3' I4B d   1      -2.755   0.480  -1.939  0.00  0.00     0.013 C 
ENDBRANCH   7   8
ENDBRANCH   1   7
TORSDOF 2
ENDMDL
