MODEL 1
REMARK minimizedAffinity 2.81046653
REMARK minimizedRMSD -1
REMARK  2 active torsions:
REMARK  status: ('A' for Active; 'I' for Inactive)
REMARK    1  A    between atoms: C2'_3  and  C1'_4 
REMARK    2  A    between atoms: C1'_4  and  C1_5 
ROOT
ATOM      1  C1  I4B d   1      -1.950  -0.922   3.228  0.00  0.00    -0.075 A 
ATOM      2  C2  I4B d   1      -2.190  -0.422   4.484  0.00  0.00     0.003 A 
ATOM      3  C3  I4B d   1      -3.434   0.182   4.785  0.00  0.00     0.002 A 
ATOM      4  C4  I4B d   1      -4.385   0.311   3.793  0.00  0.00    -0.004 A 
ATOM      5  C5  I4B d   1      -4.149  -0.216   2.526  0.00  0.00     0.002 A 
ATOM      6  C6  I4B d   1      -2.928  -0.847   2.245  0.00  0.00     0.003 A 
ENDROOT
BRANCH   1   7
ATOM      7  C1' I4B d   1      -0.613  -1.524   2.935  0.00  0.00     0.060 C 
BRANCH   7   8
ATOM      8  C2' I4B d   1      -0.396  -1.475   1.436  0.00  0.00    -0.013 C 
ATOM      9  C4' I4B d   1      -0.133  -0.067   0.970  0.00  0.00     0.013 C 
ATOM     10  C3' I4B d   1       0.753  -2.378   1.104  0.00  0.00     0.013 C 
ENDBRANCH   7   8
ENDBRANCH   1   7
TORSDOF 2
ENDMDL
