MODEL 1
REMARK minimizedAffinity -1.80411696
REMARK minimizedRMSD -1
REMARK  2 active torsions:
REMARK  status: ('A' for Active; 'I' for Inactive)
REMARK    1  A    between atoms: C2'_3  and  C1'_4 
REMARK    2  A    between atoms: C1'_4  and  C1_5 
ROOT
ATOM      1  C1  I4B d   1      -2.183   2.687  -3.273  0.00  0.00    -0.075 A 
ATOM      2  C2  I4B d   1      -1.899   1.560  -2.542  0.00  0.00     0.003 A 
ATOM      3  C3  I4B d   1      -2.360   1.441  -1.208  0.00  0.00     0.002 A 
ATOM      4  C4  I4B d   1      -3.052   2.486  -0.632  0.00  0.00    -0.004 A 
ATOM      5  C5  I4B d   1      -3.358   3.618  -1.382  0.00  0.00     0.002 A 
ATOM      6  C6  I4B d   1      -2.932   3.714  -2.715  0.00  0.00     0.003 A 
ENDROOT
BRANCH   1   7
ATOM      7  C1' I4B d   1      -1.653   2.793  -4.668  0.00  0.00     0.060 C 
BRANCH   7   8
ATOM      8  C2' I4B d   1      -1.406   4.259  -4.962  0.00  0.00    -0.013 C 
ATOM      9  C4' I4B d   1      -0.199   4.441  -5.845  0.00  0.00     0.013 C 
ATOM     10  C3' I4B d   1      -2.639   4.816  -5.609  0.00  0.00     0.013 C 
ENDBRANCH   7   8
ENDBRANCH   1   7
TORSDOF 2
ENDMDL
