MODEL 1
REMARK minimizedAffinity 7.2940073
REMARK minimizedRMSD -1
REMARK  0 active torsions:
REMARK  status: ('A' for Active; 'I' for Inactive)
ROOT
ATOM      1  N1  IND d   1      -4.241  -2.833   3.760  0.00  0.00    -0.196 N 
ATOM      2  C2  IND d   1      -5.194  -3.128   4.695  0.00  0.00     0.054 A 
ATOM      3  C3  IND d   1      -6.000  -2.061   4.898  0.00  0.00    -0.031 A 
ATOM      4  C4  IND d   1      -6.000   0.234   3.731  0.00  0.00     0.051 A 
ATOM      5  C5  IND d   1      -5.296   0.985   2.833  0.00  0.00    -0.031 A 
ATOM      6  C6  IND d   1      -4.184   0.492   2.182  0.00  0.00     0.015 A 
ATOM      7  C7  IND d   1      -3.739  -0.782   2.398  0.00  0.00    -0.016 A 
ATOM      8  C8  IND d   1      -4.447  -1.545   3.315  0.00  0.00    -0.047 A 
ATOM      9  C9  IND d   1      -5.551  -1.035   4.010  0.00  0.00    -0.096 A 
ATOM     10  HN1 IND d   1      -3.618  -3.363   3.494  0.00  0.00     0.298 HD
ENDROOT
TORSDOF 0
ENDMDL
