MODEL 1
REMARK minimizedAffinity 13.5646048
REMARK minimizedRMSD -1
REMARK  0 active torsions:
REMARK  status: ('A' for Active; 'I' for Inactive)
ROOT
ATOM      1  N1  IND d   1       0.334   3.968  -1.018  0.00  0.00    -0.196 N 
ATOM      2  C2  IND d   1       0.181   2.817  -0.297  0.00  0.00     0.054 A 
ATOM      3  C3  IND d   1      -0.955   2.181  -0.661  0.00  0.00    -0.031 A 
ATOM      4  C4  IND d   1      -2.660   2.797  -2.489  0.00  0.00     0.051 A 
ATOM      5  C5  IND d   1      -2.966   3.779  -3.389  0.00  0.00    -0.031 A 
ATOM      6  C6  IND d   1      -2.171   4.895  -3.550  0.00  0.00     0.015 A 
ATOM      7  C7  IND d   1      -1.028   5.066  -2.821  0.00  0.00    -0.016 A 
ATOM      8  C8  IND d   1      -0.717   4.075  -1.901  0.00  0.00    -0.047 A 
ATOM      9  C9  IND d   1      -1.543   2.961  -1.704  0.00  0.00    -0.096 A 
ATOM     10  HN1 IND d   1       0.979   4.531  -0.934  0.00  0.00     0.298 HD
ENDROOT
TORSDOF 0
ENDMDL
