MODEL 1
REMARK minimizedAffinity 12.6613789
REMARK minimizedRMSD -1
REMARK  0 active torsions:
REMARK  status: ('A' for Active; 'I' for Inactive)
ROOT
ATOM      1  N1  IND d   1       1.221   2.503   2.083  0.00  0.00    -0.196 N 
ATOM      2  C2  IND d   1       0.677   1.437   2.743  0.00  0.00     0.054 A 
ATOM      3  C3  IND d   1      -0.271   0.846   1.981  0.00  0.00    -0.031 A 
ATOM      4  C4  IND d   1      -1.020   1.400  -0.419  0.00  0.00     0.051 A 
ATOM      5  C5  IND d   1      -0.838   2.312  -1.421  0.00  0.00    -0.031 A 
ATOM      6  C6  IND d   1       0.060   3.353  -1.305  0.00  0.00     0.015 A 
ATOM      7  C7  IND d   1       0.821   3.516  -0.182  0.00  0.00    -0.016 A 
ATOM      8  C8  IND d   1       0.633   2.596   0.840  0.00  0.00    -0.047 A 
ATOM      9  C9  IND d   1      -0.307   1.562   0.745  0.00  0.00    -0.096 A 
ATOM     10  HN1 IND d   1       1.828   3.028   2.392  0.00  0.00     0.298 HD
ENDROOT
TORSDOF 0
ENDMDL
