MODEL 1
REMARK minimizedAffinity 3.06750941
REMARK minimizedRMSD -1
REMARK  0 active torsions:
REMARK  status: ('A' for Active; 'I' for Inactive)
ROOT
ATOM      1  N1  IND d   1      -4.999   0.610   1.179  0.00  0.00    -0.196 N 
ATOM      2  C2  IND d   1      -4.126   0.004   0.320  0.00  0.00     0.054 A 
ATOM      3  C3  IND d   1      -3.747  -1.200   0.806  0.00  0.00    -0.031 A 
ATOM      4  C4  IND d   1      -4.514  -2.415   2.942  0.00  0.00     0.051 A 
ATOM      5  C5  IND d   1      -5.275  -2.245   4.064  0.00  0.00    -0.031 A 
ATOM      6  C6  IND d   1      -6.000  -1.092   4.285  0.00  0.00     0.015 A 
ATOM      7  C7  IND d   1      -6.000  -0.066   3.383  0.00  0.00    -0.016 A 
ATOM      8  C8  IND d   1      -5.222  -0.233   2.245  0.00  0.00    -0.047 A 
ATOM      9  C9  IND d   1      -4.451  -1.383   2.036  0.00  0.00    -0.096 A 
ATOM     10  HN1 IND d   1      -5.350   1.388   1.071  0.00  0.00     0.298 HD
ENDROOT
TORSDOF 0
ENDMDL
