MODEL 1
REMARK minimizedAffinity 16.9856777
REMARK minimizedRMSD -1
REMARK  0 active torsions:
REMARK  status: ('A' for Active; 'I' for Inactive)
ROOT
ATOM      1  N1  IND d   1       5.197  -4.150  -0.186  0.00  0.00    -0.196 N 
ATOM      2  C2  IND d   1       5.799  -5.205  -0.813  0.00  0.00     0.054 A 
ATOM      3  C3  IND d   1       4.872  -6.000  -1.393  0.00  0.00    -0.031 A 
ATOM      4  C4  IND d   1       2.318  -5.705  -1.525  0.00  0.00     0.051 A 
ATOM      5  C5  IND d   1       1.300  -4.914  -1.072  0.00  0.00    -0.031 A 
ATOM      6  C6  IND d   1       1.534  -3.803  -0.287  0.00  0.00     0.015 A 
ATOM      7  C7  IND d   1       2.801  -3.435   0.066  0.00  0.00    -0.016 A 
ATOM      8  C8  IND d   1       3.837  -4.240  -0.386  0.00  0.00    -0.047 A 
ATOM      9  C9  IND d   1       3.602  -5.393  -1.147  0.00  0.00    -0.096 A 
ATOM     10  HN1 IND d   1       5.600  -3.534   0.258  0.00  0.00     0.298 HD
ENDROOT
TORSDOF 0
ENDMDL
