MODEL 1
REMARK minimizedAffinity 7.05992126
REMARK minimizedRMSD -1
REMARK  3 active torsions:
REMARK  status: ('A' for Active; 'I' for Inactive)
REMARK    1  A    between atoms: C3'_2  and  C2'_3 
REMARK    2  A    between atoms: C2'_3  and  C1'_4 
REMARK    3  A    between atoms: C1'_4  and  C1_5 
ROOT
ATOM      1  C1  N4B d   1       3.046   4.805   3.704  0.00  0.00    -0.075 A 
ATOM      2  C2  N4B d   1       1.681   4.824   3.343  0.00  0.00     0.002 A 
ATOM      3  C3  N4B d   1       0.761   5.427   4.165  0.00  0.00     0.002 A 
ATOM      4  C4  N4B d   1       1.179   6.000   5.357  0.00  0.00    -0.004 A 
ATOM      5  C5  N4B d   1       2.503   6.000   5.686  0.00  0.00     0.002 A 
ATOM      6  C6  N4B d   1       3.438   5.400   4.867  0.00  0.00     0.002 A 
ENDROOT
BRANCH   1   7
ATOM      7  C1' N4B d   1       4.076   4.082   2.879  0.00  0.00     0.057 C 
BRANCH   7   8
ATOM      8  C2' N4B d   1       3.382   3.022   2.029  0.00  0.00     0.009 C 
BRANCH   8   9
ATOM      9  C3' N4B d   1       3.999   2.911   0.645  0.00  0.00     0.004 C 
ATOM     10  C4' N4B d   1       4.290   1.493   0.251  0.00  0.00     0.003 C 
ENDBRANCH   8   9
ENDBRANCH   7   8
ENDBRANCH   1   7
TORSDOF 3
ENDMDL
