MODEL 1
REMARK minimizedAffinity 2.77546883
REMARK minimizedRMSD -1
REMARK  3 active torsions:
REMARK  status: ('A' for Active; 'I' for Inactive)
REMARK    1  A    between atoms: C3'_2  and  C2'_3 
REMARK    2  A    between atoms: C2'_3  and  C1'_4 
REMARK    3  A    between atoms: C1'_4  and  C1_5 
ROOT
ATOM      1  C1  N4B d   1       3.799  -3.010   1.486  0.00  0.00    -0.075 A 
ATOM      2  C2  N4B d   1       2.478  -2.638   1.150  0.00  0.00     0.002 A 
ATOM      3  C3  N4B d   1       2.242  -1.879   0.031  0.00  0.00     0.002 A 
ATOM      4  C4  N4B d   1       3.308  -1.465  -0.754  0.00  0.00    -0.004 A 
ATOM      5  C5  N4B d   1       4.578  -1.849  -0.438  0.00  0.00     0.002 A 
ATOM      6  C6  N4B d   1       4.829  -2.616   0.682  0.00  0.00     0.002 A 
ENDROOT
BRANCH   1   7
ATOM      7  C1' N4B d   1       4.115  -3.767   2.747  0.00  0.00     0.057 C 
BRANCH   7   8
ATOM      8  C2' N4B d   1       4.869  -2.850   3.705  0.00  0.00     0.009 C 
BRANCH   8   9
ATOM      9  C3' N4B d   1       5.252  -3.564   4.990  0.00  0.00     0.004 C 
ATOM     10  C4' N4B d   1       5.877  -2.648   6.000  0.00  0.00     0.003 C 
ENDBRANCH   8   9
ENDBRANCH   7   8
ENDBRANCH   1   7
TORSDOF 3
ENDMDL
