MODEL 1
REMARK minimizedAffinity 2.4105289
REMARK minimizedRMSD -1
REMARK  3 active torsions:
REMARK  status: ('A' for Active; 'I' for Inactive)
REMARK    1  A    between atoms: C3'_2  and  C2'_3 
REMARK    2  A    between atoms: C2'_3  and  C1'_4 
REMARK    3  A    between atoms: C1'_4  and  C1_5 
ROOT
ATOM      1  C1  N4B d   1       1.892   4.924   3.375  0.00  0.00    -0.075 A 
ATOM      2  C2  N4B d   1       2.982   5.147   4.245  0.00  0.00     0.002 A 
ATOM      3  C3  N4B d   1       2.765   5.673   5.496  0.00  0.00     0.002 A 
ATOM      4  C4  N4B d   1       1.476   6.000   5.888  0.00  0.00    -0.004 A 
ATOM      5  C5  N4B d   1       0.426   5.758   5.051  0.00  0.00     0.002 A 
ATOM      6  C6  N4B d   1       0.629   5.226   3.793  0.00  0.00     0.002 A 
ENDROOT
BRANCH   1   7
ATOM      7  C1' N4B d   1       2.089   4.432   1.967  0.00  0.00     0.057 C 
BRANCH   7   8
ATOM      8  C2' N4B d   1       3.545   4.017   1.780  0.00  0.00     0.009 C 
BRANCH   8   9
ATOM      9  C3' N4B d   1       3.668   2.666   1.095  0.00  0.00     0.004 C 
ATOM     10  C4' N4B d   1       2.772   1.626   1.698  0.00  0.00     0.003 C 
ENDBRANCH   8   9
ENDBRANCH   7   8
ENDBRANCH   1   7
TORSDOF 3
ENDMDL
