MODEL 1
REMARK minimizedAffinity -1.36451387
REMARK minimizedRMSD -1
REMARK  1 active torsions:
REMARK  status: ('A' for Active; 'I' for Inactive)
REMARK    1  A    between atoms: C1_2  and  C2_3 
ROOT
ATOM      1  C2  UNL d   1      -5.319   2.689  -3.812  0.00  0.00    -0.077 A 
ATOM      2  C3  UNL d   1      -5.995   3.093  -4.971  0.00  0.00     0.002 A 
ATOM      3  C4  UNL d   1      -5.351   3.880  -5.927  0.00  0.00     0.002 A 
ATOM      4  C5  UNL d   1      -4.026   4.266  -5.736  0.00  0.00    -0.004 A 
ATOM      5  C6  UNL d   1      -3.345   3.871  -4.585  0.00  0.00     0.002 A 
ATOM      6  C7  UNL d   1      -3.988   3.085  -3.628  0.00  0.00     0.002 A 
ENDROOT
BRANCH   1   7
ATOM      7  C1  UNL d   1      -5.997   1.799  -2.803  0.00  0.00     0.055 C 
ATOM      8  C   UNL d   1      -5.898   0.334  -3.203  0.00  0.00     0.019 C 
ENDBRANCH   1   7
TORSDOF 1
ENDMDL
