MODEL 1
REMARK minimizedAffinity 5.15155602
REMARK minimizedRMSD -1
REMARK  1 active torsions:
REMARK  status: ('A' for Active; 'I' for Inactive)
REMARK    1  A    between atoms: C1_2  and  C2_3 
ROOT
ATOM      1  C2  UNL d   1       3.653  -1.467   1.420  0.00  0.00    -0.077 A 
ATOM      2  C3  UNL d   1       2.701  -1.545   0.394  0.00  0.00     0.002 A 
ATOM      3  C4  UNL d   1       1.369  -1.206   0.640  0.00  0.00     0.002 A 
ATOM      4  C5  UNL d   1       0.978  -0.783   1.908  0.00  0.00    -0.004 A 
ATOM      5  C6  UNL d   1       1.917  -0.704   2.936  0.00  0.00     0.002 A 
ATOM      6  C7  UNL d   1       3.249  -1.044   2.693  0.00  0.00     0.002 A 
ENDROOT
BRANCH   1   7
ATOM      7  C1  UNL d   1       5.100  -1.784   1.145  0.00  0.00     0.055 C 
ATOM      8  C   UNL d   1       5.683  -2.686   2.223  0.00  0.00     0.019 C 
ENDBRANCH   1   7
TORSDOF 1
ENDMDL
