MODEL 1
REMARK minimizedAffinity 5.09813929
REMARK minimizedRMSD -1
REMARK  1 active torsions:
REMARK  status: ('A' for Active; 'I' for Inactive)
REMARK    1  A    between atoms: C1_2  and  C2_3 
ROOT
ATOM      1  C2  UNL d   1       0.964   5.122  -1.541  0.00  0.00    -0.077 A 
ATOM      2  C3  UNL d   1       1.080   3.770  -1.191  0.00  0.00     0.002 A 
ATOM      3  C4  UNL d   1      -0.049   2.948  -1.166  0.00  0.00     0.002 A 
ATOM      4  C5  UNL d   1      -1.299   3.468  -1.494  0.00  0.00    -0.004 A 
ATOM      5  C6  UNL d   1      -1.424   4.813  -1.841  0.00  0.00     0.002 A 
ATOM      6  C7  UNL d   1      -0.298   5.636  -1.866  0.00  0.00     0.002 A 
ENDROOT
BRANCH   1   7
ATOM      7  C1  UNL d   1       2.187   5.998  -1.616  0.00  0.00     0.055 C 
ATOM      8  C   UNL d   1       2.977   5.959  -0.316  0.00  0.00     0.019 C 
ENDBRANCH   1   7
TORSDOF 1
ENDMDL
