MODEL 1
REMARK minimizedAffinity 5.0304966
REMARK minimizedRMSD -1
REMARK  1 active torsions:
REMARK  status: ('A' for Active; 'I' for Inactive)
REMARK    1  A    between atoms: C1_2  and  C2_3 
ROOT
ATOM      1  C2  UNL d   1       3.961  -1.895   1.325  0.00  0.00    -0.077 A 
ATOM      2  C3  UNL d   1       3.171  -1.327   2.334  0.00  0.00     0.002 A 
ATOM      3  C4  UNL d   1       1.821  -1.052   2.104  0.00  0.00     0.002 A 
ATOM      4  C5  UNL d   1       1.250  -1.347   0.868  0.00  0.00    -0.004 A 
ATOM      5  C6  UNL d   1       2.028  -1.910  -0.142  0.00  0.00     0.002 A 
ATOM      6  C7  UNL d   1       3.377  -2.184   0.085  0.00  0.00     0.002 A 
ENDROOT
BRANCH   1   7
ATOM      7  C1  UNL d   1       5.404  -2.238   1.588  0.00  0.00     0.055 C 
ATOM      8  C   UNL d   1       5.539  -3.228   2.736  0.00  0.00     0.019 C 
ENDBRANCH   1   7
TORSDOF 1
ENDMDL
