MODEL 1
REMARK minimizedAffinity -2.19323969
REMARK minimizedRMSD -1
REMARK  1 active torsions:
REMARK  status: ('A' for Active; 'I' for Inactive)
REMARK    1  A    between atoms: C1_2  and  C2_3 
ROOT
ATOM      1  C2  UNL d   1      -3.089   4.834   1.217  0.00  0.00    -0.077 A 
ATOM      2  C3  UNL d   1      -2.279   4.843   0.072  0.00  0.00     0.002 A 
ATOM      3  C4  UNL d   1      -1.475   3.743  -0.233  0.00  0.00     0.002 A 
ATOM      4  C5  UNL d   1      -1.476   2.625   0.598  0.00  0.00    -0.004 A 
ATOM      5  C6  UNL d   1      -2.276   2.607   1.740  0.00  0.00     0.002 A 
ATOM      6  C7  UNL d   1      -3.079   3.706   2.048  0.00  0.00     0.002 A 
ENDROOT
BRANCH   1   7
ATOM      7  C1  UNL d   1      -3.994   5.999   1.521  0.00  0.00     0.055 C 
ATOM      8  C   UNL d   1      -5.253   5.547   2.246  0.00  0.00     0.019 C 
ENDBRANCH   1   7
TORSDOF 1
ENDMDL
