MODEL 1
REMARK minimizedAffinity 7.06407547
REMARK minimizedRMSD -1
REMARK  1 active torsions:
REMARK  status: ('A' for Active; 'I' for Inactive)
REMARK    1  A    between atoms: C1_2  and  C2_3 
ROOT
ATOM      1  C2  UNL d   1      -3.678  -0.227   4.144  0.00  0.00    -0.077 A 
ATOM      2  C3  UNL d   1      -4.983   0.266   4.002  0.00  0.00     0.002 A 
ATOM      3  C4  UNL d   1      -6.000  -0.174   4.852  0.00  0.00     0.002 A 
ATOM      4  C5  UNL d   1      -5.722  -1.105   5.850  0.00  0.00    -0.004 A 
ATOM      5  C6  UNL d   1      -4.428  -1.603   5.997  0.00  0.00     0.002 A 
ATOM      6  C7  UNL d   1      -3.410  -1.165   5.148  0.00  0.00     0.002 A 
ENDROOT
BRANCH   1   7
ATOM      7  C1  UNL d   1      -2.569   0.283   3.260  0.00  0.00     0.055 C 
ATOM      8  C   UNL d   1      -3.113   1.152   2.135  0.00  0.00     0.019 C 
ENDBRANCH   1   7
TORSDOF 1
ENDMDL
