MODEL 1
REMARK minimizedAffinity 8.18347168
REMARK minimizedRMSD -1
REMARK  1 active torsions:
REMARK  status: ('A' for Active; 'I' for Inactive)
REMARK    1  A    between atoms: C1_2  and  C2_3 
ROOT
ATOM      1  C2  UNL d   1       2.547  -5.649  -0.974  0.00  0.00    -0.077 A 
ATOM      2  C3  UNL d   1       1.858  -4.944  -1.972  0.00  0.00     0.002 A 
ATOM      3  C4  UNL d   1       0.517  -4.598  -1.794  0.00  0.00     0.002 A 
ATOM      4  C5  UNL d   1      -0.145  -4.950  -0.620  0.00  0.00    -0.004 A 
ATOM      5  C6  UNL d   1       0.530  -5.653   0.377  0.00  0.00     0.002 A 
ATOM      6  C7  UNL d   1       1.871  -6.000   0.201  0.00  0.00     0.002 A 
ENDROOT
BRANCH   1   7
ATOM      7  C1  UNL d   1       4.007  -5.979  -1.143  0.00  0.00     0.055 C 
ATOM      8  C   UNL d   1       4.407  -5.988  -2.611  0.00  0.00     0.019 C 
ENDBRANCH   1   7
TORSDOF 1
ENDMDL
