MODEL 1
REMARK minimizedAffinity -4.65078926
REMARK minimizedRMSD -1
REMARK  1 active torsions:
REMARK  status: ('A' for Active; 'I' for Inactive)
REMARK    1  A    between atoms: C1_2  and  C2_3 
ROOT
ATOM      1  C2  UNL d   1      -1.319   1.769   0.896  0.00  0.00    -0.077 A 
ATOM      2  C3  UNL d   1      -1.755   1.060   2.024  0.00  0.00     0.002 A 
ATOM      3  C4  UNL d   1      -1.443  -0.293   2.173  0.00  0.00     0.002 A 
ATOM      4  C5  UNL d   1      -0.689  -0.947   1.200  0.00  0.00    -0.004 A 
ATOM      5  C6  UNL d   1      -0.252  -0.251   0.074  0.00  0.00     0.002 A 
ATOM      6  C7  UNL d   1      -0.565   1.101  -0.077  0.00  0.00     0.002 A 
ENDROOT
BRANCH   1   7
ATOM      7  C1  UNL d   1      -1.613   3.240   0.758  0.00  0.00     0.055 C 
ATOM      8  C   UNL d   1      -0.775   3.871  -0.344  0.00  0.00     0.019 C 
ENDBRANCH   1   7
TORSDOF 1
ENDMDL
