MODEL 1
REMARK minimizedAffinity -4.98870325
REMARK minimizedRMSD -1
REMARK  1 active torsions:
REMARK  status: ('A' for Active; 'I' for Inactive)
REMARK    1  A    between atoms: C1_2  and  C2_3 
ROOT
ATOM      1  C2  UNL d   1      -0.484  -0.161   0.475  0.00  0.00    -0.077 A 
ATOM      2  C3  UNL d   1      -0.433   0.220   1.824  0.00  0.00     0.002 A 
ATOM      3  C4  UNL d   1      -0.889   1.479   2.220  0.00  0.00     0.002 A 
ATOM      4  C5  UNL d   1      -1.403   2.365   1.275  0.00  0.00    -0.004 A 
ATOM      5  C6  UNL d   1      -1.456   1.996  -0.068  0.00  0.00     0.002 A 
ATOM      6  C7  UNL d   1      -1.000   0.739  -0.466  0.00  0.00     0.002 A 
ENDROOT
BRANCH   1   7
ATOM      7  C1  UNL d   1      -0.039  -1.536   0.053  0.00  0.00     0.055 C 
ATOM      8  C   UNL d   1       0.461  -1.539  -1.384  0.00  0.00     0.019 C 
ENDBRANCH   1   7
TORSDOF 1
ENDMDL
