MODEL 1
REMARK minimizedAffinity -4.20130301
REMARK minimizedRMSD -1
REMARK  1 active torsions:
REMARK  status: ('A' for Active; 'I' for Inactive)
REMARK    1  A    between atoms: C1_2  and  C2_3 
ROOT
ATOM      1  C2  UNL d   1      -0.676   0.714   0.999  0.00  0.00    -0.077 A 
ATOM      2  C3  UNL d   1      -0.434   1.797   0.142  0.00  0.00     0.002 A 
ATOM      3  C4  UNL d   1      -1.191   2.965   0.249  0.00  0.00     0.002 A 
ATOM      4  C5  UNL d   1      -2.191   3.063   1.214  0.00  0.00    -0.004 A 
ATOM      5  C6  UNL d   1      -2.441   1.991   2.070  0.00  0.00     0.002 A 
ATOM      6  C7  UNL d   1      -1.686   0.822   1.963  0.00  0.00     0.002 A 
ENDROOT
BRANCH   1   7
ATOM      7  C1  UNL d   1       0.172  -0.529   0.917  0.00  0.00     0.055 C 
ATOM      8  C   UNL d   1       0.698  -0.748  -0.494  0.00  0.00     0.019 C 
ENDBRANCH   1   7
TORSDOF 1
ENDMDL
