MODEL 1
REMARK minimizedAffinity -5.0978837
REMARK minimizedRMSD -1
REMARK  1 active torsions:
REMARK  status: ('A' for Active; 'I' for Inactive)
REMARK    1  A    between atoms: C1_2  and  C2_3 
ROOT
ATOM      1  C2  UNL d   1      -0.042  -0.609  -0.393  0.00  0.00    -0.077 A 
ATOM      2  C3  UNL d   1      -1.057  -0.960  -1.294  0.00  0.00     0.002 A 
ATOM      3  C4  UNL d   1      -0.812  -1.886  -2.309  0.00  0.00     0.002 A 
ATOM      4  C5  UNL d   1       0.446  -2.472  -2.430  0.00  0.00    -0.004 A 
ATOM      5  C6  UNL d   1       1.463  -2.129  -1.541  0.00  0.00     0.002 A 
ATOM      6  C7  UNL d   1       1.220  -1.202  -0.526  0.00  0.00     0.002 A 
ENDROOT
BRANCH   1   7
ATOM      7  C1  UNL d   1      -0.318   0.353   0.733  0.00  0.00     0.055 C 
ATOM      8  C   UNL d   1      -1.553  -0.058   1.521  0.00  0.00     0.019 C 
ENDBRANCH   1   7
TORSDOF 1
ENDMDL
