MODEL 1
REMARK minimizedAffinity -6.07682514
REMARK minimizedRMSD -1
REMARK  1 active torsions:
REMARK  status: ('A' for Active; 'I' for Inactive)
REMARK    1  A    between atoms: C1_2  and  C2_3 
ROOT
ATOM      1  C2  UNL d   1      -0.086   0.636   0.020  0.00  0.00    -0.077 A 
ATOM      2  C3  UNL d   1      -0.719   1.788  -0.467  0.00  0.00     0.002 A 
ATOM      3  C4  UNL d   1      -1.733   2.402   0.270  0.00  0.00     0.002 A 
ATOM      4  C5  UNL d   1      -2.120   1.874   1.500  0.00  0.00    -0.004 A 
ATOM      5  C6  UNL d   1      -1.499   0.728   1.992  0.00  0.00     0.002 A 
ATOM      6  C7  UNL d   1      -0.485   0.112   1.256  0.00  0.00     0.002 A 
ENDROOT
BRANCH   1   7
ATOM      7  C1  UNL d   1       1.042   0.000  -0.750  0.00  0.00     0.055 C 
ATOM      8  C   UNL d   1       0.564  -1.217  -1.528  0.00  0.00     0.019 C 
ENDBRANCH   1   7
TORSDOF 1
ENDMDL
