MODEL 1
REMARK minimizedAffinity -5.36712885
REMARK minimizedRMSD -1
REMARK  1 active torsions:
REMARK  status: ('A' for Active; 'I' for Inactive)
REMARK    1  A    between atoms: C1_2  and  C2_3 
ROOT
ATOM      1  C2  UNL d   1      -0.644   1.278   0.015  0.00  0.00    -0.077 A 
ATOM      2  C3  UNL d   1      -0.019   2.372  -0.601  0.00  0.00     0.002 A 
ATOM      3  C4  UNL d   1      -0.306   3.674  -0.187  0.00  0.00     0.002 A 
ATOM      4  C5  UNL d   1      -1.215   3.895   0.845  0.00  0.00    -0.004 A 
ATOM      5  C6  UNL d   1      -1.843   2.814   1.462  0.00  0.00     0.002 A 
ATOM      6  C7  UNL d   1      -1.559   1.512   1.049  0.00  0.00     0.002 A 
ENDROOT
BRANCH   1   7
ATOM      7  C1  UNL d   1      -0.299  -0.129  -0.396  0.00  0.00     0.055 C 
ATOM      8  C   UNL d   1       1.184  -0.267  -0.708  0.00  0.00     0.019 C 
ENDBRANCH   1   7
TORSDOF 1
ENDMDL
