MODEL 1
REMARK minimizedAffinity -3.37875175
REMARK minimizedRMSD -1
REMARK  1 active torsions:
REMARK  status: ('A' for Active; 'I' for Inactive)
REMARK    1  A    between atoms: C1_2  and  C2_3 
ROOT
ATOM      1  C2  UNL d   1       0.337   0.244   0.207  0.00  0.00    -0.077 A 
ATOM      2  C3  UNL d   1      -0.187   1.543   0.149  0.00  0.00     0.002 A 
ATOM      3  C4  UNL d   1      -1.014   2.017   1.169  0.00  0.00     0.002 A 
ATOM      4  C5  UNL d   1      -1.321   1.200   2.255  0.00  0.00    -0.004 A 
ATOM      5  C6  UNL d   1      -0.807  -0.094   2.321  0.00  0.00     0.002 A 
ATOM      6  C7  UNL d   1       0.020  -0.570   1.302  0.00  0.00     0.002 A 
ENDROOT
BRANCH   1   7
ATOM      7  C1  UNL d   1       1.270  -0.252  -0.868  0.00  0.00     0.055 C 
ATOM      8  C   UNL d   1       0.929  -1.675  -1.283  0.00  0.00     0.019 C 
ENDBRANCH   1   7
TORSDOF 1
ENDMDL
