MODEL 1
REMARK minimizedAffinity -5.19338083
REMARK minimizedRMSD -1
REMARK  1 active torsions:
REMARK  status: ('A' for Active; 'I' for Inactive)
REMARK    1  A    between atoms: C1_2  and  C2_3 
ROOT
ATOM      1  C2  UNL d   1      -1.016   2.201   0.484  0.00  0.00    -0.077 A 
ATOM      2  C3  UNL d   1      -1.975   1.753   1.404  0.00  0.00     0.002 A 
ATOM      3  C4  UNL d   1      -1.955   0.433   1.858  0.00  0.00     0.002 A 
ATOM      4  C5  UNL d   1      -0.978  -0.448   1.401  0.00  0.00    -0.004 A 
ATOM      5  C6  UNL d   1      -0.021  -0.013   0.485  0.00  0.00     0.002 A 
ATOM      6  C7  UNL d   1      -0.040   1.306   0.029  0.00  0.00     0.002 A 
ENDROOT
BRANCH   1   7
ATOM      7  C1  UNL d   1      -1.005   3.637   0.031  0.00  0.00     0.055 C 
ATOM      8  C   UNL d   1      -0.024   3.850  -1.112  0.00  0.00     0.019 C 
ENDBRANCH   1   7
TORSDOF 1
ENDMDL
