MODEL 1
REMARK minimizedAffinity -5.11378527
REMARK minimizedRMSD -1
REMARK  1 active torsions:
REMARK  status: ('A' for Active; 'I' for Inactive)
REMARK    1  A    between atoms: C1_2  and  C2_3 
ROOT
ATOM      1  C2  UNL d   1      -0.231  -0.574  -0.676  0.00  0.00    -0.077 A 
ATOM      2  C3  UNL d   1      -1.059  -1.033  -1.710  0.00  0.00     0.002 A 
ATOM      3  C4  UNL d   1      -0.719  -2.179  -2.432  0.00  0.00     0.002 A 
ATOM      4  C5  UNL d   1       0.446  -2.877  -2.124  0.00  0.00    -0.004 A 
ATOM      5  C6  UNL d   1       1.278  -2.427  -1.099  0.00  0.00     0.002 A 
ATOM      6  C7  UNL d   1       0.940  -1.281  -0.378  0.00  0.00     0.002 A 
ENDROOT
BRANCH   1   7
ATOM      7  C1  UNL d   1      -0.621   0.634   0.135  0.00  0.00     0.055 C 
ATOM      8  C   UNL d   1      -1.051   0.241   1.541  0.00  0.00     0.019 C 
ENDBRANCH   1   7
TORSDOF 1
ENDMDL
