MODEL 1
REMARK minimizedAffinity -2.8925209
REMARK minimizedRMSD -1
REMARK  1 active torsions:
REMARK  status: ('A' for Active; 'I' for Inactive)
REMARK    1  A    between atoms: C1_2  and  C2_3 
ROOT
ATOM      1  C2  UNL d   1       0.874  -0.834  -0.470  0.00  0.00    -0.077 A 
ATOM      2  C3  UNL d   1       0.983  -1.368   0.821  0.00  0.00     0.002 A 
ATOM      3  C4  UNL d   1       0.269  -0.805   1.881  0.00  0.00     0.002 A 
ATOM      4  C5  UNL d   1      -0.561   0.292   1.660  0.00  0.00    -0.004 A 
ATOM      5  C6  UNL d   1      -0.674   0.832   0.380  0.00  0.00     0.002 A 
ATOM      6  C7  UNL d   1       0.039   0.271  -0.681  0.00  0.00     0.002 A 
ENDROOT
BRANCH   1   7
ATOM      7  C1  UNL d   1       1.604  -1.470  -1.624  0.00  0.00     0.055 C 
ATOM      8  C   UNL d   1       1.357  -2.971  -1.675  0.00  0.00     0.019 C 
ENDBRANCH   1   7
TORSDOF 1
ENDMDL
