MODEL 1
REMARK minimizedAffinity -5.90164518
REMARK minimizedRMSD -1
REMARK  1 active torsions:
REMARK  status: ('A' for Active; 'I' for Inactive)
REMARK    1  A    between atoms: C1_2  and  C2_3 
ROOT
ATOM      1  C2  UNL d   1      -0.699   1.253   0.384  0.00  0.00    -0.077 A 
ATOM      2  C3  UNL d   1       0.008   2.102  -0.479  0.00  0.00     0.002 A 
ATOM      3  C4  UNL d   1      -0.235   3.477  -0.473  0.00  0.00     0.002 A 
ATOM      4  C5  UNL d   1      -1.181   4.015   0.397  0.00  0.00    -0.004 A 
ATOM      5  C6  UNL d   1      -1.891   3.178   1.258  0.00  0.00     0.002 A 
ATOM      6  C7  UNL d   1      -1.650   1.804   1.252  0.00  0.00     0.002 A 
ENDROOT
BRANCH   1   7
ATOM      7  C1  UNL d   1      -0.403  -0.224   0.414  0.00  0.00     0.055 C 
ATOM      8  C   UNL d   1       0.957  -0.528  -0.197  0.00  0.00     0.019 C 
ENDBRANCH   1   7
TORSDOF 1
ENDMDL
