MODEL 1
REMARK minimizedAffinity -5.60761833
REMARK minimizedRMSD -1
REMARK  1 active torsions:
REMARK  status: ('A' for Active; 'I' for Inactive)
REMARK    1  A    between atoms: C1_2  and  C2_3 
ROOT
ATOM      1  C2  UNL d   1      -0.459   0.875  -0.057  0.00  0.00    -0.077 A 
ATOM      2  C3  UNL d   1      -0.473   2.205  -0.498  0.00  0.00     0.002 A 
ATOM      3  C4  UNL d   1      -1.218   3.168   0.185  0.00  0.00     0.002 A 
ATOM      4  C5  UNL d   1      -1.952   2.812   1.315  0.00  0.00    -0.004 A 
ATOM      5  C6  UNL d   1      -1.946   1.491   1.760  0.00  0.00     0.002 A 
ATOM      6  C7  UNL d   1      -1.203   0.526   1.078  0.00  0.00     0.002 A 
ENDROOT
BRANCH   1   7
ATOM      7  C1  UNL d   1       0.383  -0.155  -0.763  0.00  0.00     0.055 C 
ATOM      8  C   UNL d   1       0.372  -1.483  -0.020  0.00  0.00     0.019 C 
ENDBRANCH   1   7
TORSDOF 1
ENDMDL
