MODEL 1
REMARK minimizedAffinity -1.80085671
REMARK minimizedRMSD -1
REMARK  0 active torsions:
REMARK  status: ('A' for Active; 'I' for Inactive)
ROOT
ATOM      1  C   UNL d   1       5.888   5.146  -1.694  0.00  0.00     0.078 C 
ATOM      2  C1  UNL d   1       5.297   5.272  -3.067  0.00  0.00    -0.077 A 
ATOM      3  C2  UNL d   1       5.989   4.814  -4.195  0.00  0.00    -0.001 A 
ATOM      4  C3  UNL d   1       5.431   4.947  -5.467  0.00  0.00     0.003 A 
ATOM      5  C4  UNL d   1       4.179   5.538  -5.624  0.00  0.00    -0.005 A 
ATOM      6  C5  UNL d   1       3.483   5.998  -4.507  0.00  0.00     0.003 A 
ATOM      7  C6  UNL d   1       4.040   5.866  -3.234  0.00  0.00    -0.001 A 
ENDROOT
TORSDOF 0
ENDMDL
