MODEL 1
REMARK minimizedAffinity -2.04033279
REMARK minimizedRMSD -1
REMARK  0 active torsions:
REMARK  status: ('A' for Active; 'I' for Inactive)
ROOT
ATOM      1  C   UNL d   1       5.937   5.996  -1.868  0.00  0.00     0.078 C 
ATOM      2  C1  UNL d   1       5.386   5.433  -3.144  0.00  0.00    -0.077 A 
ATOM      3  C2  UNL d   1       4.252   5.990  -3.747  0.00  0.00    -0.001 A 
ATOM      4  C3  UNL d   1       3.744   5.450  -4.930  0.00  0.00     0.003 A 
ATOM      5  C4  UNL d   1       4.363   4.349  -5.518  0.00  0.00    -0.005 A 
ATOM      6  C5  UNL d   1       5.490   3.786  -4.923  0.00  0.00     0.003 A 
ATOM      7  C6  UNL d   1       6.000   4.325  -3.741  0.00  0.00    -0.001 A 
ENDROOT
TORSDOF 0
ENDMDL
