MODEL 1
REMARK minimizedAffinity 3.14513373
REMARK minimizedRMSD -1
REMARK  0 active torsions:
REMARK  status: ('A' for Active; 'I' for Inactive)
ROOT
ATOM      1  C   UNL d   1       5.999   4.889  -1.104  0.00  0.00     0.078 C 
ATOM      2  C1  UNL d   1       5.215   4.881  -2.381  0.00  0.00    -0.077 A 
ATOM      3  C2  UNL d   1       5.259   3.782  -3.248  0.00  0.00    -0.001 A 
ATOM      4  C3  UNL d   1       4.531   3.793  -4.439  0.00  0.00     0.003 A 
ATOM      5  C4  UNL d   1       3.754   4.900  -4.774  0.00  0.00    -0.005 A 
ATOM      6  C5  UNL d   1       3.705   5.999  -3.919  0.00  0.00     0.003 A 
ATOM      7  C6  UNL d   1       4.433   5.990  -2.728  0.00  0.00    -0.001 A 
ENDROOT
TORSDOF 0
ENDMDL
