MODEL 1
REMARK minimizedAffinity -0.937024176
REMARK minimizedRMSD -1
REMARK  0 active torsions:
REMARK  status: ('A' for Active; 'I' for Inactive)
ROOT
ATOM      1  C   UNL d   1       1.306  -2.391  -2.257  0.00  0.00     0.078 C 
ATOM      2  C1  UNL d   1      -0.143  -2.288  -1.886  0.00  0.00    -0.077 A 
ATOM      3  C2  UNL d   1      -0.550  -2.337  -0.547  0.00  0.00    -0.001 A 
ATOM      4  C3  UNL d   1      -1.904  -2.250  -0.217  0.00  0.00     0.003 A 
ATOM      5  C4  UNL d   1      -2.861  -2.115  -1.221  0.00  0.00    -0.005 A 
ATOM      6  C5  UNL d   1      -2.466  -2.067  -2.556  0.00  0.00     0.003 A 
ATOM      7  C6  UNL d   1      -1.113  -2.154  -2.888  0.00  0.00    -0.001 A 
ENDROOT
TORSDOF 0
ENDMDL
