MODEL 1
REMARK minimizedAffinity 8.17782784
REMARK minimizedRMSD -1
REMARK  0 active torsions:
REMARK  status: ('A' for Active; 'I' for Inactive)
ROOT
ATOM      1  C   UNL d   1       2.715  -2.415  -3.424  0.00  0.00     0.078 C 
ATOM      2  C1  UNL d   1       1.429  -2.232  -2.675  0.00  0.00    -0.077 A 
ATOM      3  C2  UNL d   1       1.277  -2.725  -1.373  0.00  0.00    -0.001 A 
ATOM      4  C3  UNL d   1       0.071  -2.556  -0.691  0.00  0.00     0.003 A 
ATOM      5  C4  UNL d   1      -0.993  -1.896  -1.303  0.00  0.00    -0.005 A 
ATOM      6  C5  UNL d   1      -0.851  -1.404  -2.599  0.00  0.00     0.003 A 
ATOM      7  C6  UNL d   1       0.354  -1.572  -3.283  0.00  0.00    -0.001 A 
ENDROOT
TORSDOF 0
ENDMDL
