MODEL 1
REMARK minimizedAffinity 17.5052395
REMARK minimizedRMSD -1
REMARK  0 active torsions:
REMARK  status: ('A' for Active; 'I' for Inactive)
ROOT
ATOM      1  C   UNL d   1      -3.047  -2.996  -3.725  0.00  0.00     0.078 C 
ATOM      2  C1  UNL d   1      -3.833  -4.031  -4.473  0.00  0.00    -0.077 A 
ATOM      3  C2  UNL d   1      -3.189  -5.037  -5.204  0.00  0.00    -0.001 A 
ATOM      4  C3  UNL d   1      -3.933  -5.988  -5.903  0.00  0.00     0.003 A 
ATOM      5  C4  UNL d   1      -5.326  -5.942  -5.880  0.00  0.00    -0.005 A 
ATOM      6  C5  UNL d   1      -5.976  -4.943  -5.158  0.00  0.00     0.003 A 
ATOM      7  C6  UNL d   1      -5.233  -3.991  -4.458  0.00  0.00    -0.001 A 
ENDROOT
TORSDOF 0
ENDMDL
