MODEL 1
REMARK minimizedAffinity 12.5270853
REMARK minimizedRMSD -1
REMARK  0 active torsions:
REMARK  status: ('A' for Active; 'I' for Inactive)
ROOT
ATOM      1  C   UNL d   1       2.542  -2.080   3.050  0.00  0.00     0.078 C 
ATOM      2  C1  UNL d   1       3.739  -2.470   3.865  0.00  0.00    -0.077 A 
ATOM      3  C2  UNL d   1       3.749  -2.310   5.256  0.00  0.00    -0.001 A 
ATOM      4  C3  UNL d   1       4.874  -2.668   6.000  0.00  0.00     0.003 A 
ATOM      5  C4  UNL d   1       5.999  -3.187   5.362  0.00  0.00    -0.005 A 
ATOM      6  C5  UNL d   1       6.000  -3.347   3.978  0.00  0.00     0.003 A 
ATOM      7  C6  UNL d   1       4.876  -2.990   3.232  0.00  0.00    -0.001 A 
ENDROOT
TORSDOF 0
ENDMDL
