MODEL 1
REMARK minimizedAffinity 5.22184324
REMARK minimizedRMSD -1
REMARK  0 active torsions:
REMARK  status: ('A' for Active; 'I' for Inactive)
ROOT
ATOM      1  C   UNL d   1       1.375   5.122  -2.885  0.00  0.00     0.078 C 
ATOM      2  C1  UNL d   1       1.115   4.966  -1.416  0.00  0.00    -0.077 A 
ATOM      3  C2  UNL d   1       1.778   3.987  -0.666  0.00  0.00    -0.001 A 
ATOM      4  C3  UNL d   1       1.518   3.846   0.698  0.00  0.00     0.003 A 
ATOM      5  C4  UNL d   1       0.595   4.681   1.324  0.00  0.00    -0.005 A 
ATOM      6  C5  UNL d   1      -0.071   5.657   0.586  0.00  0.00     0.003 A 
ATOM      7  C6  UNL d   1       0.187   5.799  -0.778  0.00  0.00    -0.001 A 
ENDROOT
TORSDOF 0
ENDMDL
