MODEL 1
REMARK minimizedAffinity 8.80350876
REMARK minimizedRMSD -1
REMARK  0 active torsions:
REMARK  status: ('A' for Active; 'I' for Inactive)
ROOT
ATOM      1  C   UNL d   1      -0.938   0.367  -1.031  0.00  0.00     0.078 C 
ATOM      2  C1  UNL d   1      -0.642  -1.064  -1.367  0.00  0.00    -0.077 A 
ATOM      3  C2  UNL d   1       0.057  -1.885  -0.473  0.00  0.00    -0.001 A 
ATOM      4  C3  UNL d   1       0.333  -3.213  -0.804  0.00  0.00     0.003 A 
ATOM      5  C4  UNL d   1      -0.083  -3.731  -2.028  0.00  0.00    -0.005 A 
ATOM      6  C5  UNL d   1      -0.777  -2.920  -2.925  0.00  0.00     0.003 A 
ATOM      7  C6  UNL d   1      -1.055  -1.593  -2.596  0.00  0.00    -0.001 A 
ENDROOT
TORSDOF 0
ENDMDL
