MODEL 1
REMARK minimizedAffinity 13.7050867
REMARK minimizedRMSD -1
REMARK  0 active torsions:
REMARK  status: ('A' for Active; 'I' for Inactive)
ROOT
ATOM      1  C   UNL d   1      -1.269  -2.023  -4.365  0.00  0.00     0.078 C 
ATOM      2  C1  UNL d   1      -0.668  -2.193  -3.002  0.00  0.00    -0.077 A 
ATOM      3  C2  UNL d   1       0.427  -3.041  -2.797  0.00  0.00    -0.001 A 
ATOM      4  C3  UNL d   1       0.971  -3.197  -1.521  0.00  0.00     0.003 A 
ATOM      5  C4  UNL d   1       0.425  -2.510  -0.439  0.00  0.00    -0.005 A 
ATOM      6  C5  UNL d   1      -0.666  -1.665  -0.633  0.00  0.00     0.003 A 
ATOM      7  C6  UNL d   1      -1.211  -1.507  -1.908  0.00  0.00    -0.001 A 
ENDROOT
TORSDOF 0
ENDMDL
