MODEL 1
REMARK minimizedAffinity 2.58788776
REMARK minimizedRMSD -1
REMARK  0 active torsions:
REMARK  status: ('A' for Active; 'I' for Inactive)
ROOT
ATOM      1  C   UNL d   1      -2.277  -2.515  -3.759  0.00  0.00     0.078 C 
ATOM      2  C1  UNL d   1      -1.520  -2.321  -2.479  0.00  0.00    -0.077 A 
ATOM      3  C2  UNL d   1      -0.317  -2.997  -2.244  0.00  0.00    -0.001 A 
ATOM      4  C3  UNL d   1       0.373  -2.815  -1.044  0.00  0.00     0.003 A 
ATOM      5  C4  UNL d   1      -0.134  -1.957  -0.070  0.00  0.00    -0.005 A 
ATOM      6  C5  UNL d   1      -1.331  -1.282  -0.294  0.00  0.00     0.003 A 
ATOM      7  C6  UNL d   1      -2.022  -1.463  -1.493  0.00  0.00    -0.001 A 
ENDROOT
TORSDOF 0
ENDMDL
