MODEL 1
REMARK minimizedAffinity 9.29811573
REMARK minimizedRMSD -1
REMARK  0 active torsions:
REMARK  status: ('A' for Active; 'I' for Inactive)
ROOT
ATOM      1  C   UNL d   1      -1.052   0.493  -1.099  0.00  0.00     0.078 C 
ATOM      2  C1  UNL d   1      -0.658  -0.890  -1.524  0.00  0.00    -0.077 A 
ATOM      3  C2  UNL d   1       0.016  -1.749  -0.648  0.00  0.00    -0.001 A 
ATOM      4  C3  UNL d   1       0.386  -3.030  -1.060  0.00  0.00     0.003 A 
ATOM      5  C4  UNL d   1       0.087  -3.463  -2.351  0.00  0.00    -0.005 A 
ATOM      6  C5  UNL d   1      -0.581  -2.614  -3.231  0.00  0.00     0.003 A 
ATOM      7  C6  UNL d   1      -0.952  -1.333  -2.820  0.00  0.00    -0.001 A 
ENDROOT
TORSDOF 0
ENDMDL
