MODEL 1
REMARK minimizedAffinity 13.0004559
REMARK minimizedRMSD -1
REMARK  0 active torsions:
REMARK  status: ('A' for Active; 'I' for Inactive)
ROOT
ATOM      1  C   UNL d   1      -0.440  -2.405  -0.469  0.00  0.00     0.078 C 
ATOM      2  C1  UNL d   1      -0.920  -2.489  -1.888  0.00  0.00    -0.077 A 
ATOM      3  C2  UNL d   1      -0.045  -2.273  -2.959  0.00  0.00    -0.001 A 
ATOM      4  C3  UNL d   1      -0.508  -2.346  -4.274  0.00  0.00     0.003 A 
ATOM      5  C4  UNL d   1      -1.848  -2.632  -4.529  0.00  0.00    -0.005 A 
ATOM      6  C5  UNL d   1      -2.726  -2.846  -3.469  0.00  0.00     0.003 A 
ATOM      7  C6  UNL d   1      -2.265  -2.774  -2.154  0.00  0.00    -0.001 A 
ENDROOT
TORSDOF 0
ENDMDL
