MODEL 1
REMARK minimizedAffinity 7.73900175
REMARK minimizedRMSD -1
REMARK  0 active torsions:
REMARK  status: ('A' for Active; 'I' for Inactive)
ROOT
ATOM      1  C   UNL d   1       1.625  -4.046  -3.644  0.00  0.00     0.078 C 
ATOM      2  C1  UNL d   1       0.575  -3.276  -2.901  0.00  0.00    -0.077 A 
ATOM      3  C2  UNL d   1      -0.556  -2.779  -3.560  0.00  0.00    -0.001 A 
ATOM      4  C3  UNL d   1      -1.521  -2.055  -2.858  0.00  0.00     0.003 A 
ATOM      5  C4  UNL d   1      -1.365  -1.822  -1.493  0.00  0.00    -0.005 A 
ATOM      6  C5  UNL d   1      -0.242  -2.311  -0.829  0.00  0.00     0.003 A 
ATOM      7  C6  UNL d   1       0.724  -3.035  -1.530  0.00  0.00    -0.001 A 
ENDROOT
TORSDOF 0
ENDMDL
