MODEL 1
REMARK minimizedAffinity 3.98496199
REMARK minimizedRMSD -1
REMARK  0 active torsions:
REMARK  status: ('A' for Active; 'I' for Inactive)
ROOT
ATOM      1  C   UNL d   1       0.446  -5.998  -1.948  0.00  0.00     0.078 C 
ATOM      2  C1  UNL d   1       0.059  -4.549  -1.945  0.00  0.00    -0.077 A 
ATOM      3  C2  UNL d   1      -0.313  -3.900  -3.128  0.00  0.00    -0.001 A 
ATOM      4  C3  UNL d   1      -0.661  -2.548  -3.113  0.00  0.00     0.003 A 
ATOM      5  C4  UNL d   1      -0.639  -1.834  -1.916  0.00  0.00    -0.005 A 
ATOM      6  C5  UNL d   1      -0.267  -2.471  -0.734  0.00  0.00     0.003 A 
ATOM      7  C6  UNL d   1       0.081  -3.822  -0.748  0.00  0.00    -0.001 A 
ENDROOT
TORSDOF 0
ENDMDL
