MODEL 1
REMARK minimizedAffinity 3.27298021
REMARK minimizedRMSD -1
REMARK  0 active torsions:
REMARK  status: ('A' for Active; 'I' for Inactive)
ROOT
ATOM      1  C1  DEN d   1      -0.902   2.730   2.331  0.00  0.00     0.130 A 
ATOM      2  C2  DEN d   1       0.427   2.461   2.874  0.00  0.00    -0.031 A 
ATOM      3  C3  DEN d   1       1.425   2.917   1.885  0.00  0.00     0.027 A 
ATOM      4  C4  DEN d   1       1.044   4.012  -0.418  0.00  0.00     0.027 A 
ATOM      5  C5  DEN d   1       0.088   4.434  -1.317  0.00  0.00    -0.003 A 
ATOM      6  C6  DEN d   1      -1.253   4.287  -1.079  0.00  0.00     0.001 A 
ATOM      7  C7  DEN d   1      -1.677   3.745   0.106  0.00  0.00     0.017 A 
ATOM      8  C8  DEN d   1      -0.719   3.311   1.013  0.00  0.00    -0.094 A 
ATOM      9  C9  DEN d   1       0.631   3.479   0.760  0.00  0.00    -0.072 A 
ENDROOT
TORSDOF 0
ENDMDL
