MODEL 1
REMARK minimizedAffinity -0.447467357
REMARK minimizedRMSD -1
REMARK  0 active torsions:
REMARK  status: ('A' for Active; 'I' for Inactive)
ROOT
ATOM      1  C1  DEN d   1       0.505   2.741   1.149  0.00  0.00     0.130 A 
ATOM      2  C2  DEN d   1       0.720   3.443  -0.113  0.00  0.00    -0.031 A 
ATOM      3  C3  DEN d   1      -0.369   4.426  -0.280  0.00  0.00     0.027 A 
ATOM      4  C4  DEN d   1      -2.355   4.930   1.288  0.00  0.00     0.027 A 
ATOM      5  C5  DEN d   1      -2.966   4.582   2.472  0.00  0.00    -0.003 A 
ATOM      6  C6  DEN d   1      -2.487   3.581   3.275  0.00  0.00     0.001 A 
ATOM      7  C7  DEN d   1      -1.337   2.922   2.926  0.00  0.00     0.017 A 
ATOM      8  C8  DEN d   1      -0.719   3.263   1.730  0.00  0.00    -0.094 A 
ATOM      9  C9  DEN d   1      -1.212   4.286   0.938  0.00  0.00    -0.072 A 
ENDROOT
TORSDOF 0
ENDMDL
