MODEL 1
REMARK minimizedAffinity 6.47143841
REMARK minimizedRMSD -1
REMARK  0 active torsions:
REMARK  status: ('A' for Active; 'I' for Inactive)
ROOT
ATOM      1  C1  DEN d   1       4.522  -3.011  -4.126  0.00  0.00     0.130 A 
ATOM      2  C2  DEN d   1       4.607  -4.312  -4.785  0.00  0.00    -0.031 A 
ATOM      3  C3  DEN d   1       4.689  -5.350  -3.738  0.00  0.00     0.027 A 
ATOM      4  C4  DEN d   1       4.688  -5.071  -1.174  0.00  0.00     0.027 A 
ATOM      5  C5  DEN d   1       4.644  -4.158  -0.144  0.00  0.00    -0.003 A 
ATOM      6  C6  DEN d   1       4.592  -2.807  -0.368  0.00  0.00     0.001 A 
ATOM      7  C7  DEN d   1       4.536  -2.334  -1.652  0.00  0.00     0.017 A 
ATOM      8  C8  DEN d   1       4.587  -3.248  -2.695  0.00  0.00    -0.094 A 
ATOM      9  C9  DEN d   1       4.627  -4.610  -2.449  0.00  0.00    -0.072 A 
ENDROOT
TORSDOF 0
ENDMDL
