MODEL 1
REMARK minimizedAffinity 7.60393763
REMARK minimizedRMSD -1
REMARK  0 active torsions:
REMARK  status: ('A' for Active; 'I' for Inactive)
ROOT
ATOM      1  C1  DEN d   1      -2.981   5.441  -4.536  0.00  0.00     0.130 A 
ATOM      2  C2  DEN d   1      -3.404   5.356  -5.931  0.00  0.00    -0.031 A 
ATOM      3  C3  DEN d   1      -4.640   4.548  -5.985  0.00  0.00     0.027 A 
ATOM      4  C4  DEN d   1      -5.934   3.432  -4.054  0.00  0.00     0.027 A 
ATOM      5  C5  DEN d   1      -5.955   3.216  -2.694  0.00  0.00    -0.003 A 
ATOM      6  C6  DEN d   1      -4.975   3.693  -1.863  0.00  0.00     0.001 A 
ATOM      7  C7  DEN d   1      -3.957   4.450  -2.380  0.00  0.00     0.017 A 
ATOM      8  C8  DEN d   1      -3.925   4.666  -3.751  0.00  0.00    -0.094 A 
ATOM      9  C9  DEN d   1      -4.931   4.185  -4.572  0.00  0.00    -0.072 A 
ENDROOT
TORSDOF 0
ENDMDL
