MODEL 1
REMARK minimizedAffinity 3.45747876
REMARK minimizedRMSD -1
REMARK  0 active torsions:
REMARK  status: ('A' for Active; 'I' for Inactive)
ROOT
ATOM      1  C1  DEN d   1       2.794   3.026   2.969  0.00  0.00     0.130 A 
ATOM      2  C2  DEN d   1       2.162   2.140   3.942  0.00  0.00    -0.031 A 
ATOM      3  C3  DEN d   1       0.719   2.079   3.635  0.00  0.00     0.027 A 
ATOM      4  C4  DEN d   1      -0.590   3.259   1.751  0.00  0.00     0.027 A 
ATOM      5  C5  DEN d   1      -0.486   4.122   0.683  0.00  0.00    -0.003 A 
ATOM      6  C6  DEN d   1       0.702   4.702   0.325  0.00  0.00     0.001 A 
ATOM      7  C7  DEN d   1       1.844   4.391   1.015  0.00  0.00     0.017 A 
ATOM      8  C8  DEN d   1       1.746   3.527   2.098  0.00  0.00    -0.094 A 
ATOM      9  C9  DEN d   1       0.538   2.941   2.436  0.00  0.00    -0.072 A 
ENDROOT
TORSDOF 0
ENDMDL
