MODEL 1
REMARK minimizedAffinity -4.81430578
REMARK minimizedRMSD -1
REMARK  0 active torsions:
REMARK  status: ('A' for Active; 'I' for Inactive)
ROOT
ATOM      1  C1  DEN d   1      -3.954   2.398  -3.432  0.00  0.00     0.130 A 
ATOM      2  C2  DEN d   1      -4.352   2.547  -2.035  0.00  0.00    -0.031 A 
ATOM      3  C3  DEN d   1      -5.223   3.735  -1.932  0.00  0.00     0.027 A 
ATOM      4  C4  DEN d   1      -5.995   5.346  -3.792  0.00  0.00     0.027 A 
ATOM      5  C5  DEN d   1      -5.907   5.633  -5.137  0.00  0.00    -0.003 A 
ATOM      6  C6  DEN d   1      -5.141   4.888  -5.994  0.00  0.00     0.001 A 
ATOM      7  C7  DEN d   1      -4.468   3.791  -5.524  0.00  0.00     0.017 A 
ATOM      8  C8  DEN d   1      -4.546   3.500  -4.168  0.00  0.00    -0.094 A 
ATOM      9  C9  DEN d   1      -5.335   4.258  -3.320  0.00  0.00    -0.072 A 
ENDROOT
TORSDOF 0
ENDMDL
