MODEL 1
REMARK minimizedAffinity -4.0402627
REMARK minimizedRMSD -1
REMARK  0 active torsions:
REMARK  status: ('A' for Active; 'I' for Inactive)
ROOT
ATOM      1  C1  DEN d   1      -5.215   3.762  -2.180  0.00  0.00     0.130 A 
ATOM      2  C2  DEN d   1      -5.619   2.614  -1.372  0.00  0.00    -0.031 A 
ATOM      3  C3  DEN d   1      -6.000   1.521  -2.289  0.00  0.00     0.027 A 
ATOM      4  C4  DEN d   1      -6.000   1.493  -4.868  0.00  0.00     0.027 A 
ATOM      5  C5  DEN d   1      -5.748   2.238  -5.999  0.00  0.00    -0.003 A 
ATOM      6  C6  DEN d   1      -5.337   3.543  -5.937  0.00  0.00     0.001 A 
ATOM      7  C7  DEN d   1      -5.122   4.130  -4.718  0.00  0.00     0.017 A 
ATOM      8  C8  DEN d   1      -5.381   3.387  -3.573  0.00  0.00    -0.094 A 
ATOM      9  C9  DEN d   1      -5.784   2.065  -3.657  0.00  0.00    -0.072 A 
ENDROOT
TORSDOF 0
ENDMDL
