MODEL 1
REMARK minimizedAffinity -0.122868456
REMARK minimizedRMSD -1
REMARK  1 active torsions:
REMARK  status: ('A' for Active; 'I' for Inactive)
REMARK    1  A    between atoms: N_2  and  C1_3 
ROOT
ATOM      1  C1  UNL d   1      -0.090  -1.380   2.225  0.00  0.00     0.143 A 
ATOM      2  C2  UNL d   1       1.164  -1.152   1.648  0.00  0.00    -0.057 A 
ATOM      3  C3  UNL d   1       1.311  -0.301   0.546  0.00  0.00     0.033 A 
ATOM      4  C4  UNL d   1       0.200   0.316  -0.019  0.00  0.00    -0.042 A 
ATOM      5  C5  UNL d   1      -1.060   0.084   0.523  0.00  0.00     0.033 A 
ATOM      6  C6  UNL d   1      -1.200  -0.762   1.628  0.00  0.00    -0.057 A 
ENDROOT
BRANCH   1   7
ATOM      7  N   UNL d   1      -0.316  -2.292   3.259  0.00  0.00    -0.732 N 
ATOM      8  C   UNL d   1      -0.978  -3.552   3.000  0.00  0.00     0.284 C 
ATOM      9  H3  UNL d   1       0.475  -2.361   3.896  0.00  0.00     0.395 HD
ENDBRANCH   1   7
TORSDOF 1
ENDMDL
