MODEL 1
REMARK minimizedAffinity -2.22653055
REMARK minimizedRMSD -1
REMARK  1 active torsions:
REMARK  status: ('A' for Active; 'I' for Inactive)
REMARK    1  A    between atoms: N_2  and  C1_3 
ROOT
ATOM      1  C1  UNL d   1       1.543  -0.078   1.094  0.00  0.00     0.143 A 
ATOM      2  C2  UNL d   1       2.451  -0.754   0.272  0.00  0.00    -0.057 A 
ATOM      3  C3  UNL d   1       2.151  -1.034  -1.066  0.00  0.00     0.033 A 
ATOM      4  C4  UNL d   1       0.920  -0.667  -1.601  0.00  0.00    -0.042 A 
ATOM      5  C5  UNL d   1      -0.008  -0.016  -0.796  0.00  0.00     0.033 A 
ATOM      6  C6  UNL d   1       0.300   0.266   0.538  0.00  0.00    -0.057 A 
ENDROOT
BRANCH   1   7
ATOM      7  N   UNL d   1       1.743   0.142   2.459  0.00  0.00    -0.732 N 
ATOM      8  C   UNL d   1       1.145  -0.735   3.442  0.00  0.00     0.284 C 
ATOM      9  H3  UNL d   1       2.700   0.414   2.672  0.00  0.00     0.395 HD
ENDBRANCH   1   7
TORSDOF 1
ENDMDL
