MODEL 1
REMARK minimizedAffinity -4.37598562
REMARK minimizedRMSD -1
REMARK  1 active torsions:
REMARK  status: ('A' for Active; 'I' for Inactive)
REMARK    1  A    between atoms: N_2  and  C1_3 
ROOT
ATOM      1  C1  UNL d   1      -0.843  -0.139  -0.354  0.00  0.00     0.143 A 
ATOM      2  C2  UNL d   1      -1.845  -0.741   0.416  0.00  0.00    -0.057 A 
ATOM      3  C3  UNL d   1      -3.073  -1.106  -0.147  0.00  0.00     0.033 A 
ATOM      4  C4  UNL d   1      -3.334  -0.848  -1.489  0.00  0.00    -0.042 A 
ATOM      5  C5  UNL d   1      -2.363  -0.228  -2.267  0.00  0.00     0.033 A 
ATOM      6  C6  UNL d   1      -1.136   0.128  -1.701  0.00  0.00    -0.057 A 
ENDROOT
BRANCH   1   7
ATOM      7  N   UNL d   1       0.361   0.336   0.170  0.00  0.00    -0.732 N 
ATOM      8  C   UNL d   1       0.395   1.003   1.454  0.00  0.00     0.284 C 
ATOM      9  H3  UNL d   1       1.133  -0.309   0.017  0.00  0.00     0.395 HD
ENDBRANCH   1   7
TORSDOF 1
ENDMDL
