MODEL 1
REMARK minimizedAffinity -2.30513668
REMARK minimizedRMSD -1
REMARK  1 active torsions:
REMARK  status: ('A' for Active; 'I' for Inactive)
REMARK    1  A    between atoms: N_2  and  C1_3 
ROOT
ATOM      1  C1  UNL d   1       0.116   0.346  -0.664  0.00  0.00     0.143 A 
ATOM      2  C2  UNL d   1       1.374   0.060  -0.123  0.00  0.00    -0.057 A 
ATOM      3  C3  UNL d   1       1.518  -0.340   1.211  0.00  0.00     0.033 A 
ATOM      4  C4  UNL d   1       0.404  -0.434   2.039  0.00  0.00    -0.042 A 
ATOM      5  C5  UNL d   1      -0.854  -0.130   1.530  0.00  0.00     0.033 A 
ATOM      6  C6  UNL d   1      -0.991   0.263   0.195  0.00  0.00    -0.057 A 
ENDROOT
BRANCH   1   7
ATOM      7  N   UNL d   1      -0.082   0.844  -1.954  0.00  0.00    -0.732 N 
ATOM      8  C   UNL d   1      -0.893   2.022  -2.173  0.00  0.00     0.284 C 
ATOM      9  H3  UNL d   1       0.765   0.812  -2.517  0.00  0.00     0.395 HD
ENDBRANCH   1   7
TORSDOF 1
ENDMDL
