MODEL 1
REMARK minimizedAffinity 9.36459064
REMARK minimizedRMSD -1
REMARK  0 active torsions:
REMARK  status: ('A' for Active; 'I' for Inactive)
ROOT
ATOM      1  C2' OXE d   1      -3.521  -1.391  -2.089  0.00  0.00     0.078 C 
ATOM      2  C1' OXE d   1      -0.993  -0.407  -2.808  0.00  0.00     0.078 C 
ATOM      3  C1  OXE d   1      -2.186   0.080  -3.592  0.00  0.00    -0.078 A 
ATOM      4  C2  OXE d   1      -3.414  -0.442  -3.263  0.00  0.00    -0.078 A 
ATOM      5  C3  OXE d   1      -4.555   0.014  -3.918  0.00  0.00     0.003 A 
ATOM      6  C4  OXE d   1      -4.446   0.884  -5.009  0.00  0.00    -0.002 A 
ATOM      7  C5  OXE d   1      -3.200   1.398  -5.386  0.00  0.00    -0.002 A 
ATOM      8  C6  OXE d   1      -2.068   1.040  -4.662  0.00  0.00     0.003 A 
ENDROOT
TORSDOF 0
ENDMDL
