MODEL 1
REMARK minimizedAffinity 13.4280214
REMARK minimizedRMSD -1
REMARK  0 active torsions:
REMARK  status: ('A' for Active; 'I' for Inactive)
ROOT
ATOM      1  C2' OXE d   1       3.086  -0.675  -1.121  0.00  0.00     0.078 C 
ATOM      2  C1' OXE d   1       4.857   0.385  -3.025  0.00  0.00     0.078 C 
ATOM      3  C1  OXE d   1       4.980   0.870  -1.602  0.00  0.00    -0.078 A 
ATOM      4  C2  OXE d   1       4.080   0.381  -0.687  0.00  0.00    -0.078 A 
ATOM      5  C3  OXE d   1       4.184   0.754   0.650  0.00  0.00     0.003 A 
ATOM      6  C4  OXE d   1       5.099   1.738   1.042  0.00  0.00    -0.002 A 
ATOM      7  C5  OXE d   1       6.000   2.279   0.118  0.00  0.00    -0.002 A 
ATOM      8  C6  OXE d   1       5.982   1.825  -1.196  0.00  0.00     0.003 A 
ENDROOT
TORSDOF 0
ENDMDL
