MODEL 1
REMARK minimizedAffinity 4.9132576
REMARK minimizedRMSD -1
REMARK  0 active torsions:
REMARK  status: ('A' for Active; 'I' for Inactive)
ROOT
ATOM      1  C2' OXE d   1      -3.013   1.498  -5.975  0.00  0.00     0.078 C 
ATOM      2  C1' OXE d   1      -4.871  -0.325  -4.923  0.00  0.00     0.078 C 
ATOM      3  C1  OXE d   1      -4.975   1.116  -4.489  0.00  0.00    -0.078 A 
ATOM      4  C2  OXE d   1      -4.033   1.992  -4.972  0.00  0.00    -0.078 A 
ATOM      5  C3  OXE d   1      -4.115   3.342  -4.646  0.00  0.00     0.003 A 
ATOM      6  C4  OXE d   1      -5.055   3.789  -3.709  0.00  0.00    -0.002 A 
ATOM      7  C5  OXE d   1      -5.999   2.906  -3.174  0.00  0.00    -0.002 A 
ATOM      8  C6  OXE d   1      -6.000   1.578  -3.585  0.00  0.00     0.003 A 
ENDROOT
TORSDOF 0
ENDMDL
