MODEL 1
REMARK minimizedAffinity 9.8938818
REMARK minimizedRMSD -1
REMARK  0 active torsions:
REMARK  status: ('A' for Active; 'I' for Inactive)
ROOT
ATOM      1  C2' OXE d   1       2.667  -0.956  -0.677  0.00  0.00     0.078 C 
ATOM      2  C1' OXE d   1       2.309  -2.732   1.468  0.00  0.00     0.078 C 
ATOM      3  C1  OXE d   1       1.425  -2.903   0.258  0.00  0.00    -0.078 A 
ATOM      4  C2  OXE d   1       1.575  -2.000  -0.767  0.00  0.00    -0.078 A 
ATOM      5  C3  OXE d   1       0.822  -2.146  -1.929  0.00  0.00     0.003 A 
ATOM      6  C4  OXE d   1      -0.192  -3.108  -2.001  0.00  0.00    -0.002 A 
ATOM      7  C5  OXE d   1      -0.389  -4.012  -0.951  0.00  0.00    -0.002 A 
ATOM      8  C6  OXE d   1       0.438  -3.950   0.165  0.00  0.00     0.003 A 
ENDROOT
TORSDOF 0
ENDMDL
