MODEL 1
REMARK minimizedAffinity 4.21643209
REMARK minimizedRMSD -1
REMARK  0 active torsions:
REMARK  status: ('A' for Active; 'I' for Inactive)
ROOT
ATOM      1  C2' OXE d   1       3.284  -2.534  -2.718  0.00  0.00     0.078 C 
ATOM      2  C1' OXE d   1       1.471  -2.419  -0.579  0.00  0.00     0.078 C 
ATOM      3  C1  OXE d   1       2.425  -1.264  -0.755  0.00  0.00    -0.078 A 
ATOM      4  C2  OXE d   1       3.340  -1.350  -1.777  0.00  0.00    -0.078 A 
ATOM      5  C3  OXE d   1       4.207  -0.288  -2.017  0.00  0.00     0.003 A 
ATOM      6  C4  OXE d   1       4.258   0.798  -1.136  0.00  0.00    -0.002 A 
ATOM      7  C5  OXE d   1       3.362   0.887  -0.065  0.00  0.00    -0.002 A 
ATOM      8  C6  OXE d   1       2.412  -0.113   0.113  0.00  0.00     0.003 A 
ENDROOT
TORSDOF 0
ENDMDL
