MODEL 1
REMARK minimizedAffinity 6.69336987
REMARK minimizedRMSD -1
REMARK  0 active torsions:
REMARK  status: ('A' for Active; 'I' for Inactive)
ROOT
ATOM      1  C2' OXE d   1       5.994   3.142   1.112  0.00  0.00     0.078 C 
ATOM      2  C1' OXE d   1       5.595   3.745  -1.600  0.00  0.00     0.078 C 
ATOM      3  C1  OXE d   1       5.217   2.365  -1.123  0.00  0.00    -0.078 A 
ATOM      4  C2  OXE d   1       5.459   2.063   0.195  0.00  0.00    -0.078 A 
ATOM      5  C3  OXE d   1       5.079   0.823   0.700  0.00  0.00     0.003 A 
ATOM      6  C4  OXE d   1       4.594  -0.173  -0.157  0.00  0.00    -0.002 A 
ATOM      7  C5  OXE d   1       4.377   0.101  -1.512  0.00  0.00    -0.002 A 
ATOM      8  C6  OXE d   1       4.643   1.375  -2.001  0.00  0.00     0.003 A 
ENDROOT
TORSDOF 0
ENDMDL
