MODEL 1
REMARK minimizedAffinity 6.54807329
REMARK minimizedRMSD -1
REMARK  0 active torsions:
REMARK  status: ('A' for Active; 'I' for Inactive)
ROOT
ATOM      1  C2' OXE d   1      -0.204   0.985  -1.048  0.00  0.00     0.078 C 
ATOM      2  C1' OXE d   1      -0.594   2.263   1.420  0.00  0.00     0.078 C 
ATOM      3  C1  OXE d   1      -1.801   1.674   0.734  0.00  0.00    -0.078 A 
ATOM      4  C2  OXE d   1      -1.609   1.092  -0.495  0.00  0.00    -0.078 A 
ATOM      5  C3  OXE d   1      -2.679   0.485  -1.146  0.00  0.00     0.003 A 
ATOM      6  C4  OXE d   1      -3.977   0.597  -0.633  0.00  0.00    -0.002 A 
ATOM      7  C5  OXE d   1      -4.201   1.221   0.599  0.00  0.00    -0.002 A 
ATOM      8  C6  OXE d   1      -3.121   1.726   1.314  0.00  0.00     0.003 A 
ENDROOT
TORSDOF 0
ENDMDL
