MODEL 1
REMARK minimizedAffinity 5.58295965
REMARK minimizedRMSD -1
REMARK  0 active torsions:
REMARK  status: ('A' for Active; 'I' for Inactive)
ROOT
ATOM      1  C2' OXE d   1       3.790  -1.918  -3.601  0.00  0.00     0.078 C 
ATOM      2  C1' OXE d   1       4.351  -0.550  -1.215  0.00  0.00     0.078 C 
ATOM      3  C1  OXE d   1       3.383  -1.704  -1.153  0.00  0.00    -0.078 A 
ATOM      4  C2  OXE d   1       3.079  -2.339  -2.333  0.00  0.00    -0.078 A 
ATOM      5  C3  OXE d   1       2.234  -3.445  -2.323  0.00  0.00     0.003 A 
ATOM      6  C4  OXE d   1       1.572  -3.821  -1.148  0.00  0.00    -0.002 A 
ATOM      7  C5  OXE d   1       1.837  -3.163   0.058  0.00  0.00    -0.002 A 
ATOM      8  C6  OXE d   1       2.770  -2.132   0.081  0.00  0.00     0.003 A 
ENDROOT
TORSDOF 0
ENDMDL
