MODEL 1
REMARK minimizedAffinity 13.039444
REMARK minimizedRMSD -1
REMARK  1 active torsions:
REMARK  status: ('A' for Active; 'I' for Inactive)
REMARK    1  A    between atoms: C1_2  and  C2_3 
ROOT
ATOM      1  C2  UNL d   1       5.278   4.563  -1.931  0.00  0.00    -0.081 A 
ATOM      2  C3  UNL d   1       5.963   5.158  -2.998  0.00  0.00     0.006 A 
ATOM      3  C4  UNL d   1       5.574   4.908  -4.316  0.00  0.00     0.002 A 
ATOM      4  C5  UNL d   1       4.491   4.067  -4.589  0.00  0.00    -0.080 A 
ATOM      5  C6  UNL d   1       4.045   3.814  -5.999  0.00  0.00     0.076 C 
ATOM      6  C7  UNL d   1       3.818   3.458  -3.524  0.00  0.00     0.002 A 
ATOM      7  C8  UNL d   1       4.206   3.707  -2.206  0.00  0.00     0.006 A 
ENDROOT
BRANCH   1   8
ATOM      8  C1  UNL d   1       5.654   4.881  -0.506  0.00  0.00     0.054 C 
ATOM      9  C   UNL d   1       5.999   3.618   0.270  0.00  0.00     0.018 C 
ENDBRANCH   1   8
TORSDOF 1
ENDMDL
