MODEL 1
REMARK minimizedAffinity 13.104681
REMARK minimizedRMSD -1
REMARK  1 active torsions:
REMARK  status: ('A' for Active; 'I' for Inactive)
REMARK    1  A    between atoms: C1_2  and  C2_3 
ROOT
ATOM      1  C2  UNL d   1       3.559   1.789   0.865  0.00  0.00    -0.081 A 
ATOM      2  C3  UNL d   1       3.660   0.857  -0.175  0.00  0.00     0.006 A 
ATOM      3  C4  UNL d   1       2.643   0.746  -1.127  0.00  0.00     0.002 A 
ATOM      4  C5  UNL d   1       1.515   1.570  -1.060  0.00  0.00    -0.080 A 
ATOM      5  C6  UNL d   1       0.431   1.482  -2.093  0.00  0.00     0.076 C 
ATOM      6  C7  UNL d   1       1.406   2.489  -0.011  0.00  0.00     0.002 A 
ATOM      7  C8  UNL d   1       2.422   2.600   0.942  0.00  0.00     0.006 A 
ENDROOT
BRANCH   1   8
ATOM      8  C1  UNL d   1       4.683   1.956   1.856  0.00  0.00     0.054 C 
ATOM      9  C   UNL d   1       5.526   3.182   1.535  0.00  0.00     0.018 C 
ENDBRANCH   1   8
TORSDOF 1
ENDMDL
