MODEL 1
REMARK minimizedAffinity 16.4311581
REMARK minimizedRMSD -1
REMARK  1 active torsions:
REMARK  status: ('A' for Active; 'I' for Inactive)
REMARK    1  A    between atoms: C1_2  and  C2_3 
ROOT
ATOM      1  C2  UNL d   1       5.237   4.139  -1.942  0.00  0.00    -0.081 A 
ATOM      2  C3  UNL d   1       3.891   3.762  -1.868  0.00  0.00     0.006 A 
ATOM      3  C4  UNL d   1       3.202   3.363  -3.016  0.00  0.00     0.002 A 
ATOM      4  C5  UNL d   1       3.850   3.328  -4.256  0.00  0.00    -0.080 A 
ATOM      5  C6  UNL d   1       3.132   2.873  -5.491  0.00  0.00     0.076 C 
ATOM      6  C7  UNL d   1       5.191   3.722  -4.333  0.00  0.00     0.002 A 
ATOM      7  C8  UNL d   1       5.879   4.121  -3.185  0.00  0.00     0.006 A 
ENDROOT
BRANCH   1   8
ATOM      8  C1  UNL d   1       6.000   4.507  -0.695  0.00  0.00     0.054 C 
ATOM      9  C   UNL d   1       5.910   6.000  -0.412  0.00  0.00     0.018 C 
ENDBRANCH   1   8
TORSDOF 1
ENDMDL
