MODEL 1
REMARK minimizedAffinity 7.92338276
REMARK minimizedRMSD -1
REMARK  1 active torsions:
REMARK  status: ('A' for Active; 'I' for Inactive)
REMARK    1  A    between atoms: C1_2  and  C2_3 
ROOT
ATOM      1  C2  UNL d   1      -3.891  -0.378   0.920  0.00  0.00    -0.081 A 
ATOM      2  C3  UNL d   1      -2.779  -0.733   1.692  0.00  0.00     0.006 A 
ATOM      3  C4  UNL d   1      -2.935  -1.494   2.853  0.00  0.00     0.002 A 
ATOM      4  C5  UNL d   1      -4.206  -1.920   3.256  0.00  0.00    -0.080 A 
ATOM      5  C6  UNL d   1      -4.385  -2.763   4.484  0.00  0.00     0.076 C 
ATOM      6  C7  UNL d   1      -5.319  -1.551   2.495  0.00  0.00     0.002 A 
ATOM      7  C8  UNL d   1      -5.163  -0.789   1.334  0.00  0.00     0.006 A 
ENDROOT
BRANCH   1   8
ATOM      8  C1  UNL d   1      -3.719   0.387  -0.367  0.00  0.00     0.054 C 
ATOM      9  C   UNL d   1      -4.943   0.251  -1.260  0.00  0.00     0.018 C 
ENDBRANCH   1   8
TORSDOF 1
ENDMDL
