MODEL 1
REMARK minimizedAffinity 13.964303
REMARK minimizedRMSD -1
REMARK  1 active torsions:
REMARK  status: ('A' for Active; 'I' for Inactive)
REMARK    1  A    between atoms: C1_2  and  C2_3 
ROOT
ATOM      1  C2  UNL d   1      -1.948  -2.405   0.712  0.00  0.00    -0.081 A 
ATOM      2  C3  UNL d   1      -2.211  -1.709  -0.475  0.00  0.00     0.006 A 
ATOM      3  C4  UNL d   1      -2.188  -2.372  -1.704  0.00  0.00     0.002 A 
ATOM      4  C5  UNL d   1      -1.908  -3.741  -1.767  0.00  0.00    -0.080 A 
ATOM      5  C6  UNL d   1      -1.909  -4.471  -3.077  0.00  0.00     0.076 C 
ATOM      6  C7  UNL d   1      -1.628  -4.432  -0.583  0.00  0.00     0.002 A 
ATOM      7  C8  UNL d   1      -1.651  -3.770   0.646  0.00  0.00     0.006 A 
ENDROOT
BRANCH   1   8
ATOM      8  C1  UNL d   1      -2.037  -1.707   2.045  0.00  0.00     0.054 C 
ATOM      9  C   UNL d   1      -3.434  -1.820   2.637  0.00  0.00     0.018 C 
ENDBRANCH   1   8
TORSDOF 1
ENDMDL
