MODEL 1
REMARK minimizedAffinity 15.6117868
REMARK minimizedRMSD -1
REMARK  1 active torsions:
REMARK  status: ('A' for Active; 'I' for Inactive)
REMARK    1  A    between atoms: C1_2  and  C2_3 
ROOT
ATOM      1  C2  UNL d   1      -4.429   0.215   1.286  0.00  0.00    -0.081 A 
ATOM      2  C3  UNL d   1      -4.317   1.323   2.135  0.00  0.00     0.006 A 
ATOM      3  C4  UNL d   1      -3.294   1.389   3.083  0.00  0.00     0.002 A 
ATOM      4  C5  UNL d   1      -2.360   0.353   3.193  0.00  0.00    -0.080 A 
ATOM      5  C6  UNL d   1      -1.238   0.426   4.185  0.00  0.00     0.076 C 
ATOM      6  C7  UNL d   1      -2.481  -0.762   2.357  0.00  0.00     0.002 A 
ATOM      7  C8  UNL d   1      -3.505  -0.829   1.409  0.00  0.00     0.006 A 
ENDROOT
BRANCH   1   8
ATOM      8  C1  UNL d   1      -5.493   0.170   0.220  0.00  0.00     0.054 C 
ATOM      9  C   UNL d   1      -5.659   1.524  -0.454  0.00  0.00     0.018 C 
ENDBRANCH   1   8
TORSDOF 1
ENDMDL
