MODEL 1
REMARK minimizedAffinity -1.88617396
REMARK minimizedRMSD -1
REMARK  1 active torsions:
REMARK  status: ('A' for Active; 'I' for Inactive)
REMARK    1  A    between atoms: C1_2  and  C2_3 
ROOT
ATOM      1  C2  UNL d   1      -4.476   0.634   3.291  0.00  0.00    -0.081 A 
ATOM      2  C3  UNL d   1      -4.568  -0.208   2.176  0.00  0.00     0.006 A 
ATOM      3  C4  UNL d   1      -3.419  -0.767   1.613  0.00  0.00     0.002 A 
ATOM      4  C5  UNL d   1      -2.159  -0.500   2.159  0.00  0.00    -0.080 A 
ATOM      5  C6  UNL d   1      -0.919  -1.117   1.583  0.00  0.00     0.076 C 
ATOM      6  C7  UNL d   1      -2.064   0.355   3.263  0.00  0.00     0.002 A 
ATOM      7  C8  UNL d   1      -3.213   0.914   3.826  0.00  0.00     0.006 A 
ENDROOT
BRANCH   1   8
ATOM      8  C1  UNL d   1      -5.719   1.186   3.940  0.00  0.00     0.054 C 
ATOM      9  C   UNL d   1      -5.757   0.862   5.427  0.00  0.00     0.018 C 
ENDBRANCH   1   8
TORSDOF 1
ENDMDL
