MODEL 1
REMARK minimizedAffinity 15.0245953
REMARK minimizedRMSD -1
REMARK  1 active torsions:
REMARK  status: ('A' for Active; 'I' for Inactive)
REMARK    1  A    between atoms: C1_2  and  C2_3 
ROOT
ATOM      1  C2  UNL d   1       2.819   1.875   0.285  0.00  0.00    -0.081 A 
ATOM      2  C3  UNL d   1       2.523   2.941   1.142  0.00  0.00     0.006 A 
ATOM      3  C4  UNL d   1       3.549   3.651   1.770  0.00  0.00     0.002 A 
ATOM      4  C5  UNL d   1       4.888   3.312   1.545  0.00  0.00    -0.080 A 
ATOM      5  C6  UNL d   1       6.000   4.085   2.189  0.00  0.00     0.076 C 
ATOM      6  C7  UNL d   1       5.183   2.236   0.702  0.00  0.00     0.002 A 
ATOM      7  C8  UNL d   1       4.157   1.525   0.074  0.00  0.00     0.006 A 
ENDROOT
BRANCH   1   8
ATOM      8  C1  UNL d   1       1.717   1.149  -0.444  0.00  0.00     0.054 C 
ATOM      9  C   UNL d   1       1.555   1.672  -1.865  0.00  0.00     0.018 C 
ENDBRANCH   1   8
TORSDOF 1
ENDMDL
