MODEL 1
REMARK minimizedAffinity -3.61105227
REMARK minimizedRMSD -1
REMARK  1 active torsions:
REMARK  status: ('A' for Active; 'I' for Inactive)
REMARK    1  A    between atoms: C1_2  and  C2_3 
ROOT
ATOM      1  C2  UNL d   1       0.434  -0.798   1.357  0.00  0.00    -0.077 A 
ATOM      2  C3  UNL d   1      -0.722  -0.129   0.931  0.00  0.00     0.002 A 
ATOM      3  C4  UNL d   1      -0.864   0.254  -0.405  0.00  0.00     0.002 A 
ATOM      4  C5  UNL d   1       0.142  -0.032  -1.324  0.00  0.00    -0.004 A 
ATOM      5  C6  UNL d   1       1.296  -0.696  -0.910  0.00  0.00     0.002 A 
ATOM      6  C7  UNL d   1       1.441  -1.078   0.425  0.00  0.00     0.002 A 
ENDROOT
BRANCH   1   7
ATOM      7  C1  UNL d   1       0.568  -1.255   2.786  0.00  0.00     0.055 C 
ATOM      8  C   UNL d   1       2.024  -1.273   3.227  0.00  0.00     0.019 C 
ENDBRANCH   1   7
TORSDOF 1
ENDMDL
