MODEL 1
REMARK minimizedAffinity -5.22822046
REMARK minimizedRMSD -1
REMARK  1 active torsions:
REMARK  status: ('A' for Active; 'I' for Inactive)
REMARK    1  A    between atoms: C1_2  and  C2_3 
ROOT
ATOM      1  C2  UNL d   1       0.819  -0.426   1.364  0.00  0.00    -0.077 A 
ATOM      2  C3  UNL d   1       0.223  -0.100   0.137  0.00  0.00     0.002 A 
ATOM      3  C4  UNL d   1      -1.140  -0.320  -0.067  0.00  0.00     0.002 A 
ATOM      4  C5  UNL d   1      -1.920  -0.862   0.953  0.00  0.00    -0.004 A 
ATOM      5  C6  UNL d   1      -1.338  -1.191   2.176  0.00  0.00     0.002 A 
ATOM      6  C7  UNL d   1       0.026  -0.973   2.381  0.00  0.00     0.002 A 
ENDROOT
BRANCH   1   7
ATOM      7  C1  UNL d   1       2.279  -0.144   1.603  0.00  0.00     0.055 C 
ATOM      8  C   UNL d   1       2.479   1.202   2.283  0.00  0.00     0.019 C 
ENDBRANCH   1   7
TORSDOF 1
ENDMDL
