MODEL 1
REMARK minimizedAffinity -2.7400074
REMARK minimizedRMSD -1
REMARK  1 active torsions:
REMARK  status: ('A' for Active; 'I' for Inactive)
REMARK    1  A    between atoms: C1_2  and  C2_3 
ROOT
ATOM      1  C2  UNL d   1      -0.663   0.879  -1.387  0.00  0.00    -0.077 A 
ATOM      2  C3  UNL d   1      -1.243   0.958  -0.112  0.00  0.00     0.002 A 
ATOM      3  C4  UNL d   1      -0.523   0.560   1.016  0.00  0.00     0.002 A 
ATOM      4  C5  UNL d   1       0.780   0.086   0.883  0.00  0.00    -0.004 A 
ATOM      5  C6  UNL d   1       1.364   0.002  -0.380  0.00  0.00     0.002 A 
ATOM      6  C7  UNL d   1       0.646   0.397  -1.510  0.00  0.00     0.002 A 
ENDROOT
BRANCH   1   7
ATOM      7  C1  UNL d   1      -1.420   1.353  -2.600  0.00  0.00     0.055 C 
ATOM      8  C   UNL d   1      -1.309   2.861  -2.767  0.00  0.00     0.019 C 
ENDBRANCH   1   7
TORSDOF 1
ENDMDL
