MODEL 1
REMARK minimizedAffinity -4.90056372
REMARK minimizedRMSD -1
REMARK  1 active torsions:
REMARK  status: ('A' for Active; 'I' for Inactive)
REMARK    1  A    between atoms: C1_2  and  C2_3 
ROOT
ATOM      1  C2  UNL d   1      -0.147   0.246  -0.159  0.00  0.00    -0.077 A 
ATOM      2  C3  UNL d   1       1.034  -0.385  -0.576  0.00  0.00     0.002 A 
ATOM      3  C4  UNL d   1       1.871  -1.004   0.355  0.00  0.00     0.002 A 
ATOM      4  C5  UNL d   1       1.533  -1.002   1.707  0.00  0.00    -0.004 A 
ATOM      5  C6  UNL d   1       0.362  -0.376   2.132  0.00  0.00     0.002 A 
ATOM      6  C7  UNL d   1      -0.474   0.244   1.203  0.00  0.00     0.002 A 
ENDROOT
BRANCH   1   7
ATOM      7  C1  UNL d   1      -1.075   0.871  -1.167  0.00  0.00     0.055 C 
ATOM      8  C   UNL d   1      -0.394   2.008  -1.916  0.00  0.00     0.019 C 
ENDBRANCH   1   7
TORSDOF 1
ENDMDL
