MODEL 1
REMARK minimizedAffinity -4.7413702
REMARK minimizedRMSD -1
REMARK  1 active torsions:
REMARK  status: ('A' for Active; 'I' for Inactive)
REMARK    1  A    between atoms: C1_2  and  C2_3 
ROOT
ATOM      1  C2  UNL d   1      -0.355  -0.303  -1.159  0.00  0.00    -0.081 A 
ATOM      2  C3  UNL d   1      -1.088  -0.019  -0.001  0.00  0.00     0.006 A 
ATOM      3  C4  UNL d   1      -0.564   0.829   0.978  0.00  0.00     0.002 A 
ATOM      4  C5  UNL d   1       0.696   1.412   0.812  0.00  0.00    -0.080 A 
ATOM      5  C6  UNL d   1       1.257   2.347   1.842  0.00  0.00     0.076 C 
ATOM      6  C7  UNL d   1       1.436   1.114  -0.337  0.00  0.00     0.002 A 
ATOM      7  C8  UNL d   1       0.913   0.266  -1.316  0.00  0.00     0.006 A 
ENDROOT
BRANCH   1   8
ATOM      8  C1  UNL d   1      -0.944  -1.165  -2.247  0.00  0.00     0.054 C 
ATOM      9  C   UNL d   1      -2.372  -1.574  -1.916  0.00  0.00     0.018 C 
ENDBRANCH   1   8
TORSDOF 1
ENDMDL
