MODEL 1
REMARK minimizedAffinity 0.746169746
REMARK minimizedRMSD -1
REMARK  1 active torsions:
REMARK  status: ('A' for Active; 'I' for Inactive)
REMARK    1  A    between atoms: C1_2  and  C2_3 
ROOT
ATOM      1  C2  UNL d   1      -4.781  -3.695  -0.341  0.00  0.00    -0.081 A 
ATOM      2  C3  UNL d   1      -5.505  -3.300  -1.472  0.00  0.00     0.006 A 
ATOM      3  C4  UNL d   1      -4.866  -2.652  -2.532  0.00  0.00     0.002 A 
ATOM      4  C5  UNL d   1      -3.492  -2.396  -2.481  0.00  0.00    -0.080 A 
ATOM      5  C6  UNL d   1      -2.788  -1.728  -3.625  0.00  0.00     0.076 C 
ATOM      6  C7  UNL d   1      -2.771  -2.775  -1.344  0.00  0.00     0.002 A 
ATOM      7  C8  UNL d   1      -3.410  -3.422  -0.284  0.00  0.00     0.006 A 
ENDROOT
BRANCH   1   8
ATOM      8  C1  UNL d   1      -5.455  -4.451   0.776  0.00  0.00     0.054 C 
ATOM      9  C   UNL d   1      -5.734  -5.893   0.377  0.00  0.00     0.018 C 
ENDBRANCH   1   8
TORSDOF 1
ENDMDL
