MODEL 1
REMARK minimizedAffinity -3.58526468
REMARK minimizedRMSD -1
REMARK  1 active torsions:
REMARK  status: ('A' for Active; 'I' for Inactive)
REMARK    1  A    between atoms: C1_2  and  C2_3 
ROOT
ATOM      1  C2  UNL d   1      -0.204  -0.693  -0.025  0.00  0.00    -0.081 A 
ATOM      2  C3  UNL d   1      -0.811  -0.022   1.044  0.00  0.00     0.006 A 
ATOM      3  C4  UNL d   1      -0.202   1.099   1.613  0.00  0.00     0.002 A 
ATOM      4  C5  UNL d   1       1.018   1.573   1.118  0.00  0.00    -0.080 A 
ATOM      5  C6  UNL d   1       1.666   2.794   1.700  0.00  0.00     0.076 C 
ATOM      6  C7  UNL d   1       1.632   0.892   0.062  0.00  0.00     0.002 A 
ATOM      7  C8  UNL d   1       1.025  -0.230  -0.507  0.00  0.00     0.006 A 
ENDROOT
BRANCH   1   8
ATOM      8  C1  UNL d   1      -0.889  -1.864  -0.683  0.00  0.00     0.054 C 
ATOM      9  C   UNL d   1      -1.474  -1.475  -2.033  0.00  0.00     0.018 C 
ENDBRANCH   1   8
TORSDOF 1
ENDMDL
