MODEL 1
REMARK minimizedAffinity -2.85494471
REMARK minimizedRMSD -1
REMARK  1 active torsions:
REMARK  status: ('A' for Active; 'I' for Inactive)
REMARK    1  A    between atoms: C1_2  and  C2_3 
ROOT
ATOM      1  C2  UNL d   1      -0.652  -0.729  -0.701  0.00  0.00    -0.081 A 
ATOM      2  C3  UNL d   1       0.733  -0.525  -0.657  0.00  0.00     0.006 A 
ATOM      3  C4  UNL d   1       1.282   0.419   0.214  0.00  0.00     0.002 A 
ATOM      4  C5  UNL d   1       0.457   1.167   1.061  0.00  0.00    -0.080 A 
ATOM      5  C6  UNL d   1       1.036   2.161   2.023  0.00  0.00     0.076 C 
ATOM      6  C7  UNL d   1      -0.927   0.975   1.005  0.00  0.00     0.002 A 
ATOM      7  C8  UNL d   1      -1.477   0.032   0.133  0.00  0.00     0.006 A 
ENDROOT
BRANCH   1   8
ATOM      8  C1  UNL d   1      -1.241  -1.792  -1.594  0.00  0.00     0.054 C 
ATOM      9  C   UNL d   1      -2.023  -1.175  -2.745  0.00  0.00     0.018 C 
ENDBRANCH   1   8
TORSDOF 1
ENDMDL
