MODEL 1
REMARK minimizedAffinity -4.12557173
REMARK minimizedRMSD -1
REMARK  1 active torsions:
REMARK  status: ('A' for Active; 'I' for Inactive)
REMARK    1  A    between atoms: C1_2  and  C2_3 
ROOT
ATOM      1  C2  UNL d   1       0.279  -0.599  -0.347  0.00  0.00    -0.081 A 
ATOM      2  C3  UNL d   1      -0.395   0.025   0.709  0.00  0.00     0.006 A 
ATOM      3  C4  UNL d   1       0.114   1.192   1.284  0.00  0.00     0.002 A 
ATOM      4  C5  UNL d   1       1.301   1.759   0.807  0.00  0.00    -0.080 A 
ATOM      5  C6  UNL d   1       1.842   3.028   1.395  0.00  0.00     0.076 C 
ATOM      6  C7  UNL d   1       1.984   1.126  -0.237  0.00  0.00     0.002 A 
ATOM      7  C8  UNL d   1       1.476  -0.041  -0.812  0.00  0.00     0.006 A 
ENDROOT
BRANCH   1   8
ATOM      8  C1  UNL d   1      -0.301  -1.821  -1.012  0.00  0.00     0.054 C 
ATOM      9  C   UNL d   1      -1.245  -1.440  -2.143  0.00  0.00     0.018 C 
ENDBRANCH   1   8
TORSDOF 1
ENDMDL
