MODEL 1
REMARK minimizedAffinity -3.25094223
REMARK minimizedRMSD -1
REMARK  1 active torsions:
REMARK  status: ('A' for Active; 'I' for Inactive)
REMARK    1  A    between atoms: C1_2  and  C2_3 
ROOT
ATOM      1  C2  UNL d   1      -0.370  -0.545  -0.251  0.00  0.00    -0.081 A 
ATOM      2  C3  UNL d   1      -1.100   0.031   0.796  0.00  0.00     0.006 A 
ATOM      3  C4  UNL d   1      -0.742   1.282   1.305  0.00  0.00     0.002 A 
ATOM      4  C5  UNL d   1       0.346   1.980   0.771  0.00  0.00    -0.080 A 
ATOM      5  C6  UNL d   1       0.723   3.337   1.287  0.00  0.00     0.076 C 
ATOM      6  C7  UNL d   1       1.087   1.397  -0.263  0.00  0.00     0.002 A 
ATOM      7  C8  UNL d   1       0.729   0.146  -0.772  0.00  0.00     0.006 A 
ENDROOT
BRANCH   1   8
ATOM      8  C1  UNL d   1      -0.793  -1.864  -0.845  0.00  0.00     0.054 C 
ATOM      9  C   UNL d   1      -1.181  -1.713  -2.309  0.00  0.00     0.018 C 
ENDBRANCH   1   8
TORSDOF 1
ENDMDL
