MODEL 1
REMARK minimizedAffinity -1.41445792
REMARK minimizedRMSD -1
REMARK  1 active torsions:
REMARK  status: ('A' for Active; 'I' for Inactive)
REMARK    1  A    between atoms: C1_2  and  C2_3 
ROOT
ATOM      1  C2  UNL d   1       0.989  -0.350  -0.519  0.00  0.00    -0.081 A 
ATOM      2  C3  UNL d   1       1.008   0.779   0.308  0.00  0.00     0.006 A 
ATOM      3  C4  UNL d   1      -0.045   1.029   1.191  0.00  0.00     0.002 A 
ATOM      4  C5  UNL d   1      -1.131   0.150   1.267  0.00  0.00    -0.080 A 
ATOM      5  C6  UNL d   1      -2.254   0.390   2.232  0.00  0.00     0.076 C 
ATOM      6  C7  UNL d   1      -1.159  -0.969   0.428  0.00  0.00     0.002 A 
ATOM      7  C8  UNL d   1      -0.106  -1.219  -0.456  0.00  0.00     0.006 A 
ENDROOT
BRANCH   1   8
ATOM      8  C1  UNL d   1       2.154  -0.656  -1.426  0.00  0.00     0.054 C 
ATOM      9  C   UNL d   1       3.369   0.189  -1.070  0.00  0.00     0.018 C 
ENDBRANCH   1   8
TORSDOF 1
ENDMDL
