MODEL 1
REMARK minimizedAffinity -4.81147766
REMARK minimizedRMSD -1
REMARK  1 active torsions:
REMARK  status: ('A' for Active; 'I' for Inactive)
REMARK    1  A    between atoms: C1_2  and  C2_3 
ROOT
ATOM      1  C2  UNL d   1      -0.162  -0.473   0.199  0.00  0.00    -0.081 A 
ATOM      2  C3  UNL d   1      -0.598   0.340   1.252  0.00  0.00     0.006 A 
ATOM      3  C4  UNL d   1       0.110   1.494   1.595  0.00  0.00     0.002 A 
ATOM      4  C5  UNL d   1       1.261   1.858   0.887  0.00  0.00    -0.080 A 
ATOM      5  C6  UNL d   1       2.013   3.110   1.226  0.00  0.00     0.076 C 
ATOM      6  C7  UNL d   1       1.706   1.036  -0.154  0.00  0.00     0.002 A 
ATOM      7  C8  UNL d   1       0.998  -0.118  -0.497  0.00  0.00     0.006 A 
ENDROOT
BRANCH   1   8
ATOM      8  C1  UNL d   1      -0.960  -1.683  -0.216  0.00  0.00     0.054 C 
ATOM      9  C   UNL d   1      -1.882  -1.364  -1.384  0.00  0.00     0.018 C 
ENDBRANCH   1   8
TORSDOF 1
ENDMDL
