MODEL 1
REMARK minimizedAffinity -3.76754427
REMARK minimizedRMSD -1
REMARK  1 active torsions:
REMARK  status: ('A' for Active; 'I' for Inactive)
REMARK    1  A    between atoms: C1_2  and  C2_3 
ROOT
ATOM      1  C2  UNL d   1      -3.898  -2.785  -1.535  0.00  0.00    -0.081 A 
ATOM      2  C3  UNL d   1      -2.938  -2.695  -0.519  0.00  0.00     0.006 A 
ATOM      3  C4  UNL d   1      -1.707  -2.081  -0.760  0.00  0.00     0.002 A 
ATOM      4  C5  UNL d   1      -1.417  -1.540  -2.017  0.00  0.00    -0.080 A 
ATOM      5  C6  UNL d   1      -0.111  -0.852  -2.280  0.00  0.00     0.076 C 
ATOM      6  C7  UNL d   1      -2.369  -1.645  -3.038  0.00  0.00     0.002 A 
ATOM      7  C8  UNL d   1      -3.600  -2.259  -2.798  0.00  0.00     0.006 A 
ENDROOT
BRANCH   1   8
ATOM      8  C1  UNL d   1      -5.251  -3.388  -1.261  0.00  0.00     0.054 C 
ATOM      9  C   UNL d   1      -5.186  -4.399  -0.124  0.00  0.00     0.018 C 
ENDBRANCH   1   8
TORSDOF 1
ENDMDL
