MODEL 1
REMARK minimizedAffinity -3.32443142
REMARK minimizedRMSD -1
REMARK  1 active torsions:
REMARK  status: ('A' for Active; 'I' for Inactive)
REMARK    1  A    between atoms: C1_2  and  C2_3 
ROOT
ATOM      1  C2  UNL d   1      -0.656  -0.584  -0.310  0.00  0.00    -0.081 A 
ATOM      2  C3  UNL d   1      -1.190   0.006   0.842  0.00  0.00     0.006 A 
ATOM      3  C4  UNL d   1      -0.629   1.173   1.365  0.00  0.00     0.002 A 
ATOM      4  C5  UNL d   1       0.469   1.774   0.740  0.00  0.00    -0.080 A 
ATOM      5  C6  UNL d   1       1.062   3.044   1.274  0.00  0.00     0.076 C 
ATOM      6  C7  UNL d   1       1.013   1.175  -0.401  0.00  0.00     0.002 A 
ATOM      7  C8  UNL d   1       0.453   0.007  -0.923  0.00  0.00     0.006 A 
ENDROOT
BRANCH   1   8
ATOM      8  C1  UNL d   1      -1.299  -1.807  -0.913  0.00  0.00     0.054 C 
ATOM      9  C   UNL d   1      -2.059  -1.462  -2.186  0.00  0.00     0.018 C 
ENDBRANCH   1   8
TORSDOF 1
ENDMDL
