MODEL 1
REMARK minimizedAffinity -4.11862564
REMARK minimizedRMSD -1
REMARK  1 active torsions:
REMARK  status: ('A' for Active; 'I' for Inactive)
REMARK    1  A    between atoms: C1_2  and  C2_3 
ROOT
ATOM      1  C2  UNL d   1      -0.100  -0.241  -0.072  0.00  0.00    -0.081 A 
ATOM      2  C3  UNL d   1      -0.728   0.671   0.785  0.00  0.00     0.006 A 
ATOM      3  C4  UNL d   1      -0.037   1.789   1.258  0.00  0.00     0.002 A 
ATOM      4  C5  UNL d   1       1.289   2.018   0.876  0.00  0.00    -0.080 A 
ATOM      5  C6  UNL d   1       2.033   3.230   1.352  0.00  0.00     0.076 C 
ATOM      6  C7  UNL d   1       1.922   1.098   0.033  0.00  0.00     0.002 A 
ATOM      7  C8  UNL d   1       1.232  -0.021  -0.440  0.00  0.00     0.006 A 
ENDROOT
BRANCH   1   8
ATOM      8  C1  UNL d   1      -0.863  -1.413  -0.636  0.00  0.00     0.054 C 
ATOM      9  C   UNL d   1      -1.321  -1.141  -2.062  0.00  0.00     0.018 C 
ENDBRANCH   1   8
TORSDOF 1
ENDMDL
