MODEL 1
REMARK minimizedAffinity -4.29404545
REMARK minimizedRMSD -1
REMARK  1 active torsions:
REMARK  status: ('A' for Active; 'I' for Inactive)
REMARK    1  A    between atoms: C1_2  and  C2_3 
ROOT
ATOM      1  C2  UNL d   1      -1.242  -1.061  -1.080  0.00  0.00    -0.081 A 
ATOM      2  C3  UNL d   1      -2.062  -0.087  -0.498  0.00  0.00     0.006 A 
ATOM      3  C4  UNL d   1      -1.610   0.662   0.590  0.00  0.00     0.002 A 
ATOM      4  C5  UNL d   1      -0.328   0.455   1.110  0.00  0.00    -0.080 A 
ATOM      5  C6  UNL d   1       0.182   1.273   2.260  0.00  0.00     0.076 C 
ATOM      6  C7  UNL d   1       0.486  -0.530   0.540  0.00  0.00     0.002 A 
ATOM      7  C8  UNL d   1       0.034  -1.280  -0.548  0.00  0.00     0.006 A 
ENDROOT
BRANCH   1   8
ATOM      8  C1  UNL d   1      -1.702  -1.826  -2.295  0.00  0.00     0.054 C 
ATOM      9  C   UNL d   1      -3.217  -1.783  -2.434  0.00  0.00     0.018 C 
ENDBRANCH   1   8
TORSDOF 1
ENDMDL
