MODEL 1
REMARK minimizedAffinity -1.46017599
REMARK minimizedRMSD -1
REMARK  1 active torsions:
REMARK  status: ('A' for Active; 'I' for Inactive)
REMARK    1  A    between atoms: C1_2  and  C2_3 
ROOT
ATOM      1  C2  UNL d   1       1.427   0.761   0.851  0.00  0.00    -0.081 A 
ATOM      2  C3  UNL d   1       0.123   1.157   1.172  0.00  0.00     0.006 A 
ATOM      3  C4  UNL d   1      -0.975   0.455   0.667  0.00  0.00     0.002 A 
ATOM      4  C5  UNL d   1      -0.787  -0.659  -0.158  0.00  0.00    -0.080 A 
ATOM      5  C6  UNL d   1      -1.955  -1.439  -0.682  0.00  0.00     0.076 C 
ATOM      6  C7  UNL d   1       0.516  -1.044  -0.493  0.00  0.00     0.002 A 
ATOM      7  C8  UNL d   1       1.614  -0.342   0.011  0.00  0.00     0.006 A 
ENDROOT
BRANCH   1   8
ATOM      8  C1  UNL d   1       2.613   1.476   1.446  0.00  0.00     0.054 C 
ATOM      9  C   UNL d   1       3.914   1.018   0.803  0.00  0.00     0.018 C 
ENDBRANCH   1   8
TORSDOF 1
ENDMDL
