MODEL 1
REMARK minimizedAffinity -3.74881554
REMARK minimizedRMSD -1
REMARK  1 active torsions:
REMARK  status: ('A' for Active; 'I' for Inactive)
REMARK    1  A    between atoms: C1_2  and  C2_3 
ROOT
ATOM      1  C2  UNL d   1      -0.179  -0.191   0.378  0.00  0.00    -0.081 A 
ATOM      2  C3  UNL d   1      -0.085   0.747   1.414  0.00  0.00     0.006 A 
ATOM      3  C4  UNL d   1       1.162   1.203   1.846  0.00  0.00     0.002 A 
ATOM      4  C5  UNL d   1       2.336   0.735   1.245  0.00  0.00    -0.080 A 
ATOM      5  C6  UNL d   1       3.680   1.239   1.679  0.00  0.00     0.076 C 
ATOM      6  C7  UNL d   1       2.243  -0.215   0.222  0.00  0.00     0.002 A 
ATOM      7  C8  UNL d   1       0.996  -0.671  -0.210  0.00  0.00     0.006 A 
ENDROOT
BRANCH   1   8
ATOM      8  C1  UNL d   1      -1.525  -0.635  -0.134  0.00  0.00     0.054 C 
ATOM      9  C   UNL d   1      -1.443  -1.091  -1.584  0.00  0.00     0.018 C 
ENDBRANCH   1   8
TORSDOF 1
ENDMDL
