MODEL 1
REMARK minimizedAffinity -4.96491575
REMARK minimizedRMSD -1
REMARK  1 active torsions:
REMARK  status: ('A' for Active; 'I' for Inactive)
REMARK    1  A    between atoms: C1_2  and  C2_3 
ROOT
ATOM      1  C2  UNL d   1      -0.680  -1.095  -0.678  0.00  0.00    -0.081 A 
ATOM      2  C3  UNL d   1      -1.291  -0.193   0.201  0.00  0.00     0.006 A 
ATOM      3  C4  UNL d   1      -0.517   0.648   1.003  0.00  0.00     0.002 A 
ATOM      4  C5  UNL d   1       0.880   0.608   0.934  0.00  0.00    -0.080 A 
ATOM      5  C6  UNL d   1       1.722   1.527   1.768  0.00  0.00     0.076 C 
ATOM      6  C7  UNL d   1       1.491  -0.306   0.069  0.00  0.00     0.002 A 
ATOM      7  C8  UNL d   1       0.718  -1.148  -0.733  0.00  0.00     0.006 A 
ENDROOT
BRANCH   1   8
ATOM      8  C1  UNL d   1      -1.512  -1.958  -1.592  0.00  0.00     0.054 C 
ATOM      9  C   UNL d   1      -1.872  -1.221  -2.874  0.00  0.00     0.018 C 
ENDBRANCH   1   8
TORSDOF 1
ENDMDL
