MODEL 1
REMARK minimizedAffinity -5.26116943
REMARK minimizedRMSD -1
REMARK  1 active torsions:
REMARK  status: ('A' for Active; 'I' for Inactive)
REMARK    1  A    between atoms: C1_2  and  C2_3 
ROOT
ATOM      1  C2  UNL d   1       0.662   1.083   0.708  0.00  0.00    -0.081 A 
ATOM      2  C3  UNL d   1       1.564   1.329  -0.334  0.00  0.00     0.006 A 
ATOM      3  C4  UNL d   1       1.498   0.589  -1.518  0.00  0.00     0.002 A 
ATOM      4  C5  UNL d   1       0.524  -0.402  -1.682  0.00  0.00    -0.080 A 
ATOM      5  C6  UNL d   1       0.423  -1.182  -2.959  0.00  0.00     0.076 C 
ATOM      6  C7  UNL d   1      -0.366  -0.659  -0.634  0.00  0.00     0.002 A 
ATOM      7  C8  UNL d   1      -0.300   0.079   0.549  0.00  0.00     0.006 A 
ENDROOT
BRANCH   1   8
ATOM      8  C1  UNL d   1       0.689   1.922   1.959  0.00  0.00     0.054 C 
ATOM      9  C   UNL d   1       1.389   3.252   1.719  0.00  0.00     0.018 C 
ENDBRANCH   1   8
TORSDOF 1
ENDMDL
