MODEL 1
REMARK minimizedAffinity -1.51238
REMARK minimizedRMSD -1
REMARK  1 active torsions:
REMARK  status: ('A' for Active; 'I' for Inactive)
REMARK    1  A    between atoms: N_2  and  C1_3 
ROOT
ATOM      1  C1  UNL d   1      -0.377  -0.174   0.037  0.00  0.00     0.143 A 
ATOM      2  C2  UNL d   1      -1.541  -0.118   0.810  0.00  0.00    -0.057 A 
ATOM      3  C3  UNL d   1      -1.541  -0.518   2.152  0.00  0.00     0.033 A 
ATOM      4  C4  UNL d   1      -0.380  -1.011   2.737  0.00  0.00    -0.042 A 
ATOM      5  C5  UNL d   1       0.783  -1.099   1.980  0.00  0.00     0.033 A 
ATOM      6  C6  UNL d   1       0.779  -0.691   0.643  0.00  0.00    -0.057 A 
ENDROOT
BRANCH   1   7
ATOM      7  N   UNL d   1      -0.336   0.117  -1.329  0.00  0.00    -0.732 N 
ATOM      8  C   UNL d   1      -1.002   1.290  -1.854  0.00  0.00     0.284 C 
ATOM      9  H3  UNL d   1       0.580  -0.058  -1.736  0.00  0.00     0.395 HD
ENDBRANCH   1   7
TORSDOF 1
ENDMDL
