MODEL 1
REMARK minimizedAffinity -2.09449363
REMARK minimizedRMSD -1
REMARK  1 active torsions:
REMARK  status: ('A' for Active; 'I' for Inactive)
REMARK    1  A    between atoms: N_2  and  C1_3 
ROOT
ATOM      1  C1  UNL d   1      -0.680   1.097  -1.374  0.00  0.00     0.143 A 
ATOM      2  C2  UNL d   1      -1.937   1.697  -1.508  0.00  0.00    -0.057 A 
ATOM      3  C3  UNL d   1      -2.103   2.877  -2.244  0.00  0.00     0.033 A 
ATOM      4  C4  UNL d   1      -1.007   3.494  -2.837  0.00  0.00    -0.042 A 
ATOM      5  C5  UNL d   1       0.255   2.929  -2.696  0.00  0.00     0.033 A 
ATOM      6  C6  UNL d   1       0.414   1.747  -1.965  0.00  0.00    -0.057 A 
ENDROOT
BRANCH   1   7
ATOM      7  N   UNL d   1      -0.434  -0.021  -0.574  0.00  0.00    -0.732 N 
ATOM      8  C   UNL d   1      -0.732   0.006   0.842  0.00  0.00     0.284 C 
ATOM      9  H3  UNL d   1      -0.685  -0.892  -1.035  0.00  0.00     0.395 HD
ENDBRANCH   1   7
TORSDOF 1
ENDMDL
