MODEL 1
REMARK minimizedAffinity -2.40728426
REMARK minimizedRMSD -1
REMARK  1 active torsions:
REMARK  status: ('A' for Active; 'I' for Inactive)
REMARK    1  A    between atoms: N_2  and  C1_3 
ROOT
ATOM      1  C1  UNL d   1      -0.667   1.639  -1.176  0.00  0.00     0.143 A 
ATOM      2  C2  UNL d   1      -0.748   2.176   0.114  0.00  0.00    -0.057 A 
ATOM      3  C3  UNL d   1      -0.806   1.349   1.242  0.00  0.00     0.033 A 
ATOM      4  C4  UNL d   1      -0.812  -0.034   1.099  0.00  0.00    -0.042 A 
ATOM      5  C5  UNL d   1      -0.757  -0.590  -0.174  0.00  0.00     0.033 A 
ATOM      6  C6  UNL d   1      -0.693   0.240  -1.297  0.00  0.00    -0.057 A 
ENDROOT
BRANCH   1   7
ATOM      7  N   UNL d   1      -0.706   2.406  -2.342  0.00  0.00    -0.732 N 
ATOM      8  C   UNL d   1       0.096   3.605  -2.463  0.00  0.00     0.284 C 
ATOM      9  H3  UNL d   1      -0.728   1.834  -3.183  0.00  0.00     0.395 HD
ENDBRANCH   1   7
TORSDOF 1
ENDMDL
