MODEL 1
REMARK minimizedAffinity -3.50740004
REMARK minimizedRMSD -1
REMARK  1 active torsions:
REMARK  status: ('A' for Active; 'I' for Inactive)
REMARK    1  A    between atoms: N_2  and  C1_3 
ROOT
ATOM      1  C1  UNL d   1      -0.548   1.049  -1.410  0.00  0.00     0.143 A 
ATOM      2  C2  UNL d   1      -1.218   2.214  -1.020  0.00  0.00    -0.057 A 
ATOM      3  C3  UNL d   1      -1.035   3.421  -1.707  0.00  0.00     0.033 A 
ATOM      4  C4  UNL d   1      -0.155   3.490  -2.781  0.00  0.00    -0.042 A 
ATOM      5  C5  UNL d   1       0.541   2.351  -3.170  0.00  0.00     0.033 A 
ATOM      6  C6  UNL d   1       0.349   1.148  -2.485  0.00  0.00    -0.057 A 
ENDROOT
BRANCH   1   7
ATOM      7  N   UNL d   1      -0.612  -0.157  -0.707  0.00  0.00    -0.732 N 
ATOM      8  C   UNL d   1      -0.380  -0.191   0.721  0.00  0.00     0.284 C 
ATOM      9  H3  UNL d   1      -1.380  -0.747  -1.018  0.00  0.00     0.395 HD
ENDBRANCH   1   7
TORSDOF 1
ENDMDL
