MODEL 1
REMARK minimizedAffinity -0.987997353
REMARK minimizedRMSD -1
REMARK  1 active torsions:
REMARK  status: ('A' for Active; 'I' for Inactive)
REMARK    1  A    between atoms: N_2  and  C1_3 
ROOT
ATOM      1  C1  UNL d   1       1.109  -1.226   0.317  0.00  0.00     0.143 A 
ATOM      2  C2  UNL d   1       0.172  -0.436  -0.358  0.00  0.00    -0.057 A 
ATOM      3  C3  UNL d   1      -0.923   0.123   0.313  0.00  0.00     0.033 A 
ATOM      4  C4  UNL d   1      -1.116  -0.124   1.668  0.00  0.00    -0.042 A 
ATOM      5  C5  UNL d   1      -0.211  -0.926   2.353  0.00  0.00     0.033 A 
ATOM      6  C6  UNL d   1       0.884  -1.476   1.679  0.00  0.00    -0.057 A 
ENDROOT
BRANCH   1   7
ATOM      7  N   UNL d   1       2.164  -1.891  -0.314  0.00  0.00    -0.732 N 
ATOM      8  C   UNL d   1       2.910  -2.916   0.382  0.00  0.00     0.284 C 
ATOM      9  H3  UNL d   1       1.957  -2.114  -1.285  0.00  0.00     0.395 HD
ENDBRANCH   1   7
TORSDOF 1
ENDMDL
