MODEL 1
REMARK minimizedAffinity -2.7262969
REMARK minimizedRMSD -1
REMARK  0 active torsions:
REMARK  status: ('A' for Active; 'I' for Inactive)
ROOT
ATOM      1  C4' PXY d   1      -1.148   2.812  -1.503  0.00  0.00     0.077 C 
ATOM      2  C1' PXY d   1      -0.552  -1.198   2.617  0.00  0.00     0.077 C 
ATOM      3  C1  PXY d   1      -0.696  -0.149   1.532  0.00  0.00    -0.082 A 
ATOM      4  C2  PXY d   1      -1.516   0.873   1.715  0.00  0.00     0.003 A 
ATOM      5  C3  PXY d   1      -1.683   1.813   0.731  0.00  0.00     0.003 A 
ATOM      6  C4  PXY d   1      -0.963   1.735  -0.431  0.00  0.00    -0.082 A 
ATOM      7  C5  PXY d   1      -0.117   0.701  -0.621  0.00  0.00     0.003 A 
ATOM      8  C6  PXY d   1       0.007  -0.265   0.373  0.00  0.00     0.003 A 
ENDROOT
TORSDOF 0
ENDMDL
