MODEL 1
REMARK minimizedAffinity -5.79934835
REMARK minimizedRMSD -1
REMARK  0 active torsions:
REMARK  status: ('A' for Active; 'I' for Inactive)
ROOT
ATOM      1  C4' PXY d   1      -1.956   2.449   1.487  0.00  0.00     0.077 C 
ATOM      2  C1' PXY d   1       1.259  -1.315  -1.498  0.00  0.00     0.077 C 
ATOM      3  C1  PXY d   1       0.423  -0.318  -0.721  0.00  0.00    -0.082 A 
ATOM      4  C2  PXY d   1      -0.206  -0.707   0.376  0.00  0.00     0.003 A 
ATOM      5  C3  PXY d   1      -0.993   0.173   1.074  0.00  0.00     0.003 A 
ATOM      6  C4  PXY d   1      -1.093   1.479   0.675  0.00  0.00    -0.082 A 
ATOM      7  C5  PXY d   1      -0.445   1.887  -0.437  0.00  0.00     0.003 A 
ATOM      8  C6  PXY d   1       0.315   0.967  -1.154  0.00  0.00     0.003 A 
ENDROOT
TORSDOF 0
ENDMDL
