MODEL 1
REMARK minimizedAffinity -2.49719024
REMARK minimizedRMSD -1
REMARK  0 active torsions:
REMARK  status: ('A' for Active; 'I' for Inactive)
ROOT
ATOM      1  C4' PXY d   1       1.539  -1.933  -1.094  0.00  0.00     0.077 C 
ATOM      2  C1' PXY d   1      -1.801   1.845   1.732  0.00  0.00     0.077 C 
ATOM      3  C1  PXY d   1      -0.930   0.858   0.980  0.00  0.00    -0.082 A 
ATOM      4  C2  PXY d   1      -0.497  -0.232   1.592  0.00  0.00     0.003 A 
ATOM      5  C3  PXY d   1       0.318  -1.119   0.936  0.00  0.00     0.003 A 
ATOM      6  C4  PXY d   1       0.650  -0.914  -0.376  0.00  0.00    -0.082 A 
ATOM      7  C5  PXY d   1       0.204   0.191  -1.011  0.00  0.00     0.003 A 
ATOM      8  C6  PXY d   1      -0.588   1.099  -0.315  0.00  0.00     0.003 A 
ENDROOT
TORSDOF 0
ENDMDL
