MODEL 1
REMARK minimizedAffinity -5.0774045
REMARK minimizedRMSD -1
REMARK  0 active torsions:
REMARK  status: ('A' for Active; 'I' for Inactive)
ROOT
ATOM      1  C4' PXY d   1       1.874  -1.139  -0.390  0.00  0.00     0.077 C 
ATOM      2  C1' PXY d   1      -2.152   2.682   1.226  0.00  0.00     0.077 C 
ATOM      3  C1  PXY d   1      -1.096   1.686   0.790  0.00  0.00    -0.082 A 
ATOM      4  C2  PXY d   1      -0.998   0.522   1.413  0.00  0.00     0.003 A 
ATOM      5  C3  PXY d   1      -0.028  -0.378   1.053  0.00  0.00     0.003 A 
ATOM      6  C4  PXY d   1       0.816  -0.106   0.010  0.00  0.00    -0.082 A 
ATOM      7  C5  PXY d   1       0.716   1.074  -0.638  0.00  0.00     0.003 A 
ATOM      8  C6  PXY d   1      -0.249   1.991  -0.230  0.00  0.00     0.003 A 
ENDROOT
TORSDOF 0
ENDMDL
