MODEL 1
REMARK minimizedAffinity -4.08546829
REMARK minimizedRMSD -1
REMARK  0 active torsions:
REMARK  status: ('A' for Active; 'I' for Inactive)
ROOT
ATOM      1  C4' PXY d   1       1.107  -1.778  -0.931  0.00  0.00     0.077 C 
ATOM      2  C1' PXY d   1      -2.161   2.473   1.230  0.00  0.00     0.077 C 
ATOM      3  C1  PXY d   1      -1.305   1.363   0.651  0.00  0.00    -0.082 A 
ATOM      4  C2  PXY d   1      -1.180   0.222   1.310  0.00  0.00     0.003 A 
ATOM      5  C3  PXY d   1      -0.385  -0.780   0.817  0.00  0.00     0.003 A 
ATOM      6  C4  PXY d   1       0.246  -0.634  -0.389  0.00  0.00    -0.082 A 
ATOM      7  C5  PXY d   1       0.115   0.523  -1.073  0.00  0.00     0.003 A 
ATOM      8  C6  PXY d   1      -0.664   1.544  -0.535  0.00  0.00     0.003 A 
ENDROOT
TORSDOF 0
ENDMDL
