MODEL 1
REMARK minimizedAffinity -1.23093855
REMARK minimizedRMSD -1
REMARK  0 active torsions:
REMARK  status: ('A' for Active; 'I' for Inactive)
ROOT
ATOM      1  C4' PXY d   1      -1.158   1.832   2.191  0.00  0.00     0.077 C 
ATOM      2  C1' PXY d   1       0.971  -1.734  -1.830  0.00  0.00     0.077 C 
ATOM      3  C1  PXY d   1       0.416  -0.788  -0.783  0.00  0.00    -0.082 A 
ATOM      4  C2  PXY d   1       0.343  -1.180   0.479  0.00  0.00     0.003 A 
ATOM      5  C3  PXY d   1      -0.186  -0.349   1.433  0.00  0.00     0.003 A 
ATOM      6  C4  PXY d   1      -0.595   0.915   1.102  0.00  0.00    -0.082 A 
ATOM      7  C5  PXY d   1      -0.514   1.326  -0.181  0.00  0.00     0.003 A 
ATOM      8  C6  PXY d   1      -0.012   0.452  -1.142  0.00  0.00     0.003 A 
ENDROOT
TORSDOF 0
ENDMDL
