MODEL 1
REMARK minimizedAffinity -5.67080879
REMARK minimizedRMSD -1
REMARK  0 active torsions:
REMARK  status: ('A' for Active; 'I' for Inactive)
ROOT
ATOM      1  C4' PXY d   1       1.294  -1.174  -0.745  0.00  0.00     0.077 C 
ATOM      2  C1' PXY d   1      -2.295   2.584   1.787  0.00  0.00     0.077 C 
ATOM      3  C1  PXY d   1      -1.356   1.604   1.112  0.00  0.00    -0.082 A 
ATOM      4  C2  PXY d   1      -1.124   0.428   1.672  0.00  0.00     0.003 A 
ATOM      5  C3  PXY d   1      -0.253  -0.458   1.091  0.00  0.00     0.003 A 
ATOM      6  C4  PXY d   1       0.346  -0.157  -0.103  0.00  0.00    -0.082 A 
ATOM      7  C5  PXY d   1       0.106   1.036  -0.686  0.00  0.00     0.003 A 
ATOM      8  C6  PXY d   1      -0.749   1.938  -0.060  0.00  0.00     0.003 A 
ENDROOT
TORSDOF 0
ENDMDL
