MODEL 1
REMARK minimizedAffinity -5.0197978
REMARK minimizedRMSD -1
REMARK  0 active torsions:
REMARK  status: ('A' for Active; 'I' for Inactive)
ROOT
ATOM      1  C4' PXY d   1       1.505   2.196  -2.043  0.00  0.00     0.077 C 
ATOM      2  C1' PXY d   1      -1.480  -0.301   2.232  0.00  0.00     0.077 C 
ATOM      3  C1  PXY d   1      -0.687   0.347   1.114  0.00  0.00    -0.082 A 
ATOM      4  C2  PXY d   1      -1.079   1.512   0.624  0.00  0.00     0.003 A 
ATOM      5  C3  PXY d   1      -0.391   2.097  -0.409  0.00  0.00     0.003 A 
ATOM      6  C4  PXY d   1       0.740   1.509  -0.908  0.00  0.00    -0.082 A 
ATOM      7  C5  PXY d   1       1.153   0.327  -0.405  0.00  0.00     0.003 A 
ATOM      8  C6  PXY d   1       0.418  -0.271   0.614  0.00  0.00     0.003 A 
ENDROOT
TORSDOF 0
ENDMDL
