MODEL 1
REMARK minimizedAffinity -3.73748422
REMARK minimizedRMSD -1
REMARK  0 active torsions:
REMARK  status: ('A' for Active; 'I' for Inactive)
ROOT
ATOM      1  C4' PXY d   1      -0.374   3.689  -1.879  0.00  0.00     0.077 C 
ATOM      2  C1' PXY d   1       0.859  -1.554   0.222  0.00  0.00     0.077 C 
ATOM      3  C1  PXY d   1       0.548  -0.175  -0.327  0.00  0.00    -0.082 A 
ATOM      4  C2  PXY d   1      -0.693   0.282  -0.284  0.00  0.00     0.003 A 
ATOM      5  C3  PXY d   1      -0.998   1.513  -0.805  0.00  0.00     0.003 A 
ATOM      6  C4  PXY d   1      -0.012   2.307  -1.328  0.00  0.00    -0.082 A 
ATOM      7  C5  PXY d   1       1.258   1.852  -1.366  0.00  0.00     0.003 A 
ATOM      8  C6  PXY d   1       1.540   0.583  -0.869  0.00  0.00     0.003 A 
ENDROOT
TORSDOF 0
ENDMDL
