MODEL 1
REMARK minimizedAffinity -1.31159306
REMARK minimizedRMSD -1
REMARK  0 active torsions:
REMARK  status: ('A' for Active; 'I' for Inactive)
ROOT
ATOM      1  C4' PXY d   1      -0.785   2.463   2.710  0.00  0.00     0.077 C 
ATOM      2  C1' PXY d   1      -0.279  -1.492  -1.475  0.00  0.00     0.077 C 
ATOM      3  C1  PXY d   1      -0.419  -0.448  -0.386  0.00  0.00    -0.082 A 
ATOM      4  C2  PXY d   1       0.523  -0.334   0.537  0.00  0.00     0.003 A 
ATOM      5  C3  PXY d   1       0.396   0.584   1.548  0.00  0.00     0.003 A 
ATOM      6  C4  PXY d   1      -0.680   1.429   1.585  0.00  0.00    -0.082 A 
ATOM      7  C5  PXY d   1      -1.640   1.326   0.642  0.00  0.00     0.003 A 
ATOM      8  C6  PXY d   1      -1.513   0.361  -0.353  0.00  0.00     0.003 A 
ENDROOT
TORSDOF 0
ENDMDL
