MODEL 1
REMARK minimizedAffinity -1.7334106
REMARK minimizedRMSD -1
REMARK  0 active torsions:
REMARK  status: ('A' for Active; 'I' for Inactive)
ROOT
ATOM      1  C4' PXY d   1      -1.933   2.328   1.957  0.00  0.00     0.077 C 
ATOM      2  C1' PXY d   1       1.300  -1.492  -0.936  0.00  0.00     0.077 C 
ATOM      3  C1  PXY d   1       0.448  -0.500  -0.170  0.00  0.00    -0.082 A 
ATOM      4  C2  PXY d   1       0.085   0.634  -0.747  0.00  0.00     0.003 A 
ATOM      5  C3  PXY d   1      -0.658   1.557  -0.057  0.00  0.00     0.003 A 
ATOM      6  C4  PXY d   1      -1.080   1.293   1.218  0.00  0.00    -0.082 A 
ATOM      7  C5  PXY d   1      -0.724   0.133   1.810  0.00  0.00     0.003 A 
ATOM      8  C6  PXY d   1       0.066  -0.772   1.108  0.00  0.00     0.003 A 
ENDROOT
TORSDOF 0
ENDMDL
