MODEL 1
REMARK minimizedAffinity -3.672328
REMARK minimizedRMSD -1
REMARK  0 active torsions:
REMARK  status: ('A' for Active; 'I' for Inactive)
ROOT
ATOM      1  C4' PXY d   1      -0.753   3.562  -0.060  0.00  0.00     0.077 C 
ATOM      2  C1' PXY d   1      -1.657  -1.460   2.656  0.00  0.00     0.077 C 
ATOM      3  C1  PXY d   1      -1.407  -0.146   1.943  0.00  0.00    -0.082 A 
ATOM      4  C2  PXY d   1      -2.244   0.864   2.119  0.00  0.00     0.003 A 
ATOM      5  C3  PXY d   1      -2.051   2.049   1.457  0.00  0.00     0.003 A 
ATOM      6  C4  PXY d   1      -0.960   2.220   0.647  0.00  0.00    -0.082 A 
ATOM      7  C5  PXY d   1      -0.096   1.199   0.470  0.00  0.00     0.003 A 
ATOM      8  C6  PXY d   1      -0.332  -0.010   1.119  0.00  0.00     0.003 A 
ENDROOT
TORSDOF 0
ENDMDL
