MODEL 1
REMARK minimizedAffinity -2.00820565
REMARK minimizedRMSD -1
REMARK  0 active torsions:
REMARK  status: ('A' for Active; 'I' for Inactive)
ROOT
ATOM      1  C4' PXY d   1      -2.059   2.226   1.121  0.00  0.00     0.077 C 
ATOM      2  C1' PXY d   1       1.578  -1.643  -1.163  0.00  0.00     0.077 C 
ATOM      3  C1  PXY d   1       0.631  -0.619  -0.570  0.00  0.00    -0.082 A 
ATOM      4  C2  PXY d   1       0.026  -0.874   0.579  0.00  0.00     0.003 A 
ATOM      5  C3  PXY d   1      -0.858   0.027   1.113  0.00  0.00     0.003 A 
ATOM      6  C4  PXY d   1      -1.087   1.225   0.491  0.00  0.00    -0.082 A 
ATOM      7  C5  PXY d   1      -0.466   1.498  -0.677  0.00  0.00     0.003 A 
ATOM      8  C6  PXY d   1       0.397   0.552  -1.223  0.00  0.00     0.003 A 
ENDROOT
TORSDOF 0
ENDMDL
