MODEL 1
REMARK minimizedAffinity -3.38576174
REMARK minimizedRMSD -1
REMARK  0 active torsions:
REMARK  status: ('A' for Active; 'I' for Inactive)
ROOT
ATOM      1  C4' PXY d   1       1.129  -1.882   2.678  0.00  0.00     0.077 C 
ATOM      2  C1' PXY d   1      -1.046   2.139  -0.859  0.00  0.00     0.077 C 
ATOM      3  C1  PXY d   1      -0.477   1.076   0.059  0.00  0.00    -0.082 A 
ATOM      4  C2  PXY d   1      -0.558   1.232   1.371  0.00  0.00     0.003 A 
ATOM      5  C3  PXY d   1      -0.020   0.295   2.215  0.00  0.00     0.003 A 
ATOM      6  C4  PXY d   1       0.560  -0.839   1.713  0.00  0.00    -0.082 A 
ATOM      7  C5  PXY d   1       0.637  -1.011   0.377  0.00  0.00     0.003 A 
ATOM      8  C6  PXY d   1       0.122  -0.028  -0.464  0.00  0.00     0.003 A 
ENDROOT
TORSDOF 0
ENDMDL
