MODEL 1
REMARK minimizedAffinity -4.48664427
REMARK minimizedRMSD -1
REMARK  0 active torsions:
REMARK  status: ('A' for Active; 'I' for Inactive)
ROOT
ATOM      1  C4' PXY d   1       1.363  -1.802  -0.947  0.00  0.00     0.077 C 
ATOM      2  C1' PXY d   1      -2.117   2.106   1.508  0.00  0.00     0.077 C 
ATOM      3  C1  PXY d   1      -1.199   1.079   0.876  0.00  0.00    -0.082 A 
ATOM      4  C2  PXY d   1      -0.938   1.144  -0.420  0.00  0.00     0.003 A 
ATOM      5  C3  PXY d   1      -0.135   0.205  -1.014  0.00  0.00     0.003 A 
ATOM      6  C4  PXY d   1       0.449  -0.781  -0.265  0.00  0.00    -0.082 A 
ATOM      7  C5  PXY d   1       0.197  -0.848   1.060  0.00  0.00     0.003 A 
ATOM      8  C6  PXY d   1      -0.654   0.091   1.636  0.00  0.00     0.003 A 
ENDROOT
TORSDOF 0
ENDMDL
