MODEL 1
REMARK minimizedAffinity -4.16284227
REMARK minimizedRMSD -1
REMARK  0 active torsions:
REMARK  status: ('A' for Active; 'I' for Inactive)
ROOT
ATOM      1  C4' PXY d   1      -2.094   1.931   1.510  0.00  0.00     0.077 C 
ATOM      2  C1' PXY d   1       1.392  -1.773  -1.237  0.00  0.00     0.077 C 
ATOM      3  C1  PXY d   1       0.474  -0.811  -0.508  0.00  0.00    -0.082 A 
ATOM      4  C2  PXY d   1       0.041   0.275  -1.127  0.00  0.00     0.003 A 
ATOM      5  C3  PXY d   1      -0.764   1.172  -0.473  0.00  0.00     0.003 A 
ATOM      6  C4  PXY d   1      -1.173   0.928   0.811  0.00  0.00    -0.082 A 
ATOM      7  C5  PXY d   1      -0.744  -0.184   1.445  0.00  0.00     0.003 A 
ATOM      8  C6  PXY d   1       0.106  -1.061   0.777  0.00  0.00     0.003 A 
ENDROOT
TORSDOF 0
ENDMDL
