MODEL 1
REMARK minimizedAffinity -4.76326132
REMARK minimizedRMSD -1
REMARK  0 active torsions:
REMARK  status: ('A' for Active; 'I' for Inactive)
ROOT
ATOM      1  C4' PXY d   1      -1.037   0.360   1.798  0.00  0.00     0.077 C 
ATOM      2  C1' PXY d   1       0.913  -2.650  -2.736  0.00  0.00     0.077 C 
ATOM      3  C1  PXY d   1       0.413  -1.861  -1.542  0.00  0.00    -0.082 A 
ATOM      4  C2  PXY d   1      -0.867  -1.912  -1.213  0.00  0.00     0.003 A 
ATOM      5  C3  PXY d   1      -1.342  -1.180  -0.155  0.00  0.00     0.003 A 
ATOM      6  C4  PXY d   1      -0.487  -0.428   0.606  0.00  0.00    -0.082 A 
ATOM      7  C5  PXY d   1       0.823  -0.379   0.283  0.00  0.00     0.003 A 
ATOM      8  C6  PXY d   1       1.277  -1.097  -0.819  0.00  0.00     0.003 A 
ENDROOT
TORSDOF 0
ENDMDL
