MODEL 1
REMARK minimizedAffinity -5.23796749
REMARK minimizedRMSD -1
REMARK  0 active torsions:
REMARK  status: ('A' for Active; 'I' for Inactive)
ROOT
ATOM      1  C4' PXY d   1      -2.600   2.691   1.020  0.00  0.00     0.077 C 
ATOM      2  C1' PXY d   1       1.784  -0.791  -0.419  0.00  0.00     0.077 C 
ATOM      3  C1  PXY d   1       0.630   0.113  -0.033  0.00  0.00    -0.082 A 
ATOM      4  C2  PXY d   1       0.209   1.035  -0.883  0.00  0.00     0.003 A 
ATOM      5  C3  PXY d   1      -0.812   1.883  -0.538  0.00  0.00     0.003 A 
ATOM      6  C4  PXY d   1      -1.444   1.750   0.669  0.00  0.00    -0.082 A 
ATOM      7  C5  PXY d   1      -1.028   0.805   1.538  0.00  0.00     0.003 A 
ATOM      8  C6  PXY d   1       0.038  -0.018   1.185  0.00  0.00     0.003 A 
ENDROOT
TORSDOF 0
ENDMDL
