MODEL 1
REMARK minimizedAffinity -3.89024591
REMARK minimizedRMSD -1
REMARK  0 active torsions:
REMARK  status: ('A' for Active; 'I' for Inactive)
ROOT
ATOM      1  C4' PXY d   1      -1.053   2.299   2.342  0.00  0.00     0.077 C 
ATOM      2  C1' PXY d   1       0.564  -1.897  -1.290  0.00  0.00     0.077 C 
ATOM      3  C1  PXY d   1       0.131  -0.805  -0.332  0.00  0.00    -0.082 A 
ATOM      4  C2  PXY d   1       0.381   0.461  -0.627  0.00  0.00     0.003 A 
ATOM      5  C3  PXY d   1       0.025   1.459   0.242  0.00  0.00     0.003 A 
ATOM      6  C4  PXY d   1      -0.642   1.164   1.401  0.00  0.00    -0.082 A 
ATOM      7  C5  PXY d   1      -0.911  -0.124   1.704  0.00  0.00     0.003 A 
ATOM      8  C6  PXY d   1      -0.504  -1.126   0.827  0.00  0.00     0.003 A 
ENDROOT
TORSDOF 0
ENDMDL
