MODEL 1
REMARK minimizedAffinity -0.966755807
REMARK minimizedRMSD -1
REMARK  0 active torsions:
REMARK  status: ('A' for Active; 'I' for Inactive)
ROOT
ATOM      1  C   UNL d   1       0.256   3.453   0.095  0.00  0.00     0.020 A 
ATOM      2  C1  UNL d   1       1.451   2.891  -0.354  0.00  0.00     0.020 A 
ATOM      3  C2  UNL d   1       1.686   1.525  -0.183  0.00  0.00     0.034 A 
ATOM      4  C3  UNL d   1       0.727   0.717   0.438  0.00  0.00     0.017 A 
ATOM      5  C4  UNL d   1      -0.471   1.283   0.889  0.00  0.00     0.017 A 
ATOM      6  C5  UNL d   1      -0.702   2.651   0.715  0.00  0.00     0.034 A 
ATOM      7 Cl   UNL d   1      -1.703   0.351   1.664  0.00  0.00    -0.070 Cl
ATOM      8 Cl1  UNL d   1       1.085  -0.964   0.616  0.00  0.00    -0.070 Cl
ENDROOT
TORSDOF 0
ENDMDL
