MODEL 1
REMARK minimizedAffinity -3.50793433
REMARK minimizedRMSD -1
REMARK  0 active torsions:
REMARK  status: ('A' for Active; 'I' for Inactive)
ROOT
ATOM      1  C   UNL d   1      -1.109   0.008   0.462  0.00  0.00     0.020 A 
ATOM      2  C1  UNL d   1      -0.023  -0.848   0.281  0.00  0.00     0.020 A 
ATOM      3  C2  UNL d   1       1.212  -0.334  -0.119  0.00  0.00     0.034 A 
ATOM      4  C3  UNL d   1       1.364   1.040  -0.340  0.00  0.00     0.017 A 
ATOM      5  C4  UNL d   1       0.274   1.898  -0.158  0.00  0.00     0.017 A 
ATOM      6  C5  UNL d   1      -0.961   1.378   0.243  0.00  0.00     0.034 A 
ATOM      7 Cl   UNL d   1       0.385   3.604  -0.411  0.00  0.00    -0.070 Cl
ATOM      8 Cl1  UNL d   1       2.920   1.606  -0.834  0.00  0.00    -0.070 Cl
ENDROOT
TORSDOF 0
ENDMDL
