MODEL 1
REMARK minimizedAffinity 2.79124284
REMARK minimizedRMSD -1
REMARK  0 active torsions:
REMARK  status: ('A' for Active; 'I' for Inactive)
ROOT
ATOM      1  C   UNL d   1       0.249   2.422   0.381  0.00  0.00     0.020 A 
ATOM      2  C1  UNL d   1      -0.827   2.652   1.237  0.00  0.00     0.020 A 
ATOM      3  C2  UNL d   1      -1.413   1.587   1.925  0.00  0.00     0.034 A 
ATOM      4  C3  UNL d   1      -0.923   0.287   1.758  0.00  0.00     0.017 A 
ATOM      5  C4  UNL d   1       0.157   0.057   0.898  0.00  0.00     0.017 A 
ATOM      6  C5  UNL d   1       0.740   1.127   0.212  0.00  0.00     0.034 A 
ATOM      7 Cl   UNL d   1       0.817  -1.520   0.641  0.00  0.00    -0.070 Cl
ATOM      8 Cl1  UNL d   1      -1.695  -0.982   2.640  0.00  0.00    -0.070 Cl
ENDROOT
TORSDOF 0
ENDMDL
