MODEL 1
REMARK minimizedAffinity 7.87922716
REMARK minimizedRMSD -1
REMARK  0 active torsions:
REMARK  status: ('A' for Active; 'I' for Inactive)
ROOT
ATOM      1  C   UNL d   1       1.028  -1.695   0.032  0.00  0.00     0.020 A 
ATOM      2  C1  UNL d   1       0.223  -2.686   0.594  0.00  0.00     0.020 A 
ATOM      3  C2  UNL d   1      -0.816  -2.335   1.459  0.00  0.00     0.034 A 
ATOM      4  C3  UNL d   1      -1.053  -0.990   1.764  0.00  0.00     0.017 A 
ATOM      5  C4  UNL d   1      -0.246   0.004   1.200  0.00  0.00     0.017 A 
ATOM      6  C5  UNL d   1       0.793  -0.353   0.334  0.00  0.00     0.034 A 
ATOM      7 Cl   UNL d   1      -0.478   1.685   1.529  0.00  0.00    -0.070 Cl
ATOM      8 Cl1  UNL d   1      -2.356  -0.628   2.841  0.00  0.00    -0.070 Cl
ENDROOT
TORSDOF 0
ENDMDL
