MODEL 1
REMARK minimizedAffinity 3.89380646
REMARK minimizedRMSD -1
REMARK  0 active torsions:
REMARK  status: ('A' for Active; 'I' for Inactive)
ROOT
ATOM      1  C   UNL d   1       3.012   2.192   0.650  0.00  0.00     0.020 A 
ATOM      2  C1  UNL d   1       3.019   2.055   2.037  0.00  0.00     0.020 A 
ATOM      3  C2  UNL d   1       1.838   2.231   2.762  0.00  0.00     0.034 A 
ATOM      4  C3  UNL d   1       0.646   2.546   2.100  0.00  0.00     0.017 A 
ATOM      5  C4  UNL d   1       0.640   2.684   0.707  0.00  0.00     0.017 A 
ATOM      6  C5  UNL d   1       1.825   2.506  -0.014  0.00  0.00     0.034 A 
ATOM      7 Cl   UNL d   1      -0.792   3.071  -0.180  0.00  0.00    -0.070 Cl
ATOM      8 Cl1  UNL d   1      -0.776   2.750   3.059  0.00  0.00    -0.070 Cl
ENDROOT
TORSDOF 0
ENDMDL
