MODEL 1
REMARK minimizedAffinity 5.90601158
REMARK minimizedRMSD -1
REMARK  0 active torsions:
REMARK  status: ('A' for Active; 'I' for Inactive)
ROOT
ATOM      1  C   UNL d   1      -1.821   0.725   2.585  0.00  0.00     0.020 A 
ATOM      2  C1  UNL d   1      -1.905   2.110   2.451  0.00  0.00     0.020 A 
ATOM      3  C2  UNL d   1      -1.030   2.784   1.597  0.00  0.00     0.034 A 
ATOM      4  C3  UNL d   1      -0.066   2.073   0.873  0.00  0.00     0.017 A 
ATOM      5  C4  UNL d   1       0.018   0.682   1.008  0.00  0.00     0.017 A 
ATOM      6  C5  UNL d   1      -0.862   0.013   1.864  0.00  0.00     0.034 A 
ATOM      7 Cl   UNL d   1       1.180  -0.264   0.147  0.00  0.00    -0.070 Cl
ATOM      8 Cl1  UNL d   1       0.984   2.970  -0.165  0.00  0.00    -0.070 Cl
ENDROOT
TORSDOF 0
ENDMDL
