MODEL 1
REMARK minimizedAffinity 14.2658157
REMARK minimizedRMSD -1
REMARK  0 active torsions:
REMARK  status: ('A' for Active; 'I' for Inactive)
ROOT
ATOM      1  C   UNL d   1       1.585  -1.509   0.122  0.00  0.00     0.020 A 
ATOM      2  C1  UNL d   1       1.228  -1.912  -1.164  0.00  0.00     0.020 A 
ATOM      3  C2  UNL d   1       0.943  -0.956  -2.141  0.00  0.00     0.034 A 
ATOM      4  C3  UNL d   1       1.014   0.408  -1.834  0.00  0.00     0.017 A 
ATOM      5  C4  UNL d   1       1.372   0.811  -0.543  0.00  0.00     0.017 A 
ATOM      6  C5  UNL d   1       1.656  -0.150   0.432  0.00  0.00     0.034 A 
ATOM      7 Cl   UNL d   1       1.480   2.476  -0.088  0.00  0.00    -0.070 Cl
ATOM      8 Cl1  UNL d   1       0.649   1.535  -3.092  0.00  0.00    -0.070 Cl
ENDROOT
TORSDOF 0
ENDMDL
