MODEL 1
REMARK minimizedAffinity 2.11282015
REMARK minimizedRMSD -1
REMARK  0 active torsions:
REMARK  status: ('A' for Active; 'I' for Inactive)
ROOT
ATOM      1  C   UNL d   1       1.293   3.874   0.307  0.00  0.00     0.020 A 
ATOM      2  C1  UNL d   1       0.081   3.191   0.217  0.00  0.00     0.020 A 
ATOM      3  C2  UNL d   1       0.056   1.798   0.317  0.00  0.00     0.034 A 
ATOM      4  C3  UNL d   1       1.245   1.084   0.506  0.00  0.00     0.017 A 
ATOM      5  C4  UNL d   1       2.461   1.771   0.597  0.00  0.00     0.017 A 
ATOM      6  C5  UNL d   1       2.480   3.166   0.497  0.00  0.00     0.034 A 
ATOM      7 Cl   UNL d   1       3.969   0.960   0.830  0.00  0.00    -0.070 Cl
ATOM      8 Cl1  UNL d   1       1.139  -0.636   0.621  0.00  0.00    -0.070 Cl
ENDROOT
TORSDOF 0
ENDMDL
