MODEL 1
REMARK minimizedAffinity 7.19897032
REMARK minimizedRMSD -1
REMARK  0 active torsions:
REMARK  status: ('A' for Active; 'I' for Inactive)
ROOT
ATOM      1  C   UNL d   1       0.882  -1.386   0.210  0.00  0.00     0.020 A 
ATOM      2  C1  UNL d   1       0.086  -2.468   0.583  0.00  0.00     0.020 A 
ATOM      3  C2  UNL d   1      -1.058  -2.260   1.356  0.00  0.00     0.034 A 
ATOM      4  C3  UNL d   1      -1.410  -0.966   1.758  0.00  0.00     0.017 A 
ATOM      5  C4  UNL d   1      -0.611   0.120   1.383  0.00  0.00     0.017 A 
ATOM      6  C5  UNL d   1       0.534  -0.094   0.609  0.00  0.00     0.034 A 
ATOM      7 Cl   UNL d   1      -0.980   1.745   1.842  0.00  0.00    -0.070 Cl
ATOM      8 Cl1  UNL d   1      -2.839  -0.782   2.713  0.00  0.00    -0.070 Cl
ENDROOT
TORSDOF 0
ENDMDL
