MODEL 1
REMARK minimizedAffinity 5.2133503
REMARK minimizedRMSD -1
REMARK  0 active torsions:
REMARK  status: ('A' for Active; 'I' for Inactive)
ROOT
ATOM      1  C   UNL d   1       3.835   2.210   0.787  0.00  0.00     0.020 A 
ATOM      2  C1  UNL d   1       3.193   3.445   0.869  0.00  0.00     0.020 A 
ATOM      3  C2  UNL d   1       1.813   3.529   0.666  0.00  0.00     0.034 A 
ATOM      4  C3  UNL d   1       1.073   2.376   0.379  0.00  0.00     0.017 A 
ATOM      5  C4  UNL d   1       1.719   1.138   0.297  0.00  0.00     0.017 A 
ATOM      6  C5  UNL d   1       3.100   1.059   0.501  0.00  0.00     0.034 A 
ATOM      7 Cl   UNL d   1       0.872  -0.328  -0.052  0.00  0.00    -0.070 Cl
ATOM      8 Cl1  UNL d   1      -0.629   2.554   0.140  0.00  0.00    -0.070 Cl
ENDROOT
TORSDOF 0
ENDMDL
