MODEL 1
REMARK minimizedAffinity 0.268933803
REMARK minimizedRMSD -1
REMARK  0 active torsions:
REMARK  status: ('A' for Active; 'I' for Inactive)
ROOT
ATOM      1  C   UNL d   1       0.442  -5.800  -3.769  0.00  0.00     0.020 A 
ATOM      2  C1  UNL d   1       0.906  -5.328  -2.542  0.00  0.00     0.020 A 
ATOM      3  C2  UNL d   1       2.265  -5.055  -2.367  0.00  0.00     0.034 A 
ATOM      4  C3  UNL d   1       3.164  -5.255  -3.421  0.00  0.00     0.017 A 
ATOM      5  C4  UNL d   1       2.697  -5.729  -4.652  0.00  0.00     0.017 A 
ATOM      6  C5  UNL d   1       1.335  -6.000  -4.822  0.00  0.00     0.034 A 
ATOM      7 Cl   UNL d   1       3.745  -6.000  -6.000  0.00  0.00    -0.070 Cl
ATOM      8 Cl1  UNL d   1       4.830  -4.897  -3.135  0.00  0.00    -0.070 Cl
ENDROOT
TORSDOF 0
ENDMDL
