MODEL 1
REMARK minimizedAffinity 9.15354729
REMARK minimizedRMSD -1
REMARK  0 active torsions:
REMARK  status: ('A' for Active; 'I' for Inactive)
ROOT
ATOM      1  C   UNL d   1       4.867   4.128  -6.000  0.00  0.00     0.020 A 
ATOM      2  C1  UNL d   1       5.517   4.568  -4.848  0.00  0.00     0.020 A 
ATOM      3  C2  UNL d   1       5.425   3.827  -3.668  0.00  0.00     0.034 A 
ATOM      4  C3  UNL d   1       4.682   2.641  -3.638  0.00  0.00     0.017 A 
ATOM      5  C4  UNL d   1       4.030   2.200  -4.795  0.00  0.00     0.017 A 
ATOM      6  C5  UNL d   1       4.125   2.946  -5.974  0.00  0.00     0.034 A 
ATOM      7 Cl   UNL d   1       3.094   0.747  -4.835  0.00  0.00    -0.070 Cl
ATOM      8 Cl1  UNL d   1       4.612   1.775  -2.144  0.00  0.00    -0.070 Cl
ENDROOT
TORSDOF 0
ENDMDL
