MODEL 1
REMARK minimizedAffinity 1.44071329
REMARK minimizedRMSD -1
REMARK  0 active torsions:
REMARK  status: ('A' for Active; 'I' for Inactive)
ROOT
ATOM      1  C   UNL d   1       4.886   3.153   2.633  0.00  0.00     0.020 A 
ATOM      2  C1  UNL d   1       4.210   2.406   3.597  0.00  0.00     0.020 A 
ATOM      3  C2  UNL d   1       2.951   1.873   3.312  0.00  0.00     0.034 A 
ATOM      4  C3  UNL d   1       2.364   2.086   2.059  0.00  0.00     0.017 A 
ATOM      5  C4  UNL d   1       3.043   2.836   1.092  0.00  0.00     0.017 A 
ATOM      6  C5  UNL d   1       4.304   3.367   1.383  0.00  0.00     0.034 A 
ATOM      7 Cl   UNL d   1       2.384   3.141  -0.476  0.00  0.00    -0.070 Cl
ATOM      8 Cl1  UNL d   1       0.806   1.397   1.774  0.00  0.00    -0.070 Cl
ENDROOT
TORSDOF 0
ENDMDL
