MODEL 1
REMARK minimizedAffinity 1.44933796
REMARK minimizedRMSD -1
REMARK  0 active torsions:
REMARK  status: ('A' for Active; 'I' for Inactive)
ROOT
ATOM      1  C   UNL d   1       1.861   1.218   1.843  0.00  0.00     0.020 A 
ATOM      2  C1  UNL d   1       2.924   2.120   1.882  0.00  0.00     0.020 A 
ATOM      3  C2  UNL d   1       2.724   3.450   1.508  0.00  0.00     0.034 A 
ATOM      4  C3  UNL d   1       1.459   3.883   1.094  0.00  0.00     0.017 A 
ATOM      5  C4  UNL d   1       0.393   2.976   1.055  0.00  0.00     0.017 A 
ATOM      6  C5  UNL d   1       0.598   1.645   1.431  0.00  0.00     0.034 A 
ATOM      7 Cl   UNL d   1      -1.197   3.435   0.555  0.00  0.00    -0.070 Cl
ATOM      8 Cl1  UNL d   1       1.284   5.542   0.646  0.00  0.00    -0.070 Cl
ENDROOT
TORSDOF 0
ENDMDL
