MODEL 1
REMARK minimizedAffinity 7.55286551
REMARK minimizedRMSD -1
REMARK  0 active torsions:
REMARK  status: ('A' for Active; 'I' for Inactive)
ROOT
ATOM      1  C   UNL d   1       0.400  -5.653  -3.054  0.00  0.00     0.020 A 
ATOM      2  C1  UNL d   1       0.190  -5.956  -4.399  0.00  0.00     0.020 A 
ATOM      3  C2  UNL d   1       1.269  -5.989  -5.284  0.00  0.00     0.034 A 
ATOM      4  C3  UNL d   1       2.564  -5.717  -4.826  0.00  0.00     0.017 A 
ATOM      5  C4  UNL d   1       2.774  -5.413  -3.476  0.00  0.00     0.017 A 
ATOM      6  C5  UNL d   1       1.689  -5.382  -2.594  0.00  0.00     0.034 A 
ATOM      7 Cl   UNL d   1       4.342  -5.068  -2.837  0.00  0.00    -0.070 Cl
ATOM      8 Cl1  UNL d   1       3.852  -5.776  -5.976  0.00  0.00    -0.070 Cl
ENDROOT
TORSDOF 0
ENDMDL
