MODEL 1
REMARK minimizedAffinity 0.703531623
REMARK minimizedRMSD -1
REMARK  0 active torsions:
REMARK  status: ('A' for Active; 'I' for Inactive)
ROOT
ATOM      1  C   UNL d   1       4.132   5.393   2.208  0.00  0.00     0.020 A 
ATOM      2  C1  UNL d   1       3.132   5.999   2.969  0.00  0.00     0.020 A 
ATOM      3  C2  UNL d   1       1.987   5.280   3.318  0.00  0.00     0.034 A 
ATOM      4  C3  UNL d   1       1.839   3.950   2.907  0.00  0.00     0.017 A 
ATOM      5  C4  UNL d   1       2.842   3.343   2.143  0.00  0.00     0.017 A 
ATOM      6  C5  UNL d   1       3.987   4.068   1.797  0.00  0.00     0.034 A 
ATOM      7 Cl   UNL d   1       2.730   1.706   1.599  0.00  0.00    -0.070 Cl
ATOM      8 Cl1  UNL d   1       0.397   3.121   3.375  0.00  0.00    -0.070 Cl
ENDROOT
TORSDOF 0
ENDMDL
