MODEL 1
REMARK minimizedAffinity 5.37561703
REMARK minimizedRMSD -1
REMARK  0 active torsions:
REMARK  status: ('A' for Active; 'I' for Inactive)
ROOT
ATOM      1  C   UNL d   1       2.613   2.991   1.322  0.00  0.00     0.020 A 
ATOM      2  C1  UNL d   1       2.188   2.804   0.008  0.00  0.00     0.020 A 
ATOM      3  C2  UNL d   1       0.825   2.717  -0.280  0.00  0.00     0.034 A 
ATOM      4  C3  UNL d   1      -0.119   2.817   0.749  0.00  0.00     0.017 A 
ATOM      5  C4  UNL d   1       0.308   3.005   2.068  0.00  0.00     0.017 A 
ATOM      6  C5  UNL d   1       1.675   3.091   2.350  0.00  0.00     0.034 A 
ATOM      7 Cl   UNL d   1      -0.797   3.137   3.390  0.00  0.00    -0.070 Cl
ATOM      8 Cl1  UNL d   1      -1.789   2.701   0.321  0.00  0.00    -0.070 Cl
ENDROOT
TORSDOF 0
ENDMDL
