MODEL 1
REMARK minimizedAffinity 4.41785002
REMARK minimizedRMSD -1
REMARK  0 active torsions:
REMARK  status: ('A' for Active; 'I' for Inactive)
ROOT
ATOM      1  C   UNL d   1       3.644   2.401   1.022  0.00  0.00     0.020 A 
ATOM      2  C1  UNL d   1       2.760   3.472   1.147  0.00  0.00     0.020 A 
ATOM      3  C2  UNL d   1       1.385   3.259   1.025  0.00  0.00     0.034 A 
ATOM      4  C3  UNL d   1       0.891   1.973   0.778  0.00  0.00     0.017 A 
ATOM      5  C4  UNL d   1       1.780   0.899   0.652  0.00  0.00     0.017 A 
ATOM      6  C5  UNL d   1       3.155   1.118   0.775  0.00  0.00     0.034 A 
ATOM      7 Cl   UNL d   1       1.245  -0.716   0.347  0.00  0.00    -0.070 Cl
ATOM      8 Cl1  UNL d   1      -0.821   1.783   0.639  0.00  0.00    -0.070 Cl
ENDROOT
TORSDOF 0
ENDMDL
