MODEL 1
REMARK minimizedAffinity -5.68495035
REMARK minimizedRMSD -1
REMARK  3 active torsions:
REMARK  status: ('A' for Active; 'I' for Inactive)
REMARK    1  A    between atoms: C3'_2  and  C2'_3 
REMARK    2  A    between atoms: C2'_3  and  C1'_4 
REMARK    3  A    between atoms: C1'_4  and  C1_5 
ROOT
ATOM      1  C1  N4B d   1       0.147  -0.039   0.047  0.00  0.00    -0.075 A 
ATOM      2  C2  N4B d   1       1.377   0.637   0.211  0.00  0.00     0.002 A 
ATOM      3  C3  N4B d   1       1.401   2.008   0.289  0.00  0.00     0.002 A 
ATOM      4  C4  N4B d   1       0.217   2.722   0.188  0.00  0.00    -0.004 A 
ATOM      5  C5  N4B d   1      -0.969   2.061   0.056  0.00  0.00     0.002 A 
ATOM      6  C6  N4B d   1      -1.009   0.683  -0.021  0.00  0.00     0.002 A 
ENDROOT
BRANCH   1   7
ATOM      7  C1' N4B d   1       0.079  -1.531  -0.131  0.00  0.00     0.057 C 
BRANCH   7   8
ATOM      8  C2' N4B d   1       0.010  -1.856  -1.620  0.00  0.00     0.009 C 
BRANCH   8   9
ATOM      9  C3' N4B d   1      -0.958  -2.991  -1.909  0.00  0.00     0.004 C 
ATOM     10  C4' N4B d   1      -1.732  -3.417  -0.698  0.00  0.00     0.003 C 
ENDBRANCH   8   9
ENDBRANCH   7   8
ENDBRANCH   1   7
TORSDOF 3
ENDMDL
