MODEL 1
REMARK minimizedAffinity 3.52067733
REMARK minimizedRMSD -1
REMARK  3 active torsions:
REMARK  status: ('A' for Active; 'I' for Inactive)
REMARK    1  A    between atoms: C3'_2  and  C2'_3 
REMARK    2  A    between atoms: C2'_3  and  C1'_4 
REMARK    3  A    between atoms: C1'_4  and  C1_5 
ROOT
ATOM      1  C1  N4B d   1      -1.868  -0.023  -0.881  0.00  0.00    -0.075 A 
ATOM      2  C2  N4B d   1      -1.124  -0.175   0.310  0.00  0.00     0.002 A 
ATOM      3  C3  N4B d   1      -0.776   0.929   1.049  0.00  0.00     0.002 A 
ATOM      4  C4  N4B d   1      -1.144   2.192   0.609  0.00  0.00    -0.004 A 
ATOM      5  C5  N4B d   1      -1.884   2.329  -0.528  0.00  0.00     0.002 A 
ATOM      6  C6  N4B d   1      -2.244   1.227  -1.279  0.00  0.00     0.002 A 
ENDROOT
BRANCH   1   7
ATOM      7  C1' N4B d   1      -2.197  -1.193  -1.767  0.00  0.00     0.057 C 
BRANCH   7   8
ATOM      8  C2' N4B d   1      -1.815  -2.485  -1.053  0.00  0.00     0.009 C 
BRANCH   8   9
ATOM      9  C3' N4B d   1      -1.730  -3.661  -2.011  0.00  0.00     0.004 C 
ATOM     10  C4' N4B d   1      -1.099  -3.298  -3.322  0.00  0.00     0.003 C 
ENDBRANCH   8   9
ENDBRANCH   7   8
ENDBRANCH   1   7
TORSDOF 3
ENDMDL
