MODEL 1
REMARK minimizedAffinity -3.29329228
REMARK minimizedRMSD -1
REMARK  3 active torsions:
REMARK  status: ('A' for Active; 'I' for Inactive)
REMARK    1  A    between atoms: C3'_2  and  C2'_3 
REMARK    2  A    between atoms: C2'_3  and  C1'_4 
REMARK    3  A    between atoms: C1'_4  and  C1_5 
ROOT
ATOM      1  C1  N4B d   1       0.074   0.990   0.462  0.00  0.00    -0.075 A 
ATOM      2  C2  N4B d   1      -0.123   2.383   0.586  0.00  0.00     0.002 A 
ATOM      3  C3  N4B d   1       0.959   3.220   0.709  0.00  0.00     0.002 A 
ATOM      4  C4  N4B d   1       2.240   2.688   0.729  0.00  0.00    -0.004 A 
ATOM      5  C5  N4B d   1       2.422   1.344   0.583  0.00  0.00     0.002 A 
ATOM      6  C6  N4B d   1       1.344   0.491   0.455  0.00  0.00     0.002 A 
ENDROOT
BRANCH   1   7
ATOM      7  C1' N4B d   1      -1.081   0.027   0.411  0.00  0.00     0.057 C 
BRANCH   7   8
ATOM      8  C2' N4B d   1      -0.746  -1.107  -0.554  0.00  0.00     0.009 C 
BRANCH   8   9
ATOM      9  C3' N4B d   1      -1.891  -1.398  -1.508  0.00  0.00     0.004 C 
ATOM     10  C4' N4B d   1      -1.858  -2.798  -2.044  0.00  0.00     0.003 C 
ENDBRANCH   8   9
ENDBRANCH   7   8
ENDBRANCH   1   7
TORSDOF 3
ENDMDL
