MODEL 1
REMARK minimizedAffinity -1.22023618
REMARK minimizedRMSD -1
REMARK  3 active torsions:
REMARK  status: ('A' for Active; 'I' for Inactive)
REMARK    1  A    between atoms: C3'_2  and  C2'_3 
REMARK    2  A    between atoms: C2'_3  and  C1'_4 
REMARK    3  A    between atoms: C1'_4  and  C1_5 
ROOT
ATOM      1  C1  N4B d   1      -0.175  -0.994   0.362  0.00  0.00    -0.075 A 
ATOM      2  C2  N4B d   1      -1.469  -0.457   0.539  0.00  0.00     0.002 A 
ATOM      3  C3  N4B d   1      -1.652   0.904   0.548  0.00  0.00     0.002 A 
ATOM      4  C4  N4B d   1      -0.558   1.744   0.402  0.00  0.00    -0.004 A 
ATOM      5  C5  N4B d   1       0.685   1.218   0.206  0.00  0.00     0.002 A 
ATOM      6  C6  N4B d   1       0.883  -0.148   0.190  0.00  0.00     0.002 A 
ENDROOT
BRANCH   1   7
ATOM      7  C1' N4B d   1       0.087  -2.474   0.430  0.00  0.00     0.057 C 
BRANCH   7   8
ATOM      8  C2' N4B d   1      -0.948  -3.205  -0.420  0.00  0.00     0.009 C 
BRANCH   8   9
ATOM      9  C3' N4B d   1      -0.603  -3.160  -1.898  0.00  0.00     0.004 C 
ATOM     10  C4' N4B d   1      -1.818  -3.169  -2.778  0.00  0.00     0.003 C 
ENDBRANCH   8   9
ENDBRANCH   7   8
ENDBRANCH   1   7
TORSDOF 3
ENDMDL
