MODEL 1
REMARK minimizedAffinity -0.418407857
REMARK minimizedRMSD -1
REMARK  3 active torsions:
REMARK  status: ('A' for Active; 'I' for Inactive)
REMARK    1  A    between atoms: C3'_2  and  C2'_3 
REMARK    2  A    between atoms: C2'_3  and  C1'_4 
REMARK    3  A    between atoms: C1'_4  and  C1_5 
ROOT
ATOM      1  C1  N4B d   1       0.196   0.488   0.143  0.00  0.00    -0.075 A 
ATOM      2  C2  N4B d   1       0.006   1.732   0.784  0.00  0.00     0.002 A 
ATOM      3  C3  N4B d   1       1.086   2.422   1.278  0.00  0.00     0.002 A 
ATOM      4  C4  N4B d   1       2.357   1.881   1.160  0.00  0.00    -0.004 A 
ATOM      5  C5  N4B d   1       2.535   0.691   0.516  0.00  0.00     0.002 A 
ATOM      6  C6  N4B d   1       1.459  -0.011   0.011  0.00  0.00     0.002 A 
ENDROOT
BRANCH   1   7
ATOM      7  C1' N4B d   1      -0.963  -0.343  -0.337  0.00  0.00     0.057 C 
BRANCH   7   8
ATOM      8  C2' N4B d   1      -0.464  -1.346  -1.373  0.00  0.00     0.009 C 
BRANCH   8   9
ATOM      9  C3' N4B d   1      -1.190  -2.676  -1.270  0.00  0.00     0.004 C 
ATOM     10  C4' N4B d   1      -1.499  -3.274  -2.610  0.00  0.00     0.003 C 
ENDBRANCH   8   9
ENDBRANCH   7   8
ENDBRANCH   1   7
TORSDOF 3
ENDMDL
