MODEL 1
REMARK minimizedAffinity -6.29788923
REMARK minimizedRMSD -1
REMARK  3 active torsions:
REMARK  status: ('A' for Active; 'I' for Inactive)
REMARK    1  A    between atoms: C3'_2  and  C2'_3 
REMARK    2  A    between atoms: C2'_3  and  C1'_4 
REMARK    3  A    between atoms: C1'_4  and  C1_5 
ROOT
ATOM      1  C1  N4B d   1       0.427   0.483   0.449  0.00  0.00    -0.075 A 
ATOM      2  C2  N4B d   1      -0.343   1.660   0.577  0.00  0.00     0.002 A 
ATOM      3  C3  N4B d   1       0.243   2.888   0.394  0.00  0.00     0.002 A 
ATOM      4  C4  N4B d   1       1.597   2.965   0.104  0.00  0.00    -0.004 A 
ATOM      5  C5  N4B d   1       2.329   1.823  -0.043  0.00  0.00     0.002 A 
ATOM      6  C6  N4B d   1       1.752   0.582   0.133  0.00  0.00     0.002 A 
ENDROOT
BRANCH   1   7
ATOM      7  C1' N4B d   1      -0.150  -0.878   0.723  0.00  0.00     0.057 C 
BRANCH   7   8
ATOM      8  C2' N4B d   1      -0.465  -1.565  -0.602  0.00  0.00     0.009 C 
BRANCH   8   9
ATOM      9  C3' N4B d   1      -1.264  -2.842  -0.405  0.00  0.00     0.004 C 
ATOM     10  C4' N4B d   1      -2.086  -3.204  -1.605  0.00  0.00     0.003 C 
ENDBRANCH   8   9
ENDBRANCH   7   8
ENDBRANCH   1   7
TORSDOF 3
ENDMDL
