MODEL 1
REMARK minimizedAffinity -5.97870779
REMARK minimizedRMSD -1
REMARK  3 active torsions:
REMARK  status: ('A' for Active; 'I' for Inactive)
REMARK    1  A    between atoms: C3'_2  and  C2'_3 
REMARK    2  A    between atoms: C2'_3  and  C1'_4 
REMARK    3  A    between atoms: C1'_4  and  C1_5 
ROOT
ATOM      1  C1  N4B d   1       0.076  -0.028   0.275  0.00  0.00    -0.075 A 
ATOM      2  C2  N4B d   1       1.228   0.790   0.255  0.00  0.00     0.002 A 
ATOM      3  C3  N4B d   1       1.098   2.157   0.236  0.00  0.00     0.002 A 
ATOM      4  C4  N4B d   1      -0.166   2.726   0.217  0.00  0.00    -0.004 A 
ATOM      5  C5  N4B d   1      -1.273   1.930   0.263  0.00  0.00     0.002 A 
ATOM      6  C6  N4B d   1      -1.158   0.555   0.286  0.00  0.00     0.002 A 
ENDROOT
BRANCH   1   7
ATOM      7  C1' N4B d   1       0.166  -1.528   0.209  0.00  0.00     0.057 C 
BRANCH   7   8
ATOM      8  C2' N4B d   1      -1.222  -2.102  -0.060  0.00  0.00     0.009 C 
BRANCH   8   9
ATOM      9  C3' N4B d   1      -1.159  -3.378  -0.882  0.00  0.00     0.004 C 
ATOM     10  C4' N4B d   1      -0.419  -3.200  -2.174  0.00  0.00     0.003 C 
ENDBRANCH   8   9
ENDBRANCH   7   8
ENDBRANCH   1   7
TORSDOF 3
ENDMDL
