MODEL 1
REMARK minimizedAffinity -3.53230095
REMARK minimizedRMSD -1
REMARK  3 active torsions:
REMARK  status: ('A' for Active; 'I' for Inactive)
REMARK    1  A    between atoms: C3'_2  and  C2'_3 
REMARK    2  A    between atoms: C2'_3  and  C1'_4 
REMARK    3  A    between atoms: C1'_4  and  C1_5 
ROOT
ATOM      1  C1  N4B d   1      -0.055  -1.949  -0.176  0.00  0.00    -0.075 A 
ATOM      2  C2  N4B d   1      -1.045  -2.930  -0.407  0.00  0.00     0.002 A 
ATOM      3  C3  N4B d   1      -1.014  -3.680  -1.556  0.00  0.00     0.002 A 
ATOM      4  C4  N4B d   1      -0.018  -3.456  -2.495  0.00  0.00    -0.004 A 
ATOM      5  C5  N4B d   1       0.949  -2.524  -2.253  0.00  0.00     0.002 A 
ATOM      6  C6  N4B d   1       0.933  -1.766  -1.100  0.00  0.00     0.002 A 
ENDROOT
BRANCH   1   7
ATOM      7  C1' N4B d   1      -0.097  -1.046   1.026  0.00  0.00     0.057 C 
BRANCH   7   8
ATOM      8  C2' N4B d   1      -1.508  -0.489   1.185  0.00  0.00     0.009 C 
BRANCH   8   9
ATOM      9  C3' N4B d   1      -1.770   0.675   0.245  0.00  0.00     0.004 C 
ATOM     10  C4' N4B d   1      -0.911   1.868   0.546  0.00  0.00     0.003 C 
ENDBRANCH   8   9
ENDBRANCH   7   8
ENDBRANCH   1   7
TORSDOF 3
ENDMDL
