MODEL 1
REMARK minimizedAffinity -4.13936281
REMARK minimizedRMSD -1
REMARK  3 active torsions:
REMARK  status: ('A' for Active; 'I' for Inactive)
REMARK    1  A    between atoms: C3'_2  and  C2'_3 
REMARK    2  A    between atoms: C2'_3  and  C1'_4 
REMARK    3  A    between atoms: C1'_4  and  C1_5 
ROOT
ATOM      1  C1  N4B d   1       0.677   0.376   0.438  0.00  0.00    -0.075 A 
ATOM      2  C2  N4B d   1      -0.553   1.046   0.621  0.00  0.00     0.002 A 
ATOM      3  C3  N4B d   1      -0.567   2.385   0.923  0.00  0.00     0.002 A 
ATOM      4  C4  N4B d   1       0.631   3.069   1.065  0.00  0.00    -0.004 A 
ATOM      5  C5  N4B d   1       1.814   2.421   0.862  0.00  0.00     0.002 A 
ATOM      6  C6  N4B d   1       1.843   1.076   0.554  0.00  0.00     0.002 A 
ENDROOT
BRANCH   1   7
ATOM      7  C1' N4B d   1       0.745  -1.106   0.191  0.00  0.00     0.057 C 
BRANCH   7   8
ATOM      8  C2' N4B d   1      -0.605  -1.733   0.528  0.00  0.00     0.009 C 
BRANCH   8   9
ATOM      9  C3' N4B d   1      -0.931  -2.904  -0.383  0.00  0.00     0.004 C 
ATOM     10  C4' N4B d   1      -0.131  -2.893  -1.651  0.00  0.00     0.003 C 
ENDBRANCH   8   9
ENDBRANCH   7   8
ENDBRANCH   1   7
TORSDOF 3
ENDMDL
