MODEL 1
REMARK minimizedAffinity -3.18468833
REMARK minimizedRMSD -1
REMARK  3 active torsions:
REMARK  status: ('A' for Active; 'I' for Inactive)
REMARK    1  A    between atoms: C3'_2  and  C2'_3 
REMARK    2  A    between atoms: C2'_3  and  C1'_4 
REMARK    3  A    between atoms: C1'_4  and  C1_5 
ROOT
ATOM      1  C1  N4B d   1      -0.488  -0.981   0.091  0.00  0.00    -0.075 A 
ATOM      2  C2  N4B d   1      -1.017  -1.947  -0.792  0.00  0.00     0.002 A 
ATOM      3  C3  N4B d   1      -0.267  -2.393  -1.852  0.00  0.00     0.002 A 
ATOM      4  C4  N4B d   1       1.002  -1.875  -2.060  0.00  0.00    -0.004 A 
ATOM      5  C5  N4B d   1       1.517  -0.961  -1.188  0.00  0.00     0.002 A 
ATOM      6  C6  N4B d   1       0.775  -0.507  -0.116  0.00  0.00     0.002 A 
ENDROOT
BRANCH   1   7
ATOM      7  C1' N4B d   1      -1.302  -0.400   1.214  0.00  0.00     0.057 C 
BRANCH   7   8
ATOM      8  C2' N4B d   1      -2.212   0.693   0.660  0.00  0.00     0.009 C 
BRANCH   8   9
ATOM      9  C3' N4B d   1      -1.421   1.885   0.150  0.00  0.00     0.004 C 
ATOM     10  C4' N4B d   1      -0.767   2.664   1.252  0.00  0.00     0.003 C 
ENDBRANCH   8   9
ENDBRANCH   7   8
ENDBRANCH   1   7
TORSDOF 3
ENDMDL
