MODEL 1
REMARK minimizedAffinity -6.17441273
REMARK minimizedRMSD -1
REMARK  3 active torsions:
REMARK  status: ('A' for Active; 'I' for Inactive)
REMARK    1  A    between atoms: C3'_2  and  C2'_3 
REMARK    2  A    between atoms: C2'_3  and  C1'_4 
REMARK    3  A    between atoms: C1'_4  and  C1_5 
ROOT
ATOM      1  C1  N4B d   1       0.048   0.446  -0.305  0.00  0.00    -0.075 A 
ATOM      2  C2  N4B d   1       1.321   1.049  -0.407  0.00  0.00     0.002 A 
ATOM      3  C3  N4B d   1       1.462   2.396  -0.180  0.00  0.00     0.002 A 
ATOM      4  C4  N4B d   1       0.347   3.160   0.131  0.00  0.00    -0.004 A 
ATOM      5  C5  N4B d   1      -0.874   2.565   0.253  0.00  0.00     0.002 A 
ATOM      6  C6  N4B d   1      -1.031   1.212   0.031  0.00  0.00     0.002 A 
ENDROOT
BRANCH   1   7
ATOM      7  C1' N4B d   1      -0.171  -1.007  -0.628  0.00  0.00     0.057 C 
BRANCH   7   8
ATOM      8  C2' N4B d   1       0.657  -1.377  -1.855  0.00  0.00     0.009 C 
BRANCH   8   9
ATOM      9  C3' N4B d   1       0.072  -2.566  -2.597  0.00  0.00     0.004 C 
ATOM     10  C4' N4B d   1      -1.406  -2.710  -2.391  0.00  0.00     0.003 C 
ENDBRANCH   8   9
ENDBRANCH   7   8
ENDBRANCH   1   7
TORSDOF 3
ENDMDL
