MODEL 1
REMARK minimizedAffinity -5.06157541
REMARK minimizedRMSD -1
REMARK  3 active torsions:
REMARK  status: ('A' for Active; 'I' for Inactive)
REMARK    1  A    between atoms: C3'_2  and  C2'_3 
REMARK    2  A    between atoms: C2'_3  and  C1'_4 
REMARK    3  A    between atoms: C1'_4  and  C1_5 
ROOT
ATOM      1  C1  N4B d   1       0.059   1.137   0.602  0.00  0.00    -0.075 A 
ATOM      2  C2  N4B d   1      -0.456   2.345   1.124  0.00  0.00     0.002 A 
ATOM      3  C3  N4B d   1       0.388   3.252   1.715  0.00  0.00     0.002 A 
ATOM      4  C4  N4B d   1       1.742   2.967   1.813  0.00  0.00    -0.004 A 
ATOM      5  C5  N4B d   1       2.235   1.810   1.284  0.00  0.00     0.002 A 
ATOM      6  C6  N4B d   1       1.399   0.891   0.684  0.00  0.00     0.002 A 
ENDROOT
BRANCH   1   7
ATOM      7  C1' N4B d   1      -0.836   0.076   0.023  0.00  0.00     0.057 C 
BRANCH   7   8
ATOM      8  C2' N4B d   1      -0.080  -1.248  -0.022  0.00  0.00     0.009 C 
BRANCH   8   9
ATOM      9  C3' N4B d   1      -0.290  -1.978  -1.337  0.00  0.00     0.004 C 
ATOM     10  C4' N4B d   1      -1.084  -3.240  -1.180  0.00  0.00     0.003 C 
ENDBRANCH   8   9
ENDBRANCH   7   8
ENDBRANCH   1   7
TORSDOF 3
ENDMDL
