MODEL 1
REMARK minimizedAffinity -1.11104035
REMARK minimizedRMSD -1
REMARK  0 active torsions:
REMARK  status: ('A' for Active; 'I' for Inactive)
ROOT
ATOM      1  C4' PXY d   1      -2.230   0.679   1.730  0.00  0.00     0.077 C 
ATOM      2  C1' PXY d   1       2.401  -1.139  -1.214  0.00  0.00     0.077 C 
ATOM      3  C1  PXY d   1       1.189  -0.650  -0.446  0.00  0.00    -0.082 A 
ATOM      4  C2  PXY d   1       0.726  -1.363   0.568  0.00  0.00     0.003 A 
ATOM      5  C3  PXY d   1      -0.388  -0.952   1.254  0.00  0.00     0.003 A 
ATOM      6  C4  PXY d   1      -1.003   0.228   0.932  0.00  0.00    -0.082 A 
ATOM      7  C5  PXY d   1      -0.531   0.967  -0.095  0.00  0.00     0.003 A 
ATOM      8  C6  PXY d   1       0.576   0.511  -0.804  0.00  0.00     0.003 A 
ENDROOT
TORSDOF 0
ENDMDL
