MODEL 1
REMARK minimizedAffinity -0.744669616
REMARK minimizedRMSD -1
REMARK  0 active torsions:
REMARK  status: ('A' for Active; 'I' for Inactive)
ROOT
ATOM      1  C4' PXY d   1      -2.438   1.402   3.349  0.00  0.00     0.077 C 
ATOM      2  C1' PXY d   1       0.748  -1.049  -0.806  0.00  0.00     0.077 C 
ATOM      3  C1  PXY d   1      -0.092  -0.397   0.275  0.00  0.00    -0.082 A 
ATOM      4  C2  PXY d   1       0.218  -0.587   1.548  0.00  0.00     0.003 A 
ATOM      5  C3  PXY d   1      -0.549  -0.031   2.539  0.00  0.00     0.003 A 
ATOM      6  C4  PXY d   1      -1.613   0.771   2.224  0.00  0.00    -0.082 A 
ATOM      7  C5  PXY d   1      -1.929   0.979   0.928  0.00  0.00     0.003 A 
ATOM      8  C6  PXY d   1      -1.162   0.372  -0.063  0.00  0.00     0.003 A 
ENDROOT
TORSDOF 0
ENDMDL
