MODEL 1
REMARK minimizedAffinity -4.49054384
REMARK minimizedRMSD -1
REMARK  0 active torsions:
REMARK  status: ('A' for Active; 'I' for Inactive)
ROOT
ATOM      1  C4' PXY d   1      -1.609   0.874   1.360  0.00  0.00     0.077 C 
ATOM      2  C1' PXY d   1       3.214  -0.843  -1.324  0.00  0.00     0.077 C 
ATOM      3  C1  PXY d   1       1.949  -0.382  -0.627  0.00  0.00    -0.082 A 
ATOM      4  C2  PXY d   1       1.659  -0.847   0.576  0.00  0.00     0.003 A 
ATOM      5  C3  PXY d   1       0.503  -0.465   1.207  0.00  0.00     0.003 A 
ATOM      6  C4  PXY d   1      -0.338   0.444   0.623  0.00  0.00    -0.082 A 
ATOM      7  C5  PXY d   1      -0.043   0.932  -0.601  0.00  0.00     0.003 A 
ATOM      8  C6  PXY d   1       1.115   0.500  -1.242  0.00  0.00     0.003 A 
ENDROOT
TORSDOF 0
ENDMDL
