MODEL 1
REMARK minimizedAffinity -2.74424696
REMARK minimizedRMSD -1
REMARK  0 active torsions:
REMARK  status: ('A' for Active; 'I' for Inactive)
ROOT
ATOM      1  C4' PXY d   1      -2.270  -0.003   2.234  0.00  0.00     0.077 C 
ATOM      2  C1' PXY d   1       1.442  -1.646  -1.881  0.00  0.00     0.077 C 
ATOM      3  C1  PXY d   1       0.461  -1.225  -0.806  0.00  0.00    -0.082 A 
ATOM      4  C2  PXY d   1       0.482   0.018  -0.351  0.00  0.00     0.003 A 
ATOM      5  C3  PXY d   1      -0.377   0.407   0.644  0.00  0.00     0.003 A 
ATOM      6  C4  PXY d   1      -1.304  -0.470   1.141  0.00  0.00    -0.082 A 
ATOM      7  C5  PXY d   1      -1.339  -1.736   0.675  0.00  0.00     0.003 A 
ATOM      8  C6  PXY d   1      -0.431  -2.123  -0.306  0.00  0.00     0.003 A 
ENDROOT
TORSDOF 0
ENDMDL
