MODEL 1
REMARK minimizedAffinity -3.46268702
REMARK minimizedRMSD -1
REMARK  0 active torsions:
REMARK  status: ('A' for Active; 'I' for Inactive)
ROOT
ATOM      1  C4' PXY d   1       2.686  -0.286  -2.096  0.00  0.00     0.077 C 
ATOM      2  C1' PXY d   1      -1.707   0.256   1.622  0.00  0.00     0.077 C 
ATOM      3  C1  PXY d   1      -0.551   0.103   0.654  0.00  0.00    -0.082 A 
ATOM      4  C2  PXY d   1      -0.124   1.155  -0.026  0.00  0.00     0.003 A 
ATOM      5  C3  PXY d   1       0.900   1.028  -0.930  0.00  0.00     0.003 A 
ATOM      6  C4  PXY d   1       1.528  -0.176  -1.101  0.00  0.00    -0.082 A 
ATOM      7  C5  PXY d   1       1.105  -1.252  -0.403  0.00  0.00     0.003 A 
ATOM      8  C6  PXY d   1       0.038  -1.111   0.479  0.00  0.00     0.003 A 
ENDROOT
TORSDOF 0
ENDMDL
