MODEL 1
REMARK minimizedAffinity -1.62780023
REMARK minimizedRMSD -1
REMARK  0 active torsions:
REMARK  status: ('A' for Active; 'I' for Inactive)
ROOT
ATOM      1  C4' PXY d   1       2.648  -0.582  -2.252  0.00  0.00     0.077 C 
ATOM      2  C1' PXY d   1      -1.691   0.810   1.305  0.00  0.00     0.077 C 
ATOM      3  C1  PXY d   1      -0.558   0.453   0.364  0.00  0.00    -0.082 A 
ATOM      4  C2  PXY d   1       0.068  -0.705   0.502  0.00  0.00     0.003 A 
ATOM      5  C3  PXY d   1       1.116  -1.029  -0.320  0.00  0.00     0.003 A 
ATOM      6  C4  PXY d   1       1.492  -0.184  -1.330  0.00  0.00    -0.082 A 
ATOM      7  C5  PXY d   1       0.851   0.994  -1.484  0.00  0.00     0.003 A 
ATOM      8  C6  PXY d   1      -0.183   1.323  -0.613  0.00  0.00     0.003 A 
ENDROOT
TORSDOF 0
ENDMDL
