MODEL 1
REMARK minimizedAffinity -4.95160294
REMARK minimizedRMSD -1
REMARK  0 active torsions:
REMARK  status: ('A' for Active; 'I' for Inactive)
ROOT
ATOM      1  C4' PXY d   1      -1.134   0.037   0.771  0.00  0.00     0.077 C 
ATOM      2  C1' PXY d   1       3.768  -0.252  -2.278  0.00  0.00     0.077 C 
ATOM      3  C1  PXY d   1       2.481  -0.189  -1.480  0.00  0.00    -0.082 A 
ATOM      4  C2  PXY d   1       1.823   0.955  -1.389  0.00  0.00     0.003 A 
ATOM      5  C3  PXY d   1       0.674   1.038  -0.645  0.00  0.00     0.003 A 
ATOM      6  C4  PXY d   1       0.165  -0.075  -0.032  0.00  0.00    -0.082 A 
ATOM      7  C5  PXY d   1       0.825  -1.249  -0.128  0.00  0.00     0.003 A 
ATOM      8  C6  PXY d   1       2.011  -1.302  -0.854  0.00  0.00     0.003 A 
ENDROOT
TORSDOF 0
ENDMDL
