MODEL 1
REMARK minimizedAffinity -5.55002451
REMARK minimizedRMSD -1
REMARK  0 active torsions:
REMARK  status: ('A' for Active; 'I' for Inactive)
ROOT
ATOM      1  C4' PXY d   1      -2.356   1.587   3.621  0.00  0.00     0.077 C 
ATOM      2  C1' PXY d   1       1.225  -0.676  -0.313  0.00  0.00     0.077 C 
ATOM      3  C1  PXY d   1       0.294  -0.087   0.729  0.00  0.00    -0.082 A 
ATOM      4  C2  PXY d   1      -0.968   0.158   0.414  0.00  0.00     0.003 A 
ATOM      5  C3  PXY d   1      -1.816   0.720   1.333  0.00  0.00     0.003 A 
ATOM      6  C4  PXY d   1      -1.382   0.984   2.605  0.00  0.00    -0.082 A 
ATOM      7  C5  PXY d   1      -0.099   0.727   2.937  0.00  0.00     0.003 A 
ATOM      8  C6  PXY d   1       0.756   0.195   1.977  0.00  0.00     0.003 A 
ENDROOT
TORSDOF 0
ENDMDL
