MODEL 1
REMARK minimizedAffinity -3.99351597
REMARK minimizedRMSD -1
REMARK  0 active torsions:
REMARK  status: ('A' for Active; 'I' for Inactive)
ROOT
ATOM      1  C4' PXY d   1      -1.210   0.403   1.524  0.00  0.00     0.077 C 
ATOM      2  C1' PXY d   1       2.484  -1.163  -2.638  0.00  0.00     0.077 C 
ATOM      3  C1  PXY d   1       1.508  -0.763  -1.549  0.00  0.00    -0.082 A 
ATOM      4  C2  PXY d   1       1.401   0.509  -1.202  0.00  0.00     0.003 A 
ATOM      5  C3  PXY d   1       0.547   0.884  -0.197  0.00  0.00     0.003 A 
ATOM      6  C4  PXY d   1      -0.244  -0.046   0.423  0.00  0.00    -0.082 A 
ATOM      7  C5  PXY d   1      -0.148  -1.344   0.067  0.00  0.00     0.003 A 
ATOM      8  C6  PXY d   1       0.755  -1.710  -0.927  0.00  0.00     0.003 A 
ENDROOT
TORSDOF 0
ENDMDL
