MODEL 1
REMARK minimizedAffinity -3.00157928
REMARK minimizedRMSD -1
REMARK  0 active torsions:
REMARK  status: ('A' for Active; 'I' for Inactive)
ROOT
ATOM      1  C4' PXY d   1      -2.028   1.258   1.735  0.00  0.00     0.077 C 
ATOM      2  C1' PXY d   1       1.809  -2.090  -1.000  0.00  0.00     0.077 C 
ATOM      3  C1  PXY d   1       0.796  -1.211  -0.294  0.00  0.00    -0.082 A 
ATOM      4  C2  PXY d   1       1.150  -0.552   0.798  0.00  0.00     0.003 A 
ATOM      5  C3  PXY d   1       0.237   0.222   1.467  0.00  0.00     0.003 A 
ATOM      6  C4  PXY d   1      -1.036   0.366   0.984  0.00  0.00    -0.082 A 
ATOM      7  C5  PXY d   1      -1.401  -0.294  -0.135  0.00  0.00     0.003 A 
ATOM      8  C6  PXY d   1      -0.472  -1.108  -0.777  0.00  0.00     0.003 A 
ENDROOT
TORSDOF 0
ENDMDL
