MODEL 1
REMARK minimizedAffinity -4.65180683
REMARK minimizedRMSD -1
REMARK  0 active torsions:
REMARK  status: ('A' for Active; 'I' for Inactive)
ROOT
ATOM      1  C4' PXY d   1      -1.633  -0.196   0.779  0.00  0.00     0.077 C 
ATOM      2  C1' PXY d   1       2.574   1.265  -2.906  0.00  0.00     0.077 C 
ATOM      3  C1  PXY d   1       1.476   0.870  -1.938  0.00  0.00    -0.082 A 
ATOM      4  C2  PXY d   1       0.305   1.485  -1.991  0.00  0.00     0.003 A 
ATOM      5  C3  PXY d   1      -0.688   1.163  -1.102  0.00  0.00     0.003 A 
ATOM      6  C4  PXY d   1      -0.499   0.164  -0.184  0.00  0.00    -0.082 A 
ATOM      7  C5  PXY d   1       0.689  -0.475  -0.132  0.00  0.00     0.003 A 
ATOM      8  C6  PXY d   1       1.698  -0.105  -1.016  0.00  0.00     0.003 A 
ENDROOT
TORSDOF 0
ENDMDL
