MODEL 1
REMARK minimizedAffinity -6.08961916
REMARK minimizedRMSD -1
REMARK  0 active torsions:
REMARK  status: ('A' for Active; 'I' for Inactive)
ROOT
ATOM      1  C4' PXY d   1       1.776   0.799  -3.315  0.00  0.00     0.077 C 
ATOM      2  C1' PXY d   1       1.294  -1.470   1.979  0.00  0.00     0.077 C 
ATOM      3  C1  PXY d   1       1.433  -0.876   0.592  0.00  0.00    -0.082 A 
ATOM      4  C2  PXY d   1       0.469  -0.109   0.109  0.00  0.00     0.003 A 
ATOM      5  C3  PXY d   1       0.565   0.410  -1.157  0.00  0.00     0.003 A 
ATOM      6  C4  PXY d   1       1.682   0.185  -1.915  0.00  0.00    -0.082 A 
ATOM      7  C5  PXY d   1       2.675  -0.587  -1.425  0.00  0.00     0.003 A 
ATOM      8  C6  PXY d   1       2.540  -1.139  -0.155  0.00  0.00     0.003 A 
ENDROOT
TORSDOF 0
ENDMDL
