MODEL 1
REMARK minimizedAffinity -2.3645916
REMARK minimizedRMSD -1
REMARK  0 active torsions:
REMARK  status: ('A' for Active; 'I' for Inactive)
ROOT
ATOM      1  C4' PXY d   1       3.104  -1.186  -2.269  0.00  0.00     0.077 C 
ATOM      2  C1' PXY d   1      -1.833   0.425   0.269  0.00  0.00     0.077 C 
ATOM      3  C1  PXY d   1      -0.541   0.010  -0.407  0.00  0.00    -0.082 A 
ATOM      4  C2  PXY d   1       0.053  -1.115  -0.046  0.00  0.00     0.003 A 
ATOM      5  C3  PXY d   1       1.239  -1.490  -0.624  0.00  0.00     0.003 A 
ATOM      6  C4  PXY d   1       1.793  -0.732  -1.621  0.00  0.00    -0.082 A 
ATOM      7  C5  PXY d   1       1.187   0.412  -2.003  0.00  0.00     0.003 A 
ATOM      8  C6  PXY d   1       0.006   0.795  -1.374  0.00  0.00     0.003 A 
ENDROOT
TORSDOF 0
ENDMDL
