MODEL 1
REMARK minimizedAffinity -2.29532957
REMARK minimizedRMSD -1
REMARK  0 active torsions:
REMARK  status: ('A' for Active; 'I' for Inactive)
ROOT
ATOM      1  C4' PXY d   1      -1.807   1.151   3.420  0.00  0.00     0.077 C 
ATOM      2  C1' PXY d   1       0.871  -1.049  -1.206  0.00  0.00     0.077 C 
ATOM      3  C1  PXY d   1       0.175  -0.481   0.015  0.00  0.00    -0.082 A 
ATOM      4  C2  PXY d   1      -0.979   0.150  -0.125  0.00  0.00     0.003 A 
ATOM      5  C3  PXY d   1      -1.607   0.698   0.964  0.00  0.00     0.003 A 
ATOM      6  C4  PXY d   1      -1.074   0.553   2.217  0.00  0.00    -0.082 A 
ATOM      7  C5  PXY d   1       0.099  -0.099   2.369  0.00  0.00     0.003 A 
ATOM      8  C6  PXY d   1       0.740  -0.612   1.246  0.00  0.00     0.003 A 
ENDROOT
TORSDOF 0
ENDMDL
