MODEL 1
REMARK minimizedAffinity -3.18910241
REMARK minimizedRMSD -1
REMARK  0 active torsions:
REMARK  status: ('A' for Active; 'I' for Inactive)
ROOT
ATOM      1  C4' PXY d   1      -1.867  -0.831   0.495  0.00  0.00     0.077 C 
ATOM      2  C1' PXY d   1       3.700  -0.507  -1.028  0.00  0.00     0.077 C 
ATOM      3  C1  PXY d   1       2.241  -0.581  -0.622  0.00  0.00    -0.082 A 
ATOM      4  C2  PXY d   1       1.633  -1.755  -0.579  0.00  0.00     0.003 A 
ATOM      5  C3  PXY d   1       0.305  -1.836  -0.245  0.00  0.00     0.003 A 
ATOM      6  C4  PXY d   1      -0.393  -0.710   0.100  0.00  0.00    -0.082 A 
ATOM      7  C5  PXY d   1       0.224   0.490   0.068  0.00  0.00     0.003 A 
ATOM      8  C6  PXY d   1       1.561   0.556  -0.313  0.00  0.00     0.003 A 
ENDROOT
TORSDOF 0
ENDMDL
