MODEL 1
REMARK minimizedAffinity -4.37184811
REMARK minimizedRMSD -1
REMARK  0 active torsions:
REMARK  status: ('A' for Active; 'I' for Inactive)
ROOT
ATOM      1  C4' PXY d   1       1.508   2.612  -2.552  0.00  0.00     0.077 C 
ATOM      2  C1' PXY d   1       1.781  -2.576  -0.016  0.00  0.00     0.077 C 
ATOM      3  C1  PXY d   1       1.723  -1.216  -0.683  0.00  0.00    -0.082 A 
ATOM      4  C2  PXY d   1       0.716  -0.399  -0.416  0.00  0.00     0.003 A 
ATOM      5  C3  PXY d   1       0.631   0.822  -1.034  0.00  0.00     0.003 A 
ATOM      6  C4  PXY d   1       1.613   1.233  -1.895  0.00  0.00    -0.082 A 
ATOM      7  C5  PXY d   1       2.649   0.410  -2.164  0.00  0.00     0.003 A 
ATOM      8  C6  PXY d   1       2.696  -0.842  -1.558  0.00  0.00     0.003 A 
ENDROOT
TORSDOF 0
ENDMDL
