MODEL 1
REMARK minimizedAffinity -4.04487324
REMARK minimizedRMSD -1
REMARK  0 active torsions:
REMARK  status: ('A' for Active; 'I' for Inactive)
ROOT
ATOM      1  C4' PXY d   1      -2.014   0.390   2.071  0.00  0.00     0.077 C 
ATOM      2  C1' PXY d   1       2.444  -0.728  -1.434  0.00  0.00     0.077 C 
ATOM      3  C1  PXY d   1       1.273  -0.424  -0.521  0.00  0.00    -0.082 A 
ATOM      4  C2  PXY d   1       1.220  -0.974   0.681  0.00  0.00     0.003 A 
ATOM      5  C3  PXY d   1       0.152  -0.734   1.507  0.00  0.00     0.003 A 
ATOM      6  C4  PXY d   1      -0.846   0.119   1.119  0.00  0.00    -0.082 A 
ATOM      7  C5  PXY d   1      -0.794   0.692  -0.102  0.00  0.00     0.003 A 
ATOM      8  C6  PXY d   1       0.278   0.404  -0.941  0.00  0.00     0.003 A 
ENDROOT
TORSDOF 0
ENDMDL
