MODEL 1
REMARK minimizedAffinity 1.05543482
REMARK minimizedRMSD -1
REMARK  0 active torsions:
REMARK  status: ('A' for Active; 'I' for Inactive)
ROOT
ATOM      1  C4' PXY d   1       0.996   1.284  -0.747  0.00  0.00     0.077 C 
ATOM      2  C1' PXY d   1      -1.905   0.312   4.157  0.00  0.00     0.077 C 
ATOM      3  C1  PXY d   1      -1.144   0.554   2.869  0.00  0.00    -0.082 A 
ATOM      4  C2  PXY d   1      -0.442   1.666   2.723  0.00  0.00     0.003 A 
ATOM      5  C3  PXY d   1       0.226   1.916   1.552  0.00  0.00     0.003 A 
ATOM      6  C4  PXY d   1       0.220   0.993   0.540  0.00  0.00    -0.082 A 
ATOM      7  C5  PXY d   1      -0.485  -0.149   0.686  0.00  0.00     0.003 A 
ATOM      8  C6  PXY d   1      -1.191  -0.364   1.866  0.00  0.00     0.003 A 
ENDROOT
TORSDOF 0
ENDMDL
