MODEL 1
REMARK minimizedAffinity -4.84382248
REMARK minimizedRMSD -1
REMARK  0 active torsions:
REMARK  status: ('A' for Active; 'I' for Inactive)
ROOT
ATOM      1  C4' PXY d   1      -2.091  -0.009   0.889  0.00  0.00     0.077 C 
ATOM      2  C1' PXY d   1       3.288  -0.659  -1.127  0.00  0.00     0.077 C 
ATOM      3  C1  PXY d   1       1.874  -0.501  -0.602  0.00  0.00    -0.082 A 
ATOM      4  C2  PXY d   1       1.359   0.710  -0.467  0.00  0.00     0.003 A 
ATOM      5  C3  PXY d   1       0.093   0.873   0.036  0.00  0.00     0.003 A 
ATOM      6  C4  PXY d   1      -0.671  -0.217   0.355  0.00  0.00    -0.082 A 
ATOM      7  C5  PXY d   1      -0.156  -1.456   0.210  0.00  0.00     0.003 A 
ATOM      8  C6  PXY d   1       1.145  -1.599  -0.264  0.00  0.00     0.003 A 
ENDROOT
TORSDOF 0
ENDMDL
