MODEL 1
REMARK minimizedAffinity -3.86175346
REMARK minimizedRMSD -1
REMARK  1 active torsions:
REMARK  status: ('A' for Active; 'I' for Inactive)
REMARK    1  A    between atoms: C3_4  and  O_7 
ROOT
ATOM      1  C   UNL d   1       0.130  -1.207   1.087  0.00  0.00    -0.033 A 
ATOM      2  C1  UNL d   1      -0.252  -0.133   0.281  0.00  0.00     0.039 A 
ATOM      3  C2  UNL d   1      -1.576  -0.016  -0.148  0.00  0.00    -0.080 A 
ATOM      4  C3  UNL d   1      -2.506  -0.978   0.236  0.00  0.00     0.150 A 
ATOM      5  C4  UNL d   1      -2.133  -2.049   1.042  0.00  0.00    -0.007 A 
ATOM      6  C5  UNL d   1      -0.811  -2.164   1.469  0.00  0.00     0.039 A 
ENDROOT
BRANCH   4   7
ATOM      7  O   UNL d   1      -3.808  -0.909  -0.162  0.00  0.00    -0.526 OA
ATOM      8  H5  UNL d   1      -3.913  -0.133  -0.738  0.00  0.00     0.418 HD
ENDBRANCH   4   7
TORSDOF 1
ENDMDL
