MODEL 1
REMARK minimizedAffinity -4.78411531
REMARK minimizedRMSD -1
REMARK  1 active torsions:
REMARK  status: ('A' for Active; 'I' for Inactive)
REMARK    1  A    between atoms: C3_4  and  O_7 
ROOT
ATOM      1  C   UNL d   1      -0.685  -1.942   1.483  0.00  0.00    -0.033 A 
ATOM      2  C1  UNL d   1      -1.911  -2.572   1.261  0.00  0.00     0.039 A 
ATOM      3  C2  UNL d   1      -2.817  -2.035   0.345  0.00  0.00    -0.080 A 
ATOM      4  C3  UNL d   1      -2.486  -0.871  -0.343  0.00  0.00     0.150 A 
ATOM      5  C4  UNL d   1      -1.264  -0.240  -0.129  0.00  0.00    -0.007 A 
ATOM      6  C5  UNL d   1      -0.361  -0.777   0.787  0.00  0.00     0.039 A 
ENDROOT
BRANCH   4   7
ATOM      7  O   UNL d   1      -3.340  -0.307  -1.243  0.00  0.00    -0.526 OA
ATOM      8  H5  UNL d   1      -4.155  -0.835  -1.266  0.00  0.00     0.418 HD
ENDBRANCH   4   7
TORSDOF 1
ENDMDL
