MODEL 1
REMARK minimizedAffinity -3.52594972
REMARK minimizedRMSD -1
REMARK  1 active torsions:
REMARK  status: ('A' for Active; 'I' for Inactive)
REMARK    1  A    between atoms: C3_4  and  O_7 
ROOT
ATOM      1  C   UNL d   1       0.159   0.200  -0.655  0.00  0.00    -0.033 A 
ATOM      2  C1  UNL d   1      -0.493   0.767   0.442  0.00  0.00     0.039 A 
ATOM      3  C2  UNL d   1      -1.848   0.513   0.659  0.00  0.00    -0.080 A 
ATOM      4  C3  UNL d   1      -2.540  -0.310  -0.226  0.00  0.00     0.150 A 
ATOM      5  C4  UNL d   1      -1.896  -0.881  -1.318  0.00  0.00    -0.007 A 
ATOM      6  C5  UNL d   1      -0.543  -0.626  -1.534  0.00  0.00     0.039 A 
ENDROOT
BRANCH   4   7
ATOM      7  O   UNL d   1      -3.865  -0.583  -0.058  0.00  0.00    -0.526 OA
ATOM      8  H5  UNL d   1      -4.183  -0.097   0.722  0.00  0.00     0.418 HD
ENDBRANCH   4   7
TORSDOF 1
ENDMDL
