MODEL 1
REMARK minimizedAffinity -5.19747782
REMARK minimizedRMSD -1
REMARK  1 active torsions:
REMARK  status: ('A' for Active; 'I' for Inactive)
REMARK    1  A    between atoms: C3_4  and  O_7 
ROOT
ATOM      1  C   UNL d   1      -3.343  -1.345  -0.216  0.00  0.00    -0.033 A 
ATOM      2  C1  UNL d   1      -2.655  -1.854   0.888  0.00  0.00     0.039 A 
ATOM      3  C2  UNL d   1      -1.309  -1.536   1.081  0.00  0.00    -0.080 A 
ATOM      4  C3  UNL d   1      -0.664  -0.708   0.166  0.00  0.00     0.150 A 
ATOM      5  C4  UNL d   1      -1.344  -0.195  -0.933  0.00  0.00    -0.007 A 
ATOM      6  C5  UNL d   1      -2.688  -0.514  -1.125  0.00  0.00     0.039 A 
ENDROOT
BRANCH   4   7
ATOM      7  O   UNL d   1       0.650  -0.374   0.310  0.00  0.00    -0.526 OA
ATOM      8  H5  UNL d   1       0.997  -0.824   1.098  0.00  0.00     0.418 HD
ENDBRANCH   4   7
TORSDOF 1
ENDMDL
