MODEL 1
REMARK minimizedAffinity -0.0769497827
REMARK minimizedRMSD -1
REMARK  1 active torsions:
REMARK  status: ('A' for Active; 'I' for Inactive)
REMARK    1  A    between atoms: C3_4  and  O_7 
ROOT
ATOM      1  C   UNL d   1      -2.799  -1.784   0.602  0.00  0.00    -0.033 A 
ATOM      2  C1  UNL d   1      -2.940  -1.823  -0.786  0.00  0.00     0.039 A 
ATOM      3  C2  UNL d   1      -2.072  -1.091  -1.599  0.00  0.00    -0.080 A 
ATOM      4  C3  UNL d   1      -1.068  -0.326  -1.012  0.00  0.00     0.150 A 
ATOM      5  C4  UNL d   1      -0.920  -0.286   0.371  0.00  0.00    -0.007 A 
ATOM      6  C5  UNL d   1      -1.788  -1.017   1.181  0.00  0.00     0.039 A 
ENDROOT
BRANCH   4   7
ATOM      7  O   UNL d   1      -0.200   0.408  -1.763  0.00  0.00    -0.526 OA
ATOM      8  H5  UNL d   1      -0.441   0.306  -2.699  0.00  0.00     0.418 HD
ENDBRANCH   4   7
TORSDOF 1
ENDMDL
