MODEL 1
REMARK minimizedAffinity -3.4130826
REMARK minimizedRMSD -1
REMARK  1 active torsions:
REMARK  status: ('A' for Active; 'I' for Inactive)
REMARK    1  A    between atoms: C3_4  and  O_7 
ROOT
ATOM      1  C   UNL d   1       0.651   0.356  -0.441  0.00  0.00    -0.033 A 
ATOM      2  C1  UNL d   1       0.328  -0.288   0.754  0.00  0.00     0.039 A 
ATOM      3  C2  UNL d   1      -0.947  -0.827   0.936  0.00  0.00    -0.080 A 
ATOM      4  C3  UNL d   1      -1.888  -0.717  -0.084  0.00  0.00     0.150 A 
ATOM      5  C4  UNL d   1      -1.571  -0.080  -1.279  0.00  0.00    -0.007 A 
ATOM      6  C5  UNL d   1      -0.298   0.459  -1.459  0.00  0.00     0.039 A 
ENDROOT
BRANCH   4   7
ATOM      7  O   UNL d   1      -3.147  -1.223   0.049  0.00  0.00    -0.526 OA
ATOM      8  H5  UNL d   1      -3.231  -1.609   0.937  0.00  0.00     0.418 HD
ENDBRANCH   4   7
TORSDOF 1
ENDMDL
