MODEL 1
REMARK minimizedAffinity -3.47261429
REMARK minimizedRMSD -1
REMARK  1 active torsions:
REMARK  status: ('A' for Active; 'I' for Inactive)
REMARK    1  A    between atoms: C3_4  and  O_7 
ROOT
ATOM      1  C   UNL d   1       0.907  -0.143  -0.071  0.00  0.00    -0.033 A 
ATOM      2  C1  UNL d   1       0.233  -0.870   0.911  0.00  0.00     0.039 A 
ATOM      3  C2  UNL d   1      -1.126  -1.156   0.762  0.00  0.00    -0.080 A 
ATOM      4  C3  UNL d   1      -1.797  -0.711  -0.374  0.00  0.00     0.150 A 
ATOM      5  C4  UNL d   1      -1.130   0.010  -1.359  0.00  0.00    -0.007 A 
ATOM      6  C5  UNL d   1       0.226   0.296  -1.207  0.00  0.00     0.039 A 
ENDROOT
BRANCH   4   7
ATOM      7  O   UNL d   1      -3.123  -0.962  -0.562  0.00  0.00    -0.526 OA
ATOM      8  H5  UNL d   1      -3.458  -1.444   0.213  0.00  0.00     0.418 HD
ENDBRANCH   4   7
TORSDOF 1
ENDMDL
