MODEL 1
REMARK minimizedAffinity -1.68245792
REMARK minimizedRMSD -1
REMARK  1 active torsions:
REMARK  status: ('A' for Active; 'I' for Inactive)
REMARK    1  A    between atoms: C3_4  and  O_7 
ROOT
ATOM      1  C   UNL d   1       1.680   1.213   2.147  0.00  0.00    -0.033 A 
ATOM      2  C1  UNL d   1       0.657   0.269   2.038  0.00  0.00     0.039 A 
ATOM      3  C2  UNL d   1       0.205  -0.131   0.779  0.00  0.00    -0.080 A 
ATOM      4  C3  UNL d   1       0.784   0.418  -0.361  0.00  0.00     0.150 A 
ATOM      5  C4  UNL d   1       1.807   1.355  -0.261  0.00  0.00    -0.007 A 
ATOM      6  C5  UNL d   1       2.256   1.755   0.997  0.00  0.00     0.039 A 
ENDROOT
BRANCH   4   7
ATOM      7  O   UNL d   1       0.373   0.061  -1.611  0.00  0.00    -0.526 OA
ATOM      8  H5  UNL d   1      -0.358  -0.573  -1.526  0.00  0.00     0.418 HD
ENDBRANCH   4   7
TORSDOF 1
ENDMDL
