MODEL 1
REMARK minimizedAffinity -3.30724096
REMARK minimizedRMSD -1
REMARK  1 active torsions:
REMARK  status: ('A' for Active; 'I' for Inactive)
REMARK    1  A    between atoms: C3_4  and  O_7 
ROOT
ATOM      1  C   UNL d   1      -3.156  -1.779   0.027  0.00  0.00    -0.033 A 
ATOM      2  C1  UNL d   1      -2.068  -2.257   0.759  0.00  0.00     0.039 A 
ATOM      3  C2  UNL d   1      -0.849  -1.576   0.726  0.00  0.00    -0.080 A 
ATOM      4  C3  UNL d   1      -0.733  -0.420  -0.041  0.00  0.00     0.150 A 
ATOM      5  C4  UNL d   1      -1.814   0.064  -0.770  0.00  0.00    -0.007 A 
ATOM      6  C5  UNL d   1      -3.030  -0.618  -0.736  0.00  0.00     0.039 A 
ENDROOT
BRANCH   4   7
ATOM      7  O   UNL d   1       0.438   0.275  -0.108  0.00  0.00    -0.526 OA
ATOM      8  H5  UNL d   1       1.104  -0.192   0.422  0.00  0.00     0.418 HD
ENDBRANCH   4   7
TORSDOF 1
ENDMDL
