MODEL 1
REMARK minimizedAffinity -4.52412796
REMARK minimizedRMSD -1
REMARK  1 active torsions:
REMARK  status: ('A' for Active; 'I' for Inactive)
REMARK    1  A    between atoms: C3_4  and  O_7 
ROOT
ATOM      1  C   UNL d   1      -2.982  -0.534  -0.333  0.00  0.00    -0.033 A 
ATOM      2  C1  UNL d   1      -1.723  -0.044   0.018  0.00  0.00     0.039 A 
ATOM      3  C2  UNL d   1      -0.883  -0.799   0.838  0.00  0.00    -0.080 A 
ATOM      4  C3  UNL d   1      -1.312  -2.041   1.299  0.00  0.00     0.150 A 
ATOM      5  C4  UNL d   1      -2.564  -2.537   0.949  0.00  0.00    -0.007 A 
ATOM      6  C5  UNL d   1      -3.402  -1.781   0.131  0.00  0.00     0.039 A 
ENDROOT
BRANCH   4   7
ATOM      7  O   UNL d   1      -0.528  -2.812   2.105  0.00  0.00    -0.526 OA
ATOM      8  H5  UNL d   1       0.295  -2.329   2.287  0.00  0.00     0.418 HD
ENDBRANCH   4   7
TORSDOF 1
ENDMDL
