MODEL 1
REMARK minimizedAffinity -3.6503942
REMARK minimizedRMSD -1
REMARK  1 active torsions:
REMARK  status: ('A' for Active; 'I' for Inactive)
REMARK    1  A    between atoms: C3_4  and  O_7 
ROOT
ATOM      1  C   UNL d   1      -2.622  -0.035  -1.849  0.00  0.00    -0.033 A 
ATOM      2  C1  UNL d   1      -2.669  -1.168  -1.034  0.00  0.00     0.039 A 
ATOM      3  C2  UNL d   1      -1.542  -1.552  -0.305  0.00  0.00    -0.080 A 
ATOM      4  C3  UNL d   1      -0.377  -0.796  -0.398  0.00  0.00     0.150 A 
ATOM      5  C4  UNL d   1      -0.324   0.336  -1.205  0.00  0.00    -0.007 A 
ATOM      6  C5  UNL d   1      -1.450   0.718  -1.933  0.00  0.00     0.039 A 
ENDROOT
BRANCH   4   7
ATOM      7  O   UNL d   1       0.749  -1.135   0.291  0.00  0.00    -0.526 OA
ATOM      8  H5  UNL d   1       0.574  -1.954   0.783  0.00  0.00     0.418 HD
ENDBRANCH   4   7
TORSDOF 1
ENDMDL
