MODEL 1
REMARK minimizedAffinity -3.02364445
REMARK minimizedRMSD -1
REMARK  1 active torsions:
REMARK  status: ('A' for Active; 'I' for Inactive)
REMARK    1  A    between atoms: C3_4  and  O_7 
ROOT
ATOM      1  C   UNL d   1      -1.151   0.451  -0.774  0.00  0.00    -0.033 A 
ATOM      2  C1  UNL d   1      -2.316  -0.258  -1.073  0.00  0.00     0.039 A 
ATOM      3  C2  UNL d   1      -2.640  -1.409  -0.353  0.00  0.00    -0.080 A 
ATOM      4  C3  UNL d   1      -1.791  -1.840   0.664  0.00  0.00     0.150 A 
ATOM      5  C4  UNL d   1      -0.631  -1.136   0.970  0.00  0.00    -0.007 A 
ATOM      6  C5  UNL d   1      -0.309   0.012   0.248  0.00  0.00     0.039 A 
ENDROOT
BRANCH   4   7
ATOM      7  O   UNL d   1      -2.063  -2.960   1.392  0.00  0.00    -0.526 OA
ATOM      8  H5  UNL d   1      -2.881  -3.358   1.050  0.00  0.00     0.418 HD
ENDBRANCH   4   7
TORSDOF 1
ENDMDL
