MODEL 1
REMARK minimizedAffinity -5.18939829
REMARK minimizedRMSD -1
REMARK  1 active torsions:
REMARK  status: ('A' for Active; 'I' for Inactive)
REMARK    1  A    between atoms: C3_4  and  O_7 
ROOT
ATOM      1  C   UNL d   1      -3.113  -1.056   0.186  0.00  0.00    -0.033 A 
ATOM      2  C1  UNL d   1      -2.024  -0.197   0.031  0.00  0.00     0.039 A 
ATOM      3  C2  UNL d   1      -0.752  -0.599   0.443  0.00  0.00    -0.080 A 
ATOM      4  C3  UNL d   1      -0.583  -1.860   1.006  0.00  0.00     0.150 A 
ATOM      5  C4  UNL d   1      -1.663  -2.723   1.160  0.00  0.00    -0.007 A 
ATOM      6  C5  UNL d   1      -2.933  -2.320   0.749  0.00  0.00     0.039 A 
ENDROOT
BRANCH   4   7
ATOM      7  O   UNL d   1       0.639  -2.295   1.428  0.00  0.00    -0.526 OA
ATOM      8  H5  UNL d   1       1.285  -1.583   1.286  0.00  0.00     0.418 HD
ENDBRANCH   4   7
TORSDOF 1
ENDMDL
