MODEL 1
REMARK minimizedAffinity -3.6932292
REMARK minimizedRMSD -1
REMARK  1 active torsions:
REMARK  status: ('A' for Active; 'I' for Inactive)
REMARK    1  A    between atoms: C3_4  and  O_7 
ROOT
ATOM      1  C   UNL d   1      -2.723  -0.502  -0.823  0.00  0.00    -0.033 A 
ATOM      2  C1  UNL d   1      -1.834  -0.034  -1.792  0.00  0.00     0.039 A 
ATOM      3  C2  UNL d   1      -0.557   0.392  -1.424  0.00  0.00    -0.080 A 
ATOM      4  C3  UNL d   1      -0.180   0.343  -0.084  0.00  0.00     0.150 A 
ATOM      5  C4  UNL d   1      -1.059  -0.127   0.886  0.00  0.00    -0.007 A 
ATOM      6  C5  UNL d   1      -2.335  -0.550   0.517  0.00  0.00     0.039 A 
ENDROOT
BRANCH   4   7
ATOM      7  O   UNL d   1       1.055   0.752   0.324  0.00  0.00    -0.526 OA
ATOM      8  H5  UNL d   1       1.543   1.077  -0.451  0.00  0.00     0.418 HD
ENDBRANCH   4   7
TORSDOF 1
ENDMDL
