MODEL 1
REMARK minimizedAffinity -4.35704136
REMARK minimizedRMSD -1
REMARK  1 active torsions:
REMARK  status: ('A' for Active; 'I' for Inactive)
REMARK    1  A    between atoms: C3_4  and  O_7 
ROOT
ATOM      1  C   UNL d   1      -2.868  -2.036   0.203  0.00  0.00    -0.033 A 
ATOM      2  C1  UNL d   1      -2.568  -0.879  -0.518  0.00  0.00     0.039 A 
ATOM      3  C2  UNL d   1      -1.345  -0.232  -0.327  0.00  0.00    -0.080 A 
ATOM      4  C3  UNL d   1      -0.432  -0.753   0.586  0.00  0.00     0.150 A 
ATOM      5  C4  UNL d   1      -0.722  -1.908   1.305  0.00  0.00    -0.007 A 
ATOM      6  C5  UNL d   1      -1.944  -2.551   1.114  0.00  0.00     0.039 A 
ENDROOT
BRANCH   4   7
ATOM      7  O   UNL d   1       0.772  -0.154   0.809  0.00  0.00    -0.526 OA
ATOM      8  H5  UNL d   1       0.823   0.649   0.264  0.00  0.00     0.418 HD
ENDBRANCH   4   7
TORSDOF 1
ENDMDL
