MODEL 1
REMARK minimizedAffinity -5.26582241
REMARK minimizedRMSD -1
REMARK  1 active torsions:
REMARK  status: ('A' for Active; 'I' for Inactive)
REMARK    1  A    between atoms: C3_4  and  O_7 
ROOT
ATOM      1  C   UNL d   1      -2.378  -2.842   1.111  0.00  0.00    -0.033 A 
ATOM      2  C1  UNL d   1      -3.018  -2.168   0.069  0.00  0.00     0.039 A 
ATOM      3  C2  UNL d   1      -2.338  -1.182  -0.649  0.00  0.00    -0.080 A 
ATOM      4  C3  UNL d   1      -1.020  -0.881  -0.318  0.00  0.00     0.150 A 
ATOM      5  C4  UNL d   1      -0.375  -1.552   0.716  0.00  0.00    -0.007 A 
ATOM      6  C5  UNL d   1      -1.055  -2.535   1.434  0.00  0.00     0.039 A 
ENDROOT
BRANCH   4   7
ATOM      7  O   UNL d   1      -0.318   0.076  -0.987  0.00  0.00    -0.526 OA
ATOM      8  H5  UNL d   1      -0.900   0.474  -1.655  0.00  0.00     0.418 HD
ENDBRANCH   4   7
TORSDOF 1
ENDMDL
