MODEL 1
REMARK minimizedAffinity -4.50050879
REMARK minimizedRMSD -1
REMARK  0 active torsions:
REMARK  status: ('A' for Active; 'I' for Inactive)
ROOT
ATOM      1  C   UNL d   1      -0.416   0.639  -0.358  0.00  0.00     0.078 C 
ATOM      2  C1  UNL d   1       0.224  -0.628   0.126  0.00  0.00    -0.077 A 
ATOM      3  C2  UNL d   1      -0.391  -1.870  -0.078  0.00  0.00    -0.001 A 
ATOM      4  C3  UNL d   1       0.211  -3.040   0.386  0.00  0.00     0.003 A 
ATOM      5  C4  UNL d   1       1.431  -2.980   1.058  0.00  0.00    -0.005 A 
ATOM      6  C5  UNL d   1       2.049  -1.749   1.267  0.00  0.00     0.003 A 
ATOM      7  C6  UNL d   1       1.448  -0.578   0.803  0.00  0.00    -0.001 A 
ENDROOT
TORSDOF 0
ENDMDL
