MODEL 1
REMARK minimizedAffinity -4.67358255
REMARK minimizedRMSD -1
REMARK  0 active torsions:
REMARK  status: ('A' for Active; 'I' for Inactive)
ROOT
ATOM      1  C   UNL d   1      -2.421   0.819  -1.109  0.00  0.00     0.078 C 
ATOM      2  C1  UNL d   1      -1.085   0.326  -0.639  0.00  0.00    -0.077 A 
ATOM      3  C2  UNL d   1       0.102   0.897  -1.114  0.00  0.00    -0.001 A 
ATOM      4  C3  UNL d   1       1.339   0.422  -0.675  0.00  0.00     0.003 A 
ATOM      5  C4  UNL d   1       1.401  -0.627   0.240  0.00  0.00    -0.005 A 
ATOM      6  C5  UNL d   1       0.225  -1.203   0.717  0.00  0.00     0.003 A 
ATOM      7  C6  UNL d   1      -1.013  -0.729   0.279  0.00  0.00    -0.001 A 
ENDROOT
TORSDOF 0
ENDMDL
