MODEL 1
REMARK minimizedAffinity 1.32542121
REMARK minimizedRMSD -1
REMARK  0 active torsions:
REMARK  status: ('A' for Active; 'I' for Inactive)
ROOT
ATOM      1  C   UNL d   1      -0.466  -2.192   0.983  0.00  0.00     0.078 C 
ATOM      2  C1  UNL d   1      -0.432  -0.777   0.486  0.00  0.00    -0.077 A 
ATOM      3  C2  UNL d   1      -1.439   0.132   0.830  0.00  0.00    -0.001 A 
ATOM      4  C3  UNL d   1      -1.400   1.443   0.352  0.00  0.00     0.003 A 
ATOM      5  C4  UNL d   1      -0.356   1.856  -0.473  0.00  0.00    -0.005 A 
ATOM      6  C5  UNL d   1       0.650   0.957  -0.823  0.00  0.00     0.003 A 
ATOM      7  C6  UNL d   1       0.612  -0.354  -0.346  0.00  0.00    -0.001 A 
ENDROOT
TORSDOF 0
ENDMDL
