MODEL 1
REMARK minimizedAffinity -4.14182806
REMARK minimizedRMSD -1
REMARK  0 active torsions:
REMARK  status: ('A' for Active; 'I' for Inactive)
ROOT
ATOM      1  C   UNL d   1      -0.625   0.816  -0.618  0.00  0.00     0.078 C 
ATOM      2  C1  UNL d   1       0.304  -0.243  -0.103  0.00  0.00    -0.077 A 
ATOM      3  C2  UNL d   1      -0.169  -1.293   0.693  0.00  0.00    -0.001 A 
ATOM      4  C3  UNL d   1       0.709  -2.266   1.173  0.00  0.00     0.003 A 
ATOM      5  C4  UNL d   1       2.066  -2.197   0.865  0.00  0.00    -0.005 A 
ATOM      6  C5  UNL d   1       2.547  -1.154   0.076  0.00  0.00     0.003 A 
ATOM      7  C6  UNL d   1       1.670  -0.181  -0.406  0.00  0.00    -0.001 A 
ENDROOT
TORSDOF 0
ENDMDL
