MODEL 1
REMARK minimizedAffinity -4.87742949
REMARK minimizedRMSD -1
REMARK  0 active torsions:
REMARK  status: ('A' for Active; 'I' for Inactive)
ROOT
ATOM      1  C   UNL d   1      -1.478  -0.377   1.842  0.00  0.00     0.078 C 
ATOM      2  C1  UNL d   1      -0.299  -1.037   1.193  0.00  0.00    -0.077 A 
ATOM      3  C2  UNL d   1      -0.055  -2.406   1.362  0.00  0.00    -0.001 A 
ATOM      4  C3  UNL d   1       1.053  -3.005   0.760  0.00  0.00     0.003 A 
ATOM      5  C4  UNL d   1       1.925  -2.244  -0.015  0.00  0.00    -0.005 A 
ATOM      6  C5  UNL d   1       1.692  -0.881  -0.187  0.00  0.00     0.003 A 
ATOM      7  C6  UNL d   1       0.585  -0.280   0.414  0.00  0.00    -0.001 A 
ENDROOT
TORSDOF 0
ENDMDL
