MODEL 1
REMARK minimizedAffinity -3.93983245
REMARK minimizedRMSD -1
REMARK  0 active torsions:
REMARK  status: ('A' for Active; 'I' for Inactive)
ROOT
ATOM      1  C   UNL d   1      -0.739   1.186  -0.266  0.00  0.00     0.078 C 
ATOM      2  C1  UNL d   1       0.051  -0.051   0.042  0.00  0.00    -0.077 A 
ATOM      3  C2  UNL d   1      -0.582  -1.292   0.187  0.00  0.00    -0.001 A 
ATOM      4  C3  UNL d   1       0.165  -2.434   0.484  0.00  0.00     0.003 A 
ATOM      5  C4  UNL d   1       1.547  -2.346   0.638  0.00  0.00    -0.005 A 
ATOM      6  C5  UNL d   1       2.184  -1.115   0.498  0.00  0.00     0.003 A 
ATOM      7  C6  UNL d   1       1.440   0.028   0.202  0.00  0.00    -0.001 A 
ENDROOT
TORSDOF 0
ENDMDL
