MODEL 1
REMARK minimizedAffinity -3.2600913
REMARK minimizedRMSD -1
REMARK  0 active torsions:
REMARK  status: ('A' for Active; 'I' for Inactive)
ROOT
ATOM      1  C   UNL d   1       0.694  -2.413   0.945  0.00  0.00     0.078 C 
ATOM      2  C1  UNL d   1       0.354  -1.046   0.430  0.00  0.00    -0.077 A 
ATOM      3  C2  UNL d   1       1.355  -0.096   0.193  0.00  0.00    -0.001 A 
ATOM      4  C3  UNL d   1       1.023   1.176  -0.276  0.00  0.00     0.003 A 
ATOM      5  C4  UNL d   1      -0.309   1.509  -0.512  0.00  0.00    -0.005 A 
ATOM      6  C5  UNL d   1      -1.312   0.571  -0.277  0.00  0.00     0.003 A 
ATOM      7  C6  UNL d   1      -0.982  -0.701   0.192  0.00  0.00    -0.001 A 
ENDROOT
TORSDOF 0
ENDMDL
