MODEL 1
REMARK minimizedAffinity -4.1577611
REMARK minimizedRMSD -1
REMARK  0 active torsions:
REMARK  status: ('A' for Active; 'I' for Inactive)
ROOT
ATOM      1  C   UNL d   1       1.150  -3.155   1.145  0.00  0.00     0.078 C 
ATOM      2  C1  UNL d   1       0.704  -1.830   0.601  0.00  0.00    -0.077 A 
ATOM      3  C2  UNL d   1       1.588  -1.006  -0.104  0.00  0.00    -0.001 A 
ATOM      4  C3  UNL d   1       1.162   0.229  -0.596  0.00  0.00     0.003 A 
ATOM      5  C4  UNL d   1      -0.150   0.651  -0.387  0.00  0.00    -0.005 A 
ATOM      6  C5  UNL d   1      -1.036  -0.162   0.316  0.00  0.00     0.003 A 
ATOM      7  C6  UNL d   1      -0.612  -1.397   0.809  0.00  0.00    -0.001 A 
ENDROOT
TORSDOF 0
ENDMDL
