MODEL 1
REMARK minimizedAffinity -5.51594543
REMARK minimizedRMSD -1
REMARK  0 active torsions:
REMARK  status: ('A' for Active; 'I' for Inactive)
ROOT
ATOM      1  C   UNL d   1       1.185  -2.847   1.076  0.00  0.00     0.078 C 
ATOM      2  C1  UNL d   1       0.532  -1.528   0.785  0.00  0.00    -0.077 A 
ATOM      3  C2  UNL d   1       1.063  -0.657  -0.174  0.00  0.00    -0.001 A 
ATOM      4  C3  UNL d   1       0.450   0.571  -0.428  0.00  0.00     0.003 A 
ATOM      5  C4  UNL d   1      -0.695   0.940   0.274  0.00  0.00    -0.005 A 
ATOM      6  C5  UNL d   1      -1.229   0.081   1.232  0.00  0.00     0.003 A 
ATOM      7  C6  UNL d   1      -0.618  -1.148   1.487  0.00  0.00    -0.001 A 
ENDROOT
TORSDOF 0
ENDMDL
