MODEL 1
REMARK minimizedAffinity -5.11429548
REMARK minimizedRMSD -1
REMARK  0 active torsions:
REMARK  status: ('A' for Active; 'I' for Inactive)
ROOT
ATOM      1  C   UNL d   1      -0.608   1.257  -0.243  0.00  0.00     0.078 C 
ATOM      2  C1  UNL d   1       0.183   0.002  -0.024  0.00  0.00    -0.077 A 
ATOM      3  C2  UNL d   1      -0.455  -1.228   0.177  0.00  0.00    -0.001 A 
ATOM      4  C3  UNL d   1       0.294  -2.386   0.390  0.00  0.00     0.003 A 
ATOM      5  C4  UNL d   1       1.686  -2.325   0.406  0.00  0.00    -0.005 A 
ATOM      6  C5  UNL d   1       2.330  -1.106   0.209  0.00  0.00     0.003 A 
ATOM      7  C6  UNL d   1       1.583   0.054  -0.004  0.00  0.00    -0.001 A 
ENDROOT
TORSDOF 0
ENDMDL
