MODEL 1
REMARK minimizedAffinity -4.94749069
REMARK minimizedRMSD -1
REMARK  0 active torsions:
REMARK  status: ('A' for Active; 'I' for Inactive)
ROOT
ATOM      1  C   UNL d   1      -0.714   0.896  -0.050  0.00  0.00     0.078 C 
ATOM      2  C1  UNL d   1       0.095  -0.354   0.125  0.00  0.00    -0.077 A 
ATOM      3  C2  UNL d   1      -0.485  -1.618  -0.041  0.00  0.00    -0.001 A 
ATOM      4  C3  UNL d   1       0.278  -2.774   0.134  0.00  0.00     0.003 A 
ATOM      5  C4  UNL d   1       1.625  -2.677   0.477  0.00  0.00    -0.005 A 
ATOM      6  C5  UNL d   1       2.211  -1.424   0.645  0.00  0.00     0.003 A 
ATOM      7  C6  UNL d   1       1.449  -0.268   0.471  0.00  0.00    -0.001 A 
ENDROOT
TORSDOF 0
ENDMDL
