MODEL 1
REMARK minimizedAffinity -4.09938526
REMARK minimizedRMSD -1
REMARK  0 active torsions:
REMARK  status: ('A' for Active; 'I' for Inactive)
ROOT
ATOM      1  C   UNL d   1       3.973  -0.747   1.872  0.00  0.00     0.078 C 
ATOM      2  C1  UNL d   1       2.640  -1.084   1.274  0.00  0.00    -0.077 A 
ATOM      3  C2  UNL d   1       2.021  -0.222   0.360  0.00  0.00    -0.001 A 
ATOM      4  C3  UNL d   1       0.776  -0.544  -0.181  0.00  0.00     0.003 A 
ATOM      5  C4  UNL d   1       0.138  -1.727   0.186  0.00  0.00    -0.005 A 
ATOM      6  C5  UNL d   1       0.745  -2.590   1.097  0.00  0.00     0.003 A 
ATOM      7  C6  UNL d   1       1.990  -2.270   1.639  0.00  0.00    -0.001 A 
ENDROOT
TORSDOF 0
ENDMDL
