MODEL 1
REMARK minimizedAffinity -4.46800137
REMARK minimizedRMSD -1
REMARK  0 active torsions:
REMARK  status: ('A' for Active; 'I' for Inactive)
ROOT
ATOM      1  C   UNL d   1      -0.503   1.017   0.062  0.00  0.00     0.078 C 
ATOM      2  C1  UNL d   1       0.271  -0.186   0.514  0.00  0.00    -0.077 A 
ATOM      3  C2  UNL d   1       1.616  -0.351   0.162  0.00  0.00    -0.001 A 
ATOM      4  C3  UNL d   1       2.321  -1.481   0.581  0.00  0.00     0.003 A 
ATOM      5  C4  UNL d   1       1.689  -2.454   1.353  0.00  0.00    -0.005 A 
ATOM      6  C5  UNL d   1       0.350  -2.299   1.705  0.00  0.00     0.003 A 
ATOM      7  C6  UNL d   1      -0.357  -1.170   1.287  0.00  0.00    -0.001 A 
ENDROOT
TORSDOF 0
ENDMDL
