MODEL 1
REMARK minimizedAffinity -4.9272604
REMARK minimizedRMSD -1
REMARK  0 active torsions:
REMARK  status: ('A' for Active; 'I' for Inactive)
ROOT
ATOM      1  C   UNL d   1       1.444  -2.757   0.815  0.00  0.00     0.078 C 
ATOM      2  C1  UNL d   1       0.767  -1.433   0.620  0.00  0.00    -0.077 A 
ATOM      3  C2  UNL d   1       1.332  -0.448  -0.199  0.00  0.00    -0.001 A 
ATOM      4  C3  UNL d   1       0.696   0.784  -0.364  0.00  0.00     0.003 A 
ATOM      5  C4  UNL d   1      -0.509   1.041   0.288  0.00  0.00    -0.005 A 
ATOM      6  C5  UNL d   1      -1.078   0.068   1.106  0.00  0.00     0.003 A 
ATOM      7  C6  UNL d   1      -0.443  -1.164   1.272  0.00  0.00    -0.001 A 
ENDROOT
TORSDOF 0
ENDMDL
