MODEL 1
REMARK minimizedAffinity -2.85770273
REMARK minimizedRMSD -1
REMARK  0 active torsions:
REMARK  status: ('A' for Active; 'I' for Inactive)
ROOT
ATOM      1  C   UNL d   1       1.449  -2.085   0.671  0.00  0.00     0.078 C 
ATOM      2  C1  UNL d   1       0.594  -0.986   0.112  0.00  0.00    -0.077 A 
ATOM      3  C2  UNL d   1       0.496   0.251   0.760  0.00  0.00    -0.001 A 
ATOM      4  C3  UNL d   1      -0.311   1.261   0.234  0.00  0.00     0.003 A 
ATOM      5  C4  UNL d   1      -1.027   1.044  -0.942  0.00  0.00    -0.005 A 
ATOM      6  C5  UNL d   1      -0.937  -0.185  -1.592  0.00  0.00     0.003 A 
ATOM      7  C6  UNL d   1      -0.130  -1.196  -1.068  0.00  0.00    -0.001 A 
ENDROOT
TORSDOF 0
ENDMDL
