MODEL 1
REMARK minimizedAffinity -3.40613627
REMARK minimizedRMSD -1
REMARK  0 active torsions:
REMARK  status: ('A' for Active; 'I' for Inactive)
ROOT
ATOM      1  C   UNL d   1      -0.717   1.142  -0.469  0.00  0.00     0.078 C 
ATOM      2  C1  UNL d   1      -0.002  -0.105  -0.040  0.00  0.00    -0.077 A 
ATOM      3  C2  UNL d   1      -0.713  -1.225   0.410  0.00  0.00    -0.001 A 
ATOM      4  C3  UNL d   1      -0.034  -2.375   0.815  0.00  0.00     0.003 A 
ATOM      5  C4  UNL d   1       1.358  -2.417   0.776  0.00  0.00    -0.005 A 
ATOM      6  C5  UNL d   1       2.074  -1.306   0.332  0.00  0.00     0.003 A 
ATOM      7  C6  UNL d   1       1.397  -0.155  -0.074  0.00  0.00    -0.001 A 
ENDROOT
TORSDOF 0
ENDMDL
