MODEL 1
REMARK minimizedAffinity -3.5263505
REMARK minimizedRMSD -1
REMARK  1 active torsions:
REMARK  status: ('A' for Active; 'I' for Inactive)
REMARK    1  A    between atoms: C1_2  and  C2_3 
ROOT
ATOM      1  C2  UNL d   1       0.622  -1.934  -0.776  0.00  0.00    -0.073 A 
ATOM      2  C3  UNL d   1      -0.206  -2.115   0.338  0.00  0.00    -0.002 A 
ATOM      3  C4  UNL d   1      -0.848  -1.023   0.924  0.00  0.00     0.004 A 
ATOM      4  C5  UNL d   1      -0.675   0.257   0.400  0.00  0.00    -0.004 A 
ATOM      5  C6  UNL d   1       0.139   0.457  -0.720  0.00  0.00    -0.075 A 
ATOM      6  C7  UNL d   1       0.337   1.829  -1.295  0.00  0.00     0.076 C 
ATOM      7  C8  UNL d   1       0.782  -0.644  -1.301  0.00  0.00     0.001 A 
ENDROOT
BRANCH   1   8
ATOM      8  C1  UNL d   1       1.312  -3.110  -1.416  0.00  0.00     0.053 C 
ATOM      9  C   UNL d   1       0.901  -3.291  -2.868  0.00  0.00     0.018 C 
ENDBRANCH   1   8
TORSDOF 1
ENDMDL
