MODEL 1
REMARK minimizedAffinity -4.07369137
REMARK minimizedRMSD -1
REMARK  1 active torsions:
REMARK  status: ('A' for Active; 'I' for Inactive)
REMARK    1  A    between atoms: C1_2  and  C2_3 
ROOT
ATOM      1  C2  UNL d   1       0.275  -0.170  -0.159  0.00  0.00    -0.073 A 
ATOM      2  C3  UNL d   1       0.723   0.721  -1.140  0.00  0.00    -0.002 A 
ATOM      3  C4  UNL d   1       0.262   2.038  -1.160  0.00  0.00     0.004 A 
ATOM      4  C5  UNL d   1      -0.645   2.479  -0.195  0.00  0.00    -0.004 A 
ATOM      5  C6  UNL d   1      -1.095   1.606   0.801  0.00  0.00    -0.075 A 
ATOM      6  C7  UNL d   1      -2.072   2.064   1.844  0.00  0.00     0.076 C 
ATOM      7  C8  UNL d   1      -0.629   0.285   0.812  0.00  0.00     0.001 A 
ENDROOT
BRANCH   1   8
ATOM      8  C1  UNL d   1       0.775  -1.591  -0.130  0.00  0.00     0.053 C 
ATOM      9  C   UNL d   1       1.017  -2.139  -1.528  0.00  0.00     0.018 C 
ENDBRANCH   1   8
TORSDOF 1
ENDMDL
