MODEL 1
REMARK minimizedAffinity -3.82996321
REMARK minimizedRMSD -1
REMARK  1 active torsions:
REMARK  status: ('A' for Active; 'I' for Inactive)
REMARK    1  A    between atoms: C1_2  and  C2_3 
ROOT
ATOM      1  C2  UNL d   1      -0.495   0.208   0.844  0.00  0.00    -0.073 A 
ATOM      2  C3  UNL d   1      -1.552   1.018   1.276  0.00  0.00    -0.002 A 
ATOM      3  C4  UNL d   1      -1.748   2.280   0.713  0.00  0.00     0.004 A 
ATOM      4  C5  UNL d   1      -0.896   2.741  -0.290  0.00  0.00    -0.004 A 
ATOM      5  C6  UNL d   1       0.159   1.942  -0.743  0.00  0.00    -0.075 A 
ATOM      6  C7  UNL d   1       1.086   2.425  -1.820  0.00  0.00     0.076 C 
ATOM      7  C8  UNL d   1       0.351   0.677  -0.171  0.00  0.00     0.001 A 
ENDROOT
BRANCH   1   8
ATOM      8  C1  UNL d   1      -0.283  -1.158   1.444  0.00  0.00     0.053 C 
ATOM      9  C   UNL d   1      -0.104  -1.096   2.953  0.00  0.00     0.018 C 
ENDBRANCH   1   8
TORSDOF 1
ENDMDL
