MODEL 1
REMARK minimizedAffinity -2.17456293
REMARK minimizedRMSD -1
REMARK  1 active torsions:
REMARK  status: ('A' for Active; 'I' for Inactive)
REMARK    1  A    between atoms: C1_2  and  C2_3 
ROOT
ATOM      1  C2  UNL d   1       0.050  -0.088  -0.124  0.00  0.00    -0.073 A 
ATOM      2  C3  UNL d   1       0.016  -0.987   0.948  0.00  0.00    -0.002 A 
ATOM      3  C4  UNL d   1      -0.710  -0.684   2.100  0.00  0.00     0.004 A 
ATOM      4  C5  UNL d   1      -1.414   0.517   2.190  0.00  0.00    -0.004 A 
ATOM      5  C6  UNL d   1      -1.403   1.423   1.125  0.00  0.00    -0.075 A 
ATOM      6  C7  UNL d   1      -2.154   2.719   1.207  0.00  0.00     0.076 C 
ATOM      7  C8  UNL d   1      -0.669   1.112  -0.028  0.00  0.00     0.001 A 
ENDROOT
BRANCH   1   8
ATOM      8  C1  UNL d   1       0.827  -0.414  -1.373  0.00  0.00     0.053 C 
ATOM      9  C   UNL d   1       0.855  -1.909  -1.653  0.00  0.00     0.018 C 
ENDBRANCH   1   8
TORSDOF 1
ENDMDL
