MODEL 1
REMARK minimizedAffinity -3.68765521
REMARK minimizedRMSD -1
REMARK  1 active torsions:
REMARK  status: ('A' for Active; 'I' for Inactive)
REMARK    1  A    between atoms: C1_2  and  C2_3 
ROOT
ATOM      1  C2  UNL d   1       0.148  -0.394  -0.612  0.00  0.00    -0.073 A 
ATOM      2  C3  UNL d   1       0.675  -1.090   0.482  0.00  0.00    -0.002 A 
ATOM      3  C4  UNL d   1       0.282  -0.763   1.780  0.00  0.00     0.004 A 
ATOM      4  C5  UNL d   1      -0.645   0.256   1.998  0.00  0.00    -0.004 A 
ATOM      5  C6  UNL d   1      -1.192   0.955   0.917  0.00  0.00    -0.075 A 
ATOM      6  C7  UNL d   1      -2.189   2.055   1.135  0.00  0.00     0.076 C 
ATOM      7  C8  UNL d   1      -0.790   0.623  -0.384  0.00  0.00     0.001 A 
ENDROOT
BRANCH   1   8
ATOM      8  C1  UNL d   1       0.564  -0.747  -2.017  0.00  0.00     0.053 C 
ATOM      9  C   UNL d   1       0.374  -2.226  -2.312  0.00  0.00     0.018 C 
ENDBRANCH   1   8
TORSDOF 1
ENDMDL
