MODEL 1
REMARK minimizedAffinity 1.01454616
REMARK minimizedRMSD -1
REMARK  1 active torsions:
REMARK  status: ('A' for Active; 'I' for Inactive)
REMARK    1  A    between atoms: C1_2  and  C2_3 
ROOT
ATOM      1  C2  UNL d   1       0.358  -0.039   0.066  0.00  0.00    -0.073 A 
ATOM      2  C3  UNL d   1       0.800   0.467  -1.162  0.00  0.00    -0.002 A 
ATOM      3  C4  UNL d   1       0.169   1.571  -1.738  0.00  0.00     0.004 A 
ATOM      4  C5  UNL d   1      -0.904   2.183  -1.090  0.00  0.00    -0.004 A 
ATOM      5  C6  UNL d   1      -1.352   1.699   0.143  0.00  0.00    -0.075 A 
ATOM      6  C7  UNL d   1      -2.507   2.345   0.852  0.00  0.00     0.076 C 
ATOM      7  C8  UNL d   1      -0.715   0.589   0.714  0.00  0.00     0.001 A 
ENDROOT
BRANCH   1   8
ATOM      8  C1  UNL d   1       1.041  -1.226   0.695  0.00  0.00     0.053 C 
ATOM      9  C   UNL d   1       1.167  -1.078   2.202  0.00  0.00     0.018 C 
ENDBRANCH   1   8
TORSDOF 1
ENDMDL
