MODEL 1
REMARK minimizedAffinity -4.44341612
REMARK minimizedRMSD -1
REMARK  1 active torsions:
REMARK  status: ('A' for Active; 'I' for Inactive)
REMARK    1  A    between atoms: C1_2  and  C2_3 
ROOT
ATOM      1  C2  UNL d   1      -0.441  -0.206   0.615  0.00  0.00    -0.073 A 
ATOM      2  C3  UNL d   1      -1.370   0.621  -0.025  0.00  0.00    -0.002 A 
ATOM      3  C4  UNL d   1      -1.834   1.778   0.603  0.00  0.00     0.004 A 
ATOM      4  C5  UNL d   1      -1.370   2.122   1.872  0.00  0.00    -0.004 A 
ATOM      5  C6  UNL d   1      -0.432   1.314   2.523  0.00  0.00    -0.075 A 
ATOM      6  C7  UNL d   1       0.076   1.669   3.889  0.00  0.00     0.076 C 
ATOM      7  C8  UNL d   1       0.027   0.153   1.887  0.00  0.00     0.001 A 
ENDROOT
BRANCH   1   8
ATOM      8  C1  UNL d   1       0.068  -1.453  -0.062  0.00  0.00     0.053 C 
ATOM      9  C   UNL d   1       1.187  -1.151  -1.046  0.00  0.00     0.018 C 
ENDBRANCH   1   8
TORSDOF 1
ENDMDL
