MODEL 1
REMARK minimizedAffinity -4.43283987
REMARK minimizedRMSD -1
REMARK  1 active torsions:
REMARK  status: ('A' for Active; 'I' for Inactive)
REMARK    1  A    between atoms: C1_2  and  C2_3 
ROOT
ATOM      1  C2  UNL d   1       0.221  -1.354  -1.344  0.00  0.00    -0.073 A 
ATOM      2  C3  UNL d   1       1.387  -1.478  -0.580  0.00  0.00    -0.002 A 
ATOM      3  C4  UNL d   1       1.577  -0.681   0.550  0.00  0.00     0.004 A 
ATOM      4  C5  UNL d   1       0.603   0.242   0.930  0.00  0.00    -0.004 A 
ATOM      5  C6  UNL d   1      -0.573   0.373   0.185  0.00  0.00    -0.075 A 
ATOM      6  C7  UNL d   1      -1.630   1.363   0.580  0.00  0.00     0.076 C 
ATOM      7  C8  UNL d   1      -0.756  -0.429  -0.949  0.00  0.00     0.001 A 
ENDROOT
BRANCH   1   8
ATOM      8  C1  UNL d   1       0.008  -2.217  -2.561  0.00  0.00     0.053 C 
ATOM      9  C   UNL d   1       0.050  -3.699  -2.223  0.00  0.00     0.018 C 
ENDBRANCH   1   8
TORSDOF 1
ENDMDL
