MODEL 1
REMARK minimizedAffinity -3.5661819
REMARK minimizedRMSD -1
REMARK  1 active torsions:
REMARK  status: ('A' for Active; 'I' for Inactive)
REMARK    1  A    between atoms: C1_2  and  C2_3 
ROOT
ATOM      1  C2  UNL d   1       0.605   1.758   0.412  0.00  0.00    -0.077 A 
ATOM      2  C3  UNL d   1       0.148   2.832   1.189  0.00  0.00     0.002 A 
ATOM      3  C4  UNL d   1       1.036   3.818   1.624  0.00  0.00     0.002 A 
ATOM      4  C5  UNL d   1       2.385   3.741   1.284  0.00  0.00    -0.004 A 
ATOM      5  C6  UNL d   1       2.850   2.675   0.514  0.00  0.00     0.002 A 
ATOM      6  C7  UNL d   1       1.963   1.689   0.079  0.00  0.00     0.002 A 
ENDROOT
BRANCH   1   7
ATOM      7  C1  UNL d   1      -0.361   0.721  -0.099  0.00  0.00     0.055 C 
ATOM      8  C   UNL d   1      -0.849  -0.182   1.024  0.00  0.00     0.019 C 
ENDBRANCH   1   7
TORSDOF 1
ENDMDL
