MODEL 1
REMARK minimizedAffinity 0.597854197
REMARK minimizedRMSD -1
REMARK  1 active torsions:
REMARK  status: ('A' for Active; 'I' for Inactive)
REMARK    1  A    between atoms: C1_2  and  C2_3 
ROOT
ATOM      1  C2  UNL d   1      -0.658  -0.145  -0.551  0.00  0.00    -0.077 A 
ATOM      2  C3  UNL d   1      -0.738  -1.544  -0.595  0.00  0.00     0.002 A 
ATOM      3  C4  UNL d   1      -1.208  -2.260   0.507  0.00  0.00     0.002 A 
ATOM      4  C5  UNL d   1      -1.605  -1.586   1.660  0.00  0.00    -0.004 A 
ATOM      5  C6  UNL d   1      -1.527  -0.195   1.715  0.00  0.00     0.002 A 
ATOM      6  C7  UNL d   1      -1.057   0.522   0.614  0.00  0.00     0.002 A 
ENDROOT
BRANCH   1   7
ATOM      7  C1  UNL d   1      -0.198   0.632  -1.756  0.00  0.00     0.055 C 
ATOM      8  C   UNL d   1       0.469  -0.276  -2.779  0.00  0.00     0.019 C 
ENDBRANCH   1   7
TORSDOF 1
ENDMDL
