MODEL 1
REMARK minimizedAffinity -2.69421434
REMARK minimizedRMSD -1
REMARK  1 active torsions:
REMARK  status: ('A' for Active; 'I' for Inactive)
REMARK    1  A    between atoms: C1_2  and  C2_3 
ROOT
ATOM      1  C2  UNL d   1       0.685   1.039   0.124  0.00  0.00    -0.077 A 
ATOM      2  C3  UNL d   1       0.790   0.870  -1.264  0.00  0.00     0.002 A 
ATOM      3  C4  UNL d   1       0.284  -0.278  -1.875  0.00  0.00     0.002 A 
ATOM      4  C5  UNL d   1      -0.335  -1.263  -1.108  0.00  0.00    -0.004 A 
ATOM      5  C6  UNL d   1      -0.443  -1.105   0.273  0.00  0.00     0.002 A 
ATOM      6  C7  UNL d   1       0.064   0.041   0.886  0.00  0.00     0.002 A 
ENDROOT
BRANCH   1   7
ATOM      7  C1  UNL d   1       1.186   2.299   0.780  0.00  0.00     0.055 C 
ATOM      8  C   UNL d   1       2.706   2.372   0.748  0.00  0.00     0.019 C 
ENDBRANCH   1   7
TORSDOF 1
ENDMDL
