MODEL 1
REMARK minimizedAffinity 3.73299551
REMARK minimizedRMSD -1
REMARK  1 active torsions:
REMARK  status: ('A' for Active; 'I' for Inactive)
REMARK    1  A    between atoms: C1_2  and  C2_3 
ROOT
ATOM      1  C2  UNL d   1      -0.763  -0.064   0.238  0.00  0.00    -0.077 A 
ATOM      2  C3  UNL d   1       0.019  -0.745   1.181  0.00  0.00     0.002 A 
ATOM      3  C4  UNL d   1      -0.429  -0.891   2.496  0.00  0.00     0.002 A 
ATOM      4  C5  UNL d   1      -1.660  -0.363   2.877  0.00  0.00    -0.004 A 
ATOM      5  C6  UNL d   1      -2.444   0.318   1.947  0.00  0.00     0.002 A 
ATOM      6  C7  UNL d   1      -1.998   0.466   0.633  0.00  0.00     0.002 A 
ENDROOT
BRANCH   1   7
ATOM      7  C1  UNL d   1      -0.305   0.051  -1.193  0.00  0.00     0.055 C 
ATOM      8  C   UNL d   1       1.196  -0.167  -1.312  0.00  0.00     0.019 C 
ENDBRANCH   1   7
TORSDOF 1
ENDMDL
