MODEL 1
REMARK minimizedAffinity -2.95199895
REMARK minimizedRMSD -1
REMARK  1 active torsions:
REMARK  status: ('A' for Active; 'I' for Inactive)
REMARK    1  A    between atoms: C1_2  and  C2_3 
ROOT
ATOM      1  C2  UNL d   1       0.658   1.592   0.244  0.00  0.00    -0.077 A 
ATOM      2  C3  UNL d   1       1.993   1.650  -0.178  0.00  0.00     0.002 A 
ATOM      3  C4  UNL d   1       2.805   2.723   0.193  0.00  0.00     0.002 A 
ATOM      4  C5  UNL d   1       2.293   3.743   0.991  0.00  0.00    -0.004 A 
ATOM      5  C6  UNL d   1       0.965   3.696   1.415  0.00  0.00     0.002 A 
ATOM      6  C7  UNL d   1       0.152   2.625   1.044  0.00  0.00     0.002 A 
ENDROOT
BRANCH   1   7
ATOM      7  C1  UNL d   1      -0.206   0.411  -0.115  0.00  0.00     0.055 C 
ATOM      8  C   UNL d   1      -0.660  -0.341   1.129  0.00  0.00     0.019 C 
ENDBRANCH   1   7
TORSDOF 1
ENDMDL
