MODEL 1
REMARK minimizedAffinity -4.53114796
REMARK minimizedRMSD -1
REMARK  1 active torsions:
REMARK  status: ('A' for Active; 'I' for Inactive)
REMARK    1  A    between atoms: C1_2  and  C2_3 
ROOT
ATOM      1  C2  UNL d   1      -0.097  -0.140  -0.867  0.00  0.00    -0.077 A 
ATOM      2  C3  UNL d   1      -0.034  -1.143  -1.845  0.00  0.00     0.002 A 
ATOM      3  C4  UNL d   1      -0.467  -2.438  -1.557  0.00  0.00     0.002 A 
ATOM      4  C5  UNL d   1      -0.970  -2.742  -0.294  0.00  0.00    -0.004 A 
ATOM      5  C6  UNL d   1      -1.034  -1.753   0.686  0.00  0.00     0.002 A 
ATOM      6  C7  UNL d   1      -0.601  -0.457   0.401  0.00  0.00     0.002 A 
ENDROOT
BRANCH   1   7
ATOM      7  C1  UNL d   1       0.324   1.269  -1.191  0.00  0.00     0.055 C 
ATOM      8  C   UNL d   1       0.725   2.030   0.065  0.00  0.00     0.019 C 
ENDBRANCH   1   7
TORSDOF 1
ENDMDL
