MODEL 1
REMARK minimizedAffinity -1.8667022
REMARK minimizedRMSD -1
REMARK  1 active torsions:
REMARK  status: ('A' for Active; 'I' for Inactive)
REMARK    1  A    between atoms: C1_2  and  C2_3 
ROOT
ATOM      1  C2  UNL d   1       0.636   1.292   0.437  0.00  0.00    -0.077 A 
ATOM      2  C3  UNL d   1      -0.668   1.412  -0.064  0.00  0.00     0.002 A 
ATOM      3  C4  UNL d   1      -1.668   0.531   0.353  0.00  0.00     0.002 A 
ATOM      4  C5  UNL d   1      -1.376  -0.471   1.276  0.00  0.00    -0.004 A 
ATOM      5  C6  UNL d   1      -0.082  -0.599   1.778  0.00  0.00     0.002 A 
ATOM      6  C7  UNL d   1       0.920   0.279   1.361  0.00  0.00     0.002 A 
ENDROOT
BRANCH   1   7
ATOM      7  C1  UNL d   1       1.705   2.271   0.025  0.00  0.00     0.055 C 
ATOM      8  C   UNL d   1       1.590   3.575   0.802  0.00  0.00     0.019 C 
ENDBRANCH   1   7
TORSDOF 1
ENDMDL
