MODEL 1
REMARK minimizedAffinity -2.78188133
REMARK minimizedRMSD -1
REMARK  1 active torsions:
REMARK  status: ('A' for Active; 'I' for Inactive)
REMARK    1  A    between atoms: C1_2  and  C2_3 
ROOT
ATOM      1  C2  UNL d   1      -0.864  -0.336   0.967  0.00  0.00    -0.077 A 
ATOM      2  C3  UNL d   1      -1.875   0.461   0.412  0.00  0.00     0.002 A 
ATOM      3  C4  UNL d   1      -1.559   1.667  -0.216  0.00  0.00     0.002 A 
ATOM      4  C5  UNL d   1      -0.233   2.086  -0.298  0.00  0.00    -0.004 A 
ATOM      5  C6  UNL d   1       0.780   1.302   0.253  0.00  0.00     0.002 A 
ATOM      6  C7  UNL d   1       0.466   0.096   0.882  0.00  0.00     0.002 A 
ENDROOT
BRANCH   1   7
ATOM      7  C1  UNL d   1      -1.197  -1.661   1.601  0.00  0.00     0.055 C 
ATOM      8  C   UNL d   1      -1.705  -2.656   0.568  0.00  0.00     0.019 C 
ENDBRANCH   1   7
TORSDOF 1
ENDMDL
