MODEL 1
REMARK minimizedAffinity -5.27631474
REMARK minimizedRMSD -1
REMARK  1 active torsions:
REMARK  status: ('A' for Active; 'I' for Inactive)
REMARK    1  A    between atoms: C1_2  and  C2_3 
ROOT
ATOM      1  C2  UNL d   1       0.181   1.647   0.267  0.00  0.00    -0.077 A 
ATOM      2  C3  UNL d   1      -1.110   1.321   0.706  0.00  0.00     0.002 A 
ATOM      3  C4  UNL d   1      -1.444  -0.003   0.997  0.00  0.00     0.002 A 
ATOM      4  C5  UNL d   1      -0.491  -1.010   0.858  0.00  0.00    -0.004 A 
ATOM      5  C6  UNL d   1       0.795  -0.696   0.420  0.00  0.00     0.002 A 
ATOM      6  C7  UNL d   1       1.130   0.627   0.127  0.00  0.00     0.002 A 
ENDROOT
BRANCH   1   7
ATOM      7  C1  UNL d   1       0.556   3.081  -0.001  0.00  0.00     0.055 C 
ATOM      8  C   UNL d   1       2.044   3.315   0.220  0.00  0.00     0.019 C 
ENDBRANCH   1   7
TORSDOF 1
ENDMDL
