MODEL 1
REMARK minimizedAffinity -6.07999659
REMARK minimizedRMSD -1
REMARK  1 active torsions:
REMARK  status: ('A' for Active; 'I' for Inactive)
REMARK    1  A    between atoms: C1_2  and  C2_3 
ROOT
ATOM      1  C2  UNL d   1       0.242  -0.690  -0.172  0.00  0.00    -0.077 A 
ATOM      2  C3  UNL d   1      -0.114  -1.549   0.877  0.00  0.00     0.002 A 
ATOM      3  C4  UNL d   1      -0.293  -2.914   0.642  0.00  0.00     0.002 A 
ATOM      4  C5  UNL d   1      -0.114  -3.432  -0.639  0.00  0.00    -0.004 A 
ATOM      5  C6  UNL d   1       0.238  -2.585  -1.689  0.00  0.00     0.002 A 
ATOM      6  C7  UNL d   1       0.417  -1.221  -1.456  0.00  0.00     0.002 A 
ENDROOT
BRANCH   1   7
ATOM      7  C1  UNL d   1       0.484   0.774   0.089  0.00  0.00     0.055 C 
ATOM      8  C   UNL d   1      -0.611   1.634  -0.526  0.00  0.00     0.019 C 
ENDBRANCH   1   7
TORSDOF 1
ENDMDL
