MODEL 1
REMARK minimizedAffinity -5.9148531
REMARK minimizedRMSD -1
REMARK  1 active torsions:
REMARK  status: ('A' for Active; 'I' for Inactive)
REMARK    1  A    between atoms: C1_2  and  C2_3 
ROOT
ATOM      1  C2  UNL d   1       0.042  -0.296  -0.405  0.00  0.00    -0.077 A 
ATOM      2  C3  UNL d   1       0.702  -1.276  -1.161  0.00  0.00     0.002 A 
ATOM      3  C4  UNL d   1       0.643  -2.618  -0.782  0.00  0.00     0.002 A 
ATOM      4  C5  UNL d   1      -0.077  -2.994   0.350  0.00  0.00    -0.004 A 
ATOM      5  C6  UNL d   1      -0.735  -2.027   1.109  0.00  0.00     0.002 A 
ATOM      6  C7  UNL d   1      -0.677  -0.684   0.732  0.00  0.00     0.002 A 
ENDROOT
BRANCH   1   7
ATOM      7  C1  UNL d   1       0.063   1.146  -0.840  0.00  0.00     0.055 C 
ATOM      8  C   UNL d   1       1.035   1.963  -0.001  0.00  0.00     0.019 C 
ENDBRANCH   1   7
TORSDOF 1
ENDMDL
