MODEL 1
REMARK minimizedAffinity 4.40447903
REMARK minimizedRMSD -1
REMARK  0 active torsions:
REMARK  status: ('A' for Active; 'I' for Inactive)
ROOT
ATOM      1  C   UNL d   1       5.660  -1.701   5.999  0.00  0.00     0.078 C 
ATOM      2  C1  UNL d   1       5.404  -0.361   5.377  0.00  0.00    -0.077 A 
ATOM      3  C2  UNL d   1       4.708  -0.250   4.167  0.00  0.00    -0.001 A 
ATOM      4  C3  UNL d   1       4.485   1.003   3.594  0.00  0.00     0.003 A 
ATOM      5  C4  UNL d   1       4.957   2.154   4.222  0.00  0.00    -0.005 A 
ATOM      6  C5  UNL d   1       5.653   2.053   5.425  0.00  0.00     0.003 A 
ATOM      7  C6  UNL d   1       5.877   0.800   6.000  0.00  0.00    -0.001 A 
ENDROOT
TORSDOF 0
ENDMDL
