MODEL 1
REMARK minimizedAffinity 5.79865026
REMARK minimizedRMSD -1
REMARK  0 active torsions:
REMARK  status: ('A' for Active; 'I' for Inactive)
ROOT
ATOM      1  C   UNL d   1       1.873  -2.244  -0.964  0.00  0.00     0.078 C 
ATOM      2  C1  UNL d   1       0.857  -1.160  -0.765  0.00  0.00    -0.077 A 
ATOM      3  C2  UNL d   1      -0.391  -1.438  -0.194  0.00  0.00    -0.001 A 
ATOM      4  C3  UNL d   1      -1.332  -0.420  -0.023  0.00  0.00     0.003 A 
ATOM      5  C4  UNL d   1      -1.034   0.881  -0.422  0.00  0.00    -0.005 A 
ATOM      6  C5  UNL d   1       0.204   1.166  -0.994  0.00  0.00     0.003 A 
ATOM      7  C6  UNL d   1       1.145   0.150  -1.165  0.00  0.00    -0.001 A 
ENDROOT
TORSDOF 0
ENDMDL
