MODEL 1
REMARK minimizedAffinity 6.96183205
REMARK minimizedRMSD -1
REMARK  0 active torsions:
REMARK  status: ('A' for Active; 'I' for Inactive)
ROOT
ATOM      1  C   UNL d   1      -5.272  -1.999   3.481  0.00  0.00     0.078 C 
ATOM      2  C1  UNL d   1      -4.128  -1.034   3.391  0.00  0.00    -0.077 A 
ATOM      3  C2  UNL d   1      -2.864  -1.452   2.957  0.00  0.00    -0.001 A 
ATOM      4  C3  UNL d   1      -1.806  -0.545   2.886  0.00  0.00     0.003 A 
ATOM      5  C4  UNL d   1      -2.000   0.786   3.250  0.00  0.00    -0.005 A 
ATOM      6  C5  UNL d   1      -3.254   1.211   3.685  0.00  0.00     0.003 A 
ATOM      7  C6  UNL d   1      -4.313   0.305   3.756  0.00  0.00    -0.001 A 
ENDROOT
TORSDOF 0
ENDMDL
