MODEL 1
REMARK minimizedAffinity 1.83653259
REMARK minimizedRMSD -1
REMARK  0 active torsions:
REMARK  status: ('A' for Active; 'I' for Inactive)
ROOT
ATOM      1  C   UNL d   1       5.533  -1.394   5.860  0.00  0.00     0.078 C 
ATOM      2  C1  UNL d   1       5.560  -0.039   5.218  0.00  0.00    -0.077 A 
ATOM      3  C2  UNL d   1       5.226   0.127   3.869  0.00  0.00    -0.001 A 
ATOM      4  C3  UNL d   1       5.264   1.393   3.282  0.00  0.00     0.003 A 
ATOM      5  C4  UNL d   1       5.637   2.503   4.038  0.00  0.00    -0.005 A 
ATOM      6  C5  UNL d   1       5.973   2.347   5.381  0.00  0.00     0.003 A 
ATOM      7  C6  UNL d   1       5.935   1.082   5.969  0.00  0.00    -0.001 A 
ENDROOT
TORSDOF 0
ENDMDL
