MODEL 1
REMARK minimizedAffinity -2.35556531
REMARK minimizedRMSD -1
REMARK  0 active torsions:
REMARK  status: ('A' for Active; 'I' for Inactive)
ROOT
ATOM      1  C   UNL d   1       1.861   0.735  -4.575  0.00  0.00     0.078 C 
ATOM      2  C1  UNL d   1       1.659   0.122  -3.221  0.00  0.00    -0.077 A 
ATOM      3  C2  UNL d   1       0.962   0.805  -2.217  0.00  0.00    -0.001 A 
ATOM      4  C3  UNL d   1       0.790   0.227  -0.959  0.00  0.00     0.003 A 
ATOM      5  C4  UNL d   1       1.313  -1.037  -0.692  0.00  0.00    -0.005 A 
ATOM      6  C5  UNL d   1       2.010  -1.724  -1.684  0.00  0.00     0.003 A 
ATOM      7  C6  UNL d   1       2.183  -1.147  -2.944  0.00  0.00    -0.001 A 
ENDROOT
TORSDOF 0
ENDMDL
