MODEL 1
REMARK minimizedAffinity 5.60047722
REMARK minimizedRMSD -1
REMARK  0 active torsions:
REMARK  status: ('A' for Active; 'I' for Inactive)
ROOT
ATOM      1  C   UNL d   1       1.891  -0.115  -4.133  0.00  0.00     0.078 C 
ATOM      2  C1  UNL d   1       1.840   1.330  -4.528  0.00  0.00    -0.077 A 
ATOM      3  C2  UNL d   1       2.545   1.798  -5.645  0.00  0.00    -0.001 A 
ATOM      4  C3  UNL d   1       2.496   3.148  -5.995  0.00  0.00     0.003 A 
ATOM      5  C4  UNL d   1       1.746   4.042  -5.235  0.00  0.00    -0.005 A 
ATOM      6  C5  UNL d   1       1.043   3.586  -4.121  0.00  0.00     0.003 A 
ATOM      7  C6  UNL d   1       1.091   2.237  -3.768  0.00  0.00    -0.001 A 
ENDROOT
TORSDOF 0
ENDMDL
