MODEL 1
REMARK minimizedAffinity -1.1420238
REMARK minimizedRMSD -1
REMARK  0 active torsions:
REMARK  status: ('A' for Active; 'I' for Inactive)
ROOT
ATOM      1  C   UNL d   1       5.647   5.383   4.841  0.00  0.00     0.078 C 
ATOM      2  C1  UNL d   1       5.618   3.884   4.857  0.00  0.00    -0.077 A 
ATOM      3  C2  UNL d   1       6.000   3.167   5.998  0.00  0.00    -0.001 A 
ATOM      4  C3  UNL d   1       5.977   1.772   5.996  0.00  0.00     0.003 A 
ATOM      5  C4  UNL d   1       5.575   1.080   4.855  0.00  0.00    -0.005 A 
ATOM      6  C5  UNL d   1       5.196   1.785   3.714  0.00  0.00     0.003 A 
ATOM      7  C6  UNL d   1       5.217   3.180   3.715  0.00  0.00    -0.001 A 
ENDROOT
TORSDOF 0
ENDMDL
