MODEL 1
REMARK minimizedAffinity 1.74628544
REMARK minimizedRMSD -1
REMARK  0 active torsions:
REMARK  status: ('A' for Active; 'I' for Inactive)
ROOT
ATOM      1  C   UNL d   1       5.459   4.294   5.175  0.00  0.00     0.078 C 
ATOM      2  C1  UNL d   1       5.461   2.804   5.011  0.00  0.00    -0.077 A 
ATOM      3  C2  UNL d   1       5.997   1.970   5.999  0.00  0.00    -0.001 A 
ATOM      4  C3  UNL d   1       6.000   0.584   5.828  0.00  0.00     0.003 A 
ATOM      5  C4  UNL d   1       5.470   0.021   4.669  0.00  0.00    -0.005 A 
ATOM      6  C5  UNL d   1       4.936   0.844   3.679  0.00  0.00     0.003 A 
ATOM      7  C6  UNL d   1       4.932   2.229   3.848  0.00  0.00    -0.001 A 
ENDROOT
TORSDOF 0
ENDMDL
