MODEL 1
REMARK minimizedAffinity 1.15004301
REMARK minimizedRMSD -1
REMARK  0 active torsions:
REMARK  status: ('A' for Active; 'I' for Inactive)
ROOT
ATOM      1  C   UNL d   1       1.565  -2.252  -0.729  0.00  0.00     0.078 C 
ATOM      2  C1  UNL d   1       1.482  -1.866  -2.175  0.00  0.00    -0.077 A 
ATOM      3  C2  UNL d   1       1.710  -0.546  -2.583  0.00  0.00    -0.001 A 
ATOM      4  C3  UNL d   1       1.619  -0.198  -3.932  0.00  0.00     0.003 A 
ATOM      5  C4  UNL d   1       1.299  -1.164  -4.884  0.00  0.00    -0.005 A 
ATOM      6  C5  UNL d   1       1.068  -2.480  -4.487  0.00  0.00     0.003 A 
ATOM      7  C6  UNL d   1       1.158  -2.829  -3.139  0.00  0.00    -0.001 A 
ENDROOT
TORSDOF 0
ENDMDL
