MODEL 1
REMARK minimizedAffinity 1.61106396
REMARK minimizedRMSD -1
REMARK  0 active torsions:
REMARK  status: ('A' for Active; 'I' for Inactive)
ROOT
ATOM      1  C   UNL d   1       4.937  -0.106   5.788  0.00  0.00     0.078 C 
ATOM      2  C1  UNL d   1       4.890   1.388   5.665  0.00  0.00    -0.077 A 
ATOM      3  C2  UNL d   1       6.000   2.174   5.999  0.00  0.00    -0.001 A 
ATOM      4  C3  UNL d   1       5.939   3.564   5.889  0.00  0.00     0.003 A 
ATOM      5  C4  UNL d   1       4.770   4.181   5.446  0.00  0.00    -0.005 A 
ATOM      6  C5  UNL d   1       3.660   3.407   5.114  0.00  0.00     0.003 A 
ATOM      7  C6  UNL d   1       3.719   2.017   5.223  0.00  0.00    -0.001 A 
ENDROOT
TORSDOF 0
ENDMDL
