MODEL 1
REMARK minimizedAffinity -1.70862675
REMARK minimizedRMSD -1
REMARK  0 active torsions:
REMARK  status: ('A' for Active; 'I' for Inactive)
ROOT
ATOM      1  C   UNL d   1       5.302   2.063   4.979  0.00  0.00     0.078 C 
ATOM      2  C1  UNL d   1       5.368   0.565   4.946  0.00  0.00    -0.077 A 
ATOM      3  C2  UNL d   1       5.954  -0.107   3.866  0.00  0.00    -0.001 A 
ATOM      4  C3  UNL d   1       5.999  -1.501   3.843  0.00  0.00     0.003 A 
ATOM      5  C4  UNL d   1       5.460  -2.236   4.897  0.00  0.00    -0.005 A 
ATOM      6  C5  UNL d   1       4.874  -1.576   5.975  0.00  0.00     0.003 A 
ATOM      7  C6  UNL d   1       4.827  -0.182   5.999  0.00  0.00    -0.001 A 
ENDROOT
TORSDOF 0
ENDMDL
