MODEL 1
REMARK minimizedAffinity -4.81356955
REMARK minimizedRMSD -1
REMARK  0 active torsions:
REMARK  status: ('A' for Active; 'I' for Inactive)
ROOT
ATOM      1  C   UNL d   1       1.298   0.442  -3.788  0.00  0.00     0.078 C 
ATOM      2  C1  UNL d   1       1.158  -0.346  -2.520  0.00  0.00    -0.077 A 
ATOM      3  C2  UNL d   1       1.795  -1.584  -2.366  0.00  0.00    -0.001 A 
ATOM      4  C3  UNL d   1       1.648  -2.311  -1.184  0.00  0.00     0.003 A 
ATOM      5  C4  UNL d   1       0.864  -1.810  -0.147  0.00  0.00    -0.005 A 
ATOM      6  C5  UNL d   1       0.224  -0.580  -0.292  0.00  0.00     0.003 A 
ATOM      7  C6  UNL d   1       0.370   0.149  -1.473  0.00  0.00    -0.001 A 
ENDROOT
TORSDOF 0
ENDMDL
