MODEL 1
REMARK minimizedAffinity 3.0984869
REMARK minimizedRMSD -1
REMARK  0 active torsions:
REMARK  status: ('A' for Active; 'I' for Inactive)
ROOT
ATOM      1  C   UNL d   1       5.084  -0.630   5.657  0.00  0.00     0.078 C 
ATOM      2  C1  UNL d   1       5.066   0.844   5.378  0.00  0.00    -0.077 A 
ATOM      3  C2  UNL d   1       4.137   1.399   4.491  0.00  0.00    -0.001 A 
ATOM      4  C3  UNL d   1       4.138   2.771   4.233  0.00  0.00     0.003 A 
ATOM      5  C4  UNL d   1       5.069   3.599   4.859  0.00  0.00    -0.005 A 
ATOM      6  C5  UNL d   1       6.000   3.055   5.741  0.00  0.00     0.003 A 
ATOM      7  C6  UNL d   1       5.999   1.683   6.000  0.00  0.00    -0.001 A 
ENDROOT
TORSDOF 0
ENDMDL
