MODEL 1
REMARK minimizedAffinity -1.33304632
REMARK minimizedRMSD -1
REMARK  0 active torsions:
REMARK  status: ('A' for Active; 'I' for Inactive)
ROOT
ATOM      1  C   UNL d   1       0.326   1.553  -0.846  0.00  0.00     0.078 C 
ATOM      2  C1  UNL d   1       0.429   0.064  -0.695  0.00  0.00    -0.077 A 
ATOM      3  C2  UNL d   1       1.620  -0.610  -0.991  0.00  0.00    -0.001 A 
ATOM      4  C3  UNL d   1       1.698  -1.997  -0.855  0.00  0.00     0.003 A 
ATOM      5  C4  UNL d   1       0.589  -2.722  -0.424  0.00  0.00    -0.005 A 
ATOM      6  C5  UNL d   1      -0.601  -2.060  -0.129  0.00  0.00     0.003 A 
ATOM      7  C6  UNL d   1      -0.682  -0.673  -0.264  0.00  0.00    -0.001 A 
ENDROOT
TORSDOF 0
ENDMDL
