MODEL 1
REMARK minimizedAffinity 0.14248462
REMARK minimizedRMSD -1
REMARK  0 active torsions:
REMARK  status: ('A' for Active; 'I' for Inactive)
ROOT
ATOM      1  C   UNL d   1       0.337   1.343  -0.465  0.00  0.00     0.078 C 
ATOM      2  C1  UNL d   1       0.508  -0.146  -0.474  0.00  0.00    -0.077 A 
ATOM      3  C2  UNL d   1      -0.316  -0.971   0.302  0.00  0.00    -0.001 A 
ATOM      4  C3  UNL d   1      -0.139  -2.356   0.291  0.00  0.00     0.003 A 
ATOM      5  C4  UNL d   1       0.861  -2.927  -0.492  0.00  0.00    -0.005 A 
ATOM      6  C5  UNL d   1       1.687  -2.114  -1.266  0.00  0.00     0.003 A 
ATOM      7  C6  UNL d   1       1.512  -0.730  -1.257  0.00  0.00    -0.001 A 
ENDROOT
TORSDOF 0
ENDMDL
