MODEL 1
REMARK minimizedAffinity 3.60918713
REMARK minimizedRMSD -1
REMARK  0 active torsions:
REMARK  status: ('A' for Active; 'I' for Inactive)
ROOT
ATOM      1  C   UNL d   1       2.490  -1.675  -1.305  0.00  0.00     0.078 C 
ATOM      2  C1  UNL d   1       1.128  -1.434  -0.727  0.00  0.00    -0.077 A 
ATOM      3  C2  UNL d   1       0.339  -2.498  -0.272  0.00  0.00    -0.001 A 
ATOM      4  C3  UNL d   1      -0.931  -2.260   0.255  0.00  0.00     0.003 A 
ATOM      5  C4  UNL d   1      -1.425  -0.960   0.331  0.00  0.00    -0.005 A 
ATOM      6  C5  UNL d   1      -0.648   0.105  -0.121  0.00  0.00     0.003 A 
ATOM      7  C6  UNL d   1       0.622  -0.130  -0.648  0.00  0.00    -0.001 A 
ENDROOT
TORSDOF 0
ENDMDL
