MODEL 1
REMARK minimizedAffinity 2.24830246
REMARK minimizedRMSD -1
REMARK  0 active torsions:
REMARK  status: ('A' for Active; 'I' for Inactive)
ROOT
ATOM      1  C   UNL d   1       0.350  -0.324  -0.506  0.00  0.00     0.078 C 
ATOM      2  C1  UNL d   1       0.618   1.092  -0.090  0.00  0.00    -0.077 A 
ATOM      3  C2  UNL d   1       1.893   1.655  -0.227  0.00  0.00    -0.001 A 
ATOM      4  C3  UNL d   1       2.129   2.971   0.173  0.00  0.00     0.003 A 
ATOM      5  C4  UNL d   1       1.097   3.735   0.714  0.00  0.00    -0.005 A 
ATOM      6  C5  UNL d   1      -0.175   3.182   0.856  0.00  0.00     0.003 A 
ATOM      7  C6  UNL d   1      -0.413   1.866   0.456  0.00  0.00    -0.001 A 
ENDROOT
TORSDOF 0
ENDMDL
