MODEL 1
REMARK minimizedAffinity -1.6287415
REMARK minimizedRMSD -1
REMARK  0 active torsions:
REMARK  status: ('A' for Active; 'I' for Inactive)
ROOT
ATOM      1  O1  BZF d   1      -0.484  -0.203  -0.914  0.00  0.00    -0.204 OA
ATOM      2  C2  BZF d   1       0.312  -1.185  -0.355  0.00  0.00     0.174 A 
ATOM      3  C3  BZF d   1       0.854  -0.759   0.804  0.00  0.00    -0.012 A 
ATOM      4  C3A BZF d   1       0.294   0.539   1.027  0.00  0.00    -0.107 A 
ATOM      5  C4  BZF d   1       0.434   1.464   2.022  0.00  0.00     0.055 A 
ATOM      6  C5  BZF d   1      -0.195   2.662   1.903  0.00  0.00    -0.016 A 
ATOM      7  C6  BZF d   1      -0.967   2.971   0.802  0.00  0.00     0.022 A 
ATOM      8  C7  BZF d   1      -1.140   2.084  -0.208  0.00  0.00     0.029 A 
ATOM      9  C7A BZF d   1      -0.532   0.860  -0.075  0.00  0.00     0.058 A 
ENDROOT
TORSDOF 0
ENDMDL
