MODEL 1
REMARK minimizedAffinity -5.25820017
REMARK minimizedRMSD -1
REMARK  0 active torsions:
REMARK  status: ('A' for Active; 'I' for Inactive)
ROOT
ATOM      1  O1  BZF d   1       0.921  -1.264   0.238  0.00  0.00    -0.204 OA
ATOM      2  C2  BZF d   1       0.845  -1.594  -1.102  0.00  0.00     0.174 A 
ATOM      3  C3  BZF d   1       0.068  -0.716  -1.768  0.00  0.00    -0.012 A 
ATOM      4  C3A BZF d   1      -0.295   0.274  -0.801  0.00  0.00    -0.107 A 
ATOM      5  C4  BZF d   1      -1.045   1.414  -0.861  0.00  0.00     0.055 A 
ATOM      6  C5  BZF d   1      -1.266   2.120   0.279  0.00  0.00    -0.016 A 
ATOM      7  C6  BZF d   1      -0.758   1.712   1.495  0.00  0.00     0.022 A 
ATOM      8  C7  BZF d   1      -0.004   0.591   1.603  0.00  0.00     0.029 A 
ATOM      9  C7A BZF d   1       0.249  -0.106   0.447  0.00  0.00     0.058 A 
ENDROOT
TORSDOF 0
ENDMDL
