MODEL 1
REMARK minimizedAffinity -3.5640254
REMARK minimizedRMSD -1
REMARK  0 active torsions:
REMARK  status: ('A' for Active; 'I' for Inactive)
ROOT
ATOM      1  O1  BZF d   1      -1.184   0.285   1.865  0.00  0.00    -0.204 OA
ATOM      2  C2  BZF d   1      -1.520   1.620   1.988  0.00  0.00     0.174 A 
ATOM      3  C3  BZF d   1      -1.191   2.301   0.872  0.00  0.00    -0.012 A 
ATOM      4  C3A BZF d   1      -0.698   1.314  -0.040  0.00  0.00    -0.107 A 
ATOM      5  C4  BZF d   1      -0.230   1.370  -1.321  0.00  0.00     0.055 A 
ATOM      6  C5  BZF d   1       0.243   0.236  -1.902  0.00  0.00    -0.016 A 
ATOM      7  C6  BZF d   1       0.269  -0.968  -1.229  0.00  0.00     0.022 A 
ATOM      8  C7  BZF d   1      -0.188  -1.074   0.042  0.00  0.00     0.029 A 
ATOM      9  C7A BZF d   1      -0.698   0.063   0.620  0.00  0.00     0.058 A 
ENDROOT
TORSDOF 0
ENDMDL
