MODEL 1
REMARK minimizedAffinity -6.77084875
REMARK minimizedRMSD -1
REMARK  0 active torsions:
REMARK  status: ('A' for Active; 'I' for Inactive)
ROOT
ATOM      1  O1  BZF d   1       0.447   0.202  -0.919  0.00  0.00    -0.204 OA
ATOM      2  C2  BZF d   1       0.739  -0.680   0.103  0.00  0.00     0.174 A 
ATOM      3  C3  BZF d   1       0.412  -0.151   1.300  0.00  0.00    -0.012 A 
ATOM      4  C3A BZF d   1      -0.202   1.106   1.000  0.00  0.00    -0.107 A 
ATOM      5  C4  BZF d   1      -0.752   2.090   1.771  0.00  0.00     0.055 A 
ATOM      6  C5  BZF d   1      -1.201   3.225   1.173  0.00  0.00    -0.016 A 
ATOM      7  C6  BZF d   1      -1.111   3.411  -0.191  0.00  0.00     0.022 A 
ATOM      8  C7  BZF d   1      -0.579   2.461  -0.998  0.00  0.00     0.029 A 
ATOM      9  C7A BZF d   1      -0.155   1.299  -0.400  0.00  0.00     0.058 A 
ENDROOT
TORSDOF 0
ENDMDL
