MODEL 1
REMARK minimizedAffinity -3.83929992
REMARK minimizedRMSD -1
REMARK  0 active torsions:
REMARK  status: ('A' for Active; 'I' for Inactive)
ROOT
ATOM      1  O1  BZF d   1      -0.939  -0.537   0.374  0.00  0.00    -0.204 OA
ATOM      2  C2  BZF d   1       0.203   0.232   0.482  0.00  0.00     0.174 A 
ATOM      3  C3  BZF d   1       1.186  -0.260  -0.300  0.00  0.00    -0.012 A 
ATOM      4  C3A BZF d   1       0.594  -1.354  -1.006  0.00  0.00    -0.107 A 
ATOM      5  C4  BZF d   1       1.062  -2.231  -1.943  0.00  0.00     0.055 A 
ATOM      6  C5  BZF d   1       0.249  -3.229  -2.377  0.00  0.00    -0.016 A 
ATOM      7  C6  BZF d   1      -1.034  -3.383  -1.894  0.00  0.00     0.022 A 
ATOM      8  C7  BZF d   1      -1.544  -2.535  -0.968  0.00  0.00     0.029 A 
ATOM      9  C7A BZF d   1      -0.737  -1.506  -0.551  0.00  0.00     0.058 A 
ENDROOT
TORSDOF 0
ENDMDL
