MODEL 1
REMARK minimizedAffinity -4.19324017
REMARK minimizedRMSD -1
REMARK  0 active torsions:
REMARK  status: ('A' for Active; 'I' for Inactive)
ROOT
ATOM      1  O1  BZF d   1       1.213  -0.606   0.659  0.00  0.00    -0.204 OA
ATOM      2  C2  BZF d   1       0.914  -1.035  -0.620  0.00  0.00     0.174 A 
ATOM      3  C3  BZF d   1      -0.171  -0.392  -1.099  0.00  0.00    -0.012 A 
ATOM      4  C3A BZF d   1      -0.520   0.560  -0.089  0.00  0.00    -0.107 A 
ATOM      5  C4  BZF d   1      -1.501   1.505   0.011  0.00  0.00     0.055 A 
ATOM      6  C5  BZF d   1      -1.613   2.221   1.160  0.00  0.00    -0.016 A 
ATOM      7  C6  BZF d   1      -0.765   2.016   2.229  0.00  0.00     0.022 A 
ATOM      8  C7  BZF d   1       0.226   1.094   2.175  0.00  0.00     0.029 A 
ATOM      9  C7A BZF d   1       0.362   0.391   1.002  0.00  0.00     0.058 A 
ENDROOT
TORSDOF 0
ENDMDL
