MODEL 1
REMARK minimizedAffinity -3.71508121
REMARK minimizedRMSD -1
REMARK  0 active torsions:
REMARK  status: ('A' for Active; 'I' for Inactive)
ROOT
ATOM      1  O1  BZF d   1       1.132   0.435  -2.154  0.00  0.00    -0.204 OA
ATOM      2  C2  BZF d   1       0.623   1.484  -2.895  0.00  0.00     0.174 A 
ATOM      3  C3  BZF d   1      -0.264   2.195  -2.171  0.00  0.00    -0.012 A 
ATOM      4  C3A BZF d   1      -0.245   1.605  -0.867  0.00  0.00    -0.107 A 
ATOM      5  C4  BZF d   1      -0.902   1.881   0.298  0.00  0.00     0.055 A 
ATOM      6  C5  BZF d   1      -0.713   1.069   1.371  0.00  0.00    -0.016 A 
ATOM      7  C6  BZF d   1       0.120  -0.029   1.312  0.00  0.00     0.022 A 
ATOM      8  C7  BZF d   1       0.797  -0.340   0.180  0.00  0.00     0.029 A 
ATOM      9  C7A BZF d   1       0.633   0.498  -0.896  0.00  0.00     0.058 A 
ENDROOT
TORSDOF 0
ENDMDL
