MODEL 1
REMARK minimizedAffinity -2.8434751
REMARK minimizedRMSD -1
REMARK  0 active torsions:
REMARK  status: ('A' for Active; 'I' for Inactive)
ROOT
ATOM      1  C   UNL d   1      -5.425   5.554   2.389  0.00  0.00     0.023 A 
ATOM      2  C1  UNL d   1      -5.455   4.187   2.109  0.00  0.00     0.003 A 
ATOM      3  C2  UNL d   1      -5.617   3.264   3.144  0.00  0.00     0.048 A 
ATOM      4  C3  UNL d   1      -5.750   3.715   4.457  0.00  0.00     0.023 A 
ATOM      5  C4  UNL d   1      -5.722   5.081   4.742  0.00  0.00     0.048 A 
ATOM      6  C5  UNL d   1      -5.559   6.000   3.704  0.00  0.00     0.003 A 
ATOM      7  I   UNL d   1      -5.992   2.343   6.000  0.00  0.00    -0.146 I 
ENDROOT
TORSDOF 0
ENDMDL
