MODEL 1
REMARK minimizedAffinity -1.44847059
REMARK minimizedRMSD -1
REMARK  0 active torsions:
REMARK  status: ('A' for Active; 'I' for Inactive)
ROOT
ATOM      1  C   UNL d   1      -4.886   2.791   5.892  0.00  0.00     0.023 A 
ATOM      2  C1  UNL d   1      -5.219   4.141   6.000  0.00  0.00     0.003 A 
ATOM      3  C2  UNL d   1      -5.536   4.877   4.856  0.00  0.00     0.048 A 
ATOM      4  C3  UNL d   1      -5.517   4.257   3.608  0.00  0.00     0.023 A 
ATOM      5  C4  UNL d   1      -5.185   2.906   3.495  0.00  0.00     0.048 A 
ATOM      6  C5  UNL d   1      -4.869   2.174   4.641  0.00  0.00     0.003 A 
ATOM      7  I   UNL d   1      -5.988   5.350   1.904  0.00  0.00    -0.146 I 
ENDROOT
TORSDOF 0
ENDMDL
