MODEL 1
REMARK minimizedAffinity 3.94755197
REMARK minimizedRMSD -1
REMARK  0 active torsions:
REMARK  status: ('A' for Active; 'I' for Inactive)
ROOT
ATOM      1  C   UNL d   1      -5.037   3.684   1.020  0.00  0.00     0.023 A 
ATOM      2  C1  UNL d   1      -4.629   3.131   2.234  0.00  0.00     0.003 A 
ATOM      3  C2  UNL d   1      -4.904   3.793   3.432  0.00  0.00     0.048 A 
ATOM      4  C3  UNL d   1      -5.589   5.008   3.409  0.00  0.00     0.023 A 
ATOM      5  C4  UNL d   1      -6.000   5.565   2.197  0.00  0.00     0.048 A 
ATOM      6  C5  UNL d   1      -5.722   4.899   1.002  0.00  0.00     0.003 A 
ATOM      7  I   UNL d   1      -6.000   5.996   5.191  0.00  0.00    -0.146 I 
ENDROOT
TORSDOF 0
ENDMDL
