MODEL 1
REMARK minimizedAffinity 10.20961
REMARK minimizedRMSD -1
REMARK  0 active torsions:
REMARK  status: ('A' for Active; 'I' for Inactive)
ROOT
ATOM      1  C   UNL d   1      -2.502  -1.059  -0.560  0.00  0.00     0.023 A 
ATOM      2  C1  UNL d   1      -1.174  -1.057  -0.986  0.00  0.00     0.003 A 
ATOM      3  C2  UNL d   1      -0.145  -0.849  -0.065  0.00  0.00     0.048 A 
ATOM      4  C3  UNL d   1      -0.452  -0.646   1.280  0.00  0.00     0.023 A 
ATOM      5  C4  UNL d   1      -1.779  -0.649   1.711  0.00  0.00     0.048 A 
ATOM      6  C5  UNL d   1      -2.805  -0.856   0.786  0.00  0.00     0.003 A 
ATOM      7  I   UNL d   1       1.078  -0.337   2.653  0.00  0.00    -0.146 I 
ENDROOT
TORSDOF 0
ENDMDL
