MODEL 1
REMARK minimizedAffinity -2.22754884
REMARK minimizedRMSD -1
REMARK  0 active torsions:
REMARK  status: ('A' for Active; 'I' for Inactive)
ROOT
ATOM      1  C   UNL d   1      -5.913   4.652   1.141  0.00  0.00     0.023 A 
ATOM      2  C1  UNL d   1      -5.860   5.902   1.757  0.00  0.00     0.003 A 
ATOM      3  C2  UNL d   1      -5.877   5.997   3.150  0.00  0.00     0.048 A 
ATOM      4  C3  UNL d   1      -5.947   4.838   3.921  0.00  0.00     0.023 A 
ATOM      5  C4  UNL d   1      -5.999   3.584   3.309  0.00  0.00     0.048 A 
ATOM      6  C5  UNL d   1      -5.982   3.494   1.916  0.00  0.00     0.003 A 
ATOM      7  I   UNL d   1      -5.973   4.976   5.994  0.00  0.00    -0.146 I 
ENDROOT
TORSDOF 0
ENDMDL
