MODEL 1
REMARK minimizedAffinity -1.61573291
REMARK minimizedRMSD -1
REMARK  0 active torsions:
REMARK  status: ('A' for Active; 'I' for Inactive)
ROOT
ATOM      1  C   UNL d   1      -3.527   2.258   5.999  0.00  0.00     0.023 A 
ATOM      2  C1  UNL d   1      -2.586   2.782   5.112  0.00  0.00     0.003 A 
ATOM      3  C2  UNL d   1      -3.006   3.432   3.950  0.00  0.00     0.048 A 
ATOM      4  C3  UNL d   1      -4.369   3.556   3.682  0.00  0.00     0.023 A 
ATOM      5  C4  UNL d   1      -5.314   3.033   4.566  0.00  0.00     0.048 A 
ATOM      6  C5  UNL d   1      -4.889   2.383   5.726  0.00  0.00     0.003 A 
ATOM      7  I   UNL d   1      -4.997   4.523   1.953  0.00  0.00    -0.146 I 
ENDROOT
TORSDOF 0
ENDMDL
