MODEL 1
REMARK minimizedAffinity -2.27659106
REMARK minimizedRMSD -1
REMARK  0 active torsions:
REMARK  status: ('A' for Active; 'I' for Inactive)
ROOT
ATOM      1  C   UNL d   1      -5.788   4.849   1.229  0.00  0.00     0.023 A 
ATOM      2  C1  UNL d   1      -5.981   3.706   2.004  0.00  0.00     0.003 A 
ATOM      3  C2  UNL d   1      -5.614   3.704   3.352  0.00  0.00     0.048 A 
ATOM      4  C3  UNL d   1      -5.057   4.850   3.918  0.00  0.00     0.023 A 
ATOM      5  C4  UNL d   1      -4.864   5.997   3.146  0.00  0.00     0.048 A 
ATOM      6  C5  UNL d   1      -5.230   5.993   1.799  0.00  0.00     0.003 A 
ATOM      7  I   UNL d   1      -4.511   4.850   5.923  0.00  0.00    -0.146 I 
ENDROOT
TORSDOF 0
ENDMDL
