MODEL 1
REMARK minimizedAffinity -2.53943443
REMARK minimizedRMSD -1
REMARK  0 active torsions:
REMARK  status: ('A' for Active; 'I' for Inactive)
ROOT
ATOM      1  C   UNL d   1      -5.687   3.427   5.999  0.00  0.00     0.023 A 
ATOM      2  C1  UNL d   1      -5.328   2.793   4.809  0.00  0.00     0.003 A 
ATOM      3  C2  UNL d   1      -5.282   3.519   3.617  0.00  0.00     0.048 A 
ATOM      4  C3  UNL d   1      -5.596   4.878   3.622  0.00  0.00     0.023 A 
ATOM      5  C4  UNL d   1      -5.954   5.516   4.810  0.00  0.00     0.048 A 
ATOM      6  C5  UNL d   1      -6.000   4.786   6.000  0.00  0.00     0.003 A 
ATOM      7  I   UNL d   1      -5.528   5.959   1.848  0.00  0.00    -0.146 I 
ENDROOT
TORSDOF 0
ENDMDL
