MODEL 1
REMARK minimizedAffinity -2.28213549
REMARK minimizedRMSD -1
REMARK  0 active torsions:
REMARK  status: ('A' for Active; 'I' for Inactive)
ROOT
ATOM      1  C   UNL d   1      -5.755   5.445   1.982  0.00  0.00     0.023 A 
ATOM      2  C1  UNL d   1      -5.998   6.000   3.239  0.00  0.00     0.003 A 
ATOM      3  C2  UNL d   1      -5.748   5.255   4.393  0.00  0.00     0.048 A 
ATOM      4  C3  UNL d   1      -5.254   3.955   4.283  0.00  0.00     0.023 A 
ATOM      5  C4  UNL d   1      -5.009   3.396   3.028  0.00  0.00     0.048 A 
ATOM      6  C5  UNL d   1      -5.261   4.145   1.877  0.00  0.00     0.003 A 
ATOM      7  I   UNL d   1      -4.882   2.844   6.000  0.00  0.00    -0.146 I 
ENDROOT
TORSDOF 0
ENDMDL
