MODEL 1
REMARK minimizedAffinity -0.540907145
REMARK minimizedRMSD -1
REMARK  0 active torsions:
REMARK  status: ('A' for Active; 'I' for Inactive)
ROOT
ATOM      1  C   UNL d   1      -3.993   1.255   5.968  0.00  0.00     0.023 A 
ATOM      2  C1  UNL d   1      -3.180   2.388   5.993  0.00  0.00     0.003 A 
ATOM      3  C2  UNL d   1      -3.754   3.661   6.000  0.00  0.00     0.048 A 
ATOM      4  C3  UNL d   1      -5.142   3.793   5.984  0.00  0.00     0.023 A 
ATOM      5  C4  UNL d   1      -5.959   2.663   5.961  0.00  0.00     0.048 A 
ATOM      6  C5  UNL d   1      -5.381   1.392   5.952  0.00  0.00     0.003 A 
ATOM      7  I   UNL d   1      -5.998   5.687   5.995  0.00  0.00    -0.146 I 
ENDROOT
TORSDOF 0
ENDMDL
