MODEL 1
REMARK minimizedAffinity -2.20007491
REMARK minimizedRMSD -1
REMARK  0 active torsions:
REMARK  status: ('A' for Active; 'I' for Inactive)
ROOT
ATOM      1  C   UNL d   1      -4.141   4.238   5.996  0.00  0.00     0.023 A 
ATOM      2  C1  UNL d   1      -4.186   5.594   5.668  0.00  0.00     0.003 A 
ATOM      3  C2  UNL d   1      -4.655   5.995   4.416  0.00  0.00     0.048 A 
ATOM      4  C3  UNL d   1      -5.078   5.036   3.496  0.00  0.00     0.023 A 
ATOM      5  C4  UNL d   1      -5.036   3.679   3.820  0.00  0.00     0.048 A 
ATOM      6  C5  UNL d   1      -4.565   3.282   5.073  0.00  0.00     0.003 A 
ATOM      7  I   UNL d   1      -5.777   5.631   1.632  0.00  0.00    -0.146 I 
ENDROOT
TORSDOF 0
ENDMDL
