MODEL 1
REMARK minimizedAffinity -2.2928133
REMARK minimizedRMSD -1
REMARK  0 active torsions:
REMARK  status: ('A' for Active; 'I' for Inactive)
ROOT
ATOM      1  C   UNL d   1      -5.516   4.156   6.000  0.00  0.00     0.023 A 
ATOM      2  C1  UNL d   1      -5.075   3.375   4.931  0.00  0.00     0.003 A 
ATOM      3  C2  UNL d   1      -5.063   3.902   3.638  0.00  0.00     0.048 A 
ATOM      4  C3  UNL d   1      -5.491   5.212   3.421  0.00  0.00     0.023 A 
ATOM      5  C4  UNL d   1      -5.931   5.997   4.488  0.00  0.00     0.048 A 
ATOM      6  C5  UNL d   1      -5.943   5.465   5.779  0.00  0.00     0.003 A 
ATOM      7  I   UNL d   1      -5.472   5.999   1.498  0.00  0.00    -0.146 I 
ENDROOT
TORSDOF 0
ENDMDL
