MODEL 1
REMARK minimizedAffinity -2.91466856
REMARK minimizedRMSD -1
REMARK  0 active torsions:
REMARK  status: ('A' for Active; 'I' for Inactive)
ROOT
ATOM      1  C   UNL d   1      -5.526   5.992   3.002  0.00  0.00     0.023 A 
ATOM      2  C1  UNL d   1      -6.000   5.936   4.312  0.00  0.00     0.003 A 
ATOM      3  C2  UNL d   1      -5.824   4.777   5.071  0.00  0.00     0.048 A 
ATOM      4  C3  UNL d   1      -5.173   3.678   4.513  0.00  0.00     0.023 A 
ATOM      5  C4  UNL d   1      -4.695   3.730   3.202  0.00  0.00     0.048 A 
ATOM      6  C5  UNL d   1      -4.874   4.890   2.447  0.00  0.00     0.003 A 
ATOM      7  I   UNL d   1      -4.910   1.952   5.640  0.00  0.00    -0.146 I 
ENDROOT
TORSDOF 0
ENDMDL
