MODEL 1
REMARK minimizedAffinity -2.48379922
REMARK minimizedRMSD -1
REMARK  0 active torsions:
REMARK  status: ('A' for Active; 'I' for Inactive)
ROOT
ATOM      1  C   UNL d   1      -5.308   4.075   6.000  0.00  0.00     0.023 A 
ATOM      2  C1  UNL d   1      -4.638   3.354   5.011  0.00  0.00     0.003 A 
ATOM      3  C2  UNL d   1      -4.466   3.905   3.740  0.00  0.00     0.048 A 
ATOM      4  C3  UNL d   1      -4.963   5.178   3.464  0.00  0.00     0.023 A 
ATOM      5  C4  UNL d   1      -5.633   5.904   4.451  0.00  0.00     0.048 A 
ATOM      6  C5  UNL d   1      -5.804   5.349   5.720  0.00  0.00     0.003 A 
ATOM      7  I   UNL d   1      -4.707   6.000   1.572  0.00  0.00    -0.146 I 
ENDROOT
TORSDOF 0
ENDMDL
