MODEL 1
REMARK minimizedAffinity 0.59394151
REMARK minimizedRMSD -1
REMARK  0 active torsions:
REMARK  status: ('A' for Active; 'I' for Inactive)
ROOT
ATOM      1  C   UNL d   1      -5.646   4.060   5.999  0.00  0.00     0.023 A 
ATOM      2  C1  UNL d   1      -5.912   5.421   5.848  0.00  0.00     0.003 A 
ATOM      3  C2  UNL d   1      -6.000   5.979   4.571  0.00  0.00     0.048 A 
ATOM      4  C3  UNL d   1      -5.822   5.170   3.449  0.00  0.00     0.023 A 
ATOM      5  C4  UNL d   1      -5.557   3.808   3.595  0.00  0.00     0.048 A 
ATOM      6  C5  UNL d   1      -5.469   3.254   4.874  0.00  0.00     0.003 A 
ATOM      7  I   UNL d   1      -5.953   5.998   1.547  0.00  0.00    -0.146 I 
ENDROOT
TORSDOF 0
ENDMDL
