MODEL 1
REMARK minimizedAffinity 15.2889156
REMARK minimizedRMSD -1
REMARK  0 active torsions:
REMARK  status: ('A' for Active; 'I' for Inactive)
ROOT
ATOM      1  C   UNL d   1       1.102   1.291   1.852  0.00  0.00    -0.002 A 
ATOM      2  C1  UNL d   1       0.818   2.624   1.592  0.00  0.00     0.010 A 
ATOM      3  C2  UNL d   1       1.072   3.172   0.332  0.00  0.00     0.041 A 
ATOM      4  C3  UNL d   1       1.619   2.348  -0.671  0.00  0.00    -0.075 A 
ATOM      5  S   UNL d   1       2.012   2.801  -2.288  0.00  0.00     0.015 SA
ATOM      6  C4  UNL d   1       2.564   1.235  -2.672  0.00  0.00     0.022 A 
ATOM      7  C5  UNL d   1       2.459   0.375  -1.604  0.00  0.00     0.026 A 
ATOM      8  C6  UNL d   1       1.912   1.002  -0.434  0.00  0.00    -0.082 A 
ATOM      9  C7  UNL d   1       1.644   0.477   0.853  0.00  0.00     0.045 A 
ENDROOT
TORSDOF 0
ENDMDL
