MODEL 1
REMARK minimizedAffinity 32.0282555
REMARK minimizedRMSD -1
REMARK  0 active torsions:
REMARK  status: ('A' for Active; 'I' for Inactive)
ROOT
ATOM      1  C   UNL d   1       2.816   1.026  -1.943  0.00  0.00    -0.002 A 
ATOM      2  C1  UNL d   1       3.231   0.060  -2.848  0.00  0.00     0.010 A 
ATOM      3  C2  UNL d   1       4.215   0.351  -3.796  0.00  0.00     0.041 A 
ATOM      4  C3  UNL d   1       4.780   1.641  -3.817  0.00  0.00    -0.075 A 
ATOM      5  S   UNL d   1       6.000   2.224  -4.888  0.00  0.00     0.015 SA
ATOM      6  C4  UNL d   1       5.998   3.769  -4.167  0.00  0.00     0.022 A 
ATOM      7  C5  UNL d   1       5.095   3.855  -3.134  0.00  0.00     0.026 A 
ATOM      8  C6  UNL d   1       4.379   2.630  -2.915  0.00  0.00    -0.082 A 
ATOM      9  C7  UNL d   1       3.379   2.304  -1.967  0.00  0.00     0.045 A 
ENDROOT
TORSDOF 0
ENDMDL
