MODEL 1
REMARK minimizedAffinity 22.4620342
REMARK minimizedRMSD -1
REMARK  0 active torsions:
REMARK  status: ('A' for Active; 'I' for Inactive)
ROOT
ATOM      1  C   UNL d   1      -1.836  -1.253   3.372  0.00  0.00    -0.002 A 
ATOM      2  C1  UNL d   1      -0.683  -1.838   2.867  0.00  0.00     0.010 A 
ATOM      3  C2  UNL d   1      -0.422  -3.193   3.081  0.00  0.00     0.041 A 
ATOM      4  C3  UNL d   1      -1.348  -3.958   3.816  0.00  0.00    -0.075 A 
ATOM      5  S   UNL d   1      -1.238  -5.635   4.202  0.00  0.00     0.015 SA
ATOM      6  C4  UNL d   1      -2.719  -5.614   5.045  0.00  0.00     0.022 A 
ATOM      7  C5  UNL d   1      -3.297  -4.367   5.042  0.00  0.00     0.026 A 
ATOM      8  C6  UNL d   1      -2.517  -3.392   4.334  0.00  0.00    -0.082 A 
ATOM      9  C7  UNL d   1      -2.753  -2.015   4.101  0.00  0.00     0.045 A 
ENDROOT
TORSDOF 0
ENDMDL
