MODEL 1
REMARK minimizedAffinity 24.0126915
REMARK minimizedRMSD -1
REMARK  0 active torsions:
REMARK  status: ('A' for Active; 'I' for Inactive)
ROOT
ATOM      1  C   UNL d   1      -3.405   1.845   3.285  0.00  0.00    -0.002 A 
ATOM      2  C1  UNL d   1      -2.214   2.558   3.317  0.00  0.00     0.010 A 
ATOM      3  C2  UNL d   1      -0.987   1.891   3.326  0.00  0.00     0.041 A 
ATOM      4  C3  UNL d   1      -0.977   0.483   3.300  0.00  0.00    -0.075 A 
ATOM      5  S   UNL d   1       0.406  -0.547   3.303  0.00  0.00     0.015 SA
ATOM      6  C4  UNL d   1      -0.550  -1.957   3.262  0.00  0.00     0.022 A 
ATOM      7  C5  UNL d   1      -1.894  -1.668   3.246  0.00  0.00     0.026 A 
ATOM      8  C6  UNL d   1      -2.162  -0.257   3.266  0.00  0.00    -0.082 A 
ATOM      9  C7  UNL d   1      -3.390   0.448   3.259  0.00  0.00     0.045 A 
ENDROOT
TORSDOF 0
ENDMDL
