MODEL 1
REMARK minimizedAffinity 6.1704092
REMARK minimizedRMSD -1
REMARK  0 active torsions:
REMARK  status: ('A' for Active; 'I' for Inactive)
ROOT
ATOM      1  C   UNL d   1       3.395   0.346   0.992  0.00  0.00    -0.002 A 
ATOM      2  C1  UNL d   1       2.343   1.239   1.144  0.00  0.00     0.010 A 
ATOM      3  C2  UNL d   1       1.809   1.901   0.037  0.00  0.00     0.041 A 
ATOM      4  C3  UNL d   1       2.353   1.647  -1.237  0.00  0.00    -0.075 A 
ATOM      5  S   UNL d   1       1.858   2.341  -2.736  0.00  0.00     0.015 SA
ATOM      6  C4  UNL d   1       3.031   1.469  -3.613  0.00  0.00     0.022 A 
ATOM      7  C5  UNL d   1       3.790   0.663  -2.798  0.00  0.00     0.026 A 
ATOM      8  C6  UNL d   1       3.411   0.752  -1.415  0.00  0.00    -0.082 A 
ATOM      9  C7  UNL d   1       3.932   0.097  -0.273  0.00  0.00     0.045 A 
ENDROOT
TORSDOF 0
ENDMDL
