MODEL 1
REMARK minimizedAffinity 9.09978676
REMARK minimizedRMSD -1
REMARK  0 active torsions:
REMARK  status: ('A' for Active; 'I' for Inactive)
ROOT
ATOM      1  C   UNL d   1      -0.873  -1.573   2.479  0.00  0.00    -0.002 A 
ATOM      2  C1  UNL d   1      -1.188  -2.556   3.407  0.00  0.00     0.010 A 
ATOM      3  C2  UNL d   1      -0.959  -3.903   3.120  0.00  0.00     0.041 A 
ATOM      4  C3  UNL d   1      -0.400  -4.249   1.874  0.00  0.00    -0.075 A 
ATOM      5  S   UNL d   1      -0.030  -5.834   1.305  0.00  0.00     0.015 SA
ATOM      6  C4  UNL d   1       0.555  -5.244  -0.183  0.00  0.00     0.022 A 
ATOM      7  C5  UNL d   1       0.478  -3.874  -0.261  0.00  0.00     0.026 A 
ATOM      8  C6  UNL d   1      -0.073  -3.278   0.924  0.00  0.00    -0.082 A 
ATOM      9  C7  UNL d   1      -0.319  -1.921   1.244  0.00  0.00     0.045 A 
ENDROOT
TORSDOF 0
ENDMDL
