MODEL 1
REMARK minimizedAffinity 22.0327988
REMARK minimizedRMSD -1
REMARK  0 active torsions:
REMARK  status: ('A' for Active; 'I' for Inactive)
ROOT
ATOM      1  C   UNL d   1      -0.136  -4.759  -5.978  0.00  0.00    -0.002 A 
ATOM      2  C1  UNL d   1       0.302  -3.443  -5.991  0.00  0.00     0.010 A 
ATOM      3  C2  UNL d   1      -0.614  -2.389  -5.999  0.00  0.00     0.041 A 
ATOM      4  C3  UNL d   1      -1.991  -2.683  -5.992  0.00  0.00    -0.075 A 
ATOM      5  S   UNL d   1      -3.295  -1.556  -5.998  0.00  0.00     0.015 SA
ATOM      6  C4  UNL d   1      -4.465  -2.795  -5.984  0.00  0.00     0.022 A 
ATOM      7  C5  UNL d   1      -3.893  -4.045  -5.974  0.00  0.00     0.026 A 
ATOM      8  C6  UNL d   1      -2.457  -4.001  -5.978  0.00  0.00    -0.082 A 
ATOM      9  C7  UNL d   1      -1.504  -5.047  -5.972  0.00  0.00     0.045 A 
ENDROOT
TORSDOF 0
ENDMDL
