MODEL 1
REMARK minimizedAffinity -0.961078465
REMARK minimizedRMSD -1
REMARK  0 active torsions:
REMARK  status: ('A' for Active; 'I' for Inactive)
ROOT
ATOM      1  C   UNL d   1       3.873   0.039  -5.327  0.00  0.00    -0.002 A 
ATOM      2  C1  UNL d   1       5.250   0.031  -5.160  0.00  0.00     0.010 A 
ATOM      3  C2  UNL d   1       5.985   1.213  -5.261  0.00  0.00     0.041 A 
ATOM      4  C3  UNL d   1       5.306   2.417  -5.535  0.00  0.00    -0.075 A 
ATOM      5  S   UNL d   1       5.999   3.987  -5.703  0.00  0.00     0.015 SA
ATOM      6  C4  UNL d   1       4.483   4.706  -6.000  0.00  0.00     0.022 A 
ATOM      7  C5  UNL d   1       3.462   3.785  -5.976  0.00  0.00     0.026 A 
ATOM      8  C6  UNL d   1       3.919   2.451  -5.707  0.00  0.00    -0.082 A 
ATOM      9  C7  UNL d   1       3.202   1.235  -5.598  0.00  0.00     0.045 A 
ENDROOT
TORSDOF 0
ENDMDL
