MODEL 1
REMARK minimizedAffinity 20.3030052
REMARK minimizedRMSD -1
REMARK  0 active torsions:
REMARK  status: ('A' for Active; 'I' for Inactive)
ROOT
ATOM      1  C   UNL d   1       3.285  -2.347  -5.875  0.00  0.00    -0.002 A 
ATOM      2  C1  UNL d   1       4.652  -2.555  -5.998  0.00  0.00     0.010 A 
ATOM      3  C2  UNL d   1       5.560  -1.650  -5.446  0.00  0.00     0.041 A 
ATOM      4  C3  UNL d   1       5.068  -0.523  -4.760  0.00  0.00    -0.075 A 
ATOM      5  S   UNL d   1       5.993   0.719  -4.002  0.00  0.00     0.015 SA
ATOM      6  C4  UNL d   1       4.596   1.554  -3.496  0.00  0.00     0.022 A 
ATOM      7  C5  UNL d   1       3.444   0.916  -3.887  0.00  0.00     0.026 A 
ATOM      8  C6  UNL d   1       3.696  -0.292  -4.622  0.00  0.00    -0.082 A 
ATOM      9  C7  UNL d   1       2.800  -1.228  -5.193  0.00  0.00     0.045 A 
ENDROOT
TORSDOF 0
ENDMDL
