MODEL 1
REMARK minimizedAffinity 18.0206795
REMARK minimizedRMSD -1
REMARK  0 active torsions:
REMARK  status: ('A' for Active; 'I' for Inactive)
ROOT
ATOM      1  C   UNL d   1       0.406   2.115   3.406  0.00  0.00    -0.002 A 
ATOM      2  C1  UNL d   1       0.450   2.108   2.019  0.00  0.00     0.010 A 
ATOM      3  C2  UNL d   1       1.514   1.505   1.345  0.00  0.00     0.041 A 
ATOM      4  C3  UNL d   1       2.543   0.902   2.096  0.00  0.00    -0.075 A 
ATOM      5  S   UNL d   1       3.943   0.104   1.486  0.00  0.00     0.015 SA
ATOM      6  C4  UNL d   1       4.517  -0.247   3.052  0.00  0.00     0.022 A 
ATOM      7  C5  UNL d   1       3.672   0.226   4.028  0.00  0.00     0.026 A 
ATOM      8  C6  UNL d   1       2.520   0.896   3.493  0.00  0.00    -0.082 A 
ATOM      9  C7  UNL d   1       1.428   1.517   4.147  0.00  0.00     0.045 A 
ENDROOT
TORSDOF 0
ENDMDL
