MODEL 1
REMARK minimizedAffinity 13.5371027
REMARK minimizedRMSD -1
REMARK  0 active torsions:
REMARK  status: ('A' for Active; 'I' for Inactive)
ROOT
ATOM      1  C   UNL d   1       0.653   2.305   0.610  0.00  0.00    -0.002 A 
ATOM      2  C1  UNL d   1       0.176   3.143   1.608  0.00  0.00     0.010 A 
ATOM      3  C2  UNL d   1       0.595   2.984   2.930  0.00  0.00     0.041 A 
ATOM      4  C3  UNL d   1       1.512   1.958   3.235  0.00  0.00    -0.075 A 
ATOM      5  S   UNL d   1       2.167   1.576   4.783  0.00  0.00     0.015 SA
ATOM      6  C4  UNL d   1       3.095   0.291   4.156  0.00  0.00     0.022 A 
ATOM      7  C5  UNL d   1       2.921   0.143   2.800  0.00  0.00     0.026 A 
ATOM      8  C6  UNL d   1       2.007   1.102   2.247  0.00  0.00    -0.082 A 
ATOM      9  C7  UNL d   1       1.562   1.289   0.916  0.00  0.00     0.045 A 
ENDROOT
TORSDOF 0
ENDMDL
