MODEL 1
REMARK minimizedAffinity 16.0465508
REMARK minimizedRMSD -1
REMARK  0 active torsions:
REMARK  status: ('A' for Active; 'I' for Inactive)
ROOT
ATOM      1  C   UNL d   1       1.791   0.886   4.286  0.00  0.00    -0.002 A 
ATOM      2  C1  UNL d   1       2.933   0.149   4.566  0.00  0.00     0.010 A 
ATOM      3  C2  UNL d   1       3.745  -0.322   3.533  0.00  0.00     0.041 A 
ATOM      4  C3  UNL d   1       3.389  -0.036   2.201  0.00  0.00    -0.075 A 
ATOM      5  S   UNL d   1       4.233  -0.509   0.774  0.00  0.00     0.015 SA
ATOM      6  C4  UNL d   1       3.098   0.256  -0.241  0.00  0.00     0.022 A 
ATOM      7  C5  UNL d   1       2.093   0.863   0.474  0.00  0.00     0.026 A 
ATOM      8  C6  UNL d   1       2.244   0.705   1.893  0.00  0.00    -0.082 A 
ATOM      9  C7  UNL d   1       1.440   1.168   2.963  0.00  0.00     0.045 A 
ENDROOT
TORSDOF 0
ENDMDL
