MODEL 1
REMARK minimizedAffinity 5.12744474
REMARK minimizedRMSD -1
REMARK  0 active torsions:
REMARK  status: ('A' for Active; 'I' for Inactive)
ROOT
ATOM      1  C   UNL d   1      -1.898  -1.473   3.409  0.00  0.00    -0.002 A 
ATOM      2  C1  UNL d   1      -0.741  -2.063   2.920  0.00  0.00     0.010 A 
ATOM      3  C2  UNL d   1      -0.500  -3.424   3.119  0.00  0.00     0.041 A 
ATOM      4  C3  UNL d   1      -1.451  -4.190   3.822  0.00  0.00    -0.075 A 
ATOM      5  S   UNL d   1      -1.369  -5.873   4.183  0.00  0.00     0.015 SA
ATOM      6  C4  UNL d   1      -2.867  -5.849   4.994  0.00  0.00     0.022 A 
ATOM      7  C5  UNL d   1      -3.431  -4.595   4.999  0.00  0.00     0.026 A 
ATOM      8  C6  UNL d   1      -2.624  -3.618   4.322  0.00  0.00    -0.082 A 
ATOM      9  C7  UNL d   1      -2.839  -2.235   4.106  0.00  0.00     0.045 A 
ENDROOT
TORSDOF 0
ENDMDL
