MODEL 1
REMARK minimizedAffinity 17.030899
REMARK minimizedRMSD -1
REMARK  0 active torsions:
REMARK  status: ('A' for Active; 'I' for Inactive)
ROOT
ATOM      1  C   UNL d   1       3.598   2.348  -2.618  0.00  0.00    -0.002 A 
ATOM      2  C1  UNL d   1       2.420   1.909  -3.205  0.00  0.00     0.010 A 
ATOM      3  C2  UNL d   1       2.440   0.903  -4.173  0.00  0.00     0.041 A 
ATOM      4  C3  UNL d   1       3.676   0.338  -4.544  0.00  0.00    -0.075 A 
ATOM      5  S   UNL d   1       3.943  -0.907  -5.706  0.00  0.00     0.015 SA
ATOM      6  C4  UNL d   1       5.628  -0.887  -5.450  0.00  0.00     0.022 A 
ATOM      7  C5  UNL d   1       5.995   0.041  -4.505  0.00  0.00     0.026 A 
ATOM      8  C6  UNL d   1       4.876   0.762  -3.966  0.00  0.00    -0.082 A 
ATOM      9  C7  UNL d   1       4.823   1.785  -2.989  0.00  0.00     0.045 A 
ENDROOT
TORSDOF 0
ENDMDL
