MODEL 1
REMARK minimizedAffinity 17.0266094
REMARK minimizedRMSD -1
REMARK  0 active torsions:
REMARK  status: ('A' for Active; 'I' for Inactive)
ROOT
ATOM      1  C   UNL d   1      -0.661   3.301   1.878  0.00  0.00    -0.002 A 
ATOM      2  C1  UNL d   1       0.267   3.449   0.858  0.00  0.00     0.010 A 
ATOM      3  C2  UNL d   1       1.464   2.730   0.876  0.00  0.00     0.041 A 
ATOM      4  C3  UNL d   1       1.713   1.849   1.947  0.00  0.00    -0.075 A 
ATOM      5  S   UNL d   1       3.110   0.865   2.179  0.00  0.00     0.015 SA
ATOM      6  C4  UNL d   1       2.506   0.224   3.639  0.00  0.00     0.022 A 
ATOM      7  C5  UNL d   1       1.271   0.737   3.956  0.00  0.00     0.026 A 
ATOM      8  C6  UNL d   1       0.794   1.682   2.986  0.00  0.00    -0.082 A 
ATOM      9  C7  UNL d   1      -0.410   2.426   2.939  0.00  0.00     0.045 A 
ENDROOT
TORSDOF 0
ENDMDL
