MODEL 1
REMARK minimizedAffinity -1.45272338
REMARK minimizedRMSD -1
REMARK  0 active torsions:
REMARK  status: ('A' for Active; 'I' for Inactive)
ROOT
ATOM      1  O1  BZF d   1       0.403   0.974  -1.149  0.00  0.00    -0.204 OA
ATOM      2  C2  BZF d   1      -0.915   1.082  -0.751  0.00  0.00     0.174 A 
ATOM      3  C3  BZF d   1      -1.153   0.314   0.332  0.00  0.00    -0.012 A 
ATOM      4  C3A BZF d   1       0.118  -0.243   0.684  0.00  0.00    -0.107 A 
ATOM      5  C4  BZF d   1       0.533  -1.077   1.682  0.00  0.00     0.055 A 
ATOM      6  C5  BZF d   1       1.828  -1.488   1.703  0.00  0.00    -0.016 A 
ATOM      7  C6  BZF d   1       2.732  -1.090   0.740  0.00  0.00     0.022 A 
ATOM      8  C7  BZF d   1       2.368  -0.259  -0.267  0.00  0.00     0.029 A 
ATOM      9  C7A BZF d   1       1.068   0.185  -0.272  0.00  0.00     0.058 A 
ENDROOT
TORSDOF 0
ENDMDL
