MODEL 1
REMARK minimizedAffinity -2.95173311
REMARK minimizedRMSD -1
REMARK  0 active torsions:
REMARK  status: ('A' for Active; 'I' for Inactive)
ROOT
ATOM      1  O1  BZF d   1      -1.226  -0.771   2.556  0.00  0.00    -0.204 OA
ATOM      2  C2  BZF d   1      -0.506  -1.597   3.397  0.00  0.00     0.174 A 
ATOM      3  C3  BZF d   1       0.640  -1.997   2.809  0.00  0.00    -0.012 A 
ATOM      4  C3A BZF d   1       0.679  -1.309   1.555  0.00  0.00    -0.107 A 
ATOM      5  C4  BZF d   1       1.578  -1.281   0.527  0.00  0.00     0.055 A 
ATOM      6  C5  BZF d   1       1.283  -0.562  -0.588  0.00  0.00    -0.016 A 
ATOM      7  C6  BZF d   1       0.099   0.135  -0.711  0.00  0.00     0.022 A 
ATOM      8  C7  BZF d   1      -0.821   0.141   0.284  0.00  0.00     0.029 A 
ATOM      9  C7A BZF d   1      -0.511  -0.557   1.426  0.00  0.00     0.058 A 
ENDROOT
TORSDOF 0
ENDMDL
