MODEL 1
REMARK minimizedAffinity -2.82386804
REMARK minimizedRMSD -1
REMARK  0 active torsions:
REMARK  status: ('A' for Active; 'I' for Inactive)
ROOT
ATOM      1  O1  BZF d   1      -0.820  -0.147   1.638  0.00  0.00    -0.204 OA
ATOM      2  C2  BZF d   1      -1.304   0.823   0.781  0.00  0.00     0.174 A 
ATOM      3  C3  BZF d   1      -0.440   1.042  -0.231  0.00  0.00    -0.012 A 
ATOM      4  C3A BZF d   1       0.609   0.088  -0.042  0.00  0.00    -0.107 A 
ATOM      5  C4  BZF d   1       1.751  -0.201  -0.734  0.00  0.00     0.055 A 
ATOM      6  C5  BZF d   1       2.600  -1.143  -0.244  0.00  0.00    -0.016 A 
ATOM      7  C6  BZF d   1       2.341  -1.810   0.935  0.00  0.00     0.022 A 
ATOM      8  C7  BZF d   1       1.219  -1.561   1.654  0.00  0.00     0.029 A 
ATOM      9  C7A BZF d   1       0.343  -0.634   1.144  0.00  0.00     0.058 A 
ENDROOT
TORSDOF 0
ENDMDL
