MODEL 1
REMARK minimizedAffinity -3.29733205
REMARK minimizedRMSD -1
REMARK  0 active torsions:
REMARK  status: ('A' for Active; 'I' for Inactive)
ROOT
ATOM      1  O1  BZF d   1      -0.584   0.320   0.493  0.00  0.00    -0.204 OA
ATOM      2  C2  BZF d   1      -0.514   1.411  -0.351  0.00  0.00     0.174 A 
ATOM      3  C3  BZF d   1       0.678   1.455  -0.980  0.00  0.00    -0.012 A 
ATOM      4  C3A BZF d   1       1.364   0.269  -0.568  0.00  0.00    -0.107 A 
ATOM      5  C4  BZF d   1       2.588  -0.260  -0.866  0.00  0.00     0.055 A 
ATOM      6  C5  BZF d   1       2.987  -1.397  -0.238  0.00  0.00    -0.016 A 
ATOM      7  C6  BZF d   1       2.191  -2.028   0.695  0.00  0.00     0.022 A 
ATOM      8  C7  BZF d   1       0.967  -1.545   1.020  0.00  0.00     0.029 A 
ATOM      9  C7A BZF d   1       0.548  -0.414   0.363  0.00  0.00     0.058 A 
ENDROOT
TORSDOF 0
ENDMDL
