MODEL 1
REMARK minimizedAffinity -2.68837166
REMARK minimizedRMSD -1
REMARK  0 active torsions:
REMARK  status: ('A' for Active; 'I' for Inactive)
ROOT
ATOM      1  O1  BZF d   1      -0.076  -0.448  -1.141  0.00  0.00    -0.204 OA
ATOM      2  C2  BZF d   1       0.353   0.297  -0.059  0.00  0.00     0.174 A 
ATOM      3  C3  BZF d   1      -0.127   1.555  -0.124  0.00  0.00    -0.012 A 
ATOM      4  C3A BZF d   1      -0.981   1.573  -1.272  0.00  0.00    -0.107 A 
ATOM      5  C4  BZF d   1      -1.758   2.537  -1.850  0.00  0.00     0.055 A 
ATOM      6  C5  BZF d   1      -2.411   2.253  -3.007  0.00  0.00    -0.016 A 
ATOM      7  C6  BZF d   1      -2.307   1.019  -3.615  0.00  0.00     0.022 A 
ATOM      8  C7  BZF d   1      -1.553   0.030  -3.077  0.00  0.00     0.029 A 
ATOM      9  C7A BZF d   1      -0.917   0.303  -1.891  0.00  0.00     0.058 A 
ENDROOT
TORSDOF 0
ENDMDL
