MODEL 1
REMARK minimizedAffinity -1.37237024
REMARK minimizedRMSD -1
REMARK  0 active torsions:
REMARK  status: ('A' for Active; 'I' for Inactive)
ROOT
ATOM      1  O1  BZF d   1      -1.174   1.894  -0.864  0.00  0.00    -0.204 OA
ATOM      2  C2  BZF d   1      -0.303   1.567  -1.886  0.00  0.00     0.174 A 
ATOM      3  C3  BZF d   1       0.354   0.422  -1.607  0.00  0.00    -0.012 A 
ATOM      4  C3A BZF d   1      -0.204  -0.041  -0.374  0.00  0.00    -0.107 A 
ATOM      5  C4  BZF d   1       0.025  -1.137   0.408  0.00  0.00     0.055 A 
ATOM      6  C5  BZF d   1      -0.637  -1.257   1.588  0.00  0.00    -0.016 A 
ATOM      7  C6  BZF d   1      -1.531  -0.299   2.020  0.00  0.00     0.022 A 
ATOM      8  C7  BZF d   1      -1.795   0.803   1.277  0.00  0.00     0.029 A 
ATOM      9  C7A BZF d   1      -1.152   0.911   0.068  0.00  0.00     0.058 A 
ENDROOT
TORSDOF 0
ENDMDL
