MODEL 1
REMARK minimizedAffinity -4.91797543
REMARK minimizedRMSD -1
REMARK  0 active torsions:
REMARK  status: ('A' for Active; 'I' for Inactive)
ROOT
ATOM      1  O1  BZF d   1       0.276  -1.264   1.768  0.00  0.00    -0.204 OA
ATOM      2  C2  BZF d   1      -0.745  -0.584   1.133  0.00  0.00     0.174 A 
ATOM      3  C3  BZF d   1      -0.251   0.270   0.213  0.00  0.00    -0.012 A 
ATOM      4  C3A BZF d   1       1.162   0.047   0.213  0.00  0.00    -0.107 A 
ATOM      5  C4  BZF d   1       2.197   0.583  -0.499  0.00  0.00     0.055 A 
ATOM      6  C5  BZF d   1       3.468   0.200  -0.206  0.00  0.00    -0.016 A 
ATOM      7  C6  BZF d   1       3.740  -0.711   0.793  0.00  0.00     0.022 A 
ATOM      8  C7  BZF d   1       2.746  -1.274   1.523  0.00  0.00     0.029 A 
ATOM      9  C7A BZF d   1       1.458  -0.914   1.207  0.00  0.00     0.058 A 
ENDROOT
TORSDOF 0
ENDMDL
