MODEL 1
REMARK minimizedAffinity -4.979671
REMARK minimizedRMSD -1
REMARK  0 active torsions:
REMARK  status: ('A' for Active; 'I' for Inactive)
ROOT
ATOM      1  O1  BZF d   1      -0.538  -0.084   0.297  0.00  0.00    -0.204 OA
ATOM      2  C2  BZF d   1      -0.483   1.211  -0.181  0.00  0.00     0.174 A 
ATOM      3  C3  BZF d   1       0.796   1.606  -0.346  0.00  0.00    -0.012 A 
ATOM      4  C3A BZF d   1       1.588   0.457  -0.034  0.00  0.00    -0.107 A 
ATOM      5  C4  BZF d   1       2.932   0.217  -0.027  0.00  0.00     0.055 A 
ATOM      6  C5  BZF d   1       3.385  -0.992   0.398  0.00  0.00    -0.016 A 
ATOM      7  C6  BZF d   1       2.524  -1.979   0.829  0.00  0.00     0.022 A 
ATOM      8  C7  BZF d   1       1.182  -1.790   0.836  0.00  0.00     0.029 A 
ATOM      9  C7A BZF d   1       0.719  -0.581   0.376  0.00  0.00     0.058 A 
ENDROOT
TORSDOF 0
ENDMDL
