MODEL 1
REMARK minimizedAffinity -4.01396751
REMARK minimizedRMSD -1
REMARK  0 active torsions:
REMARK  status: ('A' for Active; 'I' for Inactive)
ROOT
ATOM      1  O1  BZF d   1       3.020  -1.629   0.746  0.00  0.00    -0.204 OA
ATOM      2  C2  BZF d   1       3.771  -0.795  -0.060  0.00  0.00     0.174 A 
ATOM      3  C3  BZF d   1       2.998   0.166  -0.606  0.00  0.00    -0.012 A 
ATOM      4  C3A BZF d   1       1.699  -0.027  -0.037  0.00  0.00    -0.107 A 
ATOM      5  C4  BZF d   1       0.507   0.624  -0.177  0.00  0.00     0.055 A 
ATOM      6  C5  BZF d   1      -0.589   0.139   0.463  0.00  0.00    -0.016 A 
ATOM      7  C6  BZF d   1      -0.531  -0.997   1.244  0.00  0.00     0.022 A 
ATOM      8  C7  BZF d   1       0.631  -1.674   1.417  0.00  0.00     0.029 A 
ATOM      9  C7A BZF d   1       1.747  -1.167   0.798  0.00  0.00     0.058 A 
ENDROOT
TORSDOF 0
ENDMDL
