MODEL 1
REMARK minimizedAffinity -4.02163363
REMARK minimizedRMSD -1
REMARK  0 active torsions:
REMARK  status: ('A' for Active; 'I' for Inactive)
ROOT
ATOM      1  O1  BZF d   1       1.074   0.948  -0.551  0.00  0.00    -0.204 OA
ATOM      2  C2  BZF d   1      -0.240   1.370  -0.504  0.00  0.00     0.174 A 
ATOM      3  C3  BZF d   1      -1.031   0.414   0.025  0.00  0.00    -0.012 A 
ATOM      4  C3A BZF d   1      -0.142  -0.638   0.412  0.00  0.00    -0.107 A 
ATOM      5  C4  BZF d   1      -0.328  -1.852   1.010  0.00  0.00     0.055 A 
ATOM      6  C5  BZF d   1       0.741  -2.673   1.183  0.00  0.00    -0.016 A 
ATOM      7  C6  BZF d   1       2.006  -2.316   0.767  0.00  0.00     0.022 A 
ATOM      8  C7  BZF d   1       2.241  -1.120   0.174  0.00  0.00     0.029 A 
ATOM      9  C7A BZF d   1       1.169  -0.274   0.027  0.00  0.00     0.058 A 
ENDROOT
TORSDOF 0
ENDMDL
