MODEL 1
REMARK minimizedAffinity -4.07383823
REMARK minimizedRMSD -1
REMARK  0 active torsions:
REMARK  status: ('A' for Active; 'I' for Inactive)
ROOT
ATOM      1  O1  BZF d   1      -1.527   0.411  -2.885  0.00  0.00    -0.204 OA
ATOM      2  C2  BZF d   1      -2.231   1.600  -2.913  0.00  0.00     0.174 A 
ATOM      3  C3  BZF d   1      -2.103   2.259  -1.743  0.00  0.00    -0.012 A 
ATOM      4  C3A BZF d   1      -1.192   1.475  -0.967  0.00  0.00    -0.107 A 
ATOM      5  C4  BZF d   1      -0.658   1.619   0.282  0.00  0.00     0.055 A 
ATOM      6  C5  BZF d   1       0.143   0.638   0.774  0.00  0.00    -0.016 A 
ATOM      7  C6  BZF d   1       0.426  -0.501   0.049  0.00  0.00     0.022 A 
ATOM      8  C7  BZF d   1      -0.076  -0.686  -1.196  0.00  0.00     0.029 A 
ATOM      9  C7A BZF d   1      -0.860   0.319  -1.710  0.00  0.00     0.058 A 
ENDROOT
TORSDOF 0
ENDMDL
