MODEL 1
REMARK minimizedAffinity -4.36362171
REMARK minimizedRMSD -1
REMARK  0 active torsions:
REMARK  status: ('A' for Active; 'I' for Inactive)
ROOT
ATOM      1  O1  BZF d   1       0.521   0.750   0.128  0.00  0.00    -0.204 OA
ATOM      2  C2  BZF d   1       0.810  -0.600   0.061  0.00  0.00     0.174 A 
ATOM      3  C3  BZF d   1       0.003  -1.218  -0.826  0.00  0.00    -0.012 A 
ATOM      4  C3A BZF d   1      -0.780  -0.175  -1.413  0.00  0.00    -0.107 A 
ATOM      5  C4  BZF d   1      -1.751  -0.157  -2.373  0.00  0.00     0.055 A 
ATOM      6  C5  BZF d   1      -2.368   1.018  -2.666  0.00  0.00    -0.016 A 
ATOM      7  C6  BZF d   1      -2.045   2.190  -2.015  0.00  0.00     0.022 A 
ATOM      8  C7  BZF d   1      -1.085   2.223  -1.059  0.00  0.00     0.029 A 
ATOM      9  C7A BZF d   1      -0.436   1.044  -0.784  0.00  0.00     0.058 A 
ENDROOT
TORSDOF 0
ENDMDL
