MODEL 1
REMARK minimizedAffinity 1.23163056
REMARK minimizedRMSD -1
REMARK  0 active torsions:
REMARK  status: ('A' for Active; 'I' for Inactive)
ROOT
ATOM      1  O1  BZF d   1       0.304  -2.580   1.889  0.00  0.00    -0.204 OA
ATOM      2  C2  BZF d   1      -0.735  -1.915   1.265  0.00  0.00     0.174 A 
ATOM      3  C3  BZF d   1      -0.272  -0.875   0.544  0.00  0.00    -0.012 A 
ATOM      4  C3A BZF d   1       1.153  -0.945   0.653  0.00  0.00    -0.107 A 
ATOM      5  C4  BZF d   1       2.172  -0.193   0.142  0.00  0.00     0.055 A 
ATOM      6  C5  BZF d   1       3.451  -0.483   0.500  0.00  0.00    -0.016 A 
ATOM      7  C6  BZF d   1       3.745  -1.513   1.369  0.00  0.00     0.022 A 
ATOM      8  C7  BZF d   1       2.769  -2.290   1.898  0.00  0.00     0.029 A 
ATOM      9  C7A BZF d   1       1.478  -2.020   1.512  0.00  0.00     0.058 A 
ENDROOT
TORSDOF 0
ENDMDL
