MODEL 1
REMARK minimizedAffinity -3.7252605
REMARK minimizedRMSD -1
REMARK  0 active torsions:
REMARK  status: ('A' for Active; 'I' for Inactive)
ROOT
ATOM      1  O1  BZF d   1       2.571  -1.930   1.383  0.00  0.00    -0.204 OA
ATOM      2  C2  BZF d   1       3.307  -0.854   0.925  0.00  0.00     0.174 A 
ATOM      3  C3  BZF d   1       2.515   0.029   0.283  0.00  0.00    -0.012 A 
ATOM      4  C3A BZF d   1       1.187  -0.486   0.424  0.00  0.00    -0.107 A 
ATOM      5  C4  BZF d   1      -0.039  -0.046   0.012  0.00  0.00     0.055 A 
ATOM      6  C5  BZF d   1      -1.131  -0.819   0.248  0.00  0.00    -0.016 A 
ATOM      7  C6  BZF d   1      -1.034  -2.038   0.886  0.00  0.00     0.022 A 
ATOM      8  C7  BZF d   1       0.160  -2.514   1.317  0.00  0.00     0.029 A 
ATOM      9  C7A BZF d   1       1.261  -1.720   1.110  0.00  0.00     0.058 A 
ENDROOT
TORSDOF 0
ENDMDL
