MODEL 1
REMARK minimizedAffinity -1.04898393
REMARK minimizedRMSD -1
REMARK  0 active torsions:
REMARK  status: ('A' for Active; 'I' for Inactive)
ROOT
ATOM      1  O1  BZF d   1      -0.274   2.145  -0.353  0.00  0.00    -0.204 OA
ATOM      2  C2  BZF d   1       0.868   1.886  -1.087  0.00  0.00     0.174 A 
ATOM      3  C3  BZF d   1       1.335   0.649  -0.824  0.00  0.00    -0.012 A 
ATOM      4  C3A BZF d   1       0.376   0.065   0.064  0.00  0.00    -0.107 A 
ATOM      5  C4  BZF d   1       0.276  -1.156   0.667  0.00  0.00     0.055 A 
ATOM      6  C5  BZF d   1      -0.745  -1.382   1.534  0.00  0.00    -0.016 A 
ATOM      7  C6  BZF d   1      -1.680  -0.411   1.825  0.00  0.00     0.022 A 
ATOM      8  C7  BZF d   1      -1.626   0.814   1.247  0.00  0.00     0.029 A 
ATOM      9  C7A BZF d   1      -0.614   1.035   0.345  0.00  0.00     0.058 A 
ENDROOT
TORSDOF 0
ENDMDL
