MODEL 1
REMARK minimizedAffinity -4.20542669
REMARK minimizedRMSD -1
REMARK  0 active torsions:
REMARK  status: ('A' for Active; 'I' for Inactive)
ROOT
ATOM      1  O1  BZF d   1       1.318   0.922   0.189  0.00  0.00    -0.204 OA
ATOM      2  C2  BZF d   1       0.048   1.465   0.151  0.00  0.00     0.174 A 
ATOM      3  C3  BZF d   1      -0.872   0.555   0.529  0.00  0.00    -0.012 A 
ATOM      4  C3A BZF d   1      -0.123  -0.603   0.911  0.00  0.00    -0.107 A 
ATOM      5  C4  BZF d   1      -0.473  -1.832   1.391  0.00  0.00     0.055 A 
ATOM      6  C5  BZF d   1       0.496  -2.763   1.594  0.00  0.00    -0.016 A 
ATOM      7  C6  BZF d   1       1.823  -2.501   1.322  0.00  0.00     0.022 A 
ATOM      8  C7  BZF d   1       2.220  -1.294   0.850  0.00  0.00     0.029 A 
ATOM      9  C7A BZF d   1       1.247  -0.340   0.675  0.00  0.00     0.058 A 
ENDROOT
TORSDOF 0
ENDMDL
