MODEL 1
REMARK minimizedAffinity -2.56774139
REMARK minimizedRMSD -1
REMARK  0 active torsions:
REMARK  status: ('A' for Active; 'I' for Inactive)
ROOT
ATOM      1  O1  BZF d   1       1.602  -1.435   0.404  0.00  0.00    -0.204 OA
ATOM      2  C2  BZF d   1       0.806  -2.279   1.154  0.00  0.00     0.174 A 
ATOM      3  C3  BZF d   1      -0.403  -1.725   1.376  0.00  0.00    -0.012 A 
ATOM      4  C3A BZF d   1      -0.393  -0.494   0.647  0.00  0.00    -0.107 A 
ATOM      5  C4  BZF d   1      -1.315   0.497   0.463  0.00  0.00     0.055 A 
ATOM      6  C5  BZF d   1      -0.965   1.601  -0.247  0.00  0.00    -0.016 A 
ATOM      7  C6  BZF d   1       0.298   1.750  -0.783  0.00  0.00     0.022 A 
ATOM      8  C7  BZF d   1       1.244   0.792  -0.632  0.00  0.00     0.029 A 
ATOM      9  C7A BZF d   1       0.884  -0.340   0.057  0.00  0.00     0.058 A 
ENDROOT
TORSDOF 0
ENDMDL
