MODEL 1
REMARK minimizedAffinity -5.10212564
REMARK minimizedRMSD -1
REMARK  0 active torsions:
REMARK  status: ('A' for Active; 'I' for Inactive)
ROOT
ATOM      1  C4' PXY d   1      -0.264  -3.155  -0.171  0.00  0.00     0.077 C 
ATOM      2  C1' PXY d   1      -0.698   2.564   0.553  0.00  0.00     0.077 C 
ATOM      3  C1  PXY d   1      -0.585   1.062   0.376  0.00  0.00    -0.082 A 
ATOM      4  C2  PXY d   1      -0.002   0.573  -0.707  0.00  0.00     0.003 A 
ATOM      5  C3  PXY d   1       0.080  -0.782  -0.898  0.00  0.00     0.003 A 
ATOM      6  C4  PXY d   1      -0.392  -1.646   0.054  0.00  0.00    -0.082 A 
ATOM      7  C5  PXY d   1      -0.978  -1.155   1.166  0.00  0.00     0.003 A 
ATOM      8  C6  PXY d   1      -1.089   0.224   1.322  0.00  0.00     0.003 A 
ENDROOT
TORSDOF 0
ENDMDL
