MODEL 1
REMARK minimizedAffinity -4.88499832
REMARK minimizedRMSD -1
REMARK  0 active torsions:
REMARK  status: ('A' for Active; 'I' for Inactive)
ROOT
ATOM      1  C4' PXY d   1      -0.195   2.038  -0.064  0.00  0.00     0.077 C 
ATOM      2  C1' PXY d   1      -0.340  -3.740  -0.135  0.00  0.00     0.077 C 
ATOM      3  C1  PXY d   1      -0.312  -2.225  -0.107  0.00  0.00    -0.082 A 
ATOM      4  C2  PXY d   1       0.167  -1.561  -1.147  0.00  0.00     0.003 A 
ATOM      5  C3  PXY d   1       0.229  -0.191  -1.126  0.00  0.00     0.003 A 
ATOM      6  C4  PXY d   1      -0.252   0.508  -0.051  0.00  0.00    -0.082 A 
ATOM      7  C5  PXY d   1      -0.751  -0.162   1.009  0.00  0.00     0.003 A 
ATOM      8  C6  PXY d   1      -0.768  -1.554   0.985  0.00  0.00     0.003 A 
ENDROOT
TORSDOF 0
ENDMDL
