MODEL 1
REMARK minimizedAffinity -4.07620287
REMARK minimizedRMSD -1
REMARK  0 active torsions:
REMARK  status: ('A' for Active; 'I' for Inactive)
ROOT
ATOM      1  C4' PXY d   1      -0.682   2.018   0.013  0.00  0.00     0.077 C 
ATOM      2  C1' PXY d   1       0.288  -3.661   0.486  0.00  0.00     0.077 C 
ATOM      3  C1  PXY d   1       0.022  -2.174   0.368  0.00  0.00    -0.082 A 
ATOM      4  C2  PXY d   1       0.645  -1.470  -0.563  0.00  0.00     0.003 A 
ATOM      5  C3  PXY d   1       0.441  -0.117  -0.664  0.00  0.00     0.003 A 
ATOM      6  C4  PXY d   1      -0.451   0.511   0.163  0.00  0.00    -0.082 A 
ATOM      7  C5  PXY d   1      -1.099  -0.202   1.109  0.00  0.00     0.003 A 
ATOM      8  C6  PXY d   1      -0.847  -1.566   1.221  0.00  0.00     0.003 A 
ENDROOT
TORSDOF 0
ENDMDL
