MODEL 1
REMARK minimizedAffinity -4.58999681
REMARK minimizedRMSD -1
REMARK  0 active torsions:
REMARK  status: ('A' for Active; 'I' for Inactive)
ROOT
ATOM      1  C4' PXY d   1       1.151  -1.078  -2.813  0.00  0.00     0.077 C 
ATOM      2  C1' PXY d   1      -1.497   0.274   2.144  0.00  0.00     0.077 C 
ATOM      3  C1  PXY d   1      -0.808  -0.070   0.838  0.00  0.00    -0.082 A 
ATOM      4  C2  PXY d   1      -0.477  -1.326   0.584  0.00  0.00     0.003 A 
ATOM      5  C3  PXY d   1       0.176  -1.649  -0.577  0.00  0.00     0.003 A 
ATOM      6  C4  PXY d   1       0.445  -0.686  -1.512  0.00  0.00    -0.082 A 
ATOM      7  C5  PXY d   1       0.102   0.596  -1.265  0.00  0.00     0.003 A 
ATOM      8  C6  PXY d   1      -0.523   0.910  -0.062  0.00  0.00     0.003 A 
ENDROOT
TORSDOF 0
ENDMDL
