MODEL 1
REMARK minimizedAffinity -4.13701057
REMARK minimizedRMSD -1
REMARK  0 active torsions:
REMARK  status: ('A' for Active; 'I' for Inactive)
ROOT
ATOM      1  C4' PXY d   1      -0.729  -2.617   0.309  0.00  0.00     0.077 C 
ATOM      2  C1' PXY d   1       0.528   3.020   0.079  0.00  0.00     0.077 C 
ATOM      3  C1  PXY d   1       0.197   1.542   0.152  0.00  0.00    -0.082 A 
ATOM      4  C2  PXY d   1       0.595   0.734  -0.817  0.00  0.00     0.003 A 
ATOM      5  C3  PXY d   1       0.277  -0.599  -0.783  0.00  0.00     0.003 A 
ATOM      6  C4  PXY d   1      -0.410  -1.120   0.281  0.00  0.00    -0.082 A 
ATOM      7  C5  PXY d   1      -0.809  -0.304   1.279  0.00  0.00     0.003 A 
ATOM      8  C6  PXY d   1      -0.512   1.054   1.205  0.00  0.00     0.003 A 
ENDROOT
TORSDOF 0
ENDMDL
