MODEL 1
REMARK minimizedAffinity -2.64722776
REMARK minimizedRMSD -1
REMARK  0 active torsions:
REMARK  status: ('A' for Active; 'I' for Inactive)
ROOT
ATOM      1  C4' PXY d   1       0.539   2.901  -0.004  0.00  0.00     0.077 C 
ATOM      2  C1' PXY d   1      -1.081  -2.609   0.649  0.00  0.00     0.077 C 
ATOM      3  C1  PXY d   1      -0.646  -1.168   0.471  0.00  0.00    -0.082 A 
ATOM      4  C2  PXY d   1      -1.060  -0.249   1.328  0.00  0.00     0.003 A 
ATOM      5  C3  PXY d   1      -0.702   1.064   1.163  0.00  0.00     0.003 A 
ATOM      6  C4  PXY d   1       0.132   1.432   0.142  0.00  0.00    -0.082 A 
ATOM      7  C5  PXY d   1       0.568   0.499  -0.730  0.00  0.00     0.003 A 
ATOM      8  C6  PXY d   1       0.160  -0.822  -0.570  0.00  0.00     0.003 A 
ENDROOT
TORSDOF 0
ENDMDL
