MODEL 1
REMARK minimizedAffinity -3.6156528
REMARK minimizedRMSD -1
REMARK  0 active torsions:
REMARK  status: ('A' for Active; 'I' for Inactive)
ROOT
ATOM      1  C4' PXY d   1       0.333  -3.976  -0.023  0.00  0.00     0.077 C 
ATOM      2  C1' PXY d   1      -0.546   1.733  -0.234  0.00  0.00     0.077 C 
ATOM      3  C1  PXY d   1      -0.322   0.235  -0.168  0.00  0.00    -0.082 A 
ATOM      4  C2  PXY d   1       0.703  -0.302  -0.808  0.00  0.00     0.003 A 
ATOM      5  C3  PXY d   1       0.902  -1.658  -0.784  0.00  0.00     0.003 A 
ATOM      6  C4  PXY d   1       0.074  -2.468  -0.054  0.00  0.00    -0.082 A 
ATOM      7  C5  PXY d   1      -0.969  -1.926   0.610  0.00  0.00     0.003 A 
ATOM      8  C6  PXY d   1      -1.178  -0.552   0.540  0.00  0.00     0.003 A 
ENDROOT
TORSDOF 0
ENDMDL
