MODEL 1
REMARK minimizedAffinity -4.28949261
REMARK minimizedRMSD -1
REMARK  0 active torsions:
REMARK  status: ('A' for Active; 'I' for Inactive)
ROOT
ATOM      1  C4' PXY d   1      -0.549  -2.938   0.896  0.00  0.00     0.077 C 
ATOM      2  C1' PXY d   1       0.358   2.692  -0.049  0.00  0.00     0.077 C 
ATOM      3  C1  PXY d   1       0.119   1.218   0.211  0.00  0.00    -0.082 A 
ATOM      4  C2  PXY d   1       0.609   0.318  -0.625  0.00  0.00     0.003 A 
ATOM      5  C3  PXY d   1       0.375  -1.018  -0.422  0.00  0.00     0.003 A 
ATOM      6  C4  PXY d   1      -0.324  -1.439   0.678  0.00  0.00    -0.082 A 
ATOM      7  C5  PXY d   1      -0.818  -0.527   1.541  0.00  0.00     0.003 A 
ATOM      8  C6  PXY d   1      -0.605   0.826   1.295  0.00  0.00     0.003 A 
ENDROOT
TORSDOF 0
ENDMDL
