MODEL 1
REMARK minimizedAffinity -2.9397471
REMARK minimizedRMSD -1
REMARK  0 active torsions:
REMARK  status: ('A' for Active; 'I' for Inactive)
ROOT
ATOM      1  C4' PXY d   1      -0.770  -0.612   0.549  0.00  0.00     0.077 C 
ATOM      2  C1' PXY d   1       1.613   4.651   0.373  0.00  0.00     0.077 C 
ATOM      3  C1  PXY d   1       0.986   3.271   0.407  0.00  0.00    -0.082 A 
ATOM      4  C2  PXY d   1       0.445   2.826   1.529  0.00  0.00     0.003 A 
ATOM      5  C3  PXY d   1      -0.098   1.568   1.585  0.00  0.00     0.003 A 
ATOM      6  C4  PXY d   1      -0.134   0.778   0.467  0.00  0.00    -0.082 A 
ATOM      7  C5  PXY d   1       0.407   1.230  -0.684  0.00  0.00     0.003 A 
ATOM      8  C6  PXY d   1       0.990   2.494  -0.710  0.00  0.00     0.003 A 
ENDROOT
TORSDOF 0
ENDMDL
