MODEL 1
REMARK minimizedAffinity -4.26006079
REMARK minimizedRMSD -1
REMARK  0 active torsions:
REMARK  status: ('A' for Active; 'I' for Inactive)
ROOT
ATOM      1  C4' PXY d   1      -0.072   1.819  -0.625  0.00  0.00     0.077 C 
ATOM      2  C1' PXY d   1       0.002  -3.803   0.717  0.00  0.00     0.077 C 
ATOM      3  C1  PXY d   1      -0.029  -2.327   0.371  0.00  0.00    -0.082 A 
ATOM      4  C2  PXY d   1       0.640  -1.888  -0.683  0.00  0.00     0.003 A 
ATOM      5  C3  PXY d   1       0.649  -0.552  -0.991  0.00  0.00     0.003 A 
ATOM      6  C4  PXY d   1      -0.077   0.336  -0.244  0.00  0.00    -0.082 A 
ATOM      7  C5  PXY d   1      -0.771  -0.106   0.826  0.00  0.00     0.003 A 
ATOM      8  C6  PXY d   1      -0.734  -1.460   1.147  0.00  0.00     0.003 A 
ENDROOT
TORSDOF 0
ENDMDL
