MODEL 1
REMARK minimizedAffinity -2.83143497
REMARK minimizedRMSD -1
REMARK  0 active torsions:
REMARK  status: ('A' for Active; 'I' for Inactive)
ROOT
ATOM      1  C4' PXY d   1       0.792   3.316  -0.288  0.00  0.00     0.077 C 
ATOM      2  C1' PXY d   1      -0.830  -1.955   1.447  0.00  0.00     0.077 C 
ATOM      3  C1  PXY d   1      -0.411  -0.574   0.981  0.00  0.00    -0.082 A 
ATOM      4  C2  PXY d   1       0.685  -0.021   1.475  0.00  0.00     0.003 A 
ATOM      5  C3  PXY d   1       1.060   1.239   1.089  0.00  0.00     0.003 A 
ATOM      6  C4  PXY d   1       0.336   1.920   0.147  0.00  0.00    -0.082 A 
ATOM      7  C5  PXY d   1      -0.777   1.358  -0.370  0.00  0.00     0.003 A 
ATOM      8  C6  PXY d   1      -1.164   0.095   0.066  0.00  0.00     0.003 A 
ENDROOT
TORSDOF 0
ENDMDL
