MODEL 1
REMARK minimizedAffinity -3.172616
REMARK minimizedRMSD -1
REMARK  0 active torsions:
REMARK  status: ('A' for Active; 'I' for Inactive)
ROOT
ATOM      1  C4' PXY d   1      -0.387   2.263  -0.291  0.00  0.00     0.077 C 
ATOM      2  C1' PXY d   1      -0.153  -3.370   0.984  0.00  0.00     0.077 C 
ATOM      3  C1  PXY d   1      -0.202  -1.894   0.644  0.00  0.00    -0.082 A 
ATOM      4  C2  PXY d   1      -1.003  -1.092   1.328  0.00  0.00     0.003 A 
ATOM      5  C3  PXY d   1      -1.083   0.240   1.013  0.00  0.00     0.003 A 
ATOM      6  C4  PXY d   1      -0.298   0.767   0.023  0.00  0.00    -0.082 A 
ATOM      7  C5  PXY d   1       0.529  -0.042  -0.672  0.00  0.00     0.003 A 
ATOM      8  C6  PXY d   1       0.566  -1.399  -0.364  0.00  0.00     0.003 A 
ENDROOT
TORSDOF 0
ENDMDL
