MODEL 1
REMARK minimizedAffinity -4.71162796
REMARK minimizedRMSD -1
REMARK  0 active torsions:
REMARK  status: ('A' for Active; 'I' for Inactive)
ROOT
ATOM      1  C4' PXY d   1       0.248  -4.421   0.152  0.00  0.00     0.077 C 
ATOM      2  C1' PXY d   1      -0.539   1.302   0.344  0.00  0.00     0.077 C 
ATOM      3  C1  PXY d   1      -0.336  -0.200   0.306  0.00  0.00    -0.082 A 
ATOM      4  C2  PXY d   1       0.490  -0.726  -0.582  0.00  0.00     0.003 A 
ATOM      5  C3  PXY d   1       0.661  -2.085  -0.652  0.00  0.00     0.003 A 
ATOM      6  C4  PXY d   1       0.020  -2.909   0.233  0.00  0.00    -0.082 A 
ATOM      7  C5  PXY d   1      -0.817  -2.379   1.150  0.00  0.00     0.003 A 
ATOM      8  C6  PXY d   1      -1.009  -1.001   1.177  0.00  0.00     0.003 A 
ENDROOT
TORSDOF 0
ENDMDL
