MODEL 1
REMARK minimizedAffinity -4.17930031
REMARK minimizedRMSD -1
REMARK  0 active torsions:
REMARK  status: ('A' for Active; 'I' for Inactive)
ROOT
ATOM      1  C4' PXY d   1       0.254   2.000  -1.121  0.00  0.00     0.077 C 
ATOM      2  C1' PXY d   1       0.016  -3.530   0.544  0.00  0.00     0.077 C 
ATOM      3  C1  PXY d   1       0.066  -2.078   0.112  0.00  0.00    -0.082 A 
ATOM      4  C2  PXY d   1       0.873  -1.716  -0.872  0.00  0.00     0.003 A 
ATOM      5  C3  PXY d   1       0.955  -0.402  -1.254  0.00  0.00     0.003 A 
ATOM      6  C4  PXY d   1       0.164   0.543  -0.658  0.00  0.00    -0.082 A 
ATOM      7  C5  PXY d   1      -0.670   0.180   0.339  0.00  0.00     0.003 A 
ATOM      8  C6  PXY d   1      -0.708  -1.152   0.740  0.00  0.00     0.003 A 
ENDROOT
TORSDOF 0
ENDMDL
