MODEL 1
REMARK minimizedAffinity -1.45919216
REMARK minimizedRMSD -1
REMARK  0 active torsions:
REMARK  status: ('A' for Active; 'I' for Inactive)
ROOT
ATOM      1  C4' PXY d   1       0.232   3.181   0.250  0.00  0.00     0.077 C 
ATOM      2  C1' PXY d   1      -0.126  -2.544  -0.465  0.00  0.00     0.077 C 
ATOM      3  C1  PXY d   1      -0.024  -1.042  -0.288  0.00  0.00    -0.082 A 
ATOM      4  C2  PXY d   1      -0.281  -0.504   0.894  0.00  0.00     0.003 A 
ATOM      5  C3  PXY d   1      -0.224   0.855   1.064  0.00  0.00     0.003 A 
ATOM      6  C4  PXY d   1       0.150   1.668   0.027  0.00  0.00    -0.082 A 
ATOM      7  C5  PXY d   1       0.424   1.126  -1.178  0.00  0.00     0.003 A 
ATOM      8  C6  PXY d   1       0.321  -0.253  -1.341  0.00  0.00     0.003 A 
ENDROOT
TORSDOF 0
ENDMDL
