MODEL 1
REMARK minimizedAffinity -3.01222062
REMARK minimizedRMSD -1
REMARK  0 active torsions:
REMARK  status: ('A' for Active; 'I' for Inactive)
ROOT
ATOM      1  C4' PXY d   1       0.293   2.559  -0.706  0.00  0.00     0.077 C 
ATOM      2  C1' PXY d   1      -0.824  -2.889   0.872  0.00  0.00     0.077 C 
ATOM      3  C1  PXY d   1      -0.544  -1.457   0.459  0.00  0.00    -0.082 A 
ATOM      4  C2  PXY d   1       0.556  -1.176  -0.221  0.00  0.00     0.003 A 
ATOM      5  C3  PXY d   1       0.841   0.117  -0.575  0.00  0.00     0.003 A 
ATOM      6  C4  PXY d   1      -0.035   1.126  -0.276  0.00  0.00    -0.082 A 
ATOM      7  C5  PXY d   1      -1.165   0.846   0.408  0.00  0.00     0.003 A 
ATOM      8  C6  PXY d   1      -1.415  -0.468   0.794  0.00  0.00     0.003 A 
ENDROOT
TORSDOF 0
ENDMDL
