MODEL 1
REMARK minimizedAffinity -5.54292679
REMARK minimizedRMSD -1
REMARK  0 active torsions:
REMARK  status: ('A' for Active; 'I' for Inactive)
ROOT
ATOM      1  C4' PXY d   1       0.421   2.006  -0.481  0.00  0.00     0.077 C 
ATOM      2  C1' PXY d   1      -0.148  -3.721   0.067  0.00  0.00     0.077 C 
ATOM      3  C1  PXY d   1      -0.010  -2.217  -0.070  0.00  0.00    -0.082 A 
ATOM      4  C2  PXY d   1       0.737  -1.715  -1.040  0.00  0.00     0.003 A 
ATOM      5  C3  PXY d   1       0.898  -0.358  -1.159  0.00  0.00     0.003 A 
ATOM      6  C4  PXY d   1       0.245   0.494  -0.310  0.00  0.00    -0.082 A 
ATOM      7  C5  PXY d   1      -0.528  -0.010   0.675  0.00  0.00     0.003 A 
ATOM      8  C6  PXY d   1      -0.645  -1.391   0.805  0.00  0.00     0.003 A 
ENDROOT
TORSDOF 0
ENDMDL
