MODEL 1
REMARK minimizedAffinity -4.43271589
REMARK minimizedRMSD -1
REMARK  0 active torsions:
REMARK  status: ('A' for Active; 'I' for Inactive)
ROOT
ATOM      1  C4' PXY d   1       0.130   1.692  -0.425  0.00  0.00     0.077 C 
ATOM      2  C1' PXY d   1       0.051  -4.043   0.296  0.00  0.00     0.077 C 
ATOM      3  C1  PXY d   1       0.061  -2.538   0.114  0.00  0.00    -0.082 A 
ATOM      4  C2  PXY d   1       0.666  -2.010  -0.938  0.00  0.00     0.003 A 
ATOM      5  C3  PXY d   1       0.712  -0.650  -1.101  0.00  0.00     0.003 A 
ATOM      6  C4  PXY d   1       0.086   0.177  -0.206  0.00  0.00    -0.082 A 
ATOM      7  C5  PXY d   1      -0.542  -0.354   0.864  0.00  0.00     0.003 A 
ATOM      8  C6  PXY d   1      -0.542  -1.736   1.033  0.00  0.00     0.003 A 
ENDROOT
TORSDOF 0
ENDMDL
