MODEL 1
REMARK minimizedAffinity -4.72865057
REMARK minimizedRMSD -1
REMARK  0 active torsions:
REMARK  status: ('A' for Active; 'I' for Inactive)
ROOT
ATOM      1  C4' PXY d   1       0.657   2.705  -0.098  0.00  0.00     0.077 C 
ATOM      2  C1' PXY d   1      -0.742  -2.846   0.708  0.00  0.00     0.077 C 
ATOM      3  C1  PXY d   1      -0.364  -1.394   0.491  0.00  0.00    -0.082 A 
ATOM      4  C2  PXY d   1      -0.871  -0.460   1.280  0.00  0.00     0.003 A 
ATOM      5  C3  PXY d   1      -0.565   0.861   1.077  0.00  0.00     0.003 A 
ATOM      6  C4  PXY d   1       0.311   1.225   0.091  0.00  0.00    -0.082 A 
ATOM      7  C5  PXY d   1       0.841   0.278  -0.712  0.00  0.00     0.003 A 
ATOM      8  C6  PXY d   1       0.486  -1.053  -0.516  0.00  0.00     0.003 A 
ENDROOT
TORSDOF 0
ENDMDL
