MODEL 1
REMARK minimizedAffinity 5.04224062
REMARK minimizedRMSD -1
REMARK  0 active torsions:
REMARK  status: ('A' for Active; 'I' for Inactive)
ROOT
ATOM      1  C   UNL d   1       2.068   0.555   1.241  0.00  0.00     0.023 A 
ATOM      2  C1  UNL d   1       3.449   0.467   1.066  0.00  0.00     0.003 A 
ATOM      3  C2  UNL d   1       4.299   0.513   2.173  0.00  0.00     0.048 A 
ATOM      4  C3  UNL d   1       3.761   0.645   3.452  0.00  0.00     0.023 A 
ATOM      5  C4  UNL d   1       2.380   0.732   3.632  0.00  0.00     0.048 A 
ATOM      6  C5  UNL d   1       1.534   0.687   2.523  0.00  0.00     0.003 A 
ATOM      7  I   UNL d   1       5.024   0.713   5.102  0.00  0.00    -0.146 I 
ENDROOT
TORSDOF 0
ENDMDL
