MODEL 1
REMARK minimizedAffinity -0.957273543
REMARK minimizedRMSD -1
REMARK  0 active torsions:
REMARK  status: ('A' for Active; 'I' for Inactive)
ROOT
ATOM      1  C   UNL d   1      -4.109   5.993  -1.915  0.00  0.00     0.023 A 
ATOM      2  C1  UNL d   1      -4.201   5.994  -3.307  0.00  0.00     0.003 A 
ATOM      3  C2  UNL d   1      -3.042   5.996  -4.085  0.00  0.00     0.048 A 
ATOM      4  C3  UNL d   1      -1.793   5.995  -3.465  0.00  0.00     0.023 A 
ATOM      5  C4  UNL d   1      -1.695   5.992  -2.073  0.00  0.00     0.048 A 
ATOM      6  C5  UNL d   1      -2.857   5.991  -1.299  0.00  0.00     0.003 A 
ATOM      7  I   UNL d   1      -0.066   5.997  -4.622  0.00  0.00    -0.146 I 
ENDROOT
TORSDOF 0
ENDMDL
