MODEL 1
REMARK minimizedAffinity 2.97091174
REMARK minimizedRMSD -1
REMARK  0 active torsions:
REMARK  status: ('A' for Active; 'I' for Inactive)
ROOT
ATOM      1  C   UNL d   1       1.131   3.107   1.511  0.00  0.00     0.023 A 
ATOM      2  C1  UNL d   1       0.378   2.456   2.488  0.00  0.00     0.003 A 
ATOM      3  C2  UNL d   1      -0.087   1.158   2.263  0.00  0.00     0.048 A 
ATOM      4  C3  UNL d   1       0.206   0.518   1.060  0.00  0.00     0.023 A 
ATOM      5  C4  UNL d   1       0.960   1.165   0.079  0.00  0.00     0.048 A 
ATOM      6  C5  UNL d   1       1.422   2.463   0.308  0.00  0.00     0.003 A 
ATOM      7  I   UNL d   1      -0.485  -1.413   0.723  0.00  0.00    -0.146 I 
ENDROOT
TORSDOF 0
ENDMDL
