MODEL 1
REMARK minimizedAffinity 6.75623989
REMARK minimizedRMSD -1
REMARK  0 active torsions:
REMARK  status: ('A' for Active; 'I' for Inactive)
ROOT
ATOM      1  C   UNL d   1       0.634   1.377   0.890  0.00  0.00     0.023 A 
ATOM      2  C1  UNL d   1       1.261   1.973  -0.204  0.00  0.00     0.003 A 
ATOM      3  C2  UNL d   1       1.560   1.215  -1.338  0.00  0.00     0.048 A 
ATOM      4  C3  UNL d   1       1.228  -0.139  -1.372  0.00  0.00     0.023 A 
ATOM      5  C4  UNL d   1       0.600  -0.740  -0.280  0.00  0.00     0.048 A 
ATOM      6  C5  UNL d   1       0.304   0.022   0.852  0.00  0.00     0.003 A 
ATOM      7  I   UNL d   1       1.672  -1.269  -3.059  0.00  0.00    -0.146 I 
ENDROOT
TORSDOF 0
ENDMDL
