MODEL 1
REMARK minimizedAffinity -0.275172532
REMARK minimizedRMSD -1
REMARK  0 active torsions:
REMARK  status: ('A' for Active; 'I' for Inactive)
ROOT
ATOM      1  C   UNL d   1       2.096   1.376  -0.642  0.00  0.00     0.023 A 
ATOM      2  C1  UNL d   1       1.609   0.096  -0.910  0.00  0.00     0.003 A 
ATOM      3  C2  UNL d   1       0.509  -0.396  -0.205  0.00  0.00     0.048 A 
ATOM      4  C3  UNL d   1      -0.101   0.398   0.766  0.00  0.00     0.023 A 
ATOM      5  C4  UNL d   1       0.382   1.679   1.038  0.00  0.00     0.048 A 
ATOM      6  C5  UNL d   1       1.483   2.166   0.331  0.00  0.00     0.003 A 
ATOM      7  I   UNL d   1      -1.739  -0.332   1.817  0.00  0.00    -0.146 I 
ENDROOT
TORSDOF 0
ENDMDL
