MODEL 1
REMARK minimizedAffinity 3.99926209
REMARK minimizedRMSD -1
REMARK  0 active torsions:
REMARK  status: ('A' for Active; 'I' for Inactive)
ROOT
ATOM      1  C   UNL d   1      -4.072   5.992  -1.590  0.00  0.00     0.023 A 
ATOM      2  C1  UNL d   1      -2.819   5.987  -0.978  0.00  0.00     0.003 A 
ATOM      3  C2  UNL d   1      -1.660   5.988  -1.758  0.00  0.00     0.048 A 
ATOM      4  C3  UNL d   1      -1.763   5.994  -3.148  0.00  0.00     0.023 A 
ATOM      5  C4  UNL d   1      -3.015   6.000  -3.765  0.00  0.00     0.048 A 
ATOM      6  C5  UNL d   1      -4.170   5.998  -2.981  0.00  0.00     0.003 A 
ATOM      7  I   UNL d   1      -0.040   5.995  -4.311  0.00  0.00    -0.146 I 
ENDROOT
TORSDOF 0
ENDMDL
