MODEL 1
REMARK minimizedAffinity -1.65917897
REMARK minimizedRMSD -1
REMARK  0 active torsions:
REMARK  status: ('A' for Active; 'I' for Inactive)
ROOT
ATOM      1  C   UNL d   1      -2.371   5.969  -1.888  0.00  0.00     0.023 A 
ATOM      2  C1  UNL d   1      -3.697   5.957  -1.455  0.00  0.00     0.003 A 
ATOM      3  C2  UNL d   1      -4.738   5.967  -2.387  0.00  0.00     0.048 A 
ATOM      4  C3  UNL d   1      -4.445   5.987  -3.750  0.00  0.00     0.023 A 
ATOM      5  C4  UNL d   1      -3.119   5.998  -4.188  0.00  0.00     0.048 A 
ATOM      6  C5  UNL d   1      -2.083   5.990  -3.253  0.00  0.00     0.003 A 
ATOM      7  I   UNL d   1      -5.991   6.000  -5.138  0.00  0.00    -0.146 I 
ENDROOT
TORSDOF 0
ENDMDL
