MODEL 1
REMARK minimizedAffinity 4.93803024
REMARK minimizedRMSD -1
REMARK  0 active torsions:
REMARK  status: ('A' for Active; 'I' for Inactive)
ROOT
ATOM      1  C   UNL d   1       1.202   2.220  -0.633  0.00  0.00     0.023 A 
ATOM      2  C1  UNL d   1       0.745   0.923  -0.400  0.00  0.00     0.003 A 
ATOM      3  C2  UNL d   1       0.371   0.534   0.888  0.00  0.00     0.048 A 
ATOM      4  C3  UNL d   1       0.456   1.447   1.938  0.00  0.00     0.023 A 
ATOM      5  C4  UNL d   1       0.912   2.746   1.710  0.00  0.00     0.048 A 
ATOM      6  C5  UNL d   1       1.285   3.131   0.421  0.00  0.00     0.003 A 
ATOM      7  I   UNL d   1      -0.100   0.870   3.856  0.00  0.00    -0.146 I 
ENDROOT
TORSDOF 0
ENDMDL
