MODEL 1
REMARK minimizedAffinity -1.62059689
REMARK minimizedRMSD -1
REMARK  0 active torsions:
REMARK  status: ('A' for Active; 'I' for Inactive)
ROOT
ATOM      1  C   UNL d   1       2.237   2.106   0.117  0.00  0.00     0.023 A 
ATOM      2  C1  UNL d   1       2.722   0.815  -0.089  0.00  0.00     0.003 A 
ATOM      3  C2  UNL d   1       1.853  -0.277  -0.029  0.00  0.00     0.048 A 
ATOM      4  C3  UNL d   1       0.500  -0.069   0.235  0.00  0.00     0.023 A 
ATOM      5  C4  UNL d   1       0.010   1.222   0.441  0.00  0.00     0.048 A 
ATOM      6  C5  UNL d   1       0.883   2.310   0.382  0.00  0.00     0.003 A 
ATOM      7  I   UNL d   1      -0.796  -1.691   0.324  0.00  0.00    -0.146 I 
ENDROOT
TORSDOF 0
ENDMDL
