MODEL 1
REMARK minimizedAffinity 0.350659579
REMARK minimizedRMSD -1
REMARK  0 active torsions:
REMARK  status: ('A' for Active; 'I' for Inactive)
ROOT
ATOM      1  C   UNL d   1      -1.465   5.733  -4.843  0.00  0.00     0.023 A 
ATOM      2  C1  UNL d   1      -0.715   6.000  -3.698  0.00  0.00     0.003 A 
ATOM      3  C2  UNL d   1       0.665   5.786  -3.700  0.00  0.00     0.048 A 
ATOM      4  C3  UNL d   1       1.289   5.306  -4.851  0.00  0.00     0.023 A 
ATOM      5  C4  UNL d   1       0.542   5.038  -6.000  0.00  0.00     0.048 A 
ATOM      6  C5  UNL d   1      -0.838   5.252  -5.993  0.00  0.00     0.003 A 
ATOM      7  I   UNL d   1       3.342   4.988  -4.857  0.00  0.00    -0.146 I 
ENDROOT
TORSDOF 0
ENDMDL
