MODEL 1
REMARK minimizedAffinity 2.68160391
REMARK minimizedRMSD -1
REMARK  0 active torsions:
REMARK  status: ('A' for Active; 'I' for Inactive)
ROOT
ATOM      1  C   UNL d   1      -2.016   5.972   0.316  0.00  0.00     0.023 A 
ATOM      2  C1  UNL d   1      -3.411   5.956   0.321  0.00  0.00     0.003 A 
ATOM      3  C2  UNL d   1      -4.114   5.962  -0.885  0.00  0.00     0.048 A 
ATOM      4  C3  UNL d   1      -3.417   5.983  -2.092  0.00  0.00     0.023 A 
ATOM      5  C4  UNL d   1      -2.021   5.998  -2.102  0.00  0.00     0.048 A 
ATOM      6  C5  UNL d   1      -1.322   5.993  -0.893  0.00  0.00     0.003 A 
ATOM      7  I   UNL d   1      -4.462   5.992  -3.889  0.00  0.00    -0.146 I 
ENDROOT
TORSDOF 0
ENDMDL
