MODEL 1
REMARK minimizedAffinity 7.99480629
REMARK minimizedRMSD -1
REMARK  0 active torsions:
REMARK  status: ('A' for Active; 'I' for Inactive)
ROOT
ATOM      1  C   UNL d   1      -0.347  -0.748   0.811  0.00  0.00     0.023 A 
ATOM      2  C1  UNL d   1       0.641  -0.320  -0.076  0.00  0.00     0.003 A 
ATOM      3  C2  UNL d   1       0.912   1.043  -0.216  0.00  0.00     0.048 A 
ATOM      4  C3  UNL d   1       0.191   1.972   0.534  0.00  0.00     0.023 A 
ATOM      5  C4  UNL d   1      -0.798   1.548   1.423  0.00  0.00     0.048 A 
ATOM      6  C5  UNL d   1      -1.066   0.184   1.559  0.00  0.00     0.003 A 
ATOM      7  I   UNL d   1       0.593   4.001   0.327  0.00  0.00    -0.146 I 
ENDROOT
TORSDOF 0
ENDMDL
