MODEL 1
REMARK minimizedAffinity 1.43120718
REMARK minimizedRMSD -1
REMARK  0 active torsions:
REMARK  status: ('A' for Active; 'I' for Inactive)
ROOT
ATOM      1  C   UNL d   1       6.000   4.541  -4.802  0.00  0.00     0.023 A 
ATOM      2  C1  UNL d   1       5.788   5.596  -5.689  0.00  0.00     0.003 A 
ATOM      3  C2  UNL d   1       4.487   6.000  -5.998  0.00  0.00     0.048 A 
ATOM      4  C3  UNL d   1       3.403   5.344  -5.415  0.00  0.00     0.023 A 
ATOM      5  C4  UNL d   1       3.610   4.288  -4.526  0.00  0.00     0.048 A 
ATOM      6  C5  UNL d   1       4.912   3.888  -4.221  0.00  0.00     0.003 A 
ATOM      7  I   UNL d   1       1.466   5.943  -5.873  0.00  0.00    -0.146 I 
ENDROOT
TORSDOF 0
ENDMDL
