MODEL 1
REMARK minimizedAffinity 1.32280445
REMARK minimizedRMSD -1
REMARK  0 active torsions:
REMARK  status: ('A' for Active; 'I' for Inactive)
ROOT
ATOM      1  C   UNL d   1      -1.780   0.298   2.571  0.00  0.00     0.023 A 
ATOM      2  C1  UNL d   1      -1.600  -0.049   1.232  0.00  0.00     0.003 A 
ATOM      3  C2  UNL d   1      -0.556   0.517   0.498  0.00  0.00     0.048 A 
ATOM      4  C3  UNL d   1       0.304   1.429   1.109  0.00  0.00     0.023 A 
ATOM      5  C4  UNL d   1       0.128   1.778   2.448  0.00  0.00     0.048 A 
ATOM      6  C5  UNL d   1      -0.917   1.210   3.179  0.00  0.00     0.003 A 
ATOM      7  I   UNL d   1       1.859   2.273   0.017  0.00  0.00    -0.146 I 
ENDROOT
TORSDOF 0
ENDMDL
