MODEL 1
REMARK minimizedAffinity -0.0828420743
REMARK minimizedRMSD -1
REMARK  0 active torsions:
REMARK  status: ('A' for Active; 'I' for Inactive)
ROOT
ATOM      1  C   UNL d   1       0.500   5.665  -4.231  0.00  0.00     0.023 A 
ATOM      2  C1  UNL d   1       1.539   5.998  -3.362  0.00  0.00     0.003 A 
ATOM      3  C2  UNL d   1       2.861   5.968  -3.809  0.00  0.00     0.048 A 
ATOM      4  C3  UNL d   1       3.138   5.604  -5.126  0.00  0.00     0.023 A 
ATOM      5  C4  UNL d   1       2.102   5.271  -6.000  0.00  0.00     0.048 A 
ATOM      6  C5  UNL d   1       0.781   5.301  -5.548  0.00  0.00     0.003 A 
ATOM      7  I   UNL d   1       5.106   5.559  -5.793  0.00  0.00    -0.146 I 
ENDROOT
TORSDOF 0
ENDMDL
