MODEL 1
REMARK minimizedAffinity 5.94161844
REMARK minimizedRMSD -1
REMARK  0 active torsions:
REMARK  status: ('A' for Active; 'I' for Inactive)
ROOT
ATOM      1  C   UNL d   1      -4.426  -0.976  -1.389  0.00  0.00     0.023 A 
ATOM      2  C1  UNL d   1      -4.373  -1.507  -0.100  0.00  0.00     0.003 A 
ATOM      3  C2  UNL d   1      -4.019  -2.844   0.092  0.00  0.00     0.048 A 
ATOM      4  C3  UNL d   1      -3.716  -3.644  -1.009  0.00  0.00     0.023 A 
ATOM      5  C4  UNL d   1      -3.767  -3.117  -2.300  0.00  0.00     0.048 A 
ATOM      6  C5  UNL d   1      -4.123  -1.780  -2.488  0.00  0.00     0.003 A 
ATOM      7  I   UNL d   1      -3.188  -5.634  -0.725  0.00  0.00    -0.146 I 
ENDROOT
TORSDOF 0
ENDMDL
