MODEL 1
REMARK minimizedAffinity 0.271661252
REMARK minimizedRMSD -1
REMARK  1 active torsions:
REMARK  status: ('A' for Active; 'I' for Inactive)
REMARK    1  A    between atoms: C3_4  and  O_7 
ROOT
ATOM      1  C   UNL d   1       4.472   3.653  -5.998  0.00  0.00    -0.033 A 
ATOM      2  C1  UNL d   1       4.072   2.315  -6.000  0.00  0.00     0.039 A 
ATOM      3  C2  UNL d   1       2.714   1.990  -5.999  0.00  0.00    -0.080 A 
ATOM      4  C3  UNL d   1       1.767   3.011  -5.996  0.00  0.00     0.150 A 
ATOM      5  C4  UNL d   1       2.158   4.346  -5.999  0.00  0.00    -0.007 A 
ATOM      6  C5  UNL d   1       3.515   4.668  -5.999  0.00  0.00     0.039 A 
ENDROOT
BRANCH   4   7
ATOM      7  O   UNL d   1       0.431   2.743  -5.990  0.00  0.00    -0.526 OA
ATOM      8  H5  UNL d   1       0.310   1.780  -5.960  0.00  0.00     0.418 HD
ENDBRANCH   4   7
TORSDOF 1
ENDMDL
