MODEL 1
REMARK minimizedAffinity 4.51715612
REMARK minimizedRMSD -1
REMARK  1 active torsions:
REMARK  status: ('A' for Active; 'I' for Inactive)
REMARK    1  A    between atoms: C3_4  and  O_7 
ROOT
ATOM      1  C   UNL d   1      -2.351  -3.708  -5.999  0.00  0.00    -0.033 A 
ATOM      2  C1  UNL d   1      -1.402  -2.690  -5.887  0.00  0.00     0.039 A 
ATOM      3  C2  UNL d   1      -1.022  -2.223  -4.627  0.00  0.00    -0.080 A 
ATOM      4  C3  UNL d   1      -1.597  -2.782  -3.489  0.00  0.00     0.150 A 
ATOM      5  C4  UNL d   1      -2.540  -3.799  -3.593  0.00  0.00    -0.007 A 
ATOM      6  C5  UNL d   1      -2.919  -4.263  -4.852  0.00  0.00     0.039 A 
ENDROOT
BRANCH   4   7
ATOM      7  O   UNL d   1      -1.261  -2.355  -2.239  0.00  0.00    -0.526 OA
ATOM      8  H5  UNL d   1      -0.621  -1.629  -2.323  0.00  0.00     0.418 HD
ENDBRANCH   4   7
TORSDOF 1
ENDMDL
