MODEL 1
REMARK minimizedAffinity 1.27112651
REMARK minimizedRMSD -1
REMARK  1 active torsions:
REMARK  status: ('A' for Active; 'I' for Inactive)
REMARK    1  A    between atoms: C3_4  and  O_7 
ROOT
ATOM      1  C   UNL d   1      -2.055  -3.071  -6.000  0.00  0.00    -0.033 A 
ATOM      2  C1  UNL d   1      -2.645  -3.978  -5.118  0.00  0.00     0.039 A 
ATOM      3  C2  UNL d   1      -2.625  -3.733  -3.744  0.00  0.00    -0.080 A 
ATOM      4  C3  UNL d   1      -2.013  -2.578  -3.265  0.00  0.00     0.150 A 
ATOM      5  C4  UNL d   1      -1.427  -1.667  -4.138  0.00  0.00    -0.007 A 
ATOM      6  C5  UNL d   1      -1.448  -1.915  -5.510  0.00  0.00     0.039 A 
ENDROOT
BRANCH   4   7
ATOM      7  O   UNL d   1      -1.964  -2.297  -1.932  0.00  0.00    -0.526 OA
ATOM      8  H5  UNL d   1      -2.383  -3.029  -1.448  0.00  0.00     0.418 HD
ENDBRANCH   4   7
TORSDOF 1
ENDMDL
