MODEL 1
REMARK minimizedAffinity 3.35294414
REMARK minimizedRMSD -1
REMARK  1 active torsions:
REMARK  status: ('A' for Active; 'I' for Inactive)
REMARK    1  A    between atoms: C3_4  and  O_7 
ROOT
ATOM      1  C   UNL d   1      -2.253  -3.724  -6.000  0.00  0.00    -0.033 A 
ATOM      2  C1  UNL d   1      -1.477  -2.575  -5.839  0.00  0.00     0.039 A 
ATOM      3  C2  UNL d   1      -1.137  -2.133  -4.559  0.00  0.00    -0.080 A 
ATOM      4  C3  UNL d   1      -1.577  -2.850  -3.450  0.00  0.00     0.150 A 
ATOM      5  C4  UNL d   1      -2.347  -3.998  -3.603  0.00  0.00    -0.007 A 
ATOM      6  C5  UNL d   1      -2.687  -4.436  -4.882  0.00  0.00     0.039 A 
ENDROOT
BRANCH   4   7
ATOM      7  O   UNL d   1      -1.274  -2.455  -2.180  0.00  0.00    -0.526 OA
ATOM      8  H5  UNL d   1      -0.762  -1.631  -2.228  0.00  0.00     0.418 HD
ENDBRANCH   4   7
TORSDOF 1
ENDMDL
