MODEL 1
REMARK minimizedAffinity 8.01507854
REMARK minimizedRMSD -1
REMARK  1 active torsions:
REMARK  status: ('A' for Active; 'I' for Inactive)
REMARK    1  A    between atoms: C3_4  and  O_7 
ROOT
ATOM      1  C   UNL d   1      -2.265  -3.594  -5.999  0.00  0.00    -0.033 A 
ATOM      2  C1  UNL d   1      -1.868  -2.261  -5.875  0.00  0.00     0.039 A 
ATOM      3  C2  UNL d   1      -1.827  -1.657  -4.617  0.00  0.00    -0.080 A 
ATOM      4  C3  UNL d   1      -2.184  -2.397  -3.492  0.00  0.00     0.150 A 
ATOM      5  C4  UNL d   1      -2.576  -3.726  -3.608  0.00  0.00    -0.007 A 
ATOM      6  C5  UNL d   1      -2.618  -4.327  -4.866  0.00  0.00     0.039 A 
ENDROOT
BRANCH   4   7
ATOM      7  O   UNL d   1      -2.164  -1.849  -2.244  0.00  0.00    -0.526 OA
ATOM      8  H5  UNL d   1      -1.901  -0.917  -2.321  0.00  0.00     0.418 HD
ENDBRANCH   4   7
TORSDOF 1
ENDMDL
