MODEL 1
REMARK minimizedAffinity 1.75845742
REMARK minimizedRMSD -1
REMARK  1 active torsions:
REMARK  status: ('A' for Active; 'I' for Inactive)
REMARK    1  A    between atoms: C3_4  and  O_7 
ROOT
ATOM      1  C   UNL d   1      -0.885  -1.836  -1.178  0.00  0.00    -0.033 A 
ATOM      2  C1  UNL d   1       0.194  -2.553  -0.657  0.00  0.00     0.039 A 
ATOM      3  C2  UNL d   1       0.198  -2.932   0.687  0.00  0.00    -0.080 A 
ATOM      4  C3  UNL d   1      -0.881  -2.590   1.497  0.00  0.00     0.150 A 
ATOM      5  C4  UNL d   1      -1.961  -1.880   0.983  0.00  0.00    -0.007 A 
ATOM      6  C5  UNL d   1      -1.963  -1.501  -0.359  0.00  0.00     0.039 A 
ENDROOT
BRANCH   4   7
ATOM      7  O   UNL d   1      -0.920  -2.934   2.815  0.00  0.00    -0.526 OA
ATOM      8  H5  UNL d   1      -0.094  -3.396   3.037  0.00  0.00     0.418 HD
ENDBRANCH   4   7
TORSDOF 1
ENDMDL
