MODEL 1
REMARK minimizedAffinity 7.72928333
REMARK minimizedRMSD -1
REMARK  1 active torsions:
REMARK  status: ('A' for Active; 'I' for Inactive)
REMARK    1  A    between atoms: C3_4  and  O_7 
ROOT
ATOM      1  C   UNL d   1       0.766   0.755   2.995  0.00  0.00    -0.033 A 
ATOM      2  C1  UNL d   1       0.576  -0.115   1.920  0.00  0.00     0.039 A 
ATOM      3  C2  UNL d   1      -0.356  -1.151   2.014  0.00  0.00    -0.080 A 
ATOM      4  C3  UNL d   1      -1.090  -1.305   3.187  0.00  0.00     0.150 A 
ATOM      5  C4  UNL d   1      -0.908  -0.439   4.261  0.00  0.00    -0.007 A 
ATOM      6  C5  UNL d   1       0.023   0.594   4.165  0.00  0.00     0.039 A 
ENDROOT
BRANCH   4   7
ATOM      7  O   UNL d   1      -2.007  -2.304   3.328  0.00  0.00    -0.526 OA
ATOM      8  H5  UNL d   1      -2.004  -2.840   2.518  0.00  0.00     0.418 HD
ENDBRANCH   4   7
TORSDOF 1
ENDMDL
