MODEL 1
REMARK minimizedAffinity 5.97228909
REMARK minimizedRMSD -1
REMARK  1 active torsions:
REMARK  status: ('A' for Active; 'I' for Inactive)
REMARK    1  A    between atoms: C3_4  and  O_7 
ROOT
ATOM      1  C   UNL d   1      -2.308  -3.383  -6.000  0.00  0.00    -0.033 A 
ATOM      2  C1  UNL d   1      -1.399  -2.353  -5.752  0.00  0.00     0.039 A 
ATOM      3  C2  UNL d   1      -1.128  -1.959  -4.440  0.00  0.00    -0.080 A 
ATOM      4  C3  UNL d   1      -1.771  -2.603  -3.387  0.00  0.00     0.150 A 
ATOM      5  C4  UNL d   1      -2.676  -3.632  -3.626  0.00  0.00    -0.007 A 
ATOM      6  C5  UNL d   1      -2.946  -4.023  -4.937  0.00  0.00     0.039 A 
ENDROOT
BRANCH   4   7
ATOM      7  O   UNL d   1      -1.543  -2.250  -2.090  0.00  0.00    -0.526 OA
ATOM      8  H5  UNL d   1      -0.917  -1.506  -2.079  0.00  0.00     0.418 HD
ENDBRANCH   4   7
TORSDOF 1
ENDMDL
