MODEL 1
REMARK minimizedAffinity 2.17341113
REMARK minimizedRMSD -1
REMARK  1 active torsions:
REMARK  status: ('A' for Active; 'I' for Inactive)
REMARK    1  A    between atoms: C3_4  and  O_7 
ROOT
ATOM      1  C   UNL d   1       2.156   5.224  -6.000  0.00  0.00    -0.033 A 
ATOM      2  C1  UNL d   1       2.239   3.831  -5.952  0.00  0.00     0.039 A 
ATOM      3  C2  UNL d   1       2.390   3.181  -4.725  0.00  0.00    -0.080 A 
ATOM      4  C3  UNL d   1       2.455   3.934  -3.556  0.00  0.00     0.150 A 
ATOM      5  C4  UNL d   1       2.369   5.322  -3.597  0.00  0.00    -0.007 A 
ATOM      6  C5  UNL d   1       2.220   5.969  -4.822  0.00  0.00     0.039 A 
ENDROOT
BRANCH   4   7
ATOM      7  O   UNL d   1       2.607   3.345  -2.336  0.00  0.00    -0.526 OA
ATOM      8  H5  UNL d   1       2.681   2.384  -2.466  0.00  0.00     0.418 HD
ENDBRANCH   4   7
TORSDOF 1
ENDMDL
