MODEL 1
REMARK minimizedAffinity -2.23176169
REMARK minimizedRMSD -1
REMARK  1 active torsions:
REMARK  status: ('A' for Active; 'I' for Inactive)
REMARK    1  A    between atoms: C3_4  and  O_7 
ROOT
ATOM      1  C   UNL d   1       1.570   3.960  -5.586  0.00  0.00    -0.033 A 
ATOM      2  C1  UNL d   1       1.601   5.292  -5.170  0.00  0.00     0.039 A 
ATOM      3  C2  UNL d   1       2.807   5.995  -5.163  0.00  0.00    -0.080 A 
ATOM      4  C3  UNL d   1       3.973   5.356  -5.575  0.00  0.00     0.150 A 
ATOM      5  C4  UNL d   1       3.949   4.030  -5.994  0.00  0.00    -0.007 A 
ATOM      6  C5  UNL d   1       2.744   3.329  -6.000  0.00  0.00     0.039 A 
ENDROOT
BRANCH   4   7
ATOM      7  O   UNL d   1       5.174   6.000  -5.581  0.00  0.00    -0.526 OA
ATOM      8  H5  UNL d   1       5.043   6.900  -5.239  0.00  0.00     0.418 HD
ENDBRANCH   4   7
TORSDOF 1
ENDMDL
