MODEL 1
REMARK minimizedAffinity -3.71917081
REMARK minimizedRMSD -1
REMARK  1 active torsions:
REMARK  status: ('A' for Active; 'I' for Inactive)
REMARK    1  A    between atoms: C3_4  and  O_7 
ROOT
ATOM      1  C   UNL d   1       4.961   5.191  -5.584  0.00  0.00    -0.033 A 
ATOM      2  C1  UNL d   1       4.723   3.880  -6.000  0.00  0.00     0.039 A 
ATOM      3  C2  UNL d   1       3.430   3.354  -5.951  0.00  0.00    -0.080 A 
ATOM      4  C3  UNL d   1       2.386   4.149  -5.486  0.00  0.00     0.150 A 
ATOM      5  C4  UNL d   1       2.616   5.458  -5.074  0.00  0.00    -0.007 A 
ATOM      6  C5  UNL d   1       3.907   5.981  -5.123  0.00  0.00     0.039 A 
ENDROOT
BRANCH   4   7
ATOM      7  O   UNL d   1       1.109   3.678  -5.415  0.00  0.00    -0.526 OA
ATOM      8  H5  UNL d   1       1.107   2.750  -5.705  0.00  0.00     0.418 HD
ENDBRANCH   4   7
TORSDOF 1
ENDMDL
