MODEL 1
REMARK minimizedAffinity -0.714174271
REMARK minimizedRMSD -1
REMARK  1 active torsions:
REMARK  status: ('A' for Active; 'I' for Inactive)
REMARK    1  A    between atoms: C3_4  and  O_7 
ROOT
ATOM      1  C   UNL d   1       5.999   0.724  -3.931  0.00  0.00    -0.033 A 
ATOM      2  C1  UNL d   1       5.765   0.486  -5.286  0.00  0.00     0.039 A 
ATOM      3  C2  UNL d   1       4.886   1.305  -5.999  0.00  0.00    -0.080 A 
ATOM      4  C3  UNL d   1       4.250   2.357  -5.346  0.00  0.00     0.150 A 
ATOM      5  C4  UNL d   1       4.482   2.602  -3.996  0.00  0.00    -0.007 A 
ATOM      6  C5  UNL d   1       5.359   1.783  -3.286  0.00  0.00     0.039 A 
ENDROOT
BRANCH   4   7
ATOM      7  O   UNL d   1       3.381   3.180  -5.998  0.00  0.00    -0.526 OA
ATOM      8  H5  UNL d   1       3.298   2.873  -6.917  0.00  0.00     0.418 HD
ENDBRANCH   4   7
TORSDOF 1
ENDMDL
