MODEL 1
REMARK minimizedAffinity 5.94792414
REMARK minimizedRMSD -1
REMARK  1 active torsions:
REMARK  status: ('A' for Active; 'I' for Inactive)
REMARK    1  A    between atoms: C3_4  and  O_7 
ROOT
ATOM      1  C   UNL d   1      -1.199  -1.694  -1.390  0.00  0.00    -0.033 A 
ATOM      2  C1  UNL d   1      -2.284  -1.184  -0.675  0.00  0.00     0.039 A 
ATOM      3  C2  UNL d   1      -2.397  -1.427   0.695  0.00  0.00    -0.080 A 
ATOM      4  C3  UNL d   1      -1.418  -2.179   1.338  0.00  0.00     0.150 A 
ATOM      5  C4  UNL d   1      -0.332  -2.688   0.633  0.00  0.00    -0.007 A 
ATOM      6  C5  UNL d   1      -0.222  -2.445  -0.735  0.00  0.00     0.039 A 
ENDROOT
BRANCH   4   7
ATOM      7  O   UNL d   1      -1.488  -2.447   2.673  0.00  0.00    -0.526 OA
ATOM      8  H5  UNL d   1      -2.306  -2.057   3.023  0.00  0.00     0.418 HD
ENDBRANCH   4   7
TORSDOF 1
ENDMDL
