MODEL 1
REMARK minimizedAffinity -4.03927469
REMARK minimizedRMSD -1
REMARK  1 active torsions:
REMARK  status: ('A' for Active; 'I' for Inactive)
REMARK    1  A    between atoms: C3_4  and  O_7 
ROOT
ATOM      1  C   UNL d   1       5.323   0.027   2.469  0.00  0.00    -0.033 A 
ATOM      2  C1  UNL d   1       3.948  -0.117   2.276  0.00  0.00     0.039 A 
ATOM      3  C2  UNL d   1       3.239   0.841   1.548  0.00  0.00    -0.080 A 
ATOM      4  C3  UNL d   1       3.917   1.935   1.019  0.00  0.00     0.150 A 
ATOM      5  C4  UNL d   1       5.287   2.083   1.204  0.00  0.00    -0.007 A 
ATOM      6  C5  UNL d   1       5.993   1.126   1.932  0.00  0.00     0.039 A 
ENDROOT
BRANCH   4   7
ATOM      7  O   UNL d   1       3.267   2.898   0.305  0.00  0.00    -0.526 OA
ATOM      8  H5  UNL d   1       2.321   2.679   0.283  0.00  0.00     0.418 HD
ENDBRANCH   4   7
TORSDOF 1
ENDMDL
