MODEL 1
REMARK minimizedAffinity -3.11481357
REMARK minimizedRMSD -1
REMARK  1 active torsions:
REMARK  status: ('A' for Active; 'I' for Inactive)
REMARK    1  A    between atoms: C3_4  and  O_7 
ROOT
ATOM      1  C   UNL d   1       4.822   4.490  -5.257  0.00  0.00    -0.033 A 
ATOM      2  C1  UNL d   1       3.973   5.311  -4.512  0.00  0.00     0.039 A 
ATOM      3  C2  UNL d   1       2.596   5.078  -4.511  0.00  0.00    -0.080 A 
ATOM      4  C3  UNL d   1       2.082   4.022  -5.258  0.00  0.00     0.150 A 
ATOM      5  C4  UNL d   1       2.922   3.198  -6.000  0.00  0.00    -0.007 A 
ATOM      6  C5  UNL d   1       4.296   3.432  -6.000  0.00  0.00     0.039 A 
ENDROOT
BRANCH   4   7
ATOM      7  O   UNL d   1       0.745   3.758  -5.293  0.00  0.00    -0.526 OA
ATOM      8  H5  UNL d   1       0.286   4.426  -4.757  0.00  0.00     0.418 HD
ENDBRANCH   4   7
TORSDOF 1
ENDMDL
