MODEL 1
REMARK minimizedAffinity -3.7925241
REMARK minimizedRMSD -1
REMARK  1 active torsions:
REMARK  status: ('A' for Active; 'I' for Inactive)
REMARK    1  A    between atoms: C3_4  and  O_7 
ROOT
ATOM      1  C   UNL d   1       3.039   2.653   1.081  0.00  0.00    -0.033 A 
ATOM      2  C1  UNL d   1       4.426   2.777   1.187  0.00  0.00     0.039 A 
ATOM      3  C2  UNL d   1       5.186   1.725   1.702  0.00  0.00    -0.080 A 
ATOM      4  C3  UNL d   1       4.548   0.555   2.105  0.00  0.00     0.150 A 
ATOM      5  C4  UNL d   1       3.168   0.423   1.999  0.00  0.00    -0.007 A 
ATOM      6  C5  UNL d   1       2.411   1.475   1.485  0.00  0.00     0.039 A 
ENDROOT
BRANCH   4   7
ATOM      7  O   UNL d   1       5.248  -0.497   2.618  0.00  0.00    -0.526 OA
ATOM      8  H5  UNL d   1       6.187  -0.251   2.659  0.00  0.00     0.418 HD
ENDBRANCH   4   7
TORSDOF 1
ENDMDL
