MODEL 1
REMARK minimizedAffinity -3.27295327
REMARK minimizedRMSD -1
REMARK  1 active torsions:
REMARK  status: ('A' for Active; 'I' for Inactive)
REMARK    1  A    between atoms: C3_4  and  O_7 
ROOT
ATOM      1  C   UNL d   1       3.997   0.920  -5.919  0.00  0.00    -0.033 A 
ATOM      2  C1  UNL d   1       3.421   2.189  -6.000  0.00  0.00     0.039 A 
ATOM      3  C2  UNL d   1       4.083   3.293  -5.459  0.00  0.00    -0.080 A 
ATOM      4  C3  UNL d   1       5.318   3.115  -4.842  0.00  0.00     0.150 A 
ATOM      5  C4  UNL d   1       5.899   1.853  -4.761  0.00  0.00    -0.007 A 
ATOM      6  C5  UNL d   1       5.236   0.752  -5.301  0.00  0.00     0.039 A 
ENDROOT
BRANCH   4   7
ATOM      7  O   UNL d   1       6.000   4.161  -4.295  0.00  0.00    -0.526 OA
ATOM      8  H5  UNL d   1       5.465   4.966  -4.400  0.00  0.00     0.418 HD
ENDBRANCH   4   7
TORSDOF 1
ENDMDL
