MODEL 1
REMARK minimizedAffinity -2.58422518
REMARK minimizedRMSD -1
REMARK  1 active torsions:
REMARK  status: ('A' for Active; 'I' for Inactive)
REMARK    1  A    between atoms: C3_4  and  O_7 
ROOT
ATOM      1  C   UNL d   1       5.128   0.956  -3.990  0.00  0.00    -0.033 A 
ATOM      2  C1  UNL d   1       5.715   2.012  -3.290  0.00  0.00     0.039 A 
ATOM      3  C2  UNL d   1       6.000   3.212  -3.945  0.00  0.00    -0.080 A 
ATOM      4  C3  UNL d   1       5.692   3.343  -5.296  0.00  0.00     0.150 A 
ATOM      5  C4  UNL d   1       5.104   2.297  -5.998  0.00  0.00    -0.007 A 
ATOM      6  C5  UNL d   1       4.822   1.098  -5.344  0.00  0.00     0.039 A 
ENDROOT
BRANCH   4   7
ATOM      7  O   UNL d   1       5.956   4.494  -5.978  0.00  0.00    -0.526 OA
ATOM      8  H5  UNL d   1       6.388   5.119  -5.372  0.00  0.00     0.418 HD
ENDBRANCH   4   7
TORSDOF 1
ENDMDL
