MODEL 1
REMARK minimizedAffinity -4.21583748
REMARK minimizedRMSD -1
REMARK  0 active torsions:
REMARK  status: ('A' for Active; 'I' for Inactive)
ROOT
ATOM      1  C4' PXY d   1      -0.839   0.921   2.833  0.00  0.00     0.077 C 
ATOM      2  C1' PXY d   1       1.906  -0.525  -2.045  0.00  0.00     0.077 C 
ATOM      3  C1  PXY d   1       1.192  -0.156  -0.759  0.00  0.00    -0.082 A 
ATOM      4  C2  PXY d   1       0.067   0.540  -0.812  0.00  0.00     0.003 A 
ATOM      5  C3  PXY d   1      -0.575   0.909   0.342  0.00  0.00     0.003 A 
ATOM      6  C4  PXY d   1      -0.089   0.517   1.560  0.00  0.00    -0.082 A 
ATOM      7  C5  PXY d   1       1.052  -0.202   1.622  0.00  0.00     0.003 A 
ATOM      8  C6  PXY d   1       1.710  -0.531   0.441  0.00  0.00     0.003 A 
ENDROOT
TORSDOF 0
ENDMDL
