MODEL 1
REMARK minimizedAffinity -3.39987659
REMARK minimizedRMSD -1
REMARK  0 active torsions:
REMARK  status: ('A' for Active; 'I' for Inactive)
ROOT
ATOM      1  C4' PXY d   1       0.650  -0.443  -2.283  0.00  0.00     0.077 C 
ATOM      2  C1' PXY d   1      -1.318   1.090   2.931  0.00  0.00     0.077 C 
ATOM      3  C1  PXY d   1      -0.813   0.680   1.562  0.00  0.00    -0.082 A 
ATOM      4  C2  PXY d   1       0.478   0.778   1.285  0.00  0.00     0.003 A 
ATOM      5  C3  PXY d   1       0.948   0.442   0.042  0.00  0.00     0.003 A 
ATOM      6  C4  PXY d   1       0.096  -0.050  -0.911  0.00  0.00    -0.082 A 
ATOM      7  C5  PXY d   1      -1.220  -0.162  -0.633  0.00  0.00     0.003 A 
ATOM      8  C6  PXY d   1      -1.683   0.223   0.622  0.00  0.00     0.003 A 
ENDROOT
TORSDOF 0
ENDMDL
