MODEL 1
REMARK minimizedAffinity -4.49216127
REMARK minimizedRMSD -1
REMARK  0 active torsions:
REMARK  status: ('A' for Active; 'I' for Inactive)
ROOT
ATOM      1  C4' PXY d   1       1.644   0.066  -3.661  0.00  0.00     0.077 C 
ATOM      2  C1' PXY d   1      -1.373   0.284   1.265  0.00  0.00     0.077 C 
ATOM      3  C1  PXY d   1      -0.573   0.219  -0.021  0.00  0.00    -0.082 A 
ATOM      4  C2  PXY d   1      -0.663   1.206  -0.898  0.00  0.00     0.003 A 
ATOM      5  C3  PXY d   1       0.029   1.148  -2.080  0.00  0.00     0.003 A 
ATOM      6  C4  PXY d   1       0.862   0.094  -2.344  0.00  0.00    -0.082 A 
ATOM      7  C5  PXY d   1       0.967  -0.912  -1.450  0.00  0.00     0.003 A 
ATOM      8  C6  PXY d   1       0.225  -0.853  -0.274  0.00  0.00     0.003 A 
ENDROOT
TORSDOF 0
ENDMDL
