MODEL 1
REMARK minimizedAffinity -3.57079291
REMARK minimizedRMSD -1
REMARK  0 active torsions:
REMARK  status: ('A' for Active; 'I' for Inactive)
ROOT
ATOM      1  C4' PXY d   1      -0.013   1.534   3.355  0.00  0.00     0.077 C 
ATOM      2  C1' PXY d   1      -0.059  -1.012  -1.835  0.00  0.00     0.077 C 
ATOM      3  C1  PXY d   1      -0.036  -0.350  -0.471  0.00  0.00    -0.082 A 
ATOM      4  C2  PXY d   1      -1.165   0.084   0.065  0.00  0.00     0.003 A 
ATOM      5  C3  PXY d   1      -1.158   0.713   1.283  0.00  0.00     0.003 A 
ATOM      6  C4  PXY d   1       0.010   0.852   1.984  0.00  0.00    -0.082 A 
ATOM      7  C5  PXY d   1       1.165   0.402   1.449  0.00  0.00     0.003 A 
ATOM      8  C6  PXY d   1       1.142  -0.197   0.193  0.00  0.00     0.003 A 
ENDROOT
TORSDOF 0
ENDMDL
