MODEL 1
REMARK minimizedAffinity -5.90843201
REMARK minimizedRMSD -1
REMARK  0 active torsions:
REMARK  status: ('A' for Active; 'I' for Inactive)
ROOT
ATOM      1  C4' PXY d   1       0.373  -1.009  -1.412  0.00  0.00     0.077 C 
ATOM      2  C1' PXY d   1      -0.383   1.182   3.884  0.00  0.00     0.077 C 
ATOM      3  C1  PXY d   1      -0.198   0.605   2.494  0.00  0.00    -0.082 A 
ATOM      4  C2  PXY d   1       0.964   0.068   2.158  0.00  0.00     0.003 A 
ATOM      5  C3  PXY d   1       1.159  -0.428   0.895  0.00  0.00     0.003 A 
ATOM      6  C4  PXY d   1       0.138  -0.424  -0.017  0.00  0.00    -0.082 A 
ATOM      7  C5  PXY d   1      -1.054   0.112   0.322  0.00  0.00     0.003 A 
ATOM      8  C6  PXY d   1      -1.219   0.649   1.595  0.00  0.00     0.003 A 
ENDROOT
TORSDOF 0
ENDMDL
