MODEL 1
REMARK minimizedAffinity -4.82584906
REMARK minimizedRMSD -1
REMARK  0 active torsions:
REMARK  status: ('A' for Active; 'I' for Inactive)
ROOT
ATOM      1  C4' PXY d   1      -0.500   0.894   2.583  0.00  0.00     0.077 C 
ATOM      2  C1' PXY d   1       0.731  -0.339  -2.929  0.00  0.00     0.077 C 
ATOM      3  C1  PXY d   1       0.411  -0.028  -1.480  0.00  0.00    -0.082 A 
ATOM      4  C2  PXY d   1      -0.356   1.010  -1.188  0.00  0.00     0.003 A 
ATOM      5  C3  PXY d   1      -0.630   1.325   0.118  0.00  0.00     0.003 A 
ATOM      6  C4  PXY d   1      -0.158   0.537   1.134  0.00  0.00    -0.082 A 
ATOM      7  C5  PXY d   1       0.616  -0.530   0.843  0.00  0.00     0.003 A 
ATOM      8  C6  PXY d   1       0.916  -0.809  -0.487  0.00  0.00     0.003 A 
ENDROOT
TORSDOF 0
ENDMDL
