MODEL 1
REMARK minimizedAffinity -3.60842752
REMARK minimizedRMSD -1
REMARK  0 active torsions:
REMARK  status: ('A' for Active; 'I' for Inactive)
ROOT
ATOM      1  C4' PXY d   1       1.275  -0.000  -2.792  0.00  0.00     0.077 C 
ATOM      2  C1' PXY d   1      -1.701   0.511   2.137  0.00  0.00     0.077 C 
ATOM      3  C1  PXY d   1      -0.917   0.365   0.847  0.00  0.00    -0.082 A 
ATOM      4  C2  PXY d   1      -0.487   1.446   0.218  0.00  0.00     0.003 A 
ATOM      5  C3  PXY d   1       0.196   1.333  -0.966  0.00  0.00     0.003 A 
ATOM      6  C4  PXY d   1       0.488   0.099  -1.483  0.00  0.00    -0.082 A 
ATOM      7  C5  PXY d   1       0.061  -1.009  -0.841  0.00  0.00     0.003 A 
ATOM      8  C6  PXY d   1      -0.666  -0.872   0.338  0.00  0.00     0.003 A 
ENDROOT
TORSDOF 0
ENDMDL
