MODEL 1
REMARK minimizedAffinity -3.85862637
REMARK minimizedRMSD -1
REMARK  0 active torsions:
REMARK  status: ('A' for Active; 'I' for Inactive)
ROOT
ATOM      1  C4' PXY d   1       1.340  -0.107  -2.362  0.00  0.00     0.077 C 
ATOM      2  C1' PXY d   1      -1.437   0.210   2.698  0.00  0.00     0.077 C 
ATOM      3  C1  PXY d   1      -0.697   0.125   1.378  0.00  0.00    -0.082 A 
ATOM      4  C2  PXY d   1      -1.214   0.693   0.301  0.00  0.00     0.003 A 
ATOM      5  C3  PXY d   1      -0.575   0.599  -0.908  0.00  0.00     0.003 A 
ATOM      6  C4  PXY d   1       0.633  -0.038  -1.005  0.00  0.00    -0.082 A 
ATOM      7  C5  PXY d   1       1.173  -0.611   0.091  0.00  0.00     0.003 A 
ATOM      8  C6  PXY d   1       0.488  -0.540   1.301  0.00  0.00     0.003 A 
ENDROOT
TORSDOF 0
ENDMDL
