MODEL 1
REMARK minimizedAffinity -5.19754553
REMARK minimizedRMSD -1
REMARK  0 active torsions:
REMARK  status: ('A' for Active; 'I' for Inactive)
ROOT
ATOM      1  C4' PXY d   1      -1.620   0.510   1.444  0.00  0.00     0.077 C 
ATOM      2  C1' PXY d   1       1.087   0.387  -3.662  0.00  0.00     0.077 C 
ATOM      3  C1  PXY d   1       0.376   0.432  -2.324  0.00  0.00    -0.082 A 
ATOM      4  C2  PXY d   1       0.547  -0.554  -1.459  0.00  0.00     0.003 A 
ATOM      5  C3  PXY d   1      -0.114  -0.545  -0.257  0.00  0.00     0.003 A 
ATOM      6  C4  PXY d   1      -0.915   0.511   0.085  0.00  0.00    -0.082 A 
ATOM      7  C5  PXY d   1      -1.085   1.527  -0.788  0.00  0.00     0.003 A 
ATOM      8  C6  PXY d   1      -0.439   1.479  -2.019  0.00  0.00     0.003 A 
ENDROOT
TORSDOF 0
ENDMDL
