MODEL 1
REMARK minimizedAffinity -4.72695732
REMARK minimizedRMSD -1
REMARK  0 active torsions:
REMARK  status: ('A' for Active; 'I' for Inactive)
ROOT
ATOM      1  C4' PXY d   1      -1.056   1.449   2.974  0.00  0.00     0.077 C 
ATOM      2  C1' PXY d   1       0.549  -0.677  -2.157  0.00  0.00     0.077 C 
ATOM      3  C1  PXY d   1       0.117  -0.115  -0.816  0.00  0.00    -0.082 A 
ATOM      4  C2  PXY d   1       1.031   0.181   0.094  0.00  0.00     0.003 A 
ATOM      5  C3  PXY d   1       0.655   0.660   1.323  0.00  0.00     0.003 A 
ATOM      6  C4  PXY d   1      -0.665   0.888   1.604  0.00  0.00    -0.082 A 
ATOM      7  C5  PXY d   1      -1.602   0.598   0.676  0.00  0.00     0.003 A 
ATOM      8  C6  PXY d   1      -1.204   0.074  -0.550  0.00  0.00     0.003 A 
ENDROOT
TORSDOF 0
ENDMDL
