MODEL 1
REMARK minimizedAffinity -4.37661362
REMARK minimizedRMSD -1
REMARK  0 active torsions:
REMARK  status: ('A' for Active; 'I' for Inactive)
ROOT
ATOM      1  C4' PXY d   1       2.501  -0.075   2.724  0.00  0.00     0.077 C 
ATOM      2  C1' PXY d   1      -2.742  -0.233   0.297  0.00  0.00     0.077 C 
ATOM      3  C1  PXY d   1      -1.372  -0.184   0.943  0.00  0.00    -0.082 A 
ATOM      4  C2  PXY d   1      -0.293  -0.379   0.203  0.00  0.00     0.003 A 
ATOM      5  C3  PXY d   1       0.953  -0.370   0.777  0.00  0.00     0.003 A 
ATOM      6  C4  PXY d   1       1.098  -0.106   2.113  0.00  0.00    -0.082 A 
ATOM      7  C5  PXY d   1       0.002   0.105   2.872  0.00  0.00     0.003 A 
ATOM      8  C6  PXY d   1      -1.255   0.051   2.278  0.00  0.00     0.003 A 
ENDROOT
TORSDOF 0
ENDMDL
