MODEL 1
REMARK minimizedAffinity -1.4426353
REMARK minimizedRMSD -1
REMARK  0 active torsions:
REMARK  status: ('A' for Active; 'I' for Inactive)
ROOT
ATOM      1  C4' PXY d   1       1.074  -0.392  -3.052  0.00  0.00     0.077 C 
ATOM      2  C1' PXY d   1      -1.499   0.571   2.034  0.00  0.00     0.077 C 
ATOM      3  C1  PXY d   1      -0.815   0.311   0.706  0.00  0.00    -0.082 A 
ATOM      4  C2  PXY d   1      -0.977   1.166  -0.291  0.00  0.00     0.003 A 
ATOM      5  C3  PXY d   1      -0.391   0.929  -1.509  0.00  0.00     0.003 A 
ATOM      6  C4  PXY d   1       0.410  -0.165  -1.691  0.00  0.00    -0.082 A 
ATOM      7  C5  PXY d   1       0.588  -1.036  -0.676  0.00  0.00     0.003 A 
ATOM      8  C6  PXY d   1      -0.048  -0.800   0.540  0.00  0.00     0.003 A 
ENDROOT
TORSDOF 0
ENDMDL
