MODEL 1
REMARK minimizedAffinity -4.59059668
REMARK minimizedRMSD -1
REMARK  0 active torsions:
REMARK  status: ('A' for Active; 'I' for Inactive)
ROOT
ATOM      1  C4' PXY d   1       0.604  -0.664  -1.662  0.00  0.00     0.077 C 
ATOM      2  C1' PXY d   1      -1.174   1.052   3.563  0.00  0.00     0.077 C 
ATOM      3  C1  PXY d   1      -0.718   0.607   2.188  0.00  0.00    -0.082 A 
ATOM      4  C2  PXY d   1       0.165  -0.372   2.076  0.00  0.00     0.003 A 
ATOM      5  C3  PXY d   1       0.611  -0.766   0.841  0.00  0.00     0.003 A 
ATOM      6  C4  PXY d   1       0.109  -0.188  -0.294  0.00  0.00    -0.082 A 
ATOM      7  C5  PXY d   1      -0.800   0.804  -0.189  0.00  0.00     0.003 A 
ATOM      8  C6  PXY d   1      -1.210   1.217   1.075  0.00  0.00     0.003 A 
ENDROOT
TORSDOF 0
ENDMDL
