MODEL 1
REMARK minimizedAffinity -4.62854385
REMARK minimizedRMSD -1
REMARK  0 active torsions:
REMARK  status: ('A' for Active; 'I' for Inactive)
ROOT
ATOM      1  C4' PXY d   1       0.278   0.999   4.947  0.00  0.00     0.077 C 
ATOM      2  C1' PXY d   1      -0.482  -0.218  -0.653  0.00  0.00     0.077 C 
ATOM      3  C1  PXY d   1      -0.272   0.094   0.816  0.00  0.00    -0.082 A 
ATOM      4  C2  PXY d   1      -1.300   0.474   1.558  0.00  0.00     0.003 A 
ATOM      5  C3  PXY d   1      -1.122   0.790   2.880  0.00  0.00     0.003 A 
ATOM      6  C4  PXY d   1       0.111   0.666   3.462  0.00  0.00    -0.082 A 
ATOM      7  C5  PXY d   1       1.163   0.268   2.715  0.00  0.00     0.003 A 
ATOM      8  C6  PXY d   1       0.969  -0.009   1.365  0.00  0.00     0.003 A 
ENDROOT
TORSDOF 0
ENDMDL
