MODEL 1
REMARK minimizedAffinity -4.76095009
REMARK minimizedRMSD -1
REMARK  0 active torsions:
REMARK  status: ('A' for Active; 'I' for Inactive)
ROOT
ATOM      1  N1  IND d   1       0.304  -0.607  -0.951  0.00  0.00    -0.196 N 
ATOM      2  C2  IND d   1       1.412   0.173  -1.130  0.00  0.00     0.054 A 
ATOM      3  C3  IND d   1       1.757   0.773   0.032  0.00  0.00    -0.031 A 
ATOM      4  C4  IND d   1       0.706   0.537   2.370  0.00  0.00     0.051 A 
ATOM      5  C5  IND d   1      -0.349  -0.036   3.024  0.00  0.00    -0.031 A 
ATOM      6  C6  IND d   1      -1.256  -0.847   2.374  0.00  0.00     0.015 A 
ATOM      7  C7  IND d   1      -1.136  -1.126   1.042  0.00  0.00    -0.016 A 
ATOM      8  C8  IND d   1      -0.070  -0.540   0.373  0.00  0.00    -0.047 A 
ATOM      9  C9  IND d   1       0.829   0.318   1.018  0.00  0.00    -0.096 A 
ATOM     10  HN1 IND d   1      -0.092  -1.064  -1.563  0.00  0.00     0.298 HD
ENDROOT
TORSDOF 0
ENDMDL
