MODEL 1
REMARK minimizedAffinity -4.5962882
REMARK minimizedRMSD -1
REMARK  0 active torsions:
REMARK  status: ('A' for Active; 'I' for Inactive)
ROOT
ATOM      1  N1  IND d   1      -0.501   0.031  -0.428  0.00  0.00    -0.196 N 
ATOM      2  C2  IND d   1      -1.817   0.388  -0.532  0.00  0.00     0.054 A 
ATOM      3  C3  IND d   1      -2.426   0.293   0.671  0.00  0.00    -0.031 A 
ATOM      4  C4  IND d   1      -1.434  -0.329   2.963  0.00  0.00     0.051 A 
ATOM      5  C5  IND d   1      -0.283  -0.769   3.555  0.00  0.00    -0.031 A 
ATOM      6  C6  IND d   1       0.878  -0.967   2.836  0.00  0.00     0.015 A 
ATOM      7  C7  IND d   1       0.935  -0.719   1.494  0.00  0.00    -0.016 A 
ATOM      8  C8  IND d   1      -0.234  -0.279   0.888  0.00  0.00    -0.047 A 
ATOM      9  C9  IND d   1      -1.426  -0.118   1.605  0.00  0.00    -0.096 A 
ATOM     10  HN1 IND d   1       0.064   0.004  -1.075  0.00  0.00     0.298 HD
ENDROOT
TORSDOF 0
ENDMDL
