MODEL 1
REMARK minimizedAffinity -3.37151575
REMARK minimizedRMSD -1
REMARK  0 active torsions:
REMARK  status: ('A' for Active; 'I' for Inactive)
ROOT
ATOM      1  N1  IND d   1       0.035  -1.032  -0.621  0.00  0.00    -0.196 N 
ATOM      2  C2  IND d   1       0.593   0.125  -1.088  0.00  0.00     0.054 A 
ATOM      3  C3  IND d   1       0.501   1.101  -0.157  0.00  0.00    -0.031 A 
ATOM      4  C4  IND d   1      -0.436   0.993   2.239  0.00  0.00     0.051 A 
ATOM      5  C5  IND d   1      -1.087   0.160   3.104  0.00  0.00    -0.031 A 
ATOM      6  C6  IND d   1      -1.402  -1.141   2.766  0.00  0.00     0.015 A 
ATOM      7  C7  IND d   1      -1.066  -1.662   1.549  0.00  0.00    -0.016 A 
ATOM      8  C8  IND d   1      -0.410  -0.816   0.665  0.00  0.00    -0.047 A 
ATOM      9  C9  IND d   1      -0.126   0.517   0.987  0.00  0.00    -0.096 A 
ATOM     10  HN1 IND d   1      -0.028  -1.770  -1.057  0.00  0.00     0.298 HD
ENDROOT
TORSDOF 0
ENDMDL
