MODEL 1
REMARK minimizedAffinity -3.59610724
REMARK minimizedRMSD -1
REMARK  0 active torsions:
REMARK  status: ('A' for Active; 'I' for Inactive)
ROOT
ATOM      1  N1  IND d   1       2.021  -2.357  -1.715  0.00  0.00    -0.196 N 
ATOM      2  C2  IND d   1       1.641  -2.085  -3.000  0.00  0.00     0.054 A 
ATOM      3  C3  IND d   1       0.652  -1.163  -3.012  0.00  0.00    -0.031 A 
ATOM      4  C4  IND d   1      -0.425   0.107  -1.048  0.00  0.00     0.051 A 
ATOM      5  C5  IND d   1      -0.434   0.172   0.317  0.00  0.00    -0.031 A 
ATOM      6  C6  IND d   1       0.393  -0.617   1.090  0.00  0.00     0.015 A 
ATOM      7  C7  IND d   1       1.273  -1.496   0.523  0.00  0.00    -0.016 A 
ATOM      8  C8  IND d   1       1.280  -1.570  -0.862  0.00  0.00    -0.047 A 
ATOM      9  C9  IND d   1       0.412  -0.803  -1.651  0.00  0.00    -0.096 A 
ATOM     10  HN1 IND d   1       2.622  -2.926  -1.480  0.00  0.00     0.298 HD
ENDROOT
TORSDOF 0
ENDMDL
