MODEL 1
REMARK minimizedAffinity -3.59978771
REMARK minimizedRMSD -1
REMARK  0 active torsions:
REMARK  status: ('A' for Active; 'I' for Inactive)
ROOT
ATOM      1  N1  IND d   1      -0.486   0.064  -0.594  0.00  0.00    -0.196 N 
ATOM      2  C2  IND d   1       0.452   1.057  -0.640  0.00  0.00     0.054 A 
ATOM      3  C3  IND d   1       0.887   1.351   0.606  0.00  0.00    -0.031 A 
ATOM      4  C4  IND d   1       0.269   0.259   2.854  0.00  0.00     0.051 A 
ATOM      5  C5  IND d   1      -0.572  -0.665   3.408  0.00  0.00    -0.031 A 
ATOM      6  C6  IND d   1      -1.443  -1.411   2.640  0.00  0.00     0.015 A 
ATOM      7  C7  IND d   1      -1.498  -1.267   1.282  0.00  0.00    -0.016 A 
ATOM      8  C8  IND d   1      -0.650  -0.324   0.718  0.00  0.00    -0.047 A 
ATOM      9  C9  IND d   1       0.206   0.465   1.496  0.00  0.00    -0.096 A 
ATOM     10  HN1 IND d   1      -0.904  -0.263  -1.271  0.00  0.00     0.298 HD
ENDROOT
TORSDOF 0
ENDMDL
