MODEL 1
REMARK minimizedAffinity -6.08358717
REMARK minimizedRMSD -1
REMARK  0 active torsions:
REMARK  status: ('A' for Active; 'I' for Inactive)
ROOT
ATOM      1  N1  IND d   1      -0.731   0.697  -0.621  0.00  0.00    -0.196 N 
ATOM      2  C2  IND d   1       0.609   0.954  -0.710  0.00  0.00     0.054 A 
ATOM      3  C3  IND d   1       1.205   0.768   0.489  0.00  0.00    -0.031 A 
ATOM      4  C4  IND d   1       0.192  -0.057   2.708  0.00  0.00     0.051 A 
ATOM      5  C5  IND d   1      -0.999  -0.386   3.292  0.00  0.00    -0.031 A 
ATOM      6  C6  IND d   1      -2.185  -0.373   2.587  0.00  0.00     0.015 A 
ATOM      7  C7  IND d   1      -2.223  -0.040   1.262  0.00  0.00    -0.016 A 
ATOM      8  C8  IND d   1      -1.016   0.301   0.667  0.00  0.00    -0.047 A 
ATOM      9  C9  IND d   1       0.184   0.331   1.389  0.00  0.00    -0.096 A 
ATOM     10  HN1 IND d   1      -1.300   0.769  -1.262  0.00  0.00     0.298 HD
ENDROOT
TORSDOF 0
ENDMDL
