MODEL 1
REMARK minimizedAffinity -4.89888906
REMARK minimizedRMSD -1
REMARK  0 active torsions:
REMARK  status: ('A' for Active; 'I' for Inactive)
ROOT
ATOM      1  N1  IND d   1      -1.830   1.247  -0.168  0.00  0.00    -0.196 N 
ATOM      2  C2  IND d   1      -0.746   1.413  -0.984  0.00  0.00     0.054 A 
ATOM      3  C3  IND d   1       0.336   0.795  -0.460  0.00  0.00    -0.031 A 
ATOM      4  C4  IND d   1       0.531  -0.632   1.674  0.00  0.00     0.051 A 
ATOM      5  C5  IND d   1      -0.183  -1.040   2.766  0.00  0.00    -0.031 A 
ATOM      6  C6  IND d   1      -1.510  -0.702   2.937  0.00  0.00     0.015 A 
ATOM      7  C7  IND d   1      -2.178   0.050   2.014  0.00  0.00    -0.016 A 
ATOM      8  C8  IND d   1      -1.455   0.472   0.907  0.00  0.00    -0.047 A 
ATOM      9  C9  IND d   1      -0.097   0.168   0.749  0.00  0.00    -0.096 A 
ATOM     10  HN1 IND d   1      -2.615   1.572  -0.304  0.00  0.00     0.298 HD
ENDROOT
TORSDOF 0
ENDMDL
