MODEL 1
REMARK minimizedAffinity -4.24200773
REMARK minimizedRMSD -1
REMARK  0 active torsions:
REMARK  status: ('A' for Active; 'I' for Inactive)
ROOT
ATOM      1  N1  IND d   1      -0.834  -0.772  -1.185  0.00  0.00    -0.196 N 
ATOM      2  C2  IND d   1       0.219  -0.558  -2.031  0.00  0.00     0.054 A 
ATOM      3  C3  IND d   1       1.283  -0.082  -1.347  0.00  0.00    -0.031 A 
ATOM      4  C4  IND d   1       1.553   0.326   1.181  0.00  0.00     0.051 A 
ATOM      5  C5  IND d   1       0.853   0.311   2.355  0.00  0.00    -0.031 A 
ATOM      6  C6  IND d   1      -0.470  -0.077   2.411  0.00  0.00     0.015 A 
ATOM      7  C7  IND d   1      -1.143  -0.476   1.291  0.00  0.00    -0.016 A 
ATOM      8  C8  IND d   1      -0.438  -0.455   0.095  0.00  0.00    -0.047 A 
ATOM      9  C9  IND d   1       0.892  -0.022   0.026  0.00  0.00    -0.096 A 
ATOM     10  HN1 IND d   1      -1.612  -1.056  -1.415  0.00  0.00     0.298 HD
ENDROOT
TORSDOF 0
ENDMDL
