MODEL 1
REMARK minimizedAffinity -5.49614906
REMARK minimizedRMSD -1
REMARK  0 active torsions:
REMARK  status: ('A' for Active; 'I' for Inactive)
ROOT
ATOM      1  N1  IND d   1      -0.745   0.463  -0.660  0.00  0.00    -0.196 N 
ATOM      2  C2  IND d   1       0.544   0.912  -0.735  0.00  0.00     0.054 A 
ATOM      3  C3  IND d   1       1.142   0.830   0.475  0.00  0.00    -0.031 A 
ATOM      4  C4  IND d   1       0.225  -0.104   2.692  0.00  0.00     0.051 A 
ATOM      5  C5  IND d   1      -0.915  -0.595   3.265  0.00  0.00    -0.031 A 
ATOM      6  C6  IND d   1      -2.079  -0.764   2.544  0.00  0.00     0.015 A 
ATOM      7  C7  IND d   1      -2.144  -0.458   1.214  0.00  0.00    -0.016 A 
ATOM      8  C8  IND d   1      -0.990   0.047   0.630  0.00  0.00    -0.047 A 
ATOM      9  C9  IND d   1       0.182   0.261   1.367  0.00  0.00    -0.096 A 
ATOM     10  HN1 IND d   1      -1.308   0.444  -1.309  0.00  0.00     0.298 HD
ENDROOT
TORSDOF 0
ENDMDL
