MODEL 1
REMARK minimizedAffinity -2.46791673
REMARK minimizedRMSD -1
REMARK  0 active torsions:
REMARK  status: ('A' for Active; 'I' for Inactive)
ROOT
ATOM      1  N1  IND d   1       0.065  -1.162  -1.255  0.00  0.00    -0.196 N 
ATOM      2  C2  IND d   1       0.499  -0.066  -1.947  0.00  0.00     0.054 A 
ATOM      3  C3  IND d   1       0.689   0.976  -1.106  0.00  0.00    -0.031 A 
ATOM      4  C4  IND d   1       0.446   1.076   1.455  0.00  0.00     0.051 A 
ATOM      5  C5  IND d   1       0.039   0.334   2.528  0.00  0.00    -0.031 A 
ATOM      6  C6  IND d   1      -0.385  -0.972   2.393  0.00  0.00     0.015 A 
ATOM      7  C7  IND d   1      -0.409  -1.591   1.175  0.00  0.00    -0.016 A 
ATOM      8  C8  IND d   1      -0.003  -0.838   0.082  0.00  0.00    -0.047 A 
ATOM      9  C9  IND d   1       0.389   0.501   0.207  0.00  0.00    -0.096 A 
ATOM     10  HN1 IND d   1      -0.132  -1.926  -1.598  0.00  0.00     0.298 HD
ENDROOT
TORSDOF 0
ENDMDL
