MODEL 1
REMARK minimizedAffinity 5.81776524
REMARK minimizedRMSD -1
REMARK  0 active torsions:
REMARK  status: ('A' for Active; 'I' for Inactive)
ROOT
ATOM      1  N1  IND d   1      -1.332   1.607  -1.273  0.00  0.00    -0.196 N 
ATOM      2  C2  IND d   1       0.017   1.799  -1.385  0.00  0.00     0.054 A 
ATOM      3  C3  IND d   1       0.686   0.834  -0.715  0.00  0.00    -0.031 A 
ATOM      4  C4  IND d   1      -0.228  -1.214   0.550  0.00  0.00     0.051 A 
ATOM      5  C5  IND d   1      -1.396  -1.794   0.958  0.00  0.00    -0.031 A 
ATOM      6  C6  IND d   1      -2.627  -1.262   0.635  0.00  0.00     0.015 A 
ATOM      7  C7  IND d   1      -2.737  -0.129  -0.122  0.00  0.00    -0.016 A 
ATOM      8  C8  IND d   1      -1.553   0.467  -0.532  0.00  0.00    -0.047 A 
ATOM      9  C9  IND d   1      -0.300  -0.045  -0.172  0.00  0.00    -0.096 A 
ATOM     10  HN1 IND d   1      -1.940   2.114  -1.608  0.00  0.00     0.298 HD
ENDROOT
TORSDOF 0
ENDMDL
