MODEL 1
REMARK minimizedAffinity -3.67510319
REMARK minimizedRMSD -1
REMARK  0 active torsions:
REMARK  status: ('A' for Active; 'I' for Inactive)
ROOT
ATOM      1  N1  IND d   1       1.116   0.905   0.249  0.00  0.00    -0.196 N 
ATOM      2  C2  IND d   1       0.643   0.701  -1.017  0.00  0.00     0.054 A 
ATOM      3  C3  IND d   1      -0.585   0.138  -0.975  0.00  0.00    -0.031 A 
ATOM      4  C4  IND d   1      -2.051  -0.439   1.061  0.00  0.00     0.051 A 
ATOM      5  C5  IND d   1      -2.034  -0.469   2.427  0.00  0.00    -0.031 A 
ATOM      6  C6  IND d   1      -0.944  -0.030   3.152  0.00  0.00     0.015 A 
ATOM      7  C7  IND d   1       0.169   0.467   2.535  0.00  0.00    -0.016 A 
ATOM      8  C8  IND d   1       0.157   0.492   1.147  0.00  0.00    -0.047 A 
ATOM      9  C9  IND d   1      -0.928   0.009   0.405  0.00  0.00    -0.096 A 
ATOM     10  HN1 IND d   1       1.884   1.236   0.451  0.00  0.00     0.298 HD
ENDROOT
TORSDOF 0
ENDMDL
