MODEL 1
REMARK minimizedAffinity 1.23876357
REMARK minimizedRMSD -1
REMARK  0 active torsions:
REMARK  status: ('A' for Active; 'I' for Inactive)
ROOT
ATOM      1  N1  IND d   1       0.932   0.696   2.673  0.00  0.00    -0.196 N 
ATOM      2  C2  IND d   1       0.061   0.916   3.704  0.00  0.00     0.054 A 
ATOM      3  C3  IND d   1      -1.207   0.989   3.240  0.00  0.00    -0.031 A 
ATOM      4  C4  IND d   1      -2.093   0.674   0.843  0.00  0.00     0.051 A 
ATOM      5  C5  IND d   1      -1.673   0.490  -0.445  0.00  0.00    -0.031 A 
ATOM      6  C6  IND d   1      -0.338   0.360  -0.765  0.00  0.00     0.015 A 
ATOM      7  C7  IND d   1       0.632   0.398   0.196  0.00  0.00    -0.016 A 
ATOM      8  C8  IND d   1       0.211   0.591   1.504  0.00  0.00    -0.047 A 
ATOM      9  C9  IND d   1      -1.140   0.767   1.830  0.00  0.00    -0.096 A 
ATOM     10  HN1 IND d   1       1.787   0.633   2.744  0.00  0.00     0.298 HD
ENDROOT
TORSDOF 0
ENDMDL
