MODEL 1
REMARK minimizedAffinity -1.22891903
REMARK minimizedRMSD -1
REMARK  0 active torsions:
REMARK  status: ('A' for Active; 'I' for Inactive)
ROOT
ATOM      1  N1  IND d   1      -0.053  -0.558  -0.602  0.00  0.00    -0.196 N 
ATOM      2  C2  IND d   1       0.582   0.602  -0.948  0.00  0.00     0.054 A 
ATOM      3  C3  IND d   1       0.818   1.355   0.151  0.00  0.00    -0.031 A 
ATOM      4  C4  IND d   1       0.338   0.832   2.625  0.00  0.00     0.051 A 
ATOM      5  C5  IND d   1      -0.264  -0.091   3.434  0.00  0.00    -0.031 A 
ATOM      6  C6  IND d   1      -0.835  -1.241   2.930  0.00  0.00     0.015 A 
ATOM      7  C7  IND d   1      -0.816  -1.518   1.592  0.00  0.00    -0.016 A 
ATOM      8  C8  IND d   1      -0.212  -0.580   0.767  0.00  0.00    -0.047 A 
ATOM      9  C9  IND d   1       0.332   0.610   1.268  0.00  0.00    -0.096 A 
ATOM     10  HN1 IND d   1      -0.310  -1.171  -1.147  0.00  0.00     0.298 HD
ENDROOT
TORSDOF 0
ENDMDL
