MODEL 1
REMARK minimizedAffinity -2.50814676
REMARK minimizedRMSD -1
REMARK  0 active torsions:
REMARK  status: ('A' for Active; 'I' for Inactive)
ROOT
ATOM      1  N1  IND d   1      -1.805  -0.061   0.205  0.00  0.00    -0.196 N 
ATOM      2  C2  IND d   1      -1.344   0.243  -1.046  0.00  0.00     0.054 A 
ATOM      3  C3  IND d   1      -0.013   0.481  -1.012  0.00  0.00    -0.031 A 
ATOM      4  C4  IND d   1       1.625   0.328   0.968  0.00  0.00     0.051 A 
ATOM      5  C5  IND d   1       1.667   0.122   2.318  0.00  0.00    -0.031 A 
ATOM      6  C6  IND d   1       0.531  -0.164   3.048  0.00  0.00     0.015 A 
ATOM      7  C7  IND d   1      -0.692  -0.267   2.449  0.00  0.00    -0.016 A 
ATOM      8  C8  IND d   1      -0.740  -0.051   1.079  0.00  0.00    -0.047 A 
ATOM      9  C9  IND d   1       0.403   0.282   0.340  0.00  0.00    -0.096 A 
ATOM     10  HN1 IND d   1      -2.622  -0.230   0.411  0.00  0.00     0.298 HD
ENDROOT
TORSDOF 0
ENDMDL
