MODEL 1
REMARK minimizedAffinity -3.37600374
REMARK minimizedRMSD -1
REMARK  0 active torsions:
REMARK  status: ('A' for Active; 'I' for Inactive)
ROOT
ATOM      1  N1  IND d   1       0.629   1.151  -0.054  0.00  0.00    -0.196 N 
ATOM      2  C2  IND d   1       0.062   0.397  -1.042  0.00  0.00     0.054 A 
ATOM      3  C3  IND d   1      -0.556  -0.684  -0.513  0.00  0.00    -0.031 A 
ATOM      4  C4  IND d   1      -0.846  -1.356   1.955  0.00  0.00     0.051 A 
ATOM      5  C5  IND d   1      -0.471  -0.999   3.220  0.00  0.00    -0.031 A 
ATOM      6  C6  IND d   1       0.303   0.117   3.463  0.00  0.00     0.015 A 
ATOM      7  C7  IND d   1       0.723   0.927   2.448  0.00  0.00    -0.016 A 
ATOM      8  C8  IND d   1       0.351   0.564   1.161  0.00  0.00    -0.047 A 
ATOM      9  C9  IND d   1      -0.399  -0.591   0.904  0.00  0.00    -0.096 A 
ATOM     10  HN1 IND d   1       1.084   1.872  -0.171  0.00  0.00     0.298 HD
ENDROOT
TORSDOF 0
ENDMDL
