MODEL 1
REMARK minimizedAffinity 15.769906
REMARK minimizedRMSD -1
REMARK  0 active torsions:
REMARK  status: ('A' for Active; 'I' for Inactive)
ROOT
ATOM      1  C   UNL d   1      -2.118   4.132  -4.800  0.00  0.00     0.077 C 
ATOM      2  C1  UNL d   1      -1.886   3.301  -3.574  0.00  0.00    -0.074 A 
ATOM      3  C2  UNL d   1      -2.763   2.267  -3.229  0.00  0.00    -0.005 A 
ATOM      4  C3  UNL d   1      -2.528   1.496  -2.091  0.00  0.00     0.006 A 
ATOM      5  C4  UNL d   1      -1.417   1.751  -1.287  0.00  0.00    -0.005 A 
ATOM      6  C5  UNL d   1      -0.528   2.779  -1.616  0.00  0.00    -0.074 A 
ATOM      7  C6  UNL d   1       0.677   3.059  -0.768  0.00  0.00     0.077 C 
ATOM      8  C7  UNL d   1      -0.767   3.545  -2.765  0.00  0.00    -0.001 A 
ENDROOT
TORSDOF 0
ENDMDL
