MODEL 1
REMARK minimizedAffinity 18.5043488
REMARK minimizedRMSD -1
REMARK  0 active torsions:
REMARK  status: ('A' for Active; 'I' for Inactive)
ROOT
ATOM      1  C   UNL d   1       0.561   2.954  -0.038  0.00  0.00     0.077 C 
ATOM      2  C1  UNL d   1      -0.510   2.968  -1.087  0.00  0.00    -0.074 A 
ATOM      3  C2  UNL d   1      -0.249   2.523  -2.387  0.00  0.00    -0.005 A 
ATOM      4  C3  UNL d   1      -1.258   2.533  -3.350  0.00  0.00     0.006 A 
ATOM      5  C4  UNL d   1      -2.537   2.986  -3.023  0.00  0.00    -0.005 A 
ATOM      6  C5  UNL d   1      -2.817   3.433  -1.728  0.00  0.00    -0.074 A 
ATOM      7  C6  UNL d   1      -4.189   3.914  -1.357  0.00  0.00     0.077 C 
ATOM      8  C7  UNL d   1      -1.800   3.414  -0.764  0.00  0.00    -0.001 A 
ENDROOT
TORSDOF 0
ENDMDL
