MODEL 1
REMARK minimizedAffinity 3.9779954
REMARK minimizedRMSD -1
REMARK  0 active torsions:
REMARK  status: ('A' for Active; 'I' for Inactive)
ROOT
ATOM      1  C   UNL d   1      -5.899  -2.093   2.732  0.00  0.00     0.077 C 
ATOM      2  C1  UNL d   1      -5.019  -3.056   1.992  0.00  0.00    -0.074 A 
ATOM      3  C2  UNL d   1      -3.690  -3.257   2.378  0.00  0.00    -0.005 A 
ATOM      4  C3  UNL d   1      -2.886  -4.163   1.686  0.00  0.00     0.006 A 
ATOM      5  C4  UNL d   1      -3.402  -4.875   0.603  0.00  0.00    -0.005 A 
ATOM      6  C5  UNL d   1      -4.729  -4.688   0.203  0.00  0.00    -0.074 A 
ATOM      7  C6  UNL d   1      -5.303  -5.453  -0.952  0.00  0.00     0.077 C 
ATOM      8  C7  UNL d   1      -5.533  -3.781   0.908  0.00  0.00    -0.001 A 
ENDROOT
TORSDOF 0
ENDMDL
