MODEL 1
REMARK minimizedAffinity 7.42628765
REMARK minimizedRMSD -1
REMARK  0 active torsions:
REMARK  status: ('A' for Active; 'I' for Inactive)
ROOT
ATOM      1  C   UNL d   1      -4.556  -6.000  -0.848  0.00  0.00     0.077 C 
ATOM      2  C1  UNL d   1      -4.138  -5.212   0.358  0.00  0.00    -0.074 A 
ATOM      3  C2  UNL d   1      -3.100  -5.656   1.183  0.00  0.00    -0.005 A 
ATOM      4  C3  UNL d   1      -2.716  -4.908   2.295  0.00  0.00     0.006 A 
ATOM      5  C4  UNL d   1      -3.365  -3.710   2.594  0.00  0.00    -0.005 A 
ATOM      6  C5  UNL d   1      -4.405  -3.249   1.781  0.00  0.00    -0.074 A 
ATOM      7  C6  UNL d   1      -5.107  -1.958   2.083  0.00  0.00     0.077 C 
ATOM      8  C7  UNL d   1      -4.781  -4.003   0.661  0.00  0.00    -0.001 A 
ENDROOT
TORSDOF 0
ENDMDL
