MODEL 1
REMARK minimizedAffinity 12.594882
REMARK minimizedRMSD -1
REMARK  0 active torsions:
REMARK  status: ('A' for Active; 'I' for Inactive)
ROOT
ATOM      1  C   UNL d   1       4.134   0.641   2.246  0.00  0.00     0.077 C 
ATOM      2  C1  UNL d   1       2.909  -0.215   2.117  0.00  0.00    -0.074 A 
ATOM      3  C2  UNL d   1       2.936  -1.400   1.374  0.00  0.00    -0.005 A 
ATOM      4  C3  UNL d   1       1.792  -2.191   1.272  0.00  0.00     0.006 A 
ATOM      5  C4  UNL d   1       0.612  -1.807   1.910  0.00  0.00    -0.005 A 
ATOM      6  C5  UNL d   1       0.567  -0.626   2.659  0.00  0.00    -0.074 A 
ATOM      7  C6  UNL d   1      -0.690  -0.204   3.360  0.00  0.00     0.077 C 
ATOM      8  C7  UNL d   1       1.723   0.160   2.763  0.00  0.00    -0.001 A 
ENDROOT
TORSDOF 0
ENDMDL
