MODEL 1
REMARK minimizedAffinity 13.6812611
REMARK minimizedRMSD -1
REMARK  0 active torsions:
REMARK  status: ('A' for Active; 'I' for Inactive)
ROOT
ATOM      1  C   UNL d   1       4.426   0.744   2.297  0.00  0.00     0.077 C 
ATOM      2  C1  UNL d   1       3.111   0.022   2.288  0.00  0.00    -0.074 A 
ATOM      3  C2  UNL d   1       2.842  -0.969   1.338  0.00  0.00    -0.005 A 
ATOM      4  C3  UNL d   1       1.618  -1.638   1.348  0.00  0.00     0.006 A 
ATOM      5  C4  UNL d   1       0.653  -1.323   2.305  0.00  0.00    -0.005 A 
ATOM      6  C5  UNL d   1       0.904  -0.336   3.262  0.00  0.00    -0.074 A 
ATOM      7  C6  UNL d   1      -0.119   0.008   4.304  0.00  0.00     0.077 C 
ATOM      8  C7  UNL d   1       2.139   0.327   3.251  0.00  0.00    -0.001 A 
ENDROOT
TORSDOF 0
ENDMDL
