MODEL 1
REMARK minimizedAffinity 14.3338785
REMARK minimizedRMSD -1
REMARK  0 active torsions:
REMARK  status: ('A' for Active; 'I' for Inactive)
ROOT
ATOM      1  C   UNL d   1       0.626   3.460  -0.004  0.00  0.00     0.077 C 
ATOM      2  C1  UNL d   1      -0.460   3.278  -1.021  0.00  0.00    -0.074 A 
ATOM      3  C2  UNL d   1      -0.258   2.486  -2.156  0.00  0.00    -0.005 A 
ATOM      4  C3  UNL d   1      -1.281   2.319  -3.089  0.00  0.00     0.006 A 
ATOM      5  C4  UNL d   1      -2.515   2.941  -2.898  0.00  0.00    -0.005 A 
ATOM      6  C5  UNL d   1      -2.736   3.737  -1.769  0.00  0.00    -0.074 A 
ATOM      7  C6  UNL d   1      -4.060   4.405  -1.543  0.00  0.00     0.077 C 
ATOM      8  C7  UNL d   1      -1.705   3.894  -0.832  0.00  0.00    -0.001 A 
ENDROOT
TORSDOF 0
ENDMDL
