MODEL 1
REMARK minimizedAffinity 17.5542946
REMARK minimizedRMSD -1
REMARK  0 active torsions:
REMARK  status: ('A' for Active; 'I' for Inactive)
ROOT
ATOM      1  C   UNL d   1       1.191   5.440  -0.051  0.00  0.00     0.077 C 
ATOM      2  C1  UNL d   1       0.532   4.130  -0.367  0.00  0.00    -0.074 A 
ATOM      3  C2  UNL d   1       1.074   2.924   0.089  0.00  0.00    -0.005 A 
ATOM      4  C3  UNL d   1       0.445   1.715  -0.204  0.00  0.00     0.006 A 
ATOM      5  C4  UNL d   1      -0.730   1.698  -0.955  0.00  0.00    -0.005 A 
ATOM      6  C5  UNL d   1      -1.288   2.894  -1.419  0.00  0.00    -0.074 A 
ATOM      7  C6  UNL d   1      -2.557   2.894  -2.219  0.00  0.00     0.077 C 
ATOM      8  C7  UNL d   1      -0.654   4.106  -1.114  0.00  0.00    -0.001 A 
ENDROOT
TORSDOF 0
ENDMDL
