MODEL 1
REMARK minimizedAffinity 21.4918194
REMARK minimizedRMSD -1
REMARK  0 active torsions:
REMARK  status: ('A' for Active; 'I' for Inactive)
ROOT
ATOM      1  C   UNL d   1       3.702  -1.078   0.723  0.00  0.00     0.077 C 
ATOM      2  C1  UNL d   1       2.641  -0.774   1.739  0.00  0.00    -0.074 A 
ATOM      3  C2  UNL d   1       1.288  -0.964   1.443  0.00  0.00    -0.005 A 
ATOM      4  C3  UNL d   1       0.312  -0.687   2.401  0.00  0.00     0.006 A 
ATOM      5  C4  UNL d   1       0.680  -0.217   3.662  0.00  0.00    -0.005 A 
ATOM      6  C5  UNL d   1       2.029  -0.021   3.976  0.00  0.00    -0.074 A 
ATOM      7  C6  UNL d   1       2.442   0.474   5.331  0.00  0.00     0.077 C 
ATOM      8  C7  UNL d   1       3.003  -0.309   3.011  0.00  0.00    -0.001 A 
ENDROOT
TORSDOF 0
ENDMDL
