MODEL 1
REMARK minimizedAffinity 9.86034584
REMARK minimizedRMSD -1
REMARK  0 active torsions:
REMARK  status: ('A' for Active; 'I' for Inactive)
ROOT
ATOM      1  C   UNL d   1       3.015  -1.512   1.082  0.00  0.00     0.077 C 
ATOM      2  C1  UNL d   1       2.127  -0.987   2.170  0.00  0.00    -0.074 A 
ATOM      3  C2  UNL d   1       0.738  -0.954   2.010  0.00  0.00    -0.005 A 
ATOM      4  C3  UNL d   1      -0.077  -0.471   3.034  0.00  0.00     0.006 A 
ATOM      5  C4  UNL d   1       0.489  -0.018   4.227  0.00  0.00    -0.005 A 
ATOM      6  C5  UNL d   1       1.875  -0.044   4.405  0.00  0.00    -0.074 A 
ATOM      7  C6  UNL d   1       2.499   0.430   5.684  0.00  0.00     0.077 C 
ATOM      8  C7  UNL d   1       2.687  -0.537   3.374  0.00  0.00    -0.001 A 
ENDROOT
TORSDOF 0
ENDMDL
