MODEL 1
REMARK minimizedAffinity 9.18763256
REMARK minimizedRMSD -1
REMARK  0 active torsions:
REMARK  status: ('A' for Active; 'I' for Inactive)
ROOT
ATOM      1  C   UNL d   1       4.503   0.558   2.338  0.00  0.00     0.077 C 
ATOM      2  C1  UNL d   1       3.212  -0.203   2.306  0.00  0.00    -0.074 A 
ATOM      3  C2  UNL d   1       3.072  -1.349   1.516  0.00  0.00    -0.005 A 
ATOM      4  C3  UNL d   1       1.868  -2.052   1.503  0.00  0.00     0.006 A 
ATOM      5  C4  UNL d   1       0.792  -1.617   2.278  0.00  0.00    -0.005 A 
ATOM      6  C5  UNL d   1       0.913  -0.474   3.075  0.00  0.00    -0.074 A 
ATOM      7  C6  UNL d   1      -0.230   0.001   3.922  0.00  0.00     0.077 C 
ATOM      8  C7  UNL d   1       2.129   0.223   3.088  0.00  0.00    -0.001 A 
ENDROOT
TORSDOF 0
ENDMDL
