MODEL 1
REMARK minimizedAffinity 15.3174963
REMARK minimizedRMSD -1
REMARK  0 active torsions:
REMARK  status: ('A' for Active; 'I' for Inactive)
ROOT
ATOM      1  C   UNL d   1       3.261   0.030   2.279  0.00  0.00     0.077 C 
ATOM      2  C1  UNL d   1       1.846  -0.314   2.638  0.00  0.00    -0.074 A 
ATOM      3  C2  UNL d   1       1.006  -0.951   1.718  0.00  0.00    -0.005 A 
ATOM      4  C3  UNL d   1      -0.305  -1.274   2.069  0.00  0.00     0.006 A 
ATOM      5  C4  UNL d   1      -0.788  -0.964   3.341  0.00  0.00    -0.005 A 
ATOM      6  C5  UNL d   1       0.037  -0.329   4.274  0.00  0.00    -0.074 A 
ATOM      7  C6  UNL d   1      -0.464   0.003   5.648  0.00  0.00     0.077 C 
ATOM      8  C7  UNL d   1       1.355  -0.013   3.916  0.00  0.00    -0.001 A 
ENDROOT
TORSDOF 0
ENDMDL
