MODEL 1
REMARK minimizedAffinity 20.6005306
REMARK minimizedRMSD -1
REMARK  0 active torsions:
REMARK  status: ('A' for Active; 'I' for Inactive)
ROOT
ATOM      1  C   UNL d   1       3.015   0.164   1.681  0.00  0.00     0.077 C 
ATOM      2  C1  UNL d   1       1.759  -0.437   2.239  0.00  0.00    -0.074 A 
ATOM      3  C2  UNL d   1       1.020  -1.370   1.505  0.00  0.00    -0.005 A 
ATOM      4  C3  UNL d   1      -0.140  -1.927   2.041  0.00  0.00     0.006 A 
ATOM      5  C4  UNL d   1      -0.574  -1.557   3.315  0.00  0.00    -0.005 A 
ATOM      6  C5  UNL d   1       0.153  -0.627   4.065  0.00  0.00    -0.074 A 
ATOM      7  C6  UNL d   1      -0.294  -0.226   5.439  0.00  0.00     0.077 C 
ATOM      8  C7  UNL d   1       1.322  -0.076   3.522  0.00  0.00    -0.001 A 
ENDROOT
TORSDOF 0
ENDMDL
