MODEL 1
REMARK minimizedAffinity 2.31523991
REMARK minimizedRMSD -1
REMARK  0 active torsions:
REMARK  status: ('A' for Active; 'I' for Inactive)
ROOT
ATOM      1  C   UNL d   1      -0.854  -0.324   6.000  0.00  0.00     0.077 C 
ATOM      2  C1  UNL d   1      -0.753  -0.926   4.630  0.00  0.00    -0.074 A 
ATOM      3  C2  UNL d   1       0.322  -0.621   3.789  0.00  0.00    -0.005 A 
ATOM      4  C3  UNL d   1       0.408  -1.196   2.521  0.00  0.00     0.006 A 
ATOM      5  C4  UNL d   1      -0.579  -2.080   2.082  0.00  0.00    -0.005 A 
ATOM      6  C5  UNL d   1      -1.660  -2.397   2.909  0.00  0.00    -0.074 A 
ATOM      7  C6  UNL d   1      -2.724  -3.353   2.457  0.00  0.00     0.077 C 
ATOM      8  C7  UNL d   1      -1.736  -1.821   4.185  0.00  0.00    -0.001 A 
ENDROOT
TORSDOF 0
ENDMDL
