MODEL 1
REMARK minimizedAffinity 12.2642088
REMARK minimizedRMSD -1
REMARK  0 active torsions:
REMARK  status: ('A' for Active; 'I' for Inactive)
ROOT
ATOM      1  C   UNL d   1      -1.646   4.260  -4.837  0.00  0.00     0.077 C 
ATOM      2  C1  UNL d   1      -1.913   3.535  -3.552  0.00  0.00    -0.074 A 
ATOM      3  C2  UNL d   1      -3.170   2.985  -3.284  0.00  0.00    -0.005 A 
ATOM      4  C3  UNL d   1      -3.400   2.305  -2.088  0.00  0.00     0.006 A 
ATOM      5  C4  UNL d   1      -2.377   2.169  -1.149  0.00  0.00    -0.005 A 
ATOM      6  C5  UNL d   1      -1.113   2.711  -1.400  0.00  0.00    -0.074 A 
ATOM      7  C6  UNL d   1       0.001   2.565  -0.406  0.00  0.00     0.077 C 
ATOM      8  C7  UNL d   1      -0.887   3.387  -2.607  0.00  0.00    -0.001 A 
ENDROOT
TORSDOF 0
ENDMDL
