MODEL 1
REMARK minimizedAffinity 10.407527
REMARK minimizedRMSD -1
REMARK  0 active torsions:
REMARK  status: ('A' for Active; 'I' for Inactive)
ROOT
ATOM      1  C   UNL d   1      -4.216   1.773  -1.851  0.00  0.00     0.077 C 
ATOM      2  C1  UNL d   1      -2.835   2.305  -2.095  0.00  0.00    -0.074 A 
ATOM      3  C2  UNL d   1      -2.525   2.983  -3.279  0.00  0.00    -0.005 A 
ATOM      4  C3  UNL d   1      -1.239   3.481  -3.488  0.00  0.00     0.006 A 
ATOM      5  C4  UNL d   1      -0.252   3.307  -2.517  0.00  0.00    -0.005 A 
ATOM      6  C5  UNL d   1      -0.544   2.632  -1.328  0.00  0.00    -0.074 A 
ATOM      7  C6  UNL d   1       0.503   2.445  -0.270  0.00  0.00     0.077 C 
ATOM      8  C7  UNL d   1      -1.840   2.141  -1.122  0.00  0.00    -0.001 A 
ENDROOT
TORSDOF 0
ENDMDL
