MODEL 1
REMARK minimizedAffinity 14.6699038
REMARK minimizedRMSD -1
REMARK  0 active torsions:
REMARK  status: ('A' for Active; 'I' for Inactive)
ROOT
ATOM      1  C   UNL d   1      -4.130   4.124  -1.309  0.00  0.00     0.077 C 
ATOM      2  C1  UNL d   1      -3.062   3.637  -2.243  0.00  0.00    -0.074 A 
ATOM      3  C2  UNL d   1      -1.890   3.052  -1.751  0.00  0.00    -0.005 A 
ATOM      4  C3  UNL d   1      -0.910   2.595  -2.632  0.00  0.00     0.006 A 
ATOM      5  C4  UNL d   1      -1.090   2.719  -4.010  0.00  0.00    -0.005 A 
ATOM      6  C5  UNL d   1      -2.255   3.301  -4.520  0.00  0.00    -0.074 A 
ATOM      7  C6  UNL d   1      -2.469   3.433  -5.998  0.00  0.00     0.077 C 
ATOM      8  C7  UNL d   1      -3.239   3.751  -3.629  0.00  0.00    -0.001 A 
ENDROOT
TORSDOF 0
ENDMDL
