MODEL 1
REMARK minimizedAffinity 0.204039395
REMARK minimizedRMSD -1
REMARK  0 active torsions:
REMARK  status: ('A' for Active; 'I' for Inactive)
ROOT
ATOM      1  C   UNL d   1      -1.963  -0.273   1.369  0.00  0.00     0.077 C 
ATOM      2  C1  UNL d   1      -0.572  -0.067   0.846  0.00  0.00    -0.074 A 
ATOM      3  C2  UNL d   1      -0.245   1.075   0.107  0.00  0.00    -0.005 A 
ATOM      4  C3  UNL d   1       1.055   1.258  -0.365  0.00  0.00     0.006 A 
ATOM      5  C4  UNL d   1       2.039   0.303  -0.104  0.00  0.00    -0.005 A 
ATOM      6  C5  UNL d   1       1.730  -0.844   0.634  0.00  0.00    -0.074 A 
ATOM      7  C6  UNL d   1       2.777  -1.875   0.932  0.00  0.00     0.077 C 
ATOM      8  C7  UNL d   1       0.423  -1.017   1.111  0.00  0.00    -0.001 A 
ENDROOT
TORSDOF 0
ENDMDL
