MODEL 1
REMARK minimizedAffinity -0.335174084
REMARK minimizedRMSD -1
REMARK  0 active torsions:
REMARK  status: ('A' for Active; 'I' for Inactive)
ROOT
ATOM      1  C   UNL d   1       3.216  -1.731  -0.377  0.00  0.00     0.172 C 
ATOM      2  N   UNL d   1       4.128  -2.677  -0.976  0.00  0.00    -0.070 N 
ATOM      3  C1  UNL d   1       5.494  -2.629  -0.896  0.00  0.00    -0.004 A 
ATOM      4  C2  UNL d   1       5.995  -3.705  -1.597  0.00  0.00    -0.047 A 
ATOM      5  C3  UNL d   1       4.893  -4.423  -2.116  0.00  0.00    -0.047 A 
ATOM      6  C4  UNL d   1       3.749  -3.765  -1.717  0.00  0.00    -0.004 A 
ENDROOT
TORSDOF 0
ENDMDL
