MODEL 1
REMARK minimizedAffinity 8.86167431
REMARK minimizedRMSD -1
REMARK  0 active torsions:
REMARK  status: ('A' for Active; 'I' for Inactive)
ROOT
ATOM      1  C   UNL d   1       0.195   5.352  -1.068  0.00  0.00     0.172 C 
ATOM      2  N   UNL d   1       0.403   4.279  -0.125  0.00  0.00    -0.070 N 
ATOM      3  C1  UNL d   1      -0.122   3.017  -0.222  0.00  0.00    -0.004 A 
ATOM      4  C2  UNL d   1       0.311   2.296   0.870  0.00  0.00    -0.047 A 
ATOM      5  C3  UNL d   1       1.122   3.153   1.650  0.00  0.00    -0.047 A 
ATOM      6  C4  UNL d   1       1.162   4.374   1.011  0.00  0.00    -0.004 A 
ENDROOT
TORSDOF 0
ENDMDL
