MODEL 1
REMARK minimizedAffinity 4.17779541
REMARK minimizedRMSD -1
REMARK  0 active torsions:
REMARK  status: ('A' for Active; 'I' for Inactive)
ROOT
ATOM      1  C   UNL d   1       3.489  -0.768   0.837  0.00  0.00     0.172 C 
ATOM      2  N   UNL d   1       4.286  -1.779   0.183  0.00  0.00    -0.070 N 
ATOM      3  C1  UNL d   1       5.321  -1.543  -0.682  0.00  0.00    -0.004 A 
ATOM      4  C2  UNL d   1       5.821  -2.762  -1.085  0.00  0.00    -0.047 A 
ATOM      5  C3  UNL d   1       5.058  -3.766  -0.441  0.00  0.00    -0.047 A 
ATOM      6  C4  UNL d   1       4.115  -3.129   0.338  0.00  0.00    -0.004 A 
ENDROOT
TORSDOF 0
ENDMDL
