MODEL 1
REMARK minimizedAffinity 1.00616348
REMARK minimizedRMSD -1
REMARK  0 active torsions:
REMARK  status: ('A' for Active; 'I' for Inactive)
ROOT
ATOM      1  C   UNL d   1       4.121  -1.122  -0.770  0.00  0.00     0.172 C 
ATOM      2  N   UNL d   1       4.377  -2.538  -0.659  0.00  0.00    -0.070 N 
ATOM      3  C1  UNL d   1       5.478  -3.191  -1.145  0.00  0.00    -0.004 A 
ATOM      4  C2  UNL d   1       5.347  -4.528  -0.835  0.00  0.00    -0.047 A 
ATOM      5  C3  UNL d   1       4.125  -4.684  -0.140  0.00  0.00    -0.047 A 
ATOM      6  C4  UNL d   1       3.545  -3.436  -0.045  0.00  0.00    -0.004 A 
ENDROOT
TORSDOF 0
ENDMDL
