MODEL 1
REMARK minimizedAffinity 5.38607454
REMARK minimizedRMSD -1
REMARK  0 active torsions:
REMARK  status: ('A' for Active; 'I' for Inactive)
ROOT
ATOM      1  C   UNL d   1       0.102   5.520  -2.680  0.00  0.00     0.172 C 
ATOM      2  N   UNL d   1       0.249   5.066  -1.317  0.00  0.00    -0.070 N 
ATOM      3  C1  UNL d   1       0.914   5.730  -0.321  0.00  0.00    -0.004 A 
ATOM      4  C2  UNL d   1       0.825   4.971   0.825  0.00  0.00    -0.047 A 
ATOM      5  C3  UNL d   1       0.081   3.809   0.507  0.00  0.00    -0.047 A 
ATOM      6  C4  UNL d   1      -0.263   3.894  -0.825  0.00  0.00    -0.004 A 
ENDROOT
TORSDOF 0
ENDMDL
