MODEL 1
REMARK minimizedAffinity 10.2588015
REMARK minimizedRMSD -1
REMARK  0 active torsions:
REMARK  status: ('A' for Active; 'I' for Inactive)
ROOT
ATOM      1  C   UNL d   1       5.157  -3.858  -4.527  0.00  0.00     0.172 C 
ATOM      2  N   UNL d   1       5.374  -3.621  -3.119  0.00  0.00    -0.070 N 
ATOM      3  C1  UNL d   1       5.838  -2.457  -2.567  0.00  0.00    -0.004 A 
ATOM      4  C2  UNL d   1       5.904  -2.634  -1.202  0.00  0.00    -0.047 A 
ATOM      5  C3  UNL d   1       5.465  -3.950  -0.924  0.00  0.00    -0.047 A 
ATOM      6  C4  UNL d   1       5.143  -4.539  -2.129  0.00  0.00    -0.004 A 
ENDROOT
TORSDOF 0
ENDMDL
