MODEL 1
REMARK minimizedAffinity 3.18139577
REMARK minimizedRMSD -1
REMARK  0 active torsions:
REMARK  status: ('A' for Active; 'I' for Inactive)
ROOT
ATOM      1  C   UNL d   1      -1.872  -0.377  -3.137  0.00  0.00     0.078 C 
ATOM      2  C1  UNL d   1      -2.424   0.013  -1.799  0.00  0.00    -0.077 A 
ATOM      3  C2  UNL d   1      -3.751  -0.269  -1.456  0.00  0.00    -0.001 A 
ATOM      4  C3  UNL d   1      -4.254   0.110  -0.210  0.00  0.00     0.003 A 
ATOM      5  C4  UNL d   1      -3.436   0.773   0.703  0.00  0.00    -0.005 A 
ATOM      6  C5  UNL d   1      -2.114   1.060   0.369  0.00  0.00     0.003 A 
ATOM      7  C6  UNL d   1      -1.610   0.683  -0.876  0.00  0.00    -0.001 A 
ENDROOT
TORSDOF 0
ENDMDL
