MODEL 1
REMARK minimizedAffinity 3.92702675
REMARK minimizedRMSD -1
REMARK  0 active torsions:
REMARK  status: ('A' for Active; 'I' for Inactive)
ROOT
ATOM      1  C   UNL d   1       4.968   2.329   0.814  0.00  0.00     0.078 C 
ATOM      2  C1  UNL d   1       4.359   1.514  -0.287  0.00  0.00    -0.077 A 
ATOM      3  C2  UNL d   1       3.228   0.720  -0.056  0.00  0.00    -0.001 A 
ATOM      4  C3  UNL d   1       2.678  -0.041  -1.089  0.00  0.00     0.003 A 
ATOM      5  C4  UNL d   1       3.251  -0.017  -2.359  0.00  0.00    -0.005 A 
ATOM      6  C5  UNL d   1       4.377   0.769  -2.597  0.00  0.00     0.003 A 
ATOM      7  C6  UNL d   1       4.929   1.530  -1.566  0.00  0.00    -0.001 A 
ENDROOT
TORSDOF 0
ENDMDL
