MODEL 1
REMARK minimizedAffinity 3.80549693
REMARK minimizedRMSD -1
REMARK  0 active torsions:
REMARK  status: ('A' for Active; 'I' for Inactive)
ROOT
ATOM      1  C   UNL d   1      -3.698   2.634   1.951  0.00  0.00     0.078 C 
ATOM      2  C1  UNL d   1      -3.658   1.587   0.877  0.00  0.00    -0.077 A 
ATOM      3  C2  UNL d   1      -2.446   1.200   0.293  0.00  0.00    -0.001 A 
ATOM      4  C3  UNL d   1      -2.424   0.232  -0.712  0.00  0.00     0.003 A 
ATOM      5  C4  UNL d   1      -3.612  -0.356  -1.143  0.00  0.00    -0.005 A 
ATOM      6  C5  UNL d   1      -4.823   0.025  -0.569  0.00  0.00     0.003 A 
ATOM      7  C6  UNL d   1      -4.847   0.993   0.436  0.00  0.00    -0.001 A 
ENDROOT
TORSDOF 0
ENDMDL
