MODEL 1
REMARK minimizedAffinity 2.64548659
REMARK minimizedRMSD -1
REMARK  0 active torsions:
REMARK  status: ('A' for Active; 'I' for Inactive)
ROOT
ATOM      1  C   UNL d   1       5.872   3.566  -0.548  0.00  0.00     0.078 C 
ATOM      2  C1  UNL d   1       4.999   2.353  -0.668  0.00  0.00    -0.077 A 
ATOM      3  C2  UNL d   1       3.806   2.249   0.057  0.00  0.00    -0.001 A 
ATOM      4  C3  UNL d   1       3.008   1.109  -0.057  0.00  0.00     0.003 A 
ATOM      5  C4  UNL d   1       3.396   0.065  -0.893  0.00  0.00    -0.005 A 
ATOM      6  C5  UNL d   1       4.583   0.158  -1.617  0.00  0.00     0.003 A 
ATOM      7  C6  UNL d   1       5.382   1.297  -1.504  0.00  0.00    -0.001 A 
ENDROOT
TORSDOF 0
ENDMDL
