MODEL 1
REMARK minimizedAffinity 2.33839202
REMARK minimizedRMSD -1
REMARK  0 active torsions:
REMARK  status: ('A' for Active; 'I' for Inactive)
ROOT
ATOM      1  C   UNL d   1      -0.309   5.998   3.924  0.00  0.00     0.078 C 
ATOM      2  C1  UNL d   1       0.908   5.275   4.418  0.00  0.00    -0.077 A 
ATOM      3  C2  UNL d   1       2.141   5.413   3.769  0.00  0.00    -0.001 A 
ATOM      4  C3  UNL d   1       3.264   4.726   4.234  0.00  0.00     0.003 A 
ATOM      5  C4  UNL d   1       3.164   3.895   5.348  0.00  0.00    -0.005 A 
ATOM      6  C5  UNL d   1       1.941   3.750   5.999  0.00  0.00     0.003 A 
ATOM      7  C6  UNL d   1       0.817   4.436   5.535  0.00  0.00    -0.001 A 
ENDROOT
TORSDOF 0
ENDMDL
