MODEL 1
REMARK minimizedAffinity 1.0426321
REMARK minimizedRMSD -1
REMARK  0 active torsions:
REMARK  status: ('A' for Active; 'I' for Inactive)
ROOT
ATOM      1  C   UNL d   1       1.846   4.857   5.998  0.00  0.00     0.078 C 
ATOM      2  C1  UNL d   1       2.851   3.749   5.890  0.00  0.00    -0.077 A 
ATOM      3  C2  UNL d   1       4.206   4.023   5.665  0.00  0.00    -0.001 A 
ATOM      4  C3  UNL d   1       5.128   2.981   5.557  0.00  0.00     0.003 A 
ATOM      5  C4  UNL d   1       4.706   1.658   5.670  0.00  0.00    -0.005 A 
ATOM      6  C5  UNL d   1       3.359   1.375   5.891  0.00  0.00     0.003 A 
ATOM      7  C6  UNL d   1       2.435   2.416   6.000  0.00  0.00    -0.001 A 
ENDROOT
TORSDOF 0
ENDMDL
