MODEL 1
REMARK minimizedAffinity 6.91152143
REMARK minimizedRMSD -1
REMARK  0 active torsions:
REMARK  status: ('A' for Active; 'I' for Inactive)
ROOT
ATOM      1  C   UNL d   1       1.958   1.129   0.415  0.00  0.00     0.078 C 
ATOM      2  C1  UNL d   1       3.366   1.643   0.453  0.00  0.00    -0.077 A 
ATOM      3  C2  UNL d   1       3.846   2.350   1.563  0.00  0.00    -0.001 A 
ATOM      4  C3  UNL d   1       5.156   2.831   1.580  0.00  0.00     0.003 A 
ATOM      5  C4  UNL d   1       5.997   2.612   0.491  0.00  0.00    -0.005 A 
ATOM      6  C5  UNL d   1       5.527   1.912  -0.619  0.00  0.00     0.003 A 
ATOM      7  C6  UNL d   1       4.218   1.430  -0.638  0.00  0.00    -0.001 A 
ENDROOT
TORSDOF 0
ENDMDL
