MODEL 1
REMARK minimizedAffinity -2.65979028
REMARK minimizedRMSD -1
REMARK  0 active torsions:
REMARK  status: ('A' for Active; 'I' for Inactive)
ROOT
ATOM      1  C   UNL d   1       3.066  -0.186  -0.458  0.00  0.00     0.078 C 
ATOM      2  C1  UNL d   1       4.042   0.950  -0.536  0.00  0.00    -0.077 A 
ATOM      3  C2  UNL d   1       4.821   1.154  -1.681  0.00  0.00    -0.001 A 
ATOM      4  C3  UNL d   1       5.732   2.210  -1.736  0.00  0.00     0.003 A 
ATOM      5  C4  UNL d   1       5.875   3.068  -0.647  0.00  0.00    -0.005 A 
ATOM      6  C5  UNL d   1       5.106   2.871   0.498  0.00  0.00     0.003 A 
ATOM      7  C6  UNL d   1       4.194   1.816   0.554  0.00  0.00    -0.001 A 
ENDROOT
TORSDOF 0
ENDMDL
