MODEL 1
REMARK minimizedAffinity 2.35598803
REMARK minimizedRMSD -1
REMARK  0 active torsions:
REMARK  status: ('A' for Active; 'I' for Inactive)
ROOT
ATOM      1  C   UNL d   1       4.278   1.724  -0.460  0.00  0.00     0.078 C 
ATOM      2  C1  UNL d   1       3.958   0.384  -1.053  0.00  0.00    -0.077 A 
ATOM      3  C2  UNL d   1       4.211   0.115  -2.404  0.00  0.00    -0.001 A 
ATOM      4  C3  UNL d   1       3.900  -1.134  -2.945  0.00  0.00     0.003 A 
ATOM      5  C4  UNL d   1       3.333  -2.122  -2.143  0.00  0.00    -0.005 A 
ATOM      6  C5  UNL d   1       3.076  -1.863  -0.798  0.00  0.00     0.003 A 
ATOM      7  C6  UNL d   1       3.387  -0.615  -0.255  0.00  0.00    -0.001 A 
ENDROOT
TORSDOF 0
ENDMDL
