MODEL 1
REMARK minimizedAffinity 10.2611427
REMARK minimizedRMSD -1
REMARK  0 active torsions:
REMARK  status: ('A' for Active; 'I' for Inactive)
ROOT
ATOM      1  C   UNL d   1       2.783   1.489   5.999  0.00  0.00     0.078 C 
ATOM      2  C1  UNL d   1       2.665   2.984   5.989  0.00  0.00    -0.077 A 
ATOM      3  C2  UNL d   1       3.805   3.797   5.983  0.00  0.00    -0.001 A 
ATOM      4  C3  UNL d   1       3.680   5.188   5.984  0.00  0.00     0.003 A 
ATOM      5  C4  UNL d   1       2.418   5.777   5.992  0.00  0.00    -0.005 A 
ATOM      6  C5  UNL d   1       1.277   4.976   6.000  0.00  0.00     0.003 A 
ATOM      7  C6  UNL d   1       1.400   3.585   5.999  0.00  0.00    -0.001 A 
ENDROOT
TORSDOF 0
ENDMDL
