MODEL 1
REMARK minimizedAffinity 2.36208534
REMARK minimizedRMSD -1
REMARK  0 active torsions:
REMARK  status: ('A' for Active; 'I' for Inactive)
ROOT
ATOM      1  C   UNL d   1       3.427   2.258   5.991  0.00  0.00     0.078 C 
ATOM      2  C1  UNL d   1       2.674   3.555   5.988  0.00  0.00    -0.077 A 
ATOM      3  C2  UNL d   1       1.274   3.576   5.999  0.00  0.00    -0.001 A 
ATOM      4  C3  UNL d   1       0.586   4.790   5.986  0.00  0.00     0.003 A 
ATOM      5  C4  UNL d   1       1.290   5.993   5.961  0.00  0.00    -0.005 A 
ATOM      6  C5  UNL d   1       2.683   5.982   5.948  0.00  0.00     0.003 A 
ATOM      7  C6  UNL d   1       3.373   4.768   5.960  0.00  0.00    -0.001 A 
ENDROOT
TORSDOF 0
ENDMDL
