MODEL 1
REMARK minimizedAffinity -0.33414048
REMARK minimizedRMSD -1
REMARK  0 active torsions:
REMARK  status: ('A' for Active; 'I' for Inactive)
ROOT
ATOM      1  C   UNL d   1      -2.167   2.178  -3.777  0.00  0.00     0.124 A 
ATOM      2  C1  UNL d   1      -1.218   3.173  -3.968  0.00  0.00     0.062 A 
ATOM      3  C2  UNL d   1      -0.395   3.566  -2.916  0.00  0.00     0.162 A 
ATOM      4  C3  UNL d   1      -0.517   2.964  -1.664  0.00  0.00    -0.034 A 
ATOM      5  C4  UNL d   1      -1.474   1.965  -1.479  0.00  0.00     0.162 A 
ATOM      6  C5  UNL d   1      -2.294   1.575  -2.533  0.00  0.00     0.062 A 
ATOM      7  F   UNL d   1      -3.211   0.614  -2.347  0.00  0.00    -0.097 F 
ATOM      8  F1  UNL d   1      -1.618   1.366  -0.288  0.00  0.00    -0.096 F 
ATOM      9  I   UNL d   1       0.712   3.550  -0.089  0.00  0.00    -0.060 I 
ATOM     10  F2  UNL d   1       0.513   4.530  -3.130  0.00  0.00    -0.096 F 
ATOM     11  F3  UNL d   1      -1.093   3.757  -5.168  0.00  0.00    -0.097 F 
ATOM     12  F4  UNL d   1      -2.958   1.802  -4.790  0.00  0.00    -0.092 F 
ENDROOT
TORSDOF 0
ENDMDL
