MODEL 1
REMARK minimizedAffinity -2.72921729
REMARK minimizedRMSD -1
REMARK  0 active torsions:
REMARK  status: ('A' for Active; 'I' for Inactive)
ROOT
ATOM      1  C   UNL d   1      -2.129   2.178  -3.446  0.00  0.00     0.124 A 
ATOM      2  C1  UNL d   1      -1.227   3.215  -3.637  0.00  0.00     0.062 A 
ATOM      3  C2  UNL d   1      -0.342   3.569  -2.623  0.00  0.00     0.162 A 
ATOM      4  C3  UNL d   1      -0.353   2.884  -1.409  0.00  0.00    -0.034 A 
ATOM      5  C4  UNL d   1      -1.263   1.842  -1.223  0.00  0.00     0.162 A 
ATOM      6  C5  UNL d   1      -2.146   1.492  -2.240  0.00  0.00     0.062 A 
ATOM      7  F   UNL d   1      -3.016   0.489  -2.053  0.00  0.00    -0.097 F 
ATOM      8  F1  UNL d   1      -1.300   1.162  -0.068  0.00  0.00    -0.096 F 
ATOM      9  I   UNL d   1       0.970   3.409   0.110  0.00  0.00    -0.060 I 
ATOM     10  F2  UNL d   1       0.519   4.576  -2.836  0.00  0.00    -0.096 F 
ATOM     11  F3  UNL d   1      -1.209   3.880  -4.802  0.00  0.00    -0.097 F 
ATOM     12  F4  UNL d   1      -2.980   1.840  -4.423  0.00  0.00    -0.092 F 
ENDROOT
TORSDOF 0
ENDMDL
