MODEL 1
REMARK minimizedAffinity 1.69330788
REMARK minimizedRMSD -1
REMARK  0 active torsions:
REMARK  status: ('A' for Active; 'I' for Inactive)
ROOT
ATOM      1  C   UNL d   1      -0.681  -1.268   1.743  0.00  0.00     0.124 A 
ATOM      2  C1  UNL d   1       0.201  -1.398   0.679  0.00  0.00     0.062 A 
ATOM      3  C2  UNL d   1       0.195  -0.465  -0.353  0.00  0.00     0.162 A 
ATOM      4  C3  UNL d   1      -0.696   0.608  -0.327  0.00  0.00    -0.034 A 
ATOM      5  C4  UNL d   1      -1.581   0.732   0.746  0.00  0.00     0.162 A 
ATOM      6  C5  UNL d   1      -1.571  -0.204   1.775  0.00  0.00     0.062 A 
ATOM      7  F   UNL d   1      -2.424  -0.076   2.802  0.00  0.00    -0.097 F 
ATOM      8  F1  UNL d   1      -2.451   1.751   0.803  0.00  0.00    -0.096 F 
ATOM      9  I   UNL d   1      -0.709   2.005  -1.869  0.00  0.00    -0.060 I 
ATOM     10  F2  UNL d   1       1.058  -0.616  -1.369  0.00  0.00    -0.096 F 
ATOM     11  F3  UNL d   1       1.061  -2.426   0.646  0.00  0.00    -0.097 F 
ATOM     12  F4  UNL d   1      -0.673  -2.168   2.735  0.00  0.00    -0.092 F 
ENDROOT
TORSDOF 0
ENDMDL
