MODEL 1
REMARK minimizedAffinity 1.81972718
REMARK minimizedRMSD -1
REMARK  0 active torsions:
REMARK  status: ('A' for Active; 'I' for Inactive)
ROOT
ATOM      1  C   UNL d   1      -2.411   1.066  -2.561  0.00  0.00     0.124 A 
ATOM      2  C1  UNL d   1      -1.976   2.328  -2.942  0.00  0.00     0.062 A 
ATOM      3  C2  UNL d   1      -0.935   2.946  -2.255  0.00  0.00     0.162 A 
ATOM      4  C3  UNL d   1      -0.322   2.304  -1.180  0.00  0.00    -0.034 A 
ATOM      5  C4  UNL d   1      -0.766   1.036  -0.802  0.00  0.00     0.162 A 
ATOM      6  C5  UNL d   1      -1.806   0.421  -1.492  0.00  0.00     0.062 A 
ATOM      7  F   UNL d   1      -2.225  -0.798  -1.122  0.00  0.00    -0.097 F 
ATOM      8  F1  UNL d   1      -0.198   0.390   0.228  0.00  0.00    -0.096 F 
ATOM      9  I   UNL d   1       1.234   3.226  -0.150  0.00  0.00    -0.060 I 
ATOM     10  F2  UNL d   1      -0.535   4.166  -2.646  0.00  0.00    -0.096 F 
ATOM     11  F3  UNL d   1      -2.559   2.953  -3.975  0.00  0.00    -0.097 F 
ATOM     12  F4  UNL d   1      -3.413   0.473  -3.223  0.00  0.00    -0.092 F 
ENDROOT
TORSDOF 0
ENDMDL
