MODEL 1
REMARK minimizedAffinity 2.45783949
REMARK minimizedRMSD -1
REMARK  0 active torsions:
REMARK  status: ('A' for Active; 'I' for Inactive)
ROOT
ATOM      1  C   UNL d   1      -1.700   2.857  -3.394  0.00  0.00     0.124 A 
ATOM      2  C1  UNL d   1      -2.321   1.616  -3.395  0.00  0.00     0.062 A 
ATOM      3  C2  UNL d   1      -2.153   0.749  -2.320  0.00  0.00     0.162 A 
ATOM      4  C3  UNL d   1      -1.361   1.120  -1.233  0.00  0.00    -0.034 A 
ATOM      5  C4  UNL d   1      -0.738   2.369  -1.240  0.00  0.00     0.162 A 
ATOM      6  C5  UNL d   1      -0.909   3.232  -2.318  0.00  0.00     0.062 A 
ATOM      7  F   UNL d   1      -0.308   4.431  -2.315  0.00  0.00    -0.097 F 
ATOM      8  F1  UNL d   1       0.031   2.758  -0.212  0.00  0.00    -0.096 F 
ATOM      9  I   UNL d   1      -1.107  -0.175   0.377  0.00  0.00    -0.060 I 
ATOM     10  F2  UNL d   1      -2.766  -0.445  -2.347  0.00  0.00    -0.096 F 
ATOM     11  F3  UNL d   1      -3.085   1.251  -4.435  0.00  0.00    -0.097 F 
ATOM     12  F4  UNL d   1      -1.862   3.689  -4.431  0.00  0.00    -0.092 F 
ENDROOT
TORSDOF 0
ENDMDL
