MODEL 1
REMARK minimizedAffinity -3.45687199
REMARK minimizedRMSD -1
REMARK  0 active torsions:
REMARK  status: ('A' for Active; 'I' for Inactive)
ROOT
ATOM      1  C   UNL d   1      -2.274   1.926  -3.228  0.00  0.00     0.124 A 
ATOM      2  C1  UNL d   1      -1.418   2.945  -3.623  0.00  0.00     0.062 A 
ATOM      3  C2  UNL d   1      -0.613   3.586  -2.685  0.00  0.00     0.162 A 
ATOM      4  C3  UNL d   1      -0.661   3.209  -1.342  0.00  0.00    -0.034 A 
ATOM      5  C4  UNL d   1      -1.526   2.185  -0.953  0.00  0.00     0.162 A 
ATOM      6  C5  UNL d   1      -2.328   1.547  -1.894  0.00  0.00     0.062 A 
ATOM      7  F   UNL d   1      -3.155   0.564  -1.512  0.00  0.00    -0.097 F 
ATOM      8  F1  UNL d   1      -1.597   1.798   0.329  0.00  0.00    -0.096 F 
ATOM      9  I   UNL d   1       0.540   4.165   0.063  0.00  0.00    -0.060 I 
ATOM     10  F2  UNL d   1       0.205   4.566  -3.094  0.00  0.00    -0.096 F 
ATOM     11  F3  UNL d   1      -1.365   3.313  -4.911  0.00  0.00    -0.097 F 
ATOM     12  F4  UNL d   1      -3.048   1.312  -4.133  0.00  0.00    -0.092 F 
ENDROOT
TORSDOF 0
ENDMDL
