MODEL 1
REMARK minimizedAffinity -2.44625592
REMARK minimizedRMSD -1
REMARK  0 active torsions:
REMARK  status: ('A' for Active; 'I' for Inactive)
ROOT
ATOM      1  C   UNL d   1      -1.821   3.340  -4.353  0.00  0.00     0.124 A 
ATOM      2  C1  UNL d   1      -2.546   2.223  -3.961  0.00  0.00     0.062 A 
ATOM      3  C2  UNL d   1      -2.253   1.584  -2.760  0.00  0.00     0.162 A 
ATOM      4  C3  UNL d   1      -1.230   2.061  -1.940  0.00  0.00    -0.034 A 
ATOM      5  C4  UNL d   1      -0.505   3.184  -2.341  0.00  0.00     0.162 A 
ATOM      6  C5  UNL d   1      -0.802   3.819  -3.543  0.00  0.00     0.062 A 
ATOM      7  F   UNL d   1      -0.100   4.898  -3.920  0.00  0.00    -0.097 F 
ATOM      8  F1  UNL d   1       0.485   3.670  -1.577  0.00  0.00    -0.096 F 
ATOM      9  I   UNL d   1      -0.789   1.109  -0.143  0.00  0.00    -0.060 I 
ATOM     10  F2  UNL d   1      -2.970   0.507  -2.406  0.00  0.00    -0.096 F 
ATOM     11  F3  UNL d   1      -3.532   1.757  -4.742  0.00  0.00    -0.097 F 
ATOM     12  F4  UNL d   1      -2.105   3.952  -5.510  0.00  0.00    -0.092 F 
ENDROOT
TORSDOF 0
ENDMDL
