MODEL 1
REMARK minimizedAffinity -3.56167388
REMARK minimizedRMSD -1
REMARK  0 active torsions:
REMARK  status: ('A' for Active; 'I' for Inactive)
ROOT
ATOM      1  C   UNL d   1       2.378   4.336   0.293  0.00  0.00     0.124 A 
ATOM      2  C1  UNL d   1       1.110   3.987   0.737  0.00  0.00     0.062 A 
ATOM      3  C2  UNL d   1       0.585   2.732   0.440  0.00  0.00     0.162 A 
ATOM      4  C3  UNL d   1       1.329   1.817  -0.304  0.00  0.00    -0.034 A 
ATOM      5  C4  UNL d   1       2.603   2.175  -0.748  0.00  0.00     0.162 A 
ATOM      6  C5  UNL d   1       3.123   3.431  -0.449  0.00  0.00     0.062 A 
ATOM      7  F   UNL d   1       4.348   3.766  -0.878  0.00  0.00    -0.097 F 
ATOM      8  F1  UNL d   1       3.346   1.319  -1.465  0.00  0.00    -0.096 F 
ATOM      9  I   UNL d   1       0.548  -0.060  -0.750  0.00  0.00    -0.060 I 
ATOM     10  F2  UNL d   1      -0.643   2.422   0.881  0.00  0.00    -0.096 F 
ATOM     11  F3  UNL d   1       0.387   4.861   1.452  0.00  0.00    -0.097 F 
ATOM     12  F4  UNL d   1       2.879   5.544   0.579  0.00  0.00    -0.092 F 
ENDROOT
TORSDOF 0
ENDMDL
