MODEL 1
REMARK minimizedAffinity 2.86803532
REMARK minimizedRMSD -1
REMARK  0 active torsions:
REMARK  status: ('A' for Active; 'I' for Inactive)
ROOT
ATOM      1  C   UNL d   1      -2.192   1.955  -3.572  0.00  0.00     0.124 A 
ATOM      2  C1  UNL d   1      -1.335   3.007  -3.862  0.00  0.00     0.062 A 
ATOM      3  C2  UNL d   1      -0.444   3.471  -2.898  0.00  0.00     0.162 A 
ATOM      4  C3  UNL d   1      -0.405   2.881  -1.635  0.00  0.00    -0.034 A 
ATOM      5  C4  UNL d   1      -1.271   1.823  -1.350  0.00  0.00     0.162 A 
ATOM      6  C5  UNL d   1      -2.159   1.364  -2.317  0.00  0.00     0.062 A 
ATOM      7  F   UNL d   1      -2.986   0.346  -2.036  0.00  0.00    -0.097 F 
ATOM      8  F1  UNL d   1      -1.260   1.233  -0.146  0.00  0.00    -0.096 F 
ATOM      9  I   UNL d   1       0.925   3.571  -0.190  0.00  0.00    -0.060 I 
ATOM     10  F2  UNL d   1       0.372   4.490  -3.205  0.00  0.00    -0.096 F 
ATOM     11  F3  UNL d   1      -1.365   3.581  -5.074  0.00  0.00    -0.097 F 
ATOM     12  F4  UNL d   1      -3.048   1.511  -4.502  0.00  0.00    -0.092 F 
ENDROOT
TORSDOF 0
ENDMDL
