MODEL 1
REMARK minimizedAffinity 12.480814
REMARK minimizedRMSD -1
REMARK  0 active torsions:
REMARK  status: ('A' for Active; 'I' for Inactive)
ROOT
ATOM      1  C   UNL d   1       3.475   4.207   0.581  0.00  0.00     0.124 A 
ATOM      2  C1  UNL d   1       3.919   3.016   0.022  0.00  0.00     0.062 A 
ATOM      3  C2  UNL d   1       3.004   2.039  -0.359  0.00  0.00     0.162 A 
ATOM      4  C3  UNL d   1       1.636   2.248  -0.184  0.00  0.00    -0.034 A 
ATOM      5  C4  UNL d   1       1.198   3.448   0.380  0.00  0.00     0.162 A 
ATOM      6  C5  UNL d   1       2.116   4.421   0.759  0.00  0.00     0.062 A 
ATOM      7  F   UNL d   1       1.686   5.571   1.299  0.00  0.00    -0.097 F 
ATOM      8  F1  UNL d   1      -0.110   3.682   0.563  0.00  0.00    -0.096 F 
ATOM      9  I   UNL d   1       0.266   0.789  -0.752  0.00  0.00    -0.060 I 
ATOM     10  F2  UNL d   1       3.461   0.898  -0.896  0.00  0.00    -0.096 F 
ATOM     11  F3  UNL d   1       5.232   2.806  -0.150  0.00  0.00    -0.097 F 
ATOM     12  F4  UNL d   1       4.358   5.145   0.948  0.00  0.00    -0.092 F 
ENDROOT
TORSDOF 0
ENDMDL
