MODEL 1
REMARK minimizedAffinity -0.393880755
REMARK minimizedRMSD -1
REMARK  0 active torsions:
REMARK  status: ('A' for Active; 'I' for Inactive)
ROOT
ATOM      1  C   UNL d   1      -0.074  -2.171   1.218  0.00  0.00     0.124 A 
ATOM      2  C1  UNL d   1      -0.604  -1.008   1.760  0.00  0.00     0.062 A 
ATOM      3  C2  UNL d   1      -0.823   0.104   0.952  0.00  0.00     0.162 A 
ATOM      4  C3  UNL d   1      -0.513   0.059  -0.407  0.00  0.00    -0.034 A 
ATOM      5  C4  UNL d   1       0.020  -1.114  -0.945  0.00  0.00     0.162 A 
ATOM      6  C5  UNL d   1       0.237  -2.223  -0.134  0.00  0.00     0.062 A 
ATOM      7  F   UNL d   1       0.749  -3.346  -0.659  0.00  0.00    -0.097 F 
ATOM      8  F1  UNL d   1       0.329  -1.192  -2.248  0.00  0.00    -0.096 F 
ATOM      9  I   UNL d   1      -0.839   1.720  -1.619  0.00  0.00    -0.060 I 
ATOM     10  F2  UNL d   1      -1.336   1.215   1.502  0.00  0.00    -0.096 F 
ATOM     11  F3  UNL d   1      -0.905  -0.955   3.065  0.00  0.00    -0.097 F 
ATOM     12  F4  UNL d   1       0.136  -3.239   1.997  0.00  0.00    -0.092 F 
ENDROOT
TORSDOF 0
ENDMDL
