MODEL 1
REMARK minimizedAffinity -3.55975699
REMARK minimizedRMSD -1
REMARK  0 active torsions:
REMARK  status: ('A' for Active; 'I' for Inactive)
ROOT
ATOM      1  C   UNL d   1      -2.879   2.719  -3.977  0.00  0.00     0.124 A 
ATOM      2  C1  UNL d   1      -1.778   3.479  -4.346  0.00  0.00     0.062 A 
ATOM      3  C2  UNL d   1      -0.787   3.774  -3.414  0.00  0.00     0.162 A 
ATOM      4  C3  UNL d   1      -0.892   3.308  -2.104  0.00  0.00    -0.034 A 
ATOM      5  C4  UNL d   1      -2.003   2.545  -1.740  0.00  0.00     0.162 A 
ATOM      6  C5  UNL d   1      -2.990   2.253  -2.674  0.00  0.00     0.062 A 
ATOM      7  F   UNL d   1      -4.054   1.519  -2.316  0.00  0.00    -0.097 F 
ATOM      8  F1  UNL d   1      -2.135   2.081  -0.488  0.00  0.00    -0.096 F 
ATOM      9  I   UNL d   1       0.588   3.747  -0.708  0.00  0.00    -0.060 I 
ATOM     10  F2  UNL d   1       0.267   4.510  -3.799  0.00  0.00    -0.096 F 
ATOM     11  F3  UNL d   1      -1.668   3.931  -5.603  0.00  0.00    -0.097 F 
ATOM     12  F4  UNL d   1      -3.832   2.438  -4.875  0.00  0.00    -0.092 F 
ENDROOT
TORSDOF 0
ENDMDL
