MODEL 1
REMARK minimizedAffinity -0.773917496
REMARK minimizedRMSD -1
REMARK  0 active torsions:
REMARK  status: ('A' for Active; 'I' for Inactive)
ROOT
ATOM      1  C   UNL d   1      -1.351   0.404  -0.751  0.00  0.00     0.124 A 
ATOM      2  C1  UNL d   1      -0.414  -0.258  -1.533  0.00  0.00     0.062 A 
ATOM      3  C2  UNL d   1       0.490  -1.138  -0.947  0.00  0.00     0.162 A 
ATOM      4  C3  UNL d   1       0.463  -1.362   0.430  0.00  0.00    -0.034 A 
ATOM      5  C4  UNL d   1      -0.481  -0.692   1.210  0.00  0.00     0.162 A 
ATOM      6  C5  UNL d   1      -1.383   0.187   0.619  0.00  0.00     0.062 A 
ATOM      7  F   UNL d   1      -2.287   0.825   1.376  0.00  0.00    -0.097 F 
ATOM      8  F1  UNL d   1      -0.535  -0.884   2.536  0.00  0.00    -0.096 F 
ATOM      9  I   UNL d   1       1.814  -2.678   1.310  0.00  0.00    -0.060 I 
ATOM     10  F2  UNL d   1       1.384  -1.764  -1.727  0.00  0.00    -0.096 F 
ATOM     11  F3  UNL d   1      -0.381  -0.049  -2.857  0.00  0.00    -0.097 F 
ATOM     12  F4  UNL d   1      -2.220   1.251  -1.318  0.00  0.00    -0.092 F 
ENDROOT
TORSDOF 0
ENDMDL
