MODEL 1
REMARK minimizedAffinity -2.90944886
REMARK minimizedRMSD -1
REMARK  0 active torsions:
REMARK  status: ('A' for Active; 'I' for Inactive)
ROOT
ATOM      1  C   UNL d   1       0.429  -1.818   1.012  0.00  0.00     0.124 A 
ATOM      2  C1  UNL d   1       1.310  -1.393   0.027  0.00  0.00     0.062 A 
ATOM      3  C2  UNL d   1       1.129  -0.159  -0.589  0.00  0.00     0.162 A 
ATOM      4  C3  UNL d   1       0.061   0.661  -0.223  0.00  0.00    -0.034 A 
ATOM      5  C4  UNL d   1      -0.822   0.226   0.767  0.00  0.00     0.162 A 
ATOM      6  C5  UNL d   1      -0.636  -1.009   1.381  0.00  0.00     0.062 A 
ATOM      7  F   UNL d   1      -1.489  -1.418   2.331  0.00  0.00    -0.097 F 
ATOM      8  F1  UNL d   1      -1.859   0.989   1.144  0.00  0.00    -0.096 F 
ATOM      9  I   UNL d   1      -0.214   2.507  -1.143  0.00  0.00    -0.060 I 
ATOM     10  F2  UNL d   1       1.996   0.226  -1.537  0.00  0.00    -0.096 F 
ATOM     11  F3  UNL d   1       2.340  -2.174  -0.332  0.00  0.00    -0.097 F 
ATOM     12  F4  UNL d   1       0.606  -3.007   1.603  0.00  0.00    -0.092 F 
ENDROOT
TORSDOF 0
ENDMDL
