MODEL 1
REMARK minimizedAffinity -4.7286377
REMARK minimizedRMSD -1
REMARK  0 active torsions:
REMARK  status: ('A' for Active; 'I' for Inactive)
ROOT
ATOM      1  C   UNL d   1       0.762  -1.835   0.784  0.00  0.00     0.124 A 
ATOM      2  C1  UNL d   1      -0.365  -1.112   1.148  0.00  0.00     0.062 A 
ATOM      3  C2  UNL d   1      -0.437   0.253   0.883  0.00  0.00     0.162 A 
ATOM      4  C3  UNL d   1       0.622   0.903   0.249  0.00  0.00    -0.034 A 
ATOM      5  C4  UNL d   1       1.753   0.170  -0.113  0.00  0.00     0.162 A 
ATOM      6  C5  UNL d   1       1.820  -1.194   0.154  0.00  0.00     0.062 A 
ATOM      7  F   UNL d   1       2.910  -1.891  -0.198  0.00  0.00    -0.097 F 
ATOM      8  F1  UNL d   1       2.789   0.764  -0.724  0.00  0.00    -0.096 F 
ATOM      9  I   UNL d   1       0.518   2.944  -0.149  0.00  0.00    -0.060 I 
ATOM     10  F2  UNL d   1      -1.539   0.927   1.246  0.00  0.00    -0.096 F 
ATOM     11  F3  UNL d   1      -1.388  -1.728   1.758  0.00  0.00    -0.097 F 
ATOM     12  F4  UNL d   1       0.830  -3.147   1.042  0.00  0.00    -0.092 F 
ENDROOT
TORSDOF 0
ENDMDL
