MODEL 1
REMARK minimizedAffinity -0.0327968895
REMARK minimizedRMSD -1
REMARK  0 active torsions:
REMARK  status: ('A' for Active; 'I' for Inactive)
ROOT
ATOM      1  C   UNL d   1       0.881   0.751  -0.061  0.00  0.00     0.124 A 
ATOM      2  C1  UNL d   1       0.903   2.039  -0.578  0.00  0.00     0.062 A 
ATOM      3  C2  UNL d   1      -0.085   2.454  -1.465  0.00  0.00     0.162 A 
ATOM      4  C3  UNL d   1      -1.106   1.581  -1.840  0.00  0.00    -0.034 A 
ATOM      5  C4  UNL d   1      -1.122   0.287  -1.317  0.00  0.00     0.162 A 
ATOM      6  C5  UNL d   1      -0.131  -0.123  -0.430  0.00  0.00     0.062 A 
ATOM      7  F   UNL d   1      -0.155  -1.368   0.068  0.00  0.00    -0.097 F 
ATOM      8  F1  UNL d   1      -2.089  -0.578  -1.656  0.00  0.00    -0.096 F 
ATOM      9  I   UNL d   1      -2.587   2.198  -3.167  0.00  0.00    -0.060 I 
ATOM     10  F2  UNL d   1      -0.039   3.704  -1.949  0.00  0.00    -0.096 F 
ATOM     11  F3  UNL d   1       1.881   2.885  -0.223  0.00  0.00    -0.097 F 
ATOM     12  F4  UNL d   1       1.834   0.354   0.792  0.00  0.00    -0.092 F 
ENDROOT
TORSDOF 0
ENDMDL
