MODEL 1
REMARK minimizedAffinity -3.00163627
REMARK minimizedRMSD -1
REMARK  0 active torsions:
REMARK  status: ('A' for Active; 'I' for Inactive)
ROOT
ATOM      1  C   UNL d   1      -0.025  -0.709   0.454  0.00  0.00     0.124 A 
ATOM      2  C1  UNL d   1      -0.435   0.613   0.340  0.00  0.00     0.062 A 
ATOM      3  C2  UNL d   1       0.504   1.622   0.150  0.00  0.00     0.162 A 
ATOM      4  C3  UNL d   1       1.863   1.315   0.073  0.00  0.00    -0.034 A 
ATOM      5  C4  UNL d   1       2.267  -0.016   0.190  0.00  0.00     0.162 A 
ATOM      6  C5  UNL d   1       1.325  -1.022   0.379  0.00  0.00     0.062 A 
ATOM      7  F   UNL d   1       1.722  -2.298   0.489  0.00  0.00    -0.097 F 
ATOM      8  F1  UNL d   1       3.565  -0.347   0.120  0.00  0.00    -0.096 F 
ATOM      9  I   UNL d   1       3.270   2.822  -0.211  0.00  0.00    -0.060 I 
ATOM     10  F2  UNL d   1       0.080   2.890   0.043  0.00  0.00    -0.096 F 
ATOM     11  F3  UNL d   1      -1.738   0.918   0.413  0.00  0.00    -0.097 F 
ATOM     12  F4  UNL d   1      -0.931  -1.678   0.638  0.00  0.00    -0.092 F 
ENDROOT
TORSDOF 0
ENDMDL
