MODEL 1
REMARK minimizedAffinity -4.27220917
REMARK minimizedRMSD -1
REMARK  0 active torsions:
REMARK  status: ('A' for Active; 'I' for Inactive)
ROOT
ATOM      1  C   UNL d   1      -0.298  -0.178  -0.082  0.00  0.00     0.124 A 
ATOM      2  C1  UNL d   1       0.999  -0.567  -0.386  0.00  0.00     0.062 A 
ATOM      3  C2  UNL d   1       2.018   0.379  -0.446  0.00  0.00     0.162 A 
ATOM      4  C3  UNL d   1       1.744   1.725  -0.201  0.00  0.00    -0.034 A 
ATOM      5  C4  UNL d   1       0.437   2.109   0.103  0.00  0.00     0.162 A 
ATOM      6  C5  UNL d   1      -0.578   1.159   0.162  0.00  0.00     0.062 A 
ATOM      7  F   UNL d   1      -1.831   1.537   0.456  0.00  0.00    -0.097 F 
ATOM      8  F1  UNL d   1       0.139   3.394   0.345  0.00  0.00    -0.096 F 
ATOM      9  I   UNL d   1       3.265   3.143  -0.290  0.00  0.00    -0.060 I 
ATOM     10  F2  UNL d   1       3.262  -0.026  -0.742  0.00  0.00    -0.096 F 
ATOM     11  F3  UNL d   1       1.272  -1.858  -0.623  0.00  0.00    -0.097 F 
ATOM     12  F4  UNL d   1      -1.277  -1.090  -0.026  0.00  0.00    -0.092 F 
ENDROOT
TORSDOF 0
ENDMDL
