MODEL 1
REMARK minimizedAffinity -3.93576956
REMARK minimizedRMSD -1
REMARK  0 active torsions:
REMARK  status: ('A' for Active; 'I' for Inactive)
ROOT
ATOM      1  C2' OXE d   1       2.661   1.261   1.395  0.00  0.00     0.078 C 
ATOM      2  C1' OXE d   1       2.508  -1.048  -0.195  0.00  0.00     0.078 C 
ATOM      3  C1  OXE d   1       1.255  -0.226  -0.027  0.00  0.00    -0.078 A 
ATOM      4  C2  OXE d   1       1.327   0.877   0.791  0.00  0.00    -0.078 A 
ATOM      5  C3  OXE d   1       0.215   1.700   0.937  0.00  0.00     0.003 A 
ATOM      6  C4  OXE d   1      -1.017   1.333   0.383  0.00  0.00    -0.002 A 
ATOM      7  C5  OXE d   1      -1.122   0.192  -0.421  0.00  0.00    -0.002 A 
ATOM      8  C6  OXE d   1       0.012  -0.573  -0.670  0.00  0.00     0.003 A 
ENDROOT
TORSDOF 0
ENDMDL
