MODEL 1
REMARK minimizedAffinity -5.22199869
REMARK minimizedRMSD -1
REMARK  0 active torsions:
REMARK  status: ('A' for Active; 'I' for Inactive)
ROOT
ATOM      1  C2' OXE d   1       0.559   2.283   0.664  0.00  0.00     0.078 C 
ATOM      2  C1' OXE d   1      -0.694  -0.152   0.049  0.00  0.00     0.078 C 
ATOM      3  C1  OXE d   1       0.761  -0.190   0.441  0.00  0.00    -0.078 A 
ATOM      4  C2  OXE d   1       1.379   1.012   0.695  0.00  0.00    -0.078 A 
ATOM      5  C3  OXE d   1       2.706   1.029   1.113  0.00  0.00     0.003 A 
ATOM      6  C4  OXE d   1       3.460  -0.150   1.130  0.00  0.00    -0.002 A 
ATOM      7  C5  OXE d   1       2.861  -1.380   0.836  0.00  0.00    -0.002 A 
ATOM      8  C6  OXE d   1       1.505  -1.422   0.532  0.00  0.00     0.003 A 
ENDROOT
TORSDOF 0
ENDMDL
