MODEL 1
REMARK minimizedAffinity -5.46877909
REMARK minimizedRMSD -1
REMARK  0 active torsions:
REMARK  status: ('A' for Active; 'I' for Inactive)
ROOT
ATOM      1  C2' OXE d   1       1.515   1.692  -0.062  0.00  0.00     0.078 C 
ATOM      2  C1' OXE d   1      -0.646  -0.085   0.161  0.00  0.00     0.078 C 
ATOM      3  C1  OXE d   1       0.721  -0.587   0.555  0.00  0.00    -0.078 A 
ATOM      4  C2  OXE d   1       1.780   0.275   0.398  0.00  0.00    -0.078 A 
ATOM      5  C3  OXE d   1       3.054  -0.119   0.797  0.00  0.00     0.003 A 
ATOM      6  C4  OXE d   1       3.291  -1.435   1.212  0.00  0.00    -0.002 A 
ATOM      7  C5  OXE d   1       2.233  -2.341   1.341  0.00  0.00    -0.002 A 
ATOM      8  C6  OXE d   1       0.938  -1.921   1.058  0.00  0.00     0.003 A 
ENDROOT
TORSDOF 0
ENDMDL
