MODEL 1
REMARK minimizedAffinity 1.85073447
REMARK minimizedRMSD -1
REMARK  0 active torsions:
REMARK  status: ('A' for Active; 'I' for Inactive)
ROOT
ATOM      1  C2' OXE d   1       0.977  -3.020   2.403  0.00  0.00     0.078 C 
ATOM      2  C1' OXE d   1       2.472  -0.702   1.883  0.00  0.00     0.078 C 
ATOM      3  C1  OXE d   1       1.154  -0.864   1.168  0.00  0.00    -0.078 A 
ATOM      4  C2  OXE d   1       0.451  -2.023   1.393  0.00  0.00    -0.078 A 
ATOM      5  C3  OXE d   1      -0.796  -2.199   0.802  0.00  0.00     0.003 A 
ATOM      6  C4  OXE d   1      -1.271  -1.277  -0.139  0.00  0.00    -0.002 A 
ATOM      7  C5  OXE d   1      -0.553  -0.108  -0.413  0.00  0.00    -0.002 A 
ATOM      8  C6  OXE d   1       0.639   0.133   0.263  0.00  0.00     0.003 A 
ENDROOT
TORSDOF 0
ENDMDL
