MODEL 1
REMARK minimizedAffinity -6.6637888
REMARK minimizedRMSD -1
REMARK  0 active torsions:
REMARK  status: ('A' for Active; 'I' for Inactive)
ROOT
ATOM      1  C2' OXE d   1       0.972   1.907   0.235  0.00  0.00     0.078 C 
ATOM      2  C1' OXE d   1      -1.058  -0.031   0.272  0.00  0.00     0.078 C 
ATOM      3  C1  OXE d   1       0.323  -0.451   0.706  0.00  0.00    -0.078 A 
ATOM      4  C2  OXE d   1       1.321   0.491   0.640  0.00  0.00    -0.078 A 
ATOM      5  C3  OXE d   1       2.602   0.171   1.080  0.00  0.00     0.003 A 
ATOM      6  C4  OXE d   1       2.919  -1.143   1.444  0.00  0.00    -0.002 A 
ATOM      7  C5  OXE d   1       1.926  -2.129   1.480  0.00  0.00    -0.002 A 
ATOM      8  C6  OXE d   1       0.618  -1.790   1.156  0.00  0.00     0.003 A 
ENDROOT
TORSDOF 0
ENDMDL
