MODEL 1
REMARK minimizedAffinity -5.74497128
REMARK minimizedRMSD -1
REMARK  0 active torsions:
REMARK  status: ('A' for Active; 'I' for Inactive)
ROOT
ATOM      1  C2' OXE d   1       0.686   2.257  -0.176  0.00  0.00     0.078 C 
ATOM      2  C1' OXE d   1      -0.643  -0.215  -0.214  0.00  0.00     0.078 C 
ATOM      3  C1  OXE d   1       0.729  -0.163   0.410  0.00  0.00    -0.078 A 
ATOM      4  C2  OXE d   1       1.391   1.040   0.382  0.00  0.00    -0.078 A 
ATOM      5  C3  OXE d   1       2.637   1.156   0.993  0.00  0.00     0.003 A 
ATOM      6  C4  OXE d   1       3.287   0.023   1.498  0.00  0.00    -0.002 A 
ATOM      7  C5  OXE d   1       2.646  -1.220   1.501  0.00  0.00    -0.002 A 
ATOM      8  C6  OXE d   1       1.353  -1.322   1.000  0.00  0.00     0.003 A 
ENDROOT
TORSDOF 0
ENDMDL
