MODEL 1
REMARK minimizedAffinity -6.76876068
REMARK minimizedRMSD -1
REMARK  0 active torsions:
REMARK  status: ('A' for Active; 'I' for Inactive)
ROOT
ATOM      1  C2' OXE d   1      -0.751   0.008  -0.298  0.00  0.00     0.078 C 
ATOM      2  C1' OXE d   1       1.080   2.128  -0.111  0.00  0.00     0.078 C 
ATOM      3  C1  OXE d   1       1.477   0.800   0.484  0.00  0.00    -0.078 A 
ATOM      4  C2  OXE d   1       0.557  -0.218   0.430  0.00  0.00    -0.078 A 
ATOM      5  C3  OXE d   1       0.893  -1.478   0.916  0.00  0.00     0.003 A 
ATOM      6  C4  OXE d   1       2.101  -1.677   1.596  0.00  0.00    -0.002 A 
ATOM      7  C5  OXE d   1       3.036  -0.642   1.698  0.00  0.00    -0.002 A 
ATOM      8  C6  OXE d   1       2.759   0.588   1.111  0.00  0.00     0.003 A 
ENDROOT
TORSDOF 0
ENDMDL
