MODEL 1
REMARK minimizedAffinity -6.38331842
REMARK minimizedRMSD -1
REMARK  0 active torsions:
REMARK  status: ('A' for Active; 'I' for Inactive)
ROOT
ATOM      1  C2' OXE d   1      -1.154   0.379  -0.194  0.00  0.00     0.078 C 
ATOM      2  C1' OXE d   1       0.166   2.728   0.593  0.00  0.00     0.078 C 
ATOM      3  C1  OXE d   1       0.967   1.451   0.553  0.00  0.00    -0.078 A 
ATOM      4  C2  OXE d   1       0.302   0.298   0.212  0.00  0.00    -0.078 A 
ATOM      5  C3  OXE d   1       1.005  -0.898   0.106  0.00  0.00     0.003 A 
ATOM      6  C4  OXE d   1       2.349  -0.967   0.493  0.00  0.00    -0.002 A 
ATOM      7  C5  OXE d   1       3.036   0.188   0.882  0.00  0.00    -0.002 A 
ATOM      8  C6  OXE d   1       2.372   1.410   0.876  0.00  0.00     0.003 A 
ENDROOT
TORSDOF 0
ENDMDL
