MODEL 1
REMARK minimizedAffinity -0.0436233915
REMARK minimizedRMSD -1
REMARK  0 active torsions:
REMARK  status: ('A' for Active; 'I' for Inactive)
ROOT
ATOM      1  C2' OXE d   1      -0.169  -2.014  -1.445  0.00  0.00     0.078 C 
ATOM      2  C1' OXE d   1      -0.454  -1.787   1.338  0.00  0.00     0.078 C 
ATOM      3  C1  OXE d   1      -0.106  -0.541   0.562  0.00  0.00    -0.078 A 
ATOM      4  C2  OXE d   1       0.077  -0.671  -0.793  0.00  0.00    -0.078 A 
ATOM      5  C3  OXE d   1       0.345   0.457  -1.564  0.00  0.00     0.003 A 
ATOM      6  C4  OXE d   1       0.581   1.694  -0.951  0.00  0.00    -0.002 A 
ATOM      7  C5  OXE d   1       0.438   1.840   0.433  0.00  0.00    -0.002 A 
ATOM      8  C6  OXE d   1       0.054   0.744   1.197  0.00  0.00     0.003 A 
ENDROOT
TORSDOF 0
ENDMDL
