MODEL 1
REMARK minimizedAffinity 1.06233275
REMARK minimizedRMSD -1
REMARK  0 active torsions:
REMARK  status: ('A' for Active; 'I' for Inactive)
ROOT
ATOM      1  C2' OXE d   1       1.077  -3.465   0.916  0.00  0.00     0.078 C 
ATOM      2  C1' OXE d   1       2.479  -1.385  -0.344  0.00  0.00     0.078 C 
ATOM      3  C1  OXE d   1       1.024  -1.157  -0.018  0.00  0.00    -0.078 A 
ATOM      4  C2  OXE d   1       0.334  -2.197   0.556  0.00  0.00    -0.078 A 
ATOM      5  C3  OXE d   1      -0.996  -2.021   0.927  0.00  0.00     0.003 A 
ATOM      6  C4  OXE d   1      -1.679  -0.849   0.581  0.00  0.00    -0.002 A 
ATOM      7  C5  OXE d   1      -1.005   0.208  -0.040  0.00  0.00    -0.002 A 
ATOM      8  C6  OXE d   1       0.354   0.087  -0.307  0.00  0.00     0.003 A 
ENDROOT
TORSDOF 0
ENDMDL
