MODEL 1
REMARK minimizedAffinity -2.93560266
REMARK minimizedRMSD -1
REMARK  1 active torsions:
REMARK  status: ('A' for Active; 'I' for Inactive)
REMARK    1  A    between atoms: C1_2  and  C2_3 
ROOT
ATOM      1  C2  UNL d   1       0.489  -1.218  -0.706  0.00  0.00    -0.081 A 
ATOM      2  C3  UNL d   1       0.210  -1.073   0.659  0.00  0.00     0.006 A 
ATOM      3  C4  UNL d   1      -0.055   0.189   1.197  0.00  0.00     0.002 A 
ATOM      4  C5  UNL d   1      -0.054   1.324   0.380  0.00  0.00    -0.080 A 
ATOM      5  C6  UNL d   1      -0.367   2.680   0.939  0.00  0.00     0.076 C 
ATOM      6  C7  UNL d   1       0.241   1.181  -0.980  0.00  0.00     0.002 A 
ATOM      7  C8  UNL d   1       0.507  -0.079  -1.519  0.00  0.00     0.006 A 
ENDROOT
BRANCH   1   8
ATOM      8  C1  UNL d   1       0.711  -2.584  -1.301  0.00  0.00     0.054 C 
ATOM      9  C   UNL d   1      -0.606  -3.317  -1.513  0.00  0.00     0.018 C 
ENDBRANCH   1   8
TORSDOF 1
ENDMDL
