MODEL 1
REMARK minimizedAffinity -2.40899515
REMARK minimizedRMSD -1
REMARK  1 active torsions:
REMARK  status: ('A' for Active; 'I' for Inactive)
REMARK    1  A    between atoms: C1_2  and  C2_3 
ROOT
ATOM      1  C2  UNL d   1       0.141   2.036  -0.172  0.00  0.00    -0.081 A 
ATOM      2  C3  UNL d   1       0.602   0.721  -0.304  0.00  0.00     0.006 A 
ATOM      3  C4  UNL d   1       0.722  -0.103   0.818  0.00  0.00     0.002 A 
ATOM      4  C5  UNL d   1       0.376   0.371   2.088  0.00  0.00    -0.080 A 
ATOM      5  C6  UNL d   1       0.471  -0.512   3.296  0.00  0.00     0.076 C 
ATOM      6  C7  UNL d   1      -0.068   1.691   2.222  0.00  0.00     0.002 A 
ATOM      7  C8  UNL d   1      -0.187   2.516   1.101  0.00  0.00     0.006 A 
ENDROOT
BRANCH   1   8
ATOM      8  C1  UNL d   1      -0.051   2.907  -1.388  0.00  0.00     0.054 C 
ATOM      9  C   UNL d   1       0.099   4.381  -1.042  0.00  0.00     0.018 C 
ENDBRANCH   1   8
TORSDOF 1
ENDMDL
