MODEL 1
REMARK minimizedAffinity -1.74056017
REMARK minimizedRMSD -1
REMARK  1 active torsions:
REMARK  status: ('A' for Active; 'I' for Inactive)
REMARK    1  A    between atoms: C1_2  and  C2_3 
ROOT
ATOM      1  C2  UNL d   1      -0.562  -1.351  -1.106  0.00  0.00    -0.081 A 
ATOM      2  C3  UNL d   1       0.583  -1.475  -0.309  0.00  0.00     0.006 A 
ATOM      3  C4  UNL d   1       0.850  -0.544   0.698  0.00  0.00     0.002 A 
ATOM      4  C5  UNL d   1      -0.027   0.521   0.930  0.00  0.00    -0.080 A 
ATOM      5  C6  UNL d   1       0.232   1.510   2.027  0.00  0.00     0.076 C 
ATOM      6  C7  UNL d   1      -1.161   0.656   0.122  0.00  0.00     0.002 A 
ATOM      7  C8  UNL d   1      -1.428  -0.275  -0.885  0.00  0.00     0.006 A 
ENDROOT
BRANCH   1   8
ATOM      8  C1  UNL d   1      -0.886  -2.389  -2.149  0.00  0.00     0.054 C 
ATOM      9  C   UNL d   1      -0.805  -3.796  -1.573  0.00  0.00     0.018 C 
ENDBRANCH   1   8
TORSDOF 1
ENDMDL
