MODEL 1
REMARK minimizedAffinity -0.231294245
REMARK minimizedRMSD -1
REMARK  1 active torsions:
REMARK  status: ('A' for Active; 'I' for Inactive)
REMARK    1  A    between atoms: C1_2  and  C2_3 
ROOT
ATOM      1  C2  UNL d   1       0.752  -1.521  -0.694  0.00  0.00    -0.081 A 
ATOM      2  C3  UNL d   1       0.526  -1.621   0.685  0.00  0.00     0.006 A 
ATOM      3  C4  UNL d   1       0.137  -0.500   1.422  0.00  0.00     0.002 A 
ATOM      4  C5  UNL d   1      -0.040   0.737   0.792  0.00  0.00    -0.080 A 
ATOM      5  C6  UNL d   1      -0.486   1.941   1.566  0.00  0.00     0.076 C 
ATOM      6  C7  UNL d   1       0.203   0.841  -0.582  0.00  0.00     0.002 A 
ATOM      7  C8  UNL d   1       0.593  -0.280  -1.319  0.00  0.00     0.006 A 
ENDROOT
BRANCH   1   8
ATOM      8  C1  UNL d   1       1.108  -2.742  -1.502  0.00  0.00     0.054 C 
ATOM      9  C   UNL d   1      -0.124  -3.582  -1.809  0.00  0.00     0.018 C 
ENDBRANCH   1   8
TORSDOF 1
ENDMDL
