MODEL 1
REMARK minimizedAffinity -3.86647439
REMARK minimizedRMSD -1
REMARK  1 active torsions:
REMARK  status: ('A' for Active; 'I' for Inactive)
REMARK    1  A    between atoms: C1_2  and  C2_3 
ROOT
ATOM      1  C2  UNL d   1      -0.428   1.857  -0.361  0.00  0.00    -0.081 A 
ATOM      2  C3  UNL d   1      -0.394   2.363   0.944  0.00  0.00     0.006 A 
ATOM      3  C4  UNL d   1      -0.169   1.512   2.028  0.00  0.00     0.002 A 
ATOM      4  C5  UNL d   1       0.034   0.142   1.825  0.00  0.00    -0.080 A 
ATOM      5  C6  UNL d   1       0.307  -0.778   2.977  0.00  0.00     0.076 C 
ATOM      6  C7  UNL d   1      -0.017  -0.366   0.522  0.00  0.00     0.002 A 
ATOM      7  C8  UNL d   1      -0.243   0.485  -0.562  0.00  0.00     0.006 A 
ENDROOT
BRANCH   1   8
ATOM      8  C1  UNL d   1      -0.607   2.783  -1.538  0.00  0.00     0.054 C 
ATOM      9  C   UNL d   1      -0.356   4.231  -1.145  0.00  0.00     0.018 C 
ENDBRANCH   1   8
TORSDOF 1
ENDMDL
