MODEL 1
REMARK minimizedAffinity -1.7613517
REMARK minimizedRMSD -1
REMARK  1 active torsions:
REMARK  status: ('A' for Active; 'I' for Inactive)
REMARK    1  A    between atoms: C1_2  and  C2_3 
ROOT
ATOM      1  C2  UNL d   1      -0.170  -1.718  -0.496  0.00  0.00    -0.081 A 
ATOM      2  C3  UNL d   1       0.922  -0.842  -0.526  0.00  0.00     0.006 A 
ATOM      3  C4  UNL d   1       1.015   0.206   0.392  0.00  0.00     0.002 A 
ATOM      4  C5  UNL d   1       0.022   0.392   1.360  0.00  0.00    -0.080 A 
ATOM      5  C6  UNL d   1       0.125   1.495   2.371  0.00  0.00     0.076 C 
ATOM      6  C7  UNL d   1      -1.078  -0.472   1.379  0.00  0.00     0.002 A 
ATOM      7  C8  UNL d   1      -1.171  -1.520   0.461  0.00  0.00     0.006 A 
ENDROOT
BRANCH   1   8
ATOM      8  C1  UNL d   1      -0.240  -2.888  -1.443  0.00  0.00     0.054 C 
ATOM      9  C   UNL d   1      -1.260  -3.917  -0.977  0.00  0.00     0.018 C 
ENDBRANCH   1   8
TORSDOF 1
ENDMDL
