MODEL 1
REMARK minimizedAffinity -5.61570883
REMARK minimizedRMSD -1
REMARK  1 active torsions:
REMARK  status: ('A' for Active; 'I' for Inactive)
REMARK    1  A    between atoms: C1_2  and  C2_3 
ROOT
ATOM      1  C2  UNL d   1      -0.002  -1.904  -0.194  0.00  0.00    -0.081 A 
ATOM      2  C3  UNL d   1       0.752  -0.774  -0.532  0.00  0.00     0.006 A 
ATOM      3  C4  UNL d   1       0.680   0.385   0.246  0.00  0.00     0.002 A 
ATOM      4  C5  UNL d   1      -0.141   0.429   1.378  0.00  0.00    -0.080 A 
ATOM      5  C6  UNL d   1      -0.204   1.656   2.239  0.00  0.00     0.076 C 
ATOM      6  C7  UNL d   1      -0.908  -0.694   1.706  0.00  0.00     0.002 A 
ATOM      7  C8  UNL d   1      -0.837  -1.852   0.928  0.00  0.00     0.006 A 
ENDROOT
BRANCH   1   8
ATOM      8  C1  UNL d   1       0.122  -3.176  -0.993  0.00  0.00     0.054 C 
ATOM      9  C   UNL d   1       0.288  -4.386  -0.085  0.00  0.00     0.018 C 
ENDBRANCH   1   8
TORSDOF 1
ENDMDL
