MODEL 1
REMARK minimizedAffinity 2.79015303
REMARK minimizedRMSD -1
REMARK  1 active torsions:
REMARK  status: ('A' for Active; 'I' for Inactive)
REMARK    1  A    between atoms: C1_2  and  C2_3 
ROOT
ATOM      1  C2  UNL d   1       2.085   3.474   3.418  0.00  0.00    -0.081 A 
ATOM      2  C3  UNL d   1       2.755   4.378   2.584  0.00  0.00     0.006 A 
ATOM      3  C4  UNL d   1       2.247   4.686   1.320  0.00  0.00     0.002 A 
ATOM      4  C5  UNL d   1       1.057   4.102   0.872  0.00  0.00    -0.080 A 
ATOM      5  C6  UNL d   1       0.484   4.447  -0.471  0.00  0.00     0.076 C 
ATOM      6  C7  UNL d   1       0.397   3.186   1.698  0.00  0.00     0.002 A 
ATOM      7  C8  UNL d   1       0.905   2.877   2.961  0.00  0.00     0.006 A 
ENDROOT
BRANCH   1   8
ATOM      8  C1  UNL d   1       2.596   3.189   4.807  0.00  0.00     0.054 C 
ATOM      9  C   UNL d   1       2.845   4.477   5.580  0.00  0.00     0.018 C 
ENDBRANCH   1   8
TORSDOF 1
ENDMDL
