MODEL 1
REMARK minimizedAffinity -1.42317736
REMARK minimizedRMSD -1
REMARK  2 active torsions:
REMARK  status: ('A' for Active; 'I' for Inactive)
REMARK    1  A    between atoms: C1_2  and  C2_3 
REMARK    2  A    between atoms: C2_3  and  C3_4 
ROOT
ATOM      1  C3  UNL d   1      -0.334  -0.148   0.047  0.00  0.00    -0.075 A 
ATOM      2  C4  UNL d   1      -1.453   0.203  -0.723  0.00  0.00     0.002 A 
ATOM      3  C5  UNL d   1      -2.660   0.534  -0.107  0.00  0.00     0.002 A 
ATOM      4  C6  UNL d   1      -2.768   0.509   1.281  0.00  0.00    -0.004 A 
ATOM      5  C7  UNL d   1      -1.668   0.145   2.055  0.00  0.00     0.002 A 
ATOM      6  C8  UNL d   1      -0.457  -0.183   1.442  0.00  0.00     0.002 A 
ENDROOT
BRANCH   1   7
ATOM      7  C2  UNL d   1       0.983  -0.479  -0.612  0.00  0.00     0.056 C 
BRANCH   7   8
ATOM      8  C1  UNL d   1       1.798  -1.548   0.125  0.00  0.00     0.007 C 
ATOM      9  C   UNL d   1       2.878  -0.963   1.026  0.00  0.00     0.009 C 
ENDBRANCH   7   8
ENDBRANCH   1   7
TORSDOF 2
ENDMDL
