MODEL 1
REMARK minimizedAffinity 1.64935839
REMARK minimizedRMSD -1
REMARK  2 active torsions:
REMARK  status: ('A' for Active; 'I' for Inactive)
REMARK    1  A    between atoms: C1_2  and  C2_3 
REMARK    2  A    between atoms: C2_3  and  C3_4 
ROOT
ATOM      1  C3  UNL d   1      -0.190  -0.031  -0.663  0.00  0.00    -0.075 A 
ATOM      2  C4  UNL d   1      -1.418   0.632  -0.800  0.00  0.00     0.002 A 
ATOM      3  C5  UNL d   1      -2.208   0.899   0.319  0.00  0.00     0.002 A 
ATOM      4  C6  UNL d   1      -1.786   0.499   1.585  0.00  0.00    -0.004 A 
ATOM      5  C7  UNL d   1      -0.576  -0.175   1.731  0.00  0.00     0.002 A 
ATOM      6  C8  UNL d   1       0.219  -0.440   0.614  0.00  0.00     0.002 A 
ENDROOT
BRANCH   1   7
ATOM      7  C2  UNL d   1       0.683  -0.297  -1.866  0.00  0.00     0.056 C 
BRANCH   7   8
ATOM      8  C1  UNL d   1      -0.096  -0.492  -3.171  0.00  0.00     0.007 C 
ATOM      9  C   UNL d   1       0.548   0.202  -4.364  0.00  0.00     0.009 C 
ENDBRANCH   7   8
ENDBRANCH   1   7
TORSDOF 2
ENDMDL
