MODEL 1
REMARK minimizedAffinity 3.24311709
REMARK minimizedRMSD -1
REMARK  2 active torsions:
REMARK  status: ('A' for Active; 'I' for Inactive)
REMARK    1  A    between atoms: C1_2  and  C2_3 
REMARK    2  A    between atoms: C2_3  and  C3_4 
ROOT
ATOM      1  C3  UNL d   1       0.724   1.179  -1.414  0.00  0.00    -0.075 A 
ATOM      2  C4  UNL d   1       0.121   1.016  -2.669  0.00  0.00     0.002 A 
ATOM      3  C5  UNL d   1       0.776   1.430  -3.829  0.00  0.00     0.002 A 
ATOM      4  C6  UNL d   1       2.036   2.021  -3.748  0.00  0.00    -0.004 A 
ATOM      5  C7  UNL d   1       2.637   2.203  -2.504  0.00  0.00     0.002 A 
ATOM      6  C8  UNL d   1       1.985   1.785  -1.343  0.00  0.00     0.002 A 
ENDROOT
BRANCH   1   7
ATOM      7  C2  UNL d   1       0.032   0.706  -0.157  0.00  0.00     0.056 C 
BRANCH   7   8
ATOM      8  C1  UNL d   1      -0.825  -0.549  -0.352  0.00  0.00     0.007 C 
ATOM      9  C   UNL d   1      -2.145  -0.498   0.405  0.00  0.00     0.009 C 
ENDBRANCH   7   8
ENDBRANCH   1   7
TORSDOF 2
ENDMDL
