MODEL 1
REMARK minimizedAffinity -3.97357297
REMARK minimizedRMSD -1
REMARK  2 active torsions:
REMARK  status: ('A' for Active; 'I' for Inactive)
REMARK    1  A    between atoms: C1_2  and  C2_3 
REMARK    2  A    between atoms: C2_3  and  C3_4 
ROOT
ATOM      1  C3  UNL d   1       0.193  -0.588  -0.350  0.00  0.00    -0.075 A 
ATOM      2  C4  UNL d   1      -0.857   0.084   0.293  0.00  0.00     0.002 A 
ATOM      3  C5  UNL d   1      -0.777   0.386   1.653  0.00  0.00     0.002 A 
ATOM      4  C6  UNL d   1       0.345   0.012   2.388  0.00  0.00    -0.004 A 
ATOM      5  C7  UNL d   1       1.387  -0.671   1.763  0.00  0.00     0.002 A 
ATOM      6  C8  UNL d   1       1.312  -0.971   0.402  0.00  0.00     0.002 A 
ENDROOT
BRANCH   1   7
ATOM      7  C2  UNL d   1       0.125  -0.892  -1.827  0.00  0.00     0.056 C 
BRANCH   7   8
ATOM      8  C1  UNL d   1       1.070  -0.041  -2.683  0.00  0.00     0.007 C 
ATOM      9  C   UNL d   1       0.709  -0.046  -4.162  0.00  0.00     0.009 C 
ENDBRANCH   7   8
ENDBRANCH   1   7
TORSDOF 2
ENDMDL
