MODEL 1
REMARK minimizedAffinity -5.76790905
REMARK minimizedRMSD -1
REMARK  2 active torsions:
REMARK  status: ('A' for Active; 'I' for Inactive)
REMARK    1  A    between atoms: C1_2  and  C2_3 
REMARK    2  A    between atoms: C2_3  and  C3_4 
ROOT
ATOM      1  C3  UNL d   1       0.293  -0.256   0.352  0.00  0.00    -0.075 A 
ATOM      2  C4  UNL d   1       1.215  -0.074   1.393  0.00  0.00     0.002 A 
ATOM      3  C5  UNL d   1       0.836   0.568   2.572  0.00  0.00     0.002 A 
ATOM      4  C6  UNL d   1      -0.465   1.043   2.722  0.00  0.00    -0.004 A 
ATOM      5  C7  UNL d   1      -1.385   0.883   1.689  0.00  0.00     0.002 A 
ATOM      6  C8  UNL d   1      -1.009   0.238   0.509  0.00  0.00     0.002 A 
ENDROOT
BRANCH   1   7
ATOM      7  C2  UNL d   1       0.689  -0.975  -0.915  0.00  0.00     0.056 C 
BRANCH   7   8
ATOM      8  C1  UNL d   1       0.867  -0.053  -2.126  0.00  0.00     0.007 C 
ATOM      9  C   UNL d   1       0.550  -0.734  -3.451  0.00  0.00     0.009 C 
ENDBRANCH   7   8
ENDBRANCH   1   7
TORSDOF 2
ENDMDL
