MODEL 1
REMARK minimizedAffinity -2.05507827
REMARK minimizedRMSD -1
REMARK  2 active torsions:
REMARK  status: ('A' for Active; 'I' for Inactive)
REMARK    1  A    between atoms: C1_2  and  C2_3 
REMARK    2  A    between atoms: C2_3  and  C3_4 
ROOT
ATOM      1  C3  UNL d   1      -0.412   0.359   1.026  0.00  0.00    -0.075 A 
ATOM      2  C4  UNL d   1      -1.178   0.297   2.200  0.00  0.00     0.002 A 
ATOM      3  C5  UNL d   1      -0.612   0.625   3.432  0.00  0.00     0.002 A 
ATOM      4  C6  UNL d   1       0.724   1.009   3.509  0.00  0.00    -0.004 A 
ATOM      5  C7  UNL d   1       1.499   1.059   2.352  0.00  0.00     0.002 A 
ATOM      6  C8  UNL d   1       0.934   0.735   1.116  0.00  0.00     0.002 A 
ENDROOT
BRANCH   1   7
ATOM      7  C2  UNL d   1      -1.026   0.033  -0.314  0.00  0.00     0.056 C 
BRANCH   7   8
ATOM      8  C1  UNL d   1      -1.785  -1.297  -0.346  0.00  0.00     0.007 C 
ATOM      9  C   UNL d   1      -3.294  -1.125  -0.467  0.00  0.00     0.009 C 
ENDBRANCH   7   8
ENDBRANCH   1   7
TORSDOF 2
ENDMDL
