MODEL 1
REMARK minimizedAffinity 2.115587
REMARK minimizedRMSD -1
REMARK  0 active torsions:
REMARK  status: ('A' for Active; 'I' for Inactive)
ROOT
ATOM      1  C   UNL d   1      -3.696   1.476   2.030  0.00  0.00    -0.002 A 
ATOM      2  C1  UNL d   1      -4.206   0.413   1.298  0.00  0.00     0.010 A 
ATOM      3  C2  UNL d   1      -3.361  -0.391   0.531  0.00  0.00     0.041 A 
ATOM      4  C3  UNL d   1      -1.981  -0.108   0.513  0.00  0.00    -0.075 A 
ATOM      5  S   UNL d   1      -0.756  -0.958  -0.353  0.00  0.00     0.015 SA
ATOM      6  C4  UNL d   1       0.473   0.070   0.229  0.00  0.00     0.022 A 
ATOM      7  C5  UNL d   1      -0.021   1.043   1.065  0.00  0.00     0.026 A 
ATOM      8  C6  UNL d   1      -1.444   0.956   1.243  0.00  0.00    -0.082 A 
ATOM      9  C7  UNL d   1      -2.327   1.754   2.010  0.00  0.00     0.045 A 
ENDROOT
TORSDOF 0
ENDMDL
