MODEL 1
REMARK minimizedAffinity 4.4181962
REMARK minimizedRMSD -1
REMARK  0 active torsions:
REMARK  status: ('A' for Active; 'I' for Inactive)
ROOT
ATOM      1  C   UNL d   1      -1.198  -1.620  -3.829  0.00  0.00    -0.002 A 
ATOM      2  C1  UNL d   1      -1.351  -0.308  -4.252  0.00  0.00     0.010 A 
ATOM      3  C2  UNL d   1      -1.033   0.754  -3.403  0.00  0.00     0.041 A 
ATOM      4  C3  UNL d   1      -0.554   0.471  -2.108  0.00  0.00    -0.075 A 
ATOM      5  S   UNL d   1      -0.101   1.610  -0.896  0.00  0.00     0.015 SA
ATOM      6  C4  UNL d   1       0.306   0.381   0.212  0.00  0.00     0.022 A 
ATOM      7  C5  UNL d   1       0.107  -0.874  -0.313  0.00  0.00     0.026 A 
ATOM      8  C6  UNL d   1      -0.391  -0.842  -1.660  0.00  0.00    -0.082 A 
ATOM      9  C7  UNL d   1      -0.723  -1.897  -2.544  0.00  0.00     0.045 A 
ENDROOT
TORSDOF 0
ENDMDL
