MODEL 1
REMARK minimizedAffinity -0.786626399
REMARK minimizedRMSD -1
REMARK  0 active torsions:
REMARK  status: ('A' for Active; 'I' for Inactive)
ROOT
ATOM      1  C   UNL d   1       2.601  -0.381   1.370  0.00  0.00    -0.002 A 
ATOM      2  C1  UNL d   1       2.843  -1.307   0.365  0.00  0.00     0.010 A 
ATOM      3  C2  UNL d   1       1.934  -1.475  -0.681  0.00  0.00     0.041 A 
ATOM      4  C3  UNL d   1       0.765  -0.688  -0.701  0.00  0.00    -0.075 A 
ATOM      5  S   UNL d   1      -0.490  -0.721  -1.883  0.00  0.00     0.015 SA
ATOM      6  C4  UNL d   1      -1.377   0.494  -1.082  0.00  0.00     0.022 A 
ATOM      7  C5  UNL d   1      -0.746   0.925   0.061  0.00  0.00     0.026 A 
ATOM      8  C6  UNL d   1       0.499   0.251   0.299  0.00  0.00    -0.082 A 
ATOM      9  C7  UNL d   1       1.441   0.398   1.346  0.00  0.00     0.045 A 
ENDROOT
TORSDOF 0
ENDMDL
