MODEL 1
REMARK minimizedAffinity 0.0837454051
REMARK minimizedRMSD -1
REMARK  0 active torsions:
REMARK  status: ('A' for Active; 'I' for Inactive)
ROOT
ATOM      1  C   UNL d   1       2.376  -1.102   1.387  0.00  0.00    -0.002 A 
ATOM      2  C1  UNL d   1       2.763  -1.827   0.269  0.00  0.00     0.010 A 
ATOM      3  C2  UNL d   1       1.935  -1.898  -0.853  0.00  0.00     0.041 A 
ATOM      4  C3  UNL d   1       0.701  -1.220  -0.834  0.00  0.00    -0.075 A 
ATOM      5  S   UNL d   1      -0.475  -1.165  -2.093  0.00  0.00     0.015 SA
ATOM      6  C4  UNL d   1      -1.519  -0.177  -1.177  0.00  0.00     0.022 A 
ATOM      7  C5  UNL d   1      -0.999   0.113   0.062  0.00  0.00     0.026 A 
ATOM      8  C6  UNL d   1       0.289  -0.483   0.280  0.00  0.00    -0.082 A 
ATOM      9  C7  UNL d   1       1.150  -0.430   1.403  0.00  0.00     0.045 A 
ENDROOT
TORSDOF 0
ENDMDL
