MODEL 1
REMARK minimizedAffinity 2.08160758
REMARK minimizedRMSD -1
REMARK  0 active torsions:
REMARK  status: ('A' for Active; 'I' for Inactive)
ROOT
ATOM      1  C   UNL d   1       3.030  -0.232   1.571  0.00  0.00    -0.002 A 
ATOM      2  C1  UNL d   1       3.280  -1.136   0.548  0.00  0.00     0.010 A 
ATOM      3  C2  UNL d   1       2.309  -1.399  -0.421  0.00  0.00     0.041 A 
ATOM      4  C3  UNL d   1       1.071  -0.731  -0.344  0.00  0.00    -0.075 A 
ATOM      5  S   UNL d   1      -0.266  -0.894  -1.419  0.00  0.00     0.015 SA
ATOM      6  C4  UNL d   1      -1.201   0.233  -0.547  0.00  0.00     0.022 A 
ATOM      7  C5  UNL d   1      -0.525   0.731   0.542  0.00  0.00     0.026 A 
ATOM      8  C6  UNL d   1       0.796   0.184   0.676  0.00  0.00    -0.082 A 
ATOM      9  C7  UNL d   1       1.801   0.429   1.643  0.00  0.00     0.045 A 
ENDROOT
TORSDOF 0
ENDMDL
