MODEL 1
REMARK minimizedAffinity -1.82887554
REMARK minimizedRMSD -1
REMARK  0 active torsions:
REMARK  status: ('A' for Active; 'I' for Inactive)
ROOT
ATOM      1  C   UNL d   1       0.833   0.024   0.280  0.00  0.00    -0.002 A 
ATOM      2  C1  UNL d   1       1.218   1.223  -0.302  0.00  0.00     0.010 A 
ATOM      3  C2  UNL d   1       0.352   2.318  -0.314  0.00  0.00     0.041 A 
ATOM      4  C3  UNL d   1      -0.921   2.186   0.275  0.00  0.00    -0.075 A 
ATOM      5  S   UNL d   1      -2.148   3.393   0.379  0.00  0.00     0.015 SA
ATOM      6  C4  UNL d   1      -3.213   2.345   1.199  0.00  0.00     0.022 A 
ATOM      7  C5  UNL d   1      -2.662   1.101   1.397  0.00  0.00     0.026 A 
ATOM      8  C6  UNL d   1      -1.332   0.989   0.868  0.00  0.00    -0.082 A 
ATOM      9  C7  UNL d   1      -0.431  -0.103   0.864  0.00  0.00     0.045 A 
ENDROOT
TORSDOF 0
ENDMDL
