MODEL 1
REMARK minimizedAffinity 7.02311277
REMARK minimizedRMSD -1
REMARK  0 active torsions:
REMARK  status: ('A' for Active; 'I' for Inactive)
ROOT
ATOM      1  C   UNL d   1       0.625   0.465   1.298  0.00  0.00    -0.002 A 
ATOM      2  C1  UNL d   1      -0.420   0.082   0.469  0.00  0.00     0.010 A 
ATOM      3  C2  UNL d   1      -0.179  -0.705  -0.659  0.00  0.00     0.041 A 
ATOM      4  C3  UNL d   1       1.142  -1.106  -0.941  0.00  0.00    -0.075 A 
ATOM      5  S   UNL d   1       1.674  -2.071  -2.267  0.00  0.00     0.015 SA
ATOM      6  C4  UNL d   1       3.300  -1.999  -1.762  0.00  0.00     0.022 A 
ATOM      7  C5  UNL d   1       3.452  -1.260  -0.613  0.00  0.00     0.026 A 
ATOM      8  C6  UNL d   1       2.210  -0.733  -0.121  0.00  0.00    -0.082 A 
ATOM      9  C7  UNL d   1       1.933   0.065   1.015  0.00  0.00     0.045 A 
ENDROOT
TORSDOF 0
ENDMDL
