MODEL 1
REMARK minimizedAffinity -2.09112191
REMARK minimizedRMSD -1
REMARK  2 active torsions:
REMARK  status: ('A' for Active; 'I' for Inactive)
REMARK    1  A    between atoms: C2'_3  and  C1'_4 
REMARK    2  A    between atoms: C1'_4  and  C1_5 
ROOT
ATOM      1  C1  I4B d   1       0.480  -0.462   3.913  0.00  0.00    -0.075 A 
ATOM      2  C2  I4B d   1       0.753  -0.854   2.627  0.00  0.00     0.003 A 
ATOM      3  C3  I4B d   1       0.120  -0.211   1.536  0.00  0.00     0.002 A 
ATOM      4  C4  I4B d   1      -0.811   0.778   1.777  0.00  0.00    -0.004 A 
ATOM      5  C5  I4B d   1      -1.070   1.190   3.081  0.00  0.00     0.002 A 
ATOM      6  C6  I4B d   1      -0.412   0.575   4.156  0.00  0.00     0.003 A 
ENDROOT
BRANCH   1   7
ATOM      7  C1' I4B d   1       1.142  -1.185   5.043  0.00  0.00     0.060 C 
BRANCH   7   8
ATOM      8  C2' I4B d   1       2.608  -1.349   4.697  0.00  0.00    -0.013 C 
ATOM      9  C4' I4B d   1       3.486  -0.659   5.707  0.00  0.00     0.013 C 
ATOM     10  C3' I4B d   1       2.907  -2.817   4.633  0.00  0.00     0.013 C 
ENDBRANCH   7   8
ENDBRANCH   1   7
TORSDOF 2
ENDMDL
