MODEL 1
REMARK minimizedAffinity 7.5200696
REMARK minimizedRMSD -1
REMARK  2 active torsions:
REMARK  status: ('A' for Active; 'I' for Inactive)
REMARK    1  A    between atoms: C2'_3  and  C1'_4 
REMARK    2  A    between atoms: C1'_4  and  C1_5 
ROOT
ATOM      1  C1  I4B d   1       1.165   3.327   1.189  0.00  0.00    -0.075 A 
ATOM      2  C2  I4B d   1       2.437   3.349   0.673  0.00  0.00     0.003 A 
ATOM      3  C3  I4B d   1       2.984   2.188   0.076  0.00  0.00     0.002 A 
ATOM      4  C4  I4B d   1       2.249   1.020   0.062  0.00  0.00    -0.004 A 
ATOM      5  C5  I4B d   1       0.951   1.006   0.565  0.00  0.00     0.002 A 
ATOM      6  C6  I4B d   1       0.400   2.170   1.121  0.00  0.00     0.003 A 
ENDROOT
BRANCH   1   7
ATOM      7  C1' I4B d   1       0.630   4.562   1.842  0.00  0.00     0.060 C 
BRANCH   7   8
ATOM      8  C2' I4B d   1      -0.507   5.086   0.989  0.00  0.00    -0.013 C 
ATOM      9  C4' I4B d   1      -1.530   5.807   1.827  0.00  0.00     0.013 C 
ATOM     10  C3' I4B d   1       0.076   5.994  -0.053  0.00  0.00     0.013 C 
ENDBRANCH   7   8
ENDBRANCH   1   7
TORSDOF 2
ENDMDL
