MODEL 1
REMARK minimizedAffinity 3.15118003
REMARK minimizedRMSD -1
REMARK  2 active torsions:
REMARK  status: ('A' for Active; 'I' for Inactive)
REMARK    1  A    between atoms: C2'_3  and  C1'_4 
REMARK    2  A    between atoms: C1'_4  and  C1_5 
ROOT
ATOM      1  C1  I4B d   1      -0.853  -0.150   0.440  0.00  0.00    -0.075 A 
ATOM      2  C2  I4B d   1       0.149  -0.995   0.033  0.00  0.00     0.003 A 
ATOM      3  C3  I4B d   1       1.499  -0.704   0.348  0.00  0.00     0.002 A 
ATOM      4  C4  I4B d   1       1.803   0.460   1.023  0.00  0.00    -0.004 A 
ATOM      5  C5  I4B d   1       0.784   1.304   1.455  0.00  0.00     0.002 A 
ATOM      6  C6  I4B d   1      -0.554   0.991   1.172  0.00  0.00     0.003 A 
ENDROOT
BRANCH   1   7
ATOM      7  C1' I4B d   1      -2.264  -0.471   0.061  0.00  0.00     0.060 C 
BRANCH   7   8
ATOM      8  C2' I4B d   1      -3.181   0.393   0.903  0.00  0.00    -0.013 C 
ATOM      9  C4' I4B d   1      -4.386   0.838   0.117  0.00  0.00     0.013 C 
ATOM     10  C3' I4B d   1      -3.585  -0.401   2.110  0.00  0.00     0.013 C 
ENDBRANCH   7   8
ENDBRANCH   1   7
TORSDOF 2
ENDMDL
