MODEL 1
REMARK minimizedAffinity 3.12614322
REMARK minimizedRMSD -1
REMARK  2 active torsions:
REMARK  status: ('A' for Active; 'I' for Inactive)
REMARK    1  A    between atoms: C2'_3  and  C1'_4 
REMARK    2  A    between atoms: C1'_4  and  C1_5 
ROOT
ATOM      1  C1  I4B d   1      -1.093  -0.001   0.709  0.00  0.00    -0.075 A 
ATOM      2  C2  I4B d   1       0.237  -0.329   0.796  0.00  0.00     0.003 A 
ATOM      3  C3  I4B d   1       1.012   0.119   1.894  0.00  0.00     0.002 A 
ATOM      4  C4  I4B d   1       0.433   0.928   2.849  0.00  0.00    -0.004 A 
ATOM      5  C5  I4B d   1      -0.922   1.241   2.772  0.00  0.00     0.002 A 
ATOM      6  C6  I4B d   1      -1.692   0.763   1.702  0.00  0.00     0.003 A 
ENDROOT
BRANCH   1   7
ATOM      7  C1' I4B d   1      -1.873  -0.462  -0.480  0.00  0.00     0.060 C 
BRANCH   7   8
ATOM      8  C2' I4B d   1      -3.332  -0.540  -0.080  0.00  0.00    -0.013 C 
ATOM      9  C4' I4B d   1      -4.093   0.670  -0.555  0.00  0.00     0.013 C 
ATOM     10  C3' I4B d   1      -3.904  -1.800  -0.657  0.00  0.00     0.013 C 
ENDBRANCH   7   8
ENDBRANCH   1   7
TORSDOF 2
ENDMDL
