MODEL 1
REMARK minimizedAffinity 1.66977942
REMARK minimizedRMSD -1
REMARK  2 active torsions:
REMARK  status: ('A' for Active; 'I' for Inactive)
REMARK    1  A    between atoms: C2'_3  and  C1'_4 
REMARK    2  A    between atoms: C1'_4  and  C1_5 
ROOT
ATOM      1  C1  I4B d   1      -1.246  -0.657   0.009  0.00  0.00    -0.075 A 
ATOM      2  C2  I4B d   1       0.010  -1.164  -0.217  0.00  0.00     0.003 A 
ATOM      3  C3  I4B d   1       1.007  -1.070   0.784  0.00  0.00     0.002 A 
ATOM      4  C4  I4B d   1       0.722  -0.421   1.968  0.00  0.00    -0.004 A 
ATOM      5  C5  I4B d   1      -0.558   0.072   2.204  0.00  0.00     0.002 A 
ATOM      6  C6  I4B d   1      -1.552  -0.057   1.223  0.00  0.00     0.003 A 
ENDROOT
BRANCH   1   7
ATOM      7  C1' I4B d   1      -2.265  -0.744  -1.083  0.00  0.00     0.060 C 
BRANCH   7   8
ATOM      8  C2' I4B d   1      -3.630  -0.873  -0.437  0.00  0.00    -0.013 C 
ATOM      9  C4' I4B d   1      -4.383   0.430  -0.491  0.00  0.00     0.013 C 
ATOM     10  C3' I4B d   1      -4.378  -1.960  -1.149  0.00  0.00     0.013 C 
ENDBRANCH   7   8
ENDBRANCH   1   7
TORSDOF 2
ENDMDL
