MODEL 1
REMARK minimizedAffinity -4.05059671
REMARK minimizedRMSD -1
REMARK  3 active torsions:
REMARK  status: ('A' for Active; 'I' for Inactive)
REMARK    1  A    between atoms: C3'_2  and  C2'_3 
REMARK    2  A    between atoms: C2'_3  and  C1'_4 
REMARK    3  A    between atoms: C1'_4  and  C1_5 
ROOT
ATOM      1  C1  N4B d   1       0.359   0.060  -0.122  0.00  0.00    -0.075 A 
ATOM      2  C2  N4B d   1       1.504   0.851  -0.365  0.00  0.00     0.002 A 
ATOM      3  C3  N4B d   1       2.113   0.818  -1.595  0.00  0.00     0.002 A 
ATOM      4  C4  N4B d   1       1.609  -0.009  -2.588  0.00  0.00    -0.004 A 
ATOM      5  C5  N4B d   1       0.488  -0.751  -2.353  0.00  0.00     0.002 A 
ATOM      6  C6  N4B d   1      -0.136  -0.725  -1.123  0.00  0.00     0.002 A 
ENDROOT
BRANCH   1   7
ATOM      7  C1' N4B d   1      -0.290  -0.003   1.234  0.00  0.00     0.057 C 
BRANCH   7   8
ATOM      8  C2' N4B d   1      -1.759  -0.382   1.068  0.00  0.00     0.009 C 
BRANCH   8   9
ATOM      9  C3' N4B d   1      -2.681   0.594   1.778  0.00  0.00     0.004 C 
ATOM     10  C4' N4B d   1      -4.125   0.198   1.691  0.00  0.00     0.003 C 
ENDBRANCH   8   9
ENDBRANCH   7   8
ENDBRANCH   1   7
TORSDOF 3
ENDMDL
