MODEL 1
REMARK minimizedAffinity -4.14647198
REMARK minimizedRMSD -1
REMARK  3 active torsions:
REMARK  status: ('A' for Active; 'I' for Inactive)
REMARK    1  A    between atoms: C3'_2  and  C2'_3 
REMARK    2  A    between atoms: C2'_3  and  C1'_4 
REMARK    3  A    between atoms: C1'_4  and  C1_5 
ROOT
ATOM      1  C1  N4B d   1       0.279  -0.026  -0.754  0.00  0.00    -0.075 A 
ATOM      2  C2  N4B d   1       0.379  -1.433  -0.830  0.00  0.00     0.002 A 
ATOM      3  C3  N4B d   1       1.239  -2.013  -1.730  0.00  0.00     0.002 A 
ATOM      4  C4  N4B d   1       1.992  -1.210  -2.574  0.00  0.00    -0.004 A 
ATOM      5  C5  N4B d   1       1.909   0.148  -2.477  0.00  0.00     0.002 A 
ATOM      6  C6  N4B d   1       1.052   0.745  -1.574  0.00  0.00     0.002 A 
ENDROOT
BRANCH   1   7
ATOM      7  C1' N4B d   1      -0.710   0.652   0.154  0.00  0.00     0.057 C 
BRANCH   7   8
ATOM      8  C2' N4B d   1      -0.905  -0.198   1.405  0.00  0.00     0.009 C 
BRANCH   8   9
ATOM      9  C3' N4B d   1      -2.182   0.163   2.144  0.00  0.00     0.004 C 
ATOM     10  C4' N4B d   1      -3.418  -0.289   1.424  0.00  0.00     0.003 C 
ENDBRANCH   8   9
ENDBRANCH   7   8
ENDBRANCH   1   7
TORSDOF 3
ENDMDL
