MODEL 1
REMARK minimizedAffinity -3.70492458
REMARK minimizedRMSD -1
REMARK  3 active torsions:
REMARK  status: ('A' for Active; 'I' for Inactive)
REMARK    1  A    between atoms: C3'_2  and  C2'_3 
REMARK    2  A    between atoms: C2'_3  and  C1'_4 
REMARK    3  A    between atoms: C1'_4  and  C1_5 
ROOT
ATOM      1  C1  N4B d   1      -1.127  -0.290   1.059  0.00  0.00    -0.075 A 
ATOM      2  C2  N4B d   1      -1.009   0.618   2.134  0.00  0.00     0.002 A 
ATOM      3  C3  N4B d   1      -2.133   1.052   2.794  0.00  0.00     0.002 A 
ATOM      4  C4  N4B d   1      -3.382   0.607   2.386  0.00  0.00    -0.004 A 
ATOM      5  C5  N4B d   1      -3.485  -0.289   1.363  0.00  0.00     0.002 A 
ATOM      6  C6  N4B d   1      -2.364  -0.737   0.694  0.00  0.00     0.002 A 
ENDROOT
BRANCH   1   7
ATOM      7  C1' N4B d   1       0.066  -0.725   0.253  0.00  0.00     0.057 C 
BRANCH   7   8
ATOM      8  C2' N4B d   1       0.952   0.485  -0.024  0.00  0.00     0.009 C 
BRANCH   8   9
ATOM      9  C3' N4B d   1       0.993   0.833  -1.503  0.00  0.00     0.004 C 
ATOM     10  C4' N4B d   1       2.304   0.490  -2.144  0.00  0.00     0.003 C 
ENDBRANCH   8   9
ENDBRANCH   7   8
ENDBRANCH   1   7
TORSDOF 3
ENDMDL
