MODEL 1
REMARK minimizedAffinity -3.6655395
REMARK minimizedRMSD -1
REMARK  3 active torsions:
REMARK  status: ('A' for Active; 'I' for Inactive)
REMARK    1  A    between atoms: C3'_2  and  C2'_3 
REMARK    2  A    between atoms: C2'_3  and  C1'_4 
REMARK    3  A    between atoms: C1'_4  and  C1_5 
ROOT
ATOM      1  C1  N4B d   1       0.298  -0.138   0.032  0.00  0.00    -0.075 A 
ATOM      2  C2  N4B d   1       1.273   0.851   0.287  0.00  0.00     0.002 A 
ATOM      3  C3  N4B d   1       2.156   1.214  -0.700  0.00  0.00     0.002 A 
ATOM      4  C4  N4B d   1       2.096   0.592  -1.938  0.00  0.00    -0.004 A 
ATOM      5  C5  N4B d   1       1.134  -0.344  -2.184  0.00  0.00     0.002 A 
ATOM      6  C6  N4B d   1       0.237  -0.716  -1.203  0.00  0.00     0.002 A 
ENDROOT
BRANCH   1   7
ATOM      7  C1' N4B d   1      -0.634  -0.630   1.106  0.00  0.00     0.057 C 
BRANCH   7   8
ATOM      8  C2' N4B d   1      -1.612   0.483   1.469  0.00  0.00     0.009 C 
BRANCH   8   9
ATOM      9  C3' N4B d   1      -3.037   0.141   1.070  0.00  0.00     0.004 C 
ATOM     10  C4' N4B d   1      -3.922   1.348   0.980  0.00  0.00     0.003 C 
ENDBRANCH   8   9
ENDBRANCH   7   8
ENDBRANCH   1   7
TORSDOF 3
ENDMDL
