MODEL 1
REMARK minimizedAffinity -5.7790637
REMARK minimizedRMSD -1
REMARK  3 active torsions:
REMARK  status: ('A' for Active; 'I' for Inactive)
REMARK    1  A    between atoms: C3'_2  and  C2'_3 
REMARK    2  A    between atoms: C2'_3  and  C1'_4 
REMARK    3  A    between atoms: C1'_4  and  C1_5 
ROOT
ATOM      1  C1  N4B d   1      -0.010  -0.130   0.090  0.00  0.00    -0.075 A 
ATOM      2  C2  N4B d   1       0.635   1.112   0.283  0.00  0.00     0.002 A 
ATOM      3  C3  N4B d   1       1.417   1.642  -0.713  0.00  0.00     0.002 A 
ATOM      4  C4  N4B d   1       1.583   0.943  -1.900  0.00  0.00    -0.004 A 
ATOM      5  C5  N4B d   1       0.936  -0.243  -2.089  0.00  0.00     0.002 A 
ATOM      6  C6  N4B d   1       0.144  -0.786  -1.097  0.00  0.00     0.002 A 
ENDROOT
BRANCH   1   7
ATOM      7  C1' N4B d   1      -0.805  -0.791   1.182  0.00  0.00     0.057 C 
BRANCH   7   8
ATOM      8  C2' N4B d   1      -1.715   0.245   1.836  0.00  0.00     0.009 C 
BRANCH   8   9
ATOM      9  C3' N4B d   1      -3.171   0.044   1.456  0.00  0.00     0.004 C 
ATOM     10  C4' N4B d   1      -3.957   1.321   1.469  0.00  0.00     0.003 C 
ENDBRANCH   8   9
ENDBRANCH   7   8
ENDBRANCH   1   7
TORSDOF 3
ENDMDL
