MODEL 1
REMARK minimizedAffinity 2.94113469
REMARK minimizedRMSD -1
REMARK  1 active torsions:
REMARK  status: ('A' for Active; 'I' for Inactive)
REMARK    1  A    between atoms: C3_4  and  O_7 
ROOT
ATOM      1  C   UNL d   1      -5.654   3.831  -1.895  0.00  0.00    -0.033 A 
ATOM      2  C1  UNL d   1      -5.999   2.648  -2.552  0.00  0.00     0.039 A 
ATOM      3  C2  UNL d   1      -5.999   1.436  -1.858  0.00  0.00    -0.080 A 
ATOM      4  C3  UNL d   1      -5.654   1.421  -0.509  0.00  0.00     0.150 A 
ATOM      5  C4  UNL d   1      -5.313   2.596   0.152  0.00  0.00    -0.007 A 
ATOM      6  C5  UNL d   1      -5.313   3.805  -0.542  0.00  0.00     0.039 A 
ENDROOT
BRANCH   4   7
ATOM      7  O   UNL d   1      -5.635   0.262   0.208  0.00  0.00    -0.526 OA
ATOM      8  H5  UNL d   1      -5.864  -0.472  -0.386  0.00  0.00     0.418 HD
ENDBRANCH   4   7
TORSDOF 1
ENDMDL
