MODEL 1
REMARK minimizedAffinity 13.1486311
REMARK minimizedRMSD -1
REMARK  1 active torsions:
REMARK  status: ('A' for Active; 'I' for Inactive)
REMARK    1  A    between atoms: C3_4  and  O_7 
ROOT
ATOM      1  C   UNL d   1       1.882   2.635   1.196  0.00  0.00    -0.033 A 
ATOM      2  C1  UNL d   1       1.525   1.307   1.435  0.00  0.00     0.039 A 
ATOM      3  C2  UNL d   1       0.607   0.667   0.599  0.00  0.00    -0.080 A 
ATOM      4  C3  UNL d   1       0.056   1.366  -0.472  0.00  0.00     0.150 A 
ATOM      5  C4  UNL d   1       0.410   2.688  -0.718  0.00  0.00    -0.007 A 
ATOM      6  C5  UNL d   1       1.326   3.326   0.118  0.00  0.00     0.039 A 
ENDROOT
BRANCH   4   7
ATOM      7  O   UNL d   1      -0.847   0.785  -1.312  0.00  0.00    -0.526 OA
ATOM      8  H5  UNL d   1      -1.017  -0.120  -1.003  0.00  0.00     0.418 HD
ENDBRANCH   4   7
TORSDOF 1
ENDMDL
