MODEL 1
REMARK minimizedAffinity 4.74407864
REMARK minimizedRMSD -1
REMARK  1 active torsions:
REMARK  status: ('A' for Active; 'I' for Inactive)
REMARK    1  A    between atoms: C3_4  and  O_7 
ROOT
ATOM      1  C   UNL d   1       1.395  -2.649  -0.104  0.00  0.00    -0.033 A 
ATOM      2  C1  UNL d   1       1.618  -1.649  -1.052  0.00  0.00     0.039 A 
ATOM      3  C2  UNL d   1       2.258  -0.465  -0.683  0.00  0.00    -0.080 A 
ATOM      4  C3  UNL d   1       2.670  -0.293   0.636  0.00  0.00     0.150 A 
ATOM      5  C4  UNL d   1       2.454  -1.287   1.585  0.00  0.00    -0.007 A 
ATOM      6  C5  UNL d   1       1.814  -2.469   1.214  0.00  0.00     0.039 A 
ENDROOT
BRANCH   4   7
ATOM      7  O   UNL d   1       3.294   0.848   1.045  0.00  0.00    -0.526 OA
ATOM      8  H5  UNL d   1       3.349   1.456   0.289  0.00  0.00     0.418 HD
ENDBRANCH   4   7
TORSDOF 1
ENDMDL
