MODEL 1
REMARK minimizedAffinity 6.08563185
REMARK minimizedRMSD -1
REMARK  1 active torsions:
REMARK  status: ('A' for Active; 'I' for Inactive)
REMARK    1  A    between atoms: C3_4  and  O_7 
ROOT
ATOM      1  C   UNL d   1       1.530  -0.079  -0.042  0.00  0.00    -0.033 A 
ATOM      2  C1  UNL d   1       2.357  -1.077  -0.561  0.00  0.00     0.039 A 
ATOM      3  C2  UNL d   1       3.522  -1.442   0.116  0.00  0.00    -0.080 A 
ATOM      4  C3  UNL d   1       3.849  -0.803   1.309  0.00  0.00     0.150 A 
ATOM      5  C4  UNL d   1       3.027   0.189   1.833  0.00  0.00    -0.007 A 
ATOM      6  C5  UNL d   1       1.865   0.553   1.155  0.00  0.00     0.039 A 
ENDROOT
BRANCH   4   7
ATOM      7  O   UNL d   1       4.978  -1.122   2.002  0.00  0.00    -0.526 OA
ATOM      8  H5  UNL d   1       5.462  -1.803   1.506  0.00  0.00     0.418 HD
ENDBRANCH   4   7
TORSDOF 1
ENDMDL
