MODEL 1
REMARK minimizedAffinity 0.584138632
REMARK minimizedRMSD -1
REMARK  1 active torsions:
REMARK  status: ('A' for Active; 'I' for Inactive)
REMARK    1  A    between atoms: C3_4  and  O_7 
ROOT
ATOM      1  C   UNL d   1       3.485   0.454  -0.911  0.00  0.00    -0.033 A 
ATOM      2  C1  UNL d   1       3.830  -0.793  -1.435  0.00  0.00     0.039 A 
ATOM      3  C2  UNL d   1       3.107  -1.930  -1.070  0.00  0.00    -0.080 A 
ATOM      4  C3  UNL d   1       2.042  -1.807  -0.183  0.00  0.00     0.150 A 
ATOM      5  C4  UNL d   1       1.689  -0.567   0.341  0.00  0.00    -0.007 A 
ATOM      6  C5  UNL d   1       2.413   0.567  -0.024  0.00  0.00     0.039 A 
ENDROOT
BRANCH   4   7
ATOM      7  O   UNL d   1       1.309  -2.889   0.206  0.00  0.00    -0.526 OA
ATOM      8  H5  UNL d   1       1.685  -3.682  -0.213  0.00  0.00     0.418 HD
ENDBRANCH   4   7
TORSDOF 1
ENDMDL
