MODEL 1
REMARK minimizedAffinity -4.92756987
REMARK minimizedRMSD -1
REMARK  2 active torsions:
REMARK  status: ('A' for Active; 'I' for Inactive)
REMARK    1  A    between atoms: C2'_3  and  C1'_4 
REMARK    2  A    between atoms: C1'_4  and  C1_5 
ROOT
ATOM      1  C1  I4B d   1       0.054   0.136   0.145  0.00  0.00    -0.075 A 
ATOM      2  C2  I4B d   1      -0.866   1.146   0.010  0.00  0.00     0.003 A 
ATOM      3  C3  I4B d   1      -1.183   1.974   1.114  0.00  0.00     0.002 A 
ATOM      4  C4  I4B d   1      -0.597   1.726   2.339  0.00  0.00    -0.004 A 
ATOM      5  C5  I4B d   1       0.352   0.716   2.468  0.00  0.00     0.002 A 
ATOM      6  C6  I4B d   1       0.689  -0.076   1.361  0.00  0.00     0.003 A 
ENDROOT
BRANCH   1   7
ATOM      7  C1' I4B d   1       0.340  -0.740  -1.034  0.00  0.00     0.060 C 
BRANCH   7   8
ATOM      8  C2' I4B d   1       0.109  -2.177  -0.614  0.00  0.00    -0.013 C 
ATOM      9  C4' I4B d   1      -1.039  -2.789  -1.374  0.00  0.00     0.013 C 
ATOM     10  C3' I4B d   1       1.380  -2.938  -0.847  0.00  0.00     0.013 C 
ENDBRANCH   7   8
ENDBRANCH   1   7
TORSDOF 2
ENDMDL
