MODEL 1
REMARK minimizedAffinity -4.93995094
REMARK minimizedRMSD -1
REMARK  2 active torsions:
REMARK  status: ('A' for Active; 'I' for Inactive)
REMARK    1  A    between atoms: C2'_3  and  C1'_4 
REMARK    2  A    between atoms: C1'_4  and  C1_5 
ROOT
ATOM      1  C1  I4B d   1      -0.094   0.011   0.473  0.00  0.00    -0.075 A 
ATOM      2  C2  I4B d   1      -1.028   1.003   0.305  0.00  0.00     0.003 A 
ATOM      3  C3  I4B d   1      -1.204   1.609  -0.962  0.00  0.00     0.002 A 
ATOM      4  C4  I4B d   1      -0.397   1.230  -2.015  0.00  0.00    -0.004 A 
ATOM      5  C5  I4B d   1       0.534   0.208  -1.849  0.00  0.00     0.002 A 
ATOM      6  C6  I4B d   1       0.677  -0.414  -0.600  0.00  0.00     0.003 A 
ENDROOT
BRANCH   1   7
ATOM      7  C1' I4B d   1       0.088  -0.584   1.833  0.00  0.00     0.060 C 
BRANCH   7   8
ATOM      8  C2' I4B d   1       1.331   0.028   2.448  0.00  0.00    -0.013 C 
ATOM      9  C4' I4B d   1       1.095   1.463   2.838  0.00  0.00     0.013 C 
ATOM     10  C3' I4B d   1       1.716  -0.801   3.637  0.00  0.00     0.013 C 
ENDBRANCH   7   8
ENDBRANCH   1   7
TORSDOF 2
ENDMDL
