MODEL 1
REMARK minimizedAffinity 1.95807397
REMARK minimizedRMSD -1
REMARK  1 active torsions:
REMARK  status: ('A' for Active; 'I' for Inactive)
REMARK    1  A    between atoms: C1_2  and  C2_3 
ROOT
ATOM      1  C2  UNL d   1       2.105   0.549   0.884  0.00  0.00    -0.073 A 
ATOM      2  C3  UNL d   1       3.094  -0.231   1.493  0.00  0.00    -0.002 A 
ATOM      3  C4  UNL d   1       3.204  -1.590   1.195  0.00  0.00     0.004 A 
ATOM      4  C5  UNL d   1       2.332  -2.181   0.281  0.00  0.00    -0.004 A 
ATOM      5  C6  UNL d   1       1.344  -1.415  -0.348  0.00  0.00    -0.075 A 
ATOM      6  C7  UNL d   1       0.397  -2.036  -1.332  0.00  0.00     0.076 C 
ATOM      7  C8  UNL d   1       1.239  -0.052  -0.041  0.00  0.00     0.001 A 
ENDROOT
BRANCH   1   8
ATOM      8  C1  UNL d   1       1.987   2.018   1.198  0.00  0.00     0.053 C 
ATOM      9  C   UNL d   1       0.935   2.702   0.339  0.00  0.00     0.018 C 
ENDBRANCH   1   8
TORSDOF 1
ENDMDL
