MODEL 1
REMARK minimizedAffinity 9.98227978
REMARK minimizedRMSD -1
REMARK  1 active torsions:
REMARK  status: ('A' for Active; 'I' for Inactive)
REMARK    1  A    between atoms: C1_2  and  C2_3 
ROOT
ATOM      1  C2  UNL d   1      -2.117   1.950   2.787  0.00  0.00    -0.073 A 
ATOM      2  C3  UNL d   1      -1.162   1.215   3.499  0.00  0.00    -0.002 A 
ATOM      3  C4  UNL d   1       0.191   1.543   3.407  0.00  0.00     0.004 A 
ATOM      4  C5  UNL d   1       0.603   2.610   2.609  0.00  0.00    -0.004 A 
ATOM      5  C6  UNL d   1      -0.338   3.363   1.899  0.00  0.00    -0.075 A 
ATOM      6  C7  UNL d   1       0.089   4.513   1.035  0.00  0.00     0.076 C 
ATOM      7  C8  UNL d   1      -1.695   3.027   1.995  0.00  0.00     0.001 A 
ENDROOT
BRANCH   1   8
ATOM      8  C1  UNL d   1      -3.580   1.605   2.889  0.00  0.00     0.053 C 
ATOM      9  C   UNL d   1      -4.470   2.807   2.614  0.00  0.00     0.018 C 
ENDBRANCH   1   8
TORSDOF 1
ENDMDL
