MODEL 1
REMARK minimizedAffinity 1.67142892
REMARK minimizedRMSD -1
REMARK  1 active torsions:
REMARK  status: ('A' for Active; 'I' for Inactive)
REMARK    1  A    between atoms: C1_2  and  C2_3 
ROOT
ATOM      1  C2  UNL d   1       0.979  -2.025  -0.975  0.00  0.00    -0.073 A 
ATOM      2  C3  UNL d   1       2.000  -2.809  -0.426  0.00  0.00    -0.002 A 
ATOM      3  C4  UNL d   1       3.004  -2.220   0.344  0.00  0.00     0.004 A 
ATOM      4  C5  UNL d   1       2.994  -0.845   0.578  0.00  0.00    -0.004 A 
ATOM      5  C6  UNL d   1       1.976  -0.047   0.048  0.00  0.00    -0.075 A 
ATOM      6  C7  UNL d   1       1.952   1.434   0.289  0.00  0.00     0.076 C 
ATOM      7  C8  UNL d   1       0.972  -0.645  -0.727  0.00  0.00     0.001 A 
ENDROOT
BRANCH   1   8
ATOM      8  C1  UNL d   1      -0.111  -2.657  -1.802  0.00  0.00     0.053 C 
ATOM      9  C   UNL d   1      -0.817  -3.777  -1.054  0.00  0.00     0.018 C 
ENDBRANCH   1   8
TORSDOF 1
ENDMDL
