MODEL 1
REMARK minimizedAffinity -1.56463838
REMARK minimizedRMSD -1
REMARK  1 active torsions:
REMARK  status: ('A' for Active; 'I' for Inactive)
REMARK    1  A    between atoms: C1_2  and  C2_3 
ROOT
ATOM      1  C2  UNL d   1       1.430  -1.323  -0.170  0.00  0.00    -0.073 A 
ATOM      2  C3  UNL d   1       1.940  -2.299   0.693  0.00  0.00    -0.002 A 
ATOM      3  C4  UNL d   1       1.310  -3.539   0.806  0.00  0.00     0.004 A 
ATOM      4  C5  UNL d   1       0.169  -3.818   0.054  0.00  0.00    -0.004 A 
ATOM      5  C6  UNL d   1      -0.349  -2.860  -0.823  0.00  0.00    -0.075 A 
ATOM      6  C7  UNL d   1      -1.576  -3.144  -1.638  0.00  0.00     0.076 C 
ATOM      7  C8  UNL d   1       0.288  -1.616  -0.930  0.00  0.00     0.001 A 
ENDROOT
BRANCH   1   8
ATOM      8  C1  UNL d   1       2.111   0.015  -0.301  0.00  0.00     0.053 C 
ATOM      9  C   UNL d   1       1.394   1.099   0.489  0.00  0.00     0.018 C 
ENDBRANCH   1   8
TORSDOF 1
ENDMDL
