MODEL 1
REMARK minimizedAffinity -2.84931612
REMARK minimizedRMSD -1
REMARK  0 active torsions:
REMARK  status: ('A' for Active; 'I' for Inactive)
ROOT
ATOM      1  C4' PXY d   1      -1.909  -1.820  -2.473  0.00  0.00     0.077 C 
ATOM      2  C1' PXY d   1       0.059   1.253   2.010  0.00  0.00     0.077 C 
ATOM      3  C1  PXY d   1      -0.446   0.441   0.834  0.00  0.00    -0.082 A 
ATOM      4  C2  PXY d   1      -1.430   0.914   0.087  0.00  0.00     0.003 A 
ATOM      5  C3  PXY d   1      -1.920   0.178  -0.962  0.00  0.00     0.003 A 
ATOM      6  C4  PXY d   1      -1.361  -1.031  -1.281  0.00  0.00    -0.082 A 
ATOM      7  C5  PXY d   1      -0.349  -1.515  -0.530  0.00  0.00     0.003 A 
ATOM      8  C6  PXY d   1       0.106  -0.771   0.554  0.00  0.00     0.003 A 
ENDROOT
TORSDOF 0
ENDMDL
