MODEL 1
REMARK minimizedAffinity -4.18433428
REMARK minimizedRMSD -1
REMARK  0 active torsions:
REMARK  status: ('A' for Active; 'I' for Inactive)
ROOT
ATOM      1  C4' PXY d   1       3.747   0.191  -0.083  0.00  0.00     0.077 C 
ATOM      2  C1' PXY d   1      -1.637   1.103   1.813  0.00  0.00     0.077 C 
ATOM      3  C1  PXY d   1      -0.228   0.852   1.312  0.00  0.00    -0.082 A 
ATOM      4  C2  PXY d   1       0.783   1.522   1.840  0.00  0.00     0.003 A 
ATOM      5  C3  PXY d   1       2.059   1.330   1.376  0.00  0.00     0.003 A 
ATOM      6  C4  PXY d   1       2.310   0.405   0.398  0.00  0.00    -0.082 A 
ATOM      7  C5  PXY d   1       1.285  -0.290  -0.138  0.00  0.00     0.003 A 
ATOM      8  C6  PXY d   1      -0.009  -0.051   0.318  0.00  0.00     0.003 A 
ENDROOT
TORSDOF 0
ENDMDL
