MODEL 1
REMARK minimizedAffinity -4.45810032
REMARK minimizedRMSD -1
REMARK  0 active torsions:
REMARK  status: ('A' for Active; 'I' for Inactive)
ROOT
ATOM      1  C4' PXY d   1       0.392   1.553   1.628  0.00  0.00     0.077 C 
ATOM      2  C1' PXY d   1      -2.237  -1.621  -2.426  0.00  0.00     0.077 C 
ATOM      3  C1  PXY d   1      -1.545  -0.799  -1.356  0.00  0.00    -0.082 A 
ATOM      4  C2  PXY d   1      -1.895   0.463  -1.172  0.00  0.00     0.003 A 
ATOM      5  C3  PXY d   1      -1.257   1.230  -0.231  0.00  0.00     0.003 A 
ATOM      6  C4  PXY d   1      -0.287   0.683   0.566  0.00  0.00    -0.082 A 
ATOM      7  C5  PXY d   1       0.069  -0.607   0.391  0.00  0.00     0.003 A 
ATOM      8  C6  PXY d   1      -0.563  -1.357  -0.597  0.00  0.00     0.003 A 
ENDROOT
TORSDOF 0
ENDMDL
