MODEL 1
REMARK minimizedAffinity -3.57088637
REMARK minimizedRMSD -1
REMARK  0 active torsions:
REMARK  status: ('A' for Active; 'I' for Inactive)
ROOT
ATOM      1  C4' PXY d   1      -2.021  -1.767  -2.438  0.00  0.00     0.077 C 
ATOM      2  C1' PXY d   1       0.512   1.411   1.672  0.00  0.00     0.077 C 
ATOM      3  C1  PXY d   1      -0.143   0.569   0.596  0.00  0.00    -0.082 A 
ATOM      4  C2  PXY d   1      -0.933   1.145  -0.296  0.00  0.00     0.003 A 
ATOM      5  C3  PXY d   1      -1.559   0.394  -1.257  0.00  0.00     0.003 A 
ATOM      6  C4  PXY d   1      -1.332  -0.954  -1.339  0.00  0.00    -0.082 A 
ATOM      7  C5  PXY d   1      -0.518  -1.548  -0.440  0.00  0.00     0.003 A 
ATOM      8  C6  PXY d   1       0.075  -0.774   0.553  0.00  0.00     0.003 A 
ENDROOT
TORSDOF 0
ENDMDL
