MODEL 1
REMARK minimizedAffinity -3.15926862
REMARK minimizedRMSD -1
REMARK  0 active torsions:
REMARK  status: ('A' for Active; 'I' for Inactive)
ROOT
ATOM      1  C4' PXY d   1      -1.862  -2.079  -1.801  0.00  0.00     0.077 C 
ATOM      2  C1' PXY d   1       1.271   1.151   1.828  0.00  0.00     0.077 C 
ATOM      3  C1  PXY d   1       0.455   0.310   0.866  0.00  0.00    -0.082 A 
ATOM      4  C2  PXY d   1      -0.714  -0.176   1.251  0.00  0.00     0.003 A 
ATOM      5  C3  PXY d   1      -1.450  -0.965   0.405  0.00  0.00     0.003 A 
ATOM      6  C4  PXY d   1      -1.009  -1.217  -0.866  0.00  0.00    -0.082 A 
ATOM      7  C5  PXY d   1       0.178  -0.716  -1.271  0.00  0.00     0.003 A 
ATOM      8  C6  PXY d   1       0.929   0.049  -0.383  0.00  0.00     0.003 A 
ENDROOT
TORSDOF 0
ENDMDL
