MODEL 1
REMARK minimizedAffinity 1.96706319
REMARK minimizedRMSD -1
REMARK  0 active torsions:
REMARK  status: ('A' for Active; 'I' for Inactive)
ROOT
ATOM      1  C4' PXY d   1      -0.904  -0.150  -3.003  0.00  0.00     0.077 C 
ATOM      2  C1' PXY d   1       0.784   1.232   2.350  0.00  0.00     0.077 C 
ATOM      3  C1  PXY d   1       0.354   0.869   0.942  0.00  0.00    -0.082 A 
ATOM      4  C2  PXY d   1      -0.858   1.196   0.524  0.00  0.00     0.003 A 
ATOM      5  C3  PXY d   1      -1.275   0.848  -0.735  0.00  0.00     0.003 A 
ATOM      6  C4  PXY d   1      -0.424   0.204  -1.593  0.00  0.00    -0.082 A 
ATOM      7  C5  PXY d   1       0.818  -0.124  -1.178  0.00  0.00     0.003 A 
ATOM      8  C6  PXY d   1       1.208   0.203   0.118  0.00  0.00     0.003 A 
ENDROOT
TORSDOF 0
ENDMDL
