MODEL 1
REMARK minimizedAffinity -2.00658751
REMARK minimizedRMSD -1
REMARK  0 active torsions:
REMARK  status: ('A' for Active; 'I' for Inactive)
ROOT
ATOM      1  C4' PXY d   1      -3.843  -2.126  -2.100  0.00  0.00     0.077 C 
ATOM      2  C1' PXY d   1       1.818  -1.400  -1.183  0.00  0.00     0.077 C 
ATOM      3  C1  PXY d   1       0.335  -1.586  -1.435  0.00  0.00    -0.082 A 
ATOM      4  C2  PXY d   1      -0.503  -1.625  -0.412  0.00  0.00     0.003 A 
ATOM      5  C3  PXY d   1      -1.844  -1.824  -0.620  0.00  0.00     0.003 A 
ATOM      6  C4  PXY d   1      -2.338  -1.931  -1.892  0.00  0.00    -0.082 A 
ATOM      7  C5  PXY d   1      -1.491  -1.882  -2.942  0.00  0.00     0.003 A 
ATOM      8  C6  PXY d   1      -0.129  -1.721  -2.707  0.00  0.00     0.003 A 
ENDROOT
TORSDOF 0
ENDMDL
