MODEL 1
REMARK minimizedAffinity -0.589424849
REMARK minimizedRMSD -1
REMARK  0 active torsions:
REMARK  status: ('A' for Active; 'I' for Inactive)
ROOT
ATOM      1  C4' PXY d   1      -2.143  -2.237  -2.977  0.00  0.00     0.077 C 
ATOM      2  C1' PXY d   1       0.095   0.737   1.445  0.00  0.00     0.077 C 
ATOM      3  C1  PXY d   1      -0.480  -0.049   0.284  0.00  0.00    -0.082 A 
ATOM      4  C2  PXY d   1      -1.489   0.453  -0.410  0.00  0.00     0.003 A 
ATOM      5  C3  PXY d   1      -2.042  -0.259  -1.443  0.00  0.00     0.003 A 
ATOM      6  C4  PXY d   1      -1.524  -1.474  -1.803  0.00  0.00    -0.082 A 
ATOM      7  C5  PXY d   1      -0.488  -1.988  -1.106  0.00  0.00     0.003 A 
ATOM      8  C6  PXY d   1       0.033  -1.268  -0.035  0.00  0.00     0.003 A 
ENDROOT
TORSDOF 0
ENDMDL
