MODEL 1
REMARK minimizedAffinity -2.28806424
REMARK minimizedRMSD -1
REMARK  0 active torsions:
REMARK  status: ('A' for Active; 'I' for Inactive)
ROOT
ATOM      1  C4' PXY d   1       0.732   2.008   2.227  0.00  0.00     0.077 C 
ATOM      2  C1' PXY d   1      -1.601  -1.339  -1.868  0.00  0.00     0.077 C 
ATOM      3  C1  PXY d   1      -0.996  -0.451  -0.799  0.00  0.00    -0.082 A 
ATOM      4  C2  PXY d   1       0.158  -0.787  -0.245  0.00  0.00     0.003 A 
ATOM      5  C3  PXY d   1       0.704  -0.013   0.746  0.00  0.00     0.003 A 
ATOM      6  C4  PXY d   1       0.088   1.146   1.137  0.00  0.00    -0.082 A 
ATOM      7  C5  PXY d   1      -1.084   1.502   0.570  0.00  0.00     0.003 A 
ATOM      8  C6  PXY d   1      -1.642   0.680  -0.405  0.00  0.00     0.003 A 
ENDROOT
TORSDOF 0
ENDMDL
