MODEL 1
REMARK minimizedAffinity -2.01769447
REMARK minimizedRMSD -1
REMARK  0 active torsions:
REMARK  status: ('A' for Active; 'I' for Inactive)
ROOT
ATOM      1  C4' PXY d   1      -2.015  -1.984  -1.720  0.00  0.00     0.077 C 
ATOM      2  C1' PXY d   1       0.725   1.458   2.031  0.00  0.00     0.077 C 
ATOM      3  C1  PXY d   1       0.016   0.557   1.039  0.00  0.00    -0.082 A 
ATOM      4  C2  PXY d   1      -1.300   0.434   1.091  0.00  0.00     0.003 A 
ATOM      5  C3  PXY d   1      -1.954  -0.401   0.222  0.00  0.00     0.003 A 
ATOM      6  C4  PXY d   1      -1.258  -1.077  -0.744  0.00  0.00    -0.082 A 
ATOM      7  C5  PXY d   1       0.084  -0.949  -0.811  0.00  0.00     0.003 A 
ATOM      8  C6  PXY d   1       0.733  -0.128   0.107  0.00  0.00     0.003 A 
ENDROOT
TORSDOF 0
ENDMDL
