MODEL 1
REMARK minimizedAffinity -0.579328239
REMARK minimizedRMSD -1
REMARK  0 active torsions:
REMARK  status: ('A' for Active; 'I' for Inactive)
ROOT
ATOM      1  C4' PXY d   1      -2.217  -1.281  -2.302  0.00  0.00     0.077 C 
ATOM      2  C1' PXY d   1       0.174   1.575   2.119  0.00  0.00     0.077 C 
ATOM      3  C1  PXY d   1      -0.441   0.822   0.955  0.00  0.00    -0.082 A 
ATOM      4  C2  PXY d   1      -1.653   1.146   0.535  0.00  0.00     0.003 A 
ATOM      5  C3  PXY d   1      -2.237   0.455  -0.496  0.00  0.00     0.003 A 
ATOM      6  C4  PXY d   1      -1.552  -0.542  -1.137  0.00  0.00    -0.082 A 
ATOM      7  C5  PXY d   1      -0.311  -0.871  -0.721  0.00  0.00     0.003 A 
ATOM      8  C6  PXY d   1       0.248  -0.185   0.353  0.00  0.00     0.003 A 
ENDROOT
TORSDOF 0
ENDMDL
