MODEL 1
REMARK minimizedAffinity -2.54444957
REMARK minimizedRMSD -1
REMARK  0 active torsions:
REMARK  status: ('A' for Active; 'I' for Inactive)
ROOT
ATOM      1  C4' PXY d   1      -1.756  -1.875  -1.514  0.00  0.00     0.077 C 
ATOM      2  C1' PXY d   1       1.373   1.500   1.983  0.00  0.00     0.077 C 
ATOM      3  C1  PXY d   1       0.562   0.615   1.057  0.00  0.00    -0.082 A 
ATOM      4  C2  PXY d   1      -0.754   0.569   1.184  0.00  0.00     0.003 A 
ATOM      5  C3  PXY d   1      -1.500  -0.250   0.375  0.00  0.00     0.003 A 
ATOM      6  C4  PXY d   1      -0.898  -0.989  -0.608  0.00  0.00    -0.082 A 
ATOM      7  C5  PXY d   1       0.444  -0.939  -0.750  0.00  0.00     0.003 A 
ATOM      8  C6  PXY d   1       1.187  -0.132   0.107  0.00  0.00     0.003 A 
ENDROOT
TORSDOF 0
ENDMDL
