MODEL 1
REMARK minimizedAffinity -2.22900271
REMARK minimizedRMSD -1
REMARK  0 active torsions:
REMARK  status: ('A' for Active; 'I' for Inactive)
ROOT
ATOM      1  C4' PXY d   1       0.727   2.057   2.114  0.00  0.00     0.077 C 
ATOM      2  C1' PXY d   1      -1.505  -2.086  -1.242  0.00  0.00     0.077 C 
ATOM      3  C1  PXY d   1      -0.932  -0.998  -0.356  0.00  0.00    -0.082 A 
ATOM      4  C2  PXY d   1       0.163  -0.358  -0.733  0.00  0.00     0.003 A 
ATOM      5  C3  PXY d   1       0.714   0.607   0.071  0.00  0.00     0.003 A 
ATOM      6  C4  PXY d   1       0.107   0.958   1.248  0.00  0.00    -0.082 A 
ATOM      7  C5  PXY d   1      -1.016   0.317   1.634  0.00  0.00     0.003 A 
ATOM      8  C6  PXY d   1      -1.536  -0.688   0.823  0.00  0.00     0.003 A 
ENDROOT
TORSDOF 0
ENDMDL
