MODEL 1
REMARK minimizedAffinity -3.19680882
REMARK minimizedRMSD -1
REMARK  0 active torsions:
REMARK  status: ('A' for Active; 'I' for Inactive)
ROOT
ATOM      1  C4' PXY d   1      -0.721   0.141   1.600  0.00  0.00     0.077 C 
ATOM      2  C1' PXY d   1      -2.170  -2.549  -3.307  0.00  0.00     0.077 C 
ATOM      3  C1  PXY d   1      -1.778  -1.849  -2.020  0.00  0.00    -0.082 A 
ATOM      4  C2  PXY d   1      -2.718  -1.466  -1.172  0.00  0.00     0.003 A 
ATOM      5  C3  PXY d   1      -2.383  -0.803  -0.019  0.00  0.00     0.003 A 
ATOM      6  C4  PXY d   1      -1.069  -0.577   0.294  0.00  0.00    -0.082 A 
ATOM      7  C5  PXY d   1      -0.104  -0.975  -0.562  0.00  0.00     0.003 A 
ATOM      8  C6  PXY d   1      -0.467  -1.609  -1.746  0.00  0.00     0.003 A 
ENDROOT
TORSDOF 0
ENDMDL
