MODEL 1
REMARK minimizedAffinity -0.788316548
REMARK minimizedRMSD -1
REMARK  0 active torsions:
REMARK  status: ('A' for Active; 'I' for Inactive)
ROOT
ATOM      1  C4' PXY d   1       2.398  -0.272  -0.397  0.00  0.00     0.077 C 
ATOM      2  C1' PXY d   1      -2.542   0.413   2.525  0.00  0.00     0.077 C 
ATOM      3  C1  PXY d   1      -1.243   0.245   1.763  0.00  0.00    -0.082 A 
ATOM      4  C2  PXY d   1      -1.183  -0.604   0.750  0.00  0.00     0.003 A 
ATOM      5  C3  PXY d   1      -0.008  -0.792   0.070  0.00  0.00     0.003 A 
ATOM      6  C4  PXY d   1       1.105  -0.063   0.395  0.00  0.00    -0.082 A 
ATOM      7  C5  PXY d   1       1.050   0.813   1.421  0.00  0.00     0.003 A 
ATOM      8  C6  PXY d   1      -0.142   0.958   2.125  0.00  0.00     0.003 A 
ENDROOT
TORSDOF 0
ENDMDL
