MODEL 1
REMARK minimizedAffinity -3.95984364
REMARK minimizedRMSD -1
REMARK  0 active torsions:
REMARK  status: ('A' for Active; 'I' for Inactive)
ROOT
ATOM      1  C4' PXY d   1       2.764   1.463   1.589  0.00  0.00     0.077 C 
ATOM      2  C1' PXY d   1      -1.129  -1.844  -1.118  0.00  0.00     0.077 C 
ATOM      3  C1  PXY d   1      -0.118  -0.968  -0.405  0.00  0.00    -0.082 A 
ATOM      4  C2  PXY d   1       1.155  -1.014  -0.763  0.00  0.00     0.003 A 
ATOM      5  C3  PXY d   1       2.088  -0.253  -0.107  0.00  0.00     0.003 A 
ATOM      6  C4  PXY d   1       1.706   0.603   0.890  0.00  0.00    -0.082 A 
ATOM      7  C5  PXY d   1       0.408   0.664   1.255  0.00  0.00     0.003 A 
ATOM      8  C6  PXY d   1      -0.517  -0.148   0.604  0.00  0.00     0.003 A 
ENDROOT
TORSDOF 0
ENDMDL
