MODEL 1
REMARK minimizedAffinity -0.352743655
REMARK minimizedRMSD -1
REMARK  0 active torsions:
REMARK  status: ('A' for Active; 'I' for Inactive)
ROOT
ATOM      1  C4' PXY d   1      -0.587  -1.987  -1.710  0.00  0.00     0.077 C 
ATOM      2  C1' PXY d   1       0.359   1.995   2.372  0.00  0.00     0.077 C 
ATOM      3  C1  PXY d   1       0.104   0.944   1.310  0.00  0.00    -0.082 A 
ATOM      4  C2  PXY d   1       0.950   0.815   0.301  0.00  0.00     0.003 A 
ATOM      5  C3  PXY d   1       0.717  -0.109  -0.685  0.00  0.00     0.003 A 
ATOM      6  C4  PXY d   1      -0.364  -0.945  -0.610  0.00  0.00    -0.082 A 
ATOM      7  C5  PXY d   1      -1.226  -0.827   0.422  0.00  0.00     0.003 A 
ATOM      8  C6  PXY d   1      -0.994   0.145   1.391  0.00  0.00     0.003 A 
ENDROOT
TORSDOF 0
ENDMDL
