MODEL 1
REMARK minimizedAffinity -5.30506659
REMARK minimizedRMSD -1
REMARK  0 active torsions:
REMARK  status: ('A' for Active; 'I' for Inactive)
ROOT
ATOM      1  C4' PXY d   1      -0.267   1.467   1.483  0.00  0.00     0.077 C 
ATOM      2  C1' PXY d   1      -2.033  -1.982  -2.806  0.00  0.00     0.077 C 
ATOM      3  C1  PXY d   1      -1.569  -1.068  -1.690  0.00  0.00    -0.082 A 
ATOM      4  C2  PXY d   1      -0.998  -1.586  -0.614  0.00  0.00     0.003 A 
ATOM      5  C3  PXY d   1      -0.601  -0.776   0.419  0.00  0.00     0.003 A 
ATOM      6  C4  PXY d   1      -0.743   0.582   0.327  0.00  0.00    -0.082 A 
ATOM      7  C5  PXY d   1      -1.315   1.120  -0.771  0.00  0.00     0.003 A 
ATOM      8  C6  PXY d   1      -1.748   0.277  -1.791  0.00  0.00     0.003 A 
ENDROOT
TORSDOF 0
ENDMDL
