MODEL 1
REMARK minimizedAffinity 3.18962741
REMARK minimizedRMSD -1
REMARK  0 active torsions:
REMARK  status: ('A' for Active; 'I' for Inactive)
ROOT
ATOM      1  C4' PXY d   1       0.770  -1.521  -3.786  0.00  0.00     0.077 C 
ATOM      2  C1' PXY d   1      -3.802  -2.087  -0.294  0.00  0.00     0.077 C 
ATOM      3  C1  PXY d   1      -2.598  -1.931  -1.201  0.00  0.00    -0.082 A 
ATOM      4  C2  PXY d   1      -2.729  -2.127  -2.503  0.00  0.00     0.003 A 
ATOM      5  C3  PXY d   1      -1.643  -2.021  -3.333  0.00  0.00     0.003 A 
ATOM      6  C4  PXY d   1      -0.421  -1.659  -2.833  0.00  0.00    -0.082 A 
ATOM      7  C5  PXY d   1      -0.282  -1.446  -1.508  0.00  0.00     0.003 A 
ATOM      8  C6  PXY d   1      -1.387  -1.599  -0.676  0.00  0.00     0.003 A 
ENDROOT
TORSDOF 0
ENDMDL
