MODEL 1
REMARK minimizedAffinity 0.152256966
REMARK minimizedRMSD -1
REMARK  0 active torsions:
REMARK  status: ('A' for Active; 'I' for Inactive)
ROOT
ATOM      1  C   UNL d   1      -1.425   5.847  -2.574  0.00  0.00     0.078 C 
ATOM      2  C1  UNL d   1      -0.507   5.381  -1.483  0.00  0.00    -0.077 A 
ATOM      3  C2  UNL d   1       0.824   5.813  -1.426  0.00  0.00    -0.001 A 
ATOM      4  C3  UNL d   1       1.669   5.363  -0.411  0.00  0.00     0.003 A 
ATOM      5  C4  UNL d   1       1.194   4.478   0.555  0.00  0.00    -0.005 A 
ATOM      6  C5  UNL d   1      -0.129   4.041   0.505  0.00  0.00     0.003 A 
ATOM      7  C6  UNL d   1      -0.975   4.490  -0.510  0.00  0.00    -0.001 A 
ENDROOT
TORSDOF 0
ENDMDL
