MODEL 1
REMARK minimizedAffinity 8.54426765
REMARK minimizedRMSD -1
REMARK  0 active torsions:
REMARK  status: ('A' for Active; 'I' for Inactive)
ROOT
ATOM      1  C   UNL d   1       5.962  -3.941   5.810  0.00  0.00     0.078 C 
ATOM      2  C1  UNL d   1       4.748  -3.200   5.335  0.00  0.00    -0.077 A 
ATOM      3  C2  UNL d   1       4.009  -3.655   4.236  0.00  0.00    -0.001 A 
ATOM      4  C3  UNL d   1       2.887  -2.950   3.799  0.00  0.00     0.003 A 
ATOM      5  C4  UNL d   1       2.494  -1.784   4.455  0.00  0.00    -0.005 A 
ATOM      6  C5  UNL d   1       3.225  -1.323   5.548  0.00  0.00     0.003 A 
ATOM      7  C6  UNL d   1       4.347  -2.027   5.986  0.00  0.00    -0.001 A 
ENDROOT
TORSDOF 0
ENDMDL
