MODEL 1
REMARK minimizedAffinity 5.30019093
REMARK minimizedRMSD -1
REMARK  0 active torsions:
REMARK  status: ('A' for Active; 'I' for Inactive)
ROOT
ATOM      1  C   UNL d   1       0.705   5.111  -0.758  0.00  0.00     0.078 C 
ATOM      2  C1  UNL d   1       0.927   4.439   0.563  0.00  0.00    -0.077 A 
ATOM      3  C2  UNL d   1       2.082   4.687   1.314  0.00  0.00    -0.001 A 
ATOM      4  C3  UNL d   1       2.280   4.046   2.538  0.00  0.00     0.003 A 
ATOM      5  C4  UNL d   1       1.328   3.152   3.022  0.00  0.00    -0.005 A 
ATOM      6  C5  UNL d   1       0.175   2.897   2.281  0.00  0.00     0.003 A 
ATOM      7  C6  UNL d   1      -0.024   3.537   1.057  0.00  0.00    -0.001 A 
ENDROOT
TORSDOF 0
ENDMDL
