MODEL 1
REMARK minimizedAffinity 2.29117918
REMARK minimizedRMSD -1
REMARK  0 active torsions:
REMARK  status: ('A' for Active; 'I' for Inactive)
ROOT
ATOM      1  C   UNL d   1       2.621  -0.920  -0.736  0.00  0.00     0.078 C 
ATOM      2  C1  UNL d   1       3.711  -1.945  -0.643  0.00  0.00    -0.077 A 
ATOM      3  C2  UNL d   1       4.855  -1.856  -1.446  0.00  0.00    -0.001 A 
ATOM      4  C3  UNL d   1       5.858  -2.822  -1.355  0.00  0.00     0.003 A 
ATOM      5  C4  UNL d   1       5.727  -3.885  -0.464  0.00  0.00    -0.005 A 
ATOM      6  C5  UNL d   1       4.591  -3.983   0.338  0.00  0.00     0.003 A 
ATOM      7  C6  UNL d   1       3.587  -3.018   0.249  0.00  0.00    -0.001 A 
ENDROOT
TORSDOF 0
ENDMDL
