MODEL 1
REMARK minimizedAffinity 7.03835297
REMARK minimizedRMSD -1
REMARK  0 active torsions:
REMARK  status: ('A' for Active; 'I' for Inactive)
ROOT
ATOM      1  C   UNL d   1       0.204   2.585   2.115  0.00  0.00     0.078 C 
ATOM      2  C1  UNL d   1       0.151   3.780   1.210  0.00  0.00    -0.077 A 
ATOM      3  C2  UNL d   1      -0.628   4.897   1.536  0.00  0.00    -0.001 A 
ATOM      4  C3  UNL d   1      -0.676   5.998   0.680  0.00  0.00     0.003 A 
ATOM      5  C4  UNL d   1       0.052   5.992  -0.508  0.00  0.00    -0.005 A 
ATOM      6  C5  UNL d   1       0.829   4.884  -0.842  0.00  0.00     0.003 A 
ATOM      7  C6  UNL d   1       0.877   3.782   0.013  0.00  0.00    -0.001 A 
ENDROOT
TORSDOF 0
ENDMDL
