MODEL 1
REMARK minimizedAffinity 3.85568333
REMARK minimizedRMSD -1
REMARK  0 active torsions:
REMARK  status: ('A' for Active; 'I' for Inactive)
ROOT
ATOM      1  C   UNL d   1      -0.273   3.028   2.464  0.00  0.00     0.078 C 
ATOM      2  C1  UNL d   1      -0.073   3.863   1.235  0.00  0.00    -0.077 A 
ATOM      3  C2  UNL d   1      -0.351   5.235   1.242  0.00  0.00    -0.001 A 
ATOM      4  C3  UNL d   1      -0.169   5.998   0.087  0.00  0.00     0.003 A 
ATOM      5  C4  UNL d   1       0.290   5.397  -1.083  0.00  0.00    -0.005 A 
ATOM      6  C5  UNL d   1       0.567   4.032  -1.101  0.00  0.00     0.003 A 
ATOM      7  C6  UNL d   1       0.386   3.267   0.053  0.00  0.00    -0.001 A 
ENDROOT
TORSDOF 0
ENDMDL
