MODEL 1
REMARK minimizedAffinity 9.0446558
REMARK minimizedRMSD -1
REMARK  0 active torsions:
REMARK  status: ('A' for Active; 'I' for Inactive)
ROOT
ATOM      1  C   UNL d   1      -2.561   1.450   3.336  0.00  0.00     0.078 C 
ATOM      2  C1  UNL d   1      -3.572   0.439   3.789  0.00  0.00    -0.077 A 
ATOM      3  C2  UNL d   1      -4.725   0.832   4.479  0.00  0.00    -0.001 A 
ATOM      4  C3  UNL d   1      -5.653  -0.120   4.904  0.00  0.00     0.003 A 
ATOM      5  C4  UNL d   1      -5.437  -1.472   4.644  0.00  0.00    -0.005 A 
ATOM      6  C5  UNL d   1      -4.291  -1.873   3.959  0.00  0.00     0.003 A 
ATOM      7  C6  UNL d   1      -3.362  -0.922   3.534  0.00  0.00    -0.001 A 
ENDROOT
TORSDOF 0
ENDMDL
