MODEL 1
REMARK minimizedAffinity 9.29055405
REMARK minimizedRMSD -1
REMARK  0 active torsions:
REMARK  status: ('A' for Active; 'I' for Inactive)
ROOT
ATOM      1  C   UNL d   1       0.229   0.844  -0.774  0.00  0.00     0.078 C 
ATOM      2  C1  UNL d   1       0.263   2.177  -0.088  0.00  0.00    -0.077 A 
ATOM      3  C2  UNL d   1       0.329   2.269   1.307  0.00  0.00    -0.001 A 
ATOM      4  C3  UNL d   1       0.350   3.517   1.932  0.00  0.00     0.003 A 
ATOM      5  C4  UNL d   1       0.306   4.683   1.170  0.00  0.00    -0.005 A 
ATOM      6  C5  UNL d   1       0.238   4.601  -0.220  0.00  0.00     0.003 A 
ATOM      7  C6  UNL d   1       0.216   3.354  -0.846  0.00  0.00    -0.001 A 
ENDROOT
TORSDOF 0
ENDMDL
