MODEL 1
REMARK minimizedAffinity -0.158120111
REMARK minimizedRMSD -1
REMARK  0 active torsions:
REMARK  status: ('A' for Active; 'I' for Inactive)
ROOT
ATOM      1  C   UNL d   1      -0.009   2.679   2.632  0.00  0.00     0.078 C 
ATOM      2  C1  UNL d   1      -0.065   3.742   1.575  0.00  0.00    -0.077 A 
ATOM      3  C2  UNL d   1       0.425   3.503   0.285  0.00  0.00    -0.001 A 
ATOM      4  C3  UNL d   1       0.375   4.504  -0.686  0.00  0.00     0.003 A 
ATOM      5  C4  UNL d   1      -0.163   5.752  -0.377  0.00  0.00    -0.005 A 
ATOM      6  C5  UNL d   1      -0.651   6.000   0.905  0.00  0.00     0.003 A 
ATOM      7  C6  UNL d   1      -0.602   4.999   1.877  0.00  0.00    -0.001 A 
ENDROOT
TORSDOF 0
ENDMDL
