MODEL 1
REMARK minimizedAffinity -2.72293854
REMARK minimizedRMSD -1
REMARK  2 active torsions:
REMARK  status: ('A' for Active; 'I' for Inactive)
REMARK    1  A    between atoms: C1_2  and  C2_3 
REMARK    2  A    between atoms: C2_3  and  C3_4 
ROOT
ATOM      1  C3  UNL d   1       0.448   0.985  -0.446  0.00  0.00    -0.075 A 
ATOM      2  C4  UNL d   1      -0.526   1.529   0.404  0.00  0.00     0.002 A 
ATOM      3  C5  UNL d   1      -1.141   0.738   1.374  0.00  0.00     0.002 A 
ATOM      4  C6  UNL d   1      -0.800  -0.607   1.500  0.00  0.00    -0.004 A 
ATOM      5  C7  UNL d   1       0.154  -1.162   0.650  0.00  0.00     0.002 A 
ATOM      6  C8  UNL d   1       0.775  -0.372  -0.318  0.00  0.00     0.002 A 
ENDROOT
BRANCH   1   7
ATOM      7  C2  UNL d   1       1.139   1.843  -1.479  0.00  0.00     0.056 C 
BRANCH   7   8
ATOM      8  C1  UNL d   1       0.507   1.772  -2.872  0.00  0.00     0.007 C 
ATOM      9  C   UNL d   1       1.421   1.144  -3.916  0.00  0.00     0.009 C 
ENDBRANCH   7   8
ENDBRANCH   1   7
TORSDOF 2
ENDMDL
