MODEL 1
REMARK minimizedAffinity -5.23320055
REMARK minimizedRMSD -1
REMARK  2 active torsions:
REMARK  status: ('A' for Active; 'I' for Inactive)
REMARK    1  A    between atoms: C1_2  and  C2_3 
REMARK    2  A    between atoms: C2_3  and  C3_4 
ROOT
ATOM      1  C3  UNL d   1      -0.427   0.759  -0.583  0.00  0.00    -0.075 A 
ATOM      2  C4  UNL d   1      -0.906   0.961  -1.885  0.00  0.00     0.002 A 
ATOM      3  C5  UNL d   1      -0.184   1.738  -2.792  0.00  0.00     0.002 A 
ATOM      4  C6  UNL d   1       1.016   2.329  -2.407  0.00  0.00    -0.004 A 
ATOM      5  C7  UNL d   1       1.493   2.149  -1.110  0.00  0.00     0.002 A 
ATOM      6  C8  UNL d   1       0.775   1.369  -0.202  0.00  0.00     0.002 A 
ENDROOT
BRANCH   1   7
ATOM      7  C2  UNL d   1      -1.189  -0.104   0.395  0.00  0.00     0.056 C 
BRANCH   7   8
ATOM      8  C1  UNL d   1      -0.439  -1.370   0.824  0.00  0.00     0.007 C 
ATOM      9  C   UNL d   1      -0.771  -2.584  -0.033  0.00  0.00     0.009 C 
ENDBRANCH   7   8
ENDBRANCH   1   7
TORSDOF 2
ENDMDL
