MODEL 1
REMARK minimizedAffinity -2.72607875
REMARK minimizedRMSD -1
REMARK  2 active torsions:
REMARK  status: ('A' for Active; 'I' for Inactive)
REMARK    1  A    between atoms: C1_2  and  C2_3 
REMARK    2  A    between atoms: C2_3  and  C3_4 
ROOT
ATOM      1  C3  UNL d   1       0.420  -0.075   0.029  0.00  0.00    -0.075 A 
ATOM      2  C4  UNL d   1       1.239  -1.176   0.319  0.00  0.00     0.002 A 
ATOM      3  C5  UNL d   1       0.705  -2.317   0.918  0.00  0.00     0.002 A 
ATOM      4  C6  UNL d   1      -0.649  -2.368   1.244  0.00  0.00    -0.004 A 
ATOM      5  C7  UNL d   1      -1.468  -1.273   0.975  0.00  0.00     0.002 A 
ATOM      6  C8  UNL d   1      -0.937  -0.132   0.372  0.00  0.00     0.002 A 
ENDROOT
BRANCH   1   7
ATOM      7  C2  UNL d   1       0.986   1.152  -0.646  0.00  0.00     0.056 C 
BRANCH   7   8
ATOM      8  C1  UNL d   1       0.329   1.483  -1.990  0.00  0.00     0.007 C 
ATOM      9  C   UNL d   1       1.329   1.903  -3.060  0.00  0.00     0.009 C 
ENDBRANCH   7   8
ENDBRANCH   1   7
TORSDOF 2
ENDMDL
