MODEL 1
REMARK minimizedAffinity -4.02175665
REMARK minimizedRMSD -1
REMARK  2 active torsions:
REMARK  status: ('A' for Active; 'I' for Inactive)
REMARK    1  A    between atoms: C1_2  and  C2_3 
REMARK    2  A    between atoms: C2_3  and  C3_4 
ROOT
ATOM      1  C3  UNL d   1       0.011   0.019   0.003  0.00  0.00    -0.075 A 
ATOM      2  C4  UNL d   1       0.794  -1.016   0.535  0.00  0.00     0.002 A 
ATOM      3  C5  UNL d   1       0.193  -2.152   1.078  0.00  0.00     0.002 A 
ATOM      4  C6  UNL d   1      -1.196  -2.263   1.106  0.00  0.00    -0.004 A 
ATOM      5  C7  UNL d   1      -1.984  -1.233   0.596  0.00  0.00     0.002 A 
ATOM      6  C8  UNL d   1      -1.385  -0.097   0.048  0.00  0.00     0.002 A 
ENDROOT
BRANCH   1   7
ATOM      7  C2  UNL d   1       0.656   1.238  -0.612  0.00  0.00     0.056 C 
BRANCH   7   8
ATOM      8  C1  UNL d   1       0.206   1.523  -2.049  0.00  0.00     0.007 C 
ATOM      9  C   UNL d   1       1.309   2.116  -2.917  0.00  0.00     0.009 C 
ENDBRANCH   7   8
ENDBRANCH   1   7
TORSDOF 2
ENDMDL
