MODEL 1
REMARK minimizedAffinity -4.67391586
REMARK minimizedRMSD -1
REMARK  2 active torsions:
REMARK  status: ('A' for Active; 'I' for Inactive)
REMARK    1  A    between atoms: C1_2  and  C2_3 
REMARK    2  A    between atoms: C2_3  and  C3_4 
ROOT
ATOM      1  C3  UNL d   1      -1.213  -1.014   0.542  0.00  0.00    -0.075 A 
ATOM      2  C4  UNL d   1      -0.033  -0.677  -0.138  0.00  0.00     0.002 A 
ATOM      3  C5  UNL d   1       0.334   0.659  -0.301  0.00  0.00     0.002 A 
ATOM      4  C6  UNL d   1      -0.477   1.673   0.203  0.00  0.00    -0.004 A 
ATOM      5  C7  UNL d   1      -1.660   1.352   0.865  0.00  0.00     0.002 A 
ATOM      6  C8  UNL d   1      -2.027   0.016   1.034  0.00  0.00     0.002 A 
ENDROOT
BRANCH   1   7
ATOM      7  C2  UNL d   1      -1.601  -2.458   0.748  0.00  0.00     0.056 C 
BRANCH   7   8
ATOM      8  C1  UNL d   1      -1.757  -2.859   2.219  0.00  0.00     0.007 C 
ATOM      9  C   UNL d   1      -0.490  -2.644   3.037  0.00  0.00     0.009 C 
ENDBRANCH   7   8
ENDBRANCH   1   7
TORSDOF 2
ENDMDL
