MODEL 1
REMARK minimizedAffinity -6.0642004
REMARK minimizedRMSD -1
REMARK  2 active torsions:
REMARK  status: ('A' for Active; 'I' for Inactive)
REMARK    1  A    between atoms: C1_2  and  C2_3 
REMARK    2  A    between atoms: C2_3  and  C3_4 
ROOT
ATOM      1  C3  UNL d   1      -1.001  -0.573   0.326  0.00  0.00    -0.075 A 
ATOM      2  C4  UNL d   1      -1.198  -1.909   0.704  0.00  0.00     0.002 A 
ATOM      3  C5  UNL d   1      -2.114  -2.234   1.705  0.00  0.00     0.002 A 
ATOM      4  C6  UNL d   1      -2.835  -1.230   2.347  0.00  0.00    -0.004 A 
ATOM      5  C7  UNL d   1      -2.636   0.102   1.991  0.00  0.00     0.002 A 
ATOM      6  C8  UNL d   1      -1.724   0.430   0.987  0.00  0.00     0.002 A 
ENDROOT
BRANCH   1   7
ATOM      7  C2  UNL d   1      -0.033  -0.216  -0.776  0.00  0.00     0.056 C 
BRANCH   7   8
ATOM      8  C1  UNL d   1       0.410   1.251  -0.767  0.00  0.00     0.007 C 
ATOM      9  C   UNL d   1       0.984   1.713  -2.100  0.00  0.00     0.009 C 
ENDBRANCH   7   8
ENDBRANCH   1   7
TORSDOF 2
ENDMDL
