MODEL 1
REMARK minimizedAffinity -4.75891924
REMARK minimizedRMSD -1
REMARK  2 active torsions:
REMARK  status: ('A' for Active; 'I' for Inactive)
REMARK    1  A    between atoms: C1_2  and  C2_3 
REMARK    2  A    between atoms: C2_3  and  C3_4 
ROOT
ATOM      1  C3  UNL d   1      -1.054  -1.063   0.527  0.00  0.00    -0.075 A 
ATOM      2  C4  UNL d   1      -0.121  -0.707  -0.457  0.00  0.00     0.002 A 
ATOM      3  C5  UNL d   1       0.256   0.626  -0.627  0.00  0.00     0.002 A 
ATOM      4  C6  UNL d   1      -0.301   1.618   0.177  0.00  0.00    -0.004 A 
ATOM      5  C7  UNL d   1      -1.241   1.277   1.148  0.00  0.00     0.002 A 
ATOM      6  C8  UNL d   1      -1.617  -0.056   1.322  0.00  0.00     0.002 A 
ENDROOT
BRANCH   1   7
ATOM      7  C2  UNL d   1      -1.444  -2.507   0.735  0.00  0.00     0.056 C 
BRANCH   7   8
ATOM      8  C1  UNL d   1      -1.479  -2.938   2.205  0.00  0.00     0.007 C 
ATOM      9  C   UNL d   1      -0.128  -2.821   2.898  0.00  0.00     0.009 C 
ENDBRANCH   7   8
ENDBRANCH   1   7
TORSDOF 2
ENDMDL
