MODEL 1
REMARK minimizedAffinity -4.30267096
REMARK minimizedRMSD -1
REMARK  2 active torsions:
REMARK  status: ('A' for Active; 'I' for Inactive)
REMARK    1  A    between atoms: C1_2  and  C2_3 
REMARK    2  A    between atoms: C2_3  and  C3_4 
ROOT
ATOM      1  C3  UNL d   1      -0.141  -0.134  -0.016  0.00  0.00    -0.075 A 
ATOM      2  C4  UNL d   1       0.595  -1.065   0.730  0.00  0.00     0.002 A 
ATOM      3  C5  UNL d   1      -0.007  -2.234   1.196  0.00  0.00     0.002 A 
ATOM      4  C6  UNL d   1      -1.352  -2.483   0.932  0.00  0.00    -0.004 A 
ATOM      5  C7  UNL d   1      -2.097  -1.557   0.205  0.00  0.00     0.002 A 
ATOM      6  C8  UNL d   1      -1.497  -0.388  -0.266  0.00  0.00     0.002 A 
ENDROOT
BRANCH   1   7
ATOM      7  C2  UNL d   1       0.511   1.119  -0.549  0.00  0.00     0.056 C 
BRANCH   7   8
ATOM      8  C1  UNL d   1       0.221   1.394  -2.028  0.00  0.00     0.007 C 
ATOM      9  C   UNL d   1       1.402   2.006  -2.768  0.00  0.00     0.009 C 
ENDBRANCH   7   8
ENDBRANCH   1   7
TORSDOF 2
ENDMDL
