MODEL 1
REMARK minimizedAffinity -1.70916533
REMARK minimizedRMSD -1
REMARK  2 active torsions:
REMARK  status: ('A' for Active; 'I' for Inactive)
REMARK    1  A    between atoms: C1_2  and  C2_3 
REMARK    2  A    between atoms: C2_3  and  C3_4 
ROOT
ATOM      1  C3  UNL d   1      -0.274   1.314  -0.192  0.00  0.00    -0.075 A 
ATOM      2  C4  UNL d   1      -0.331  -0.049  -0.518  0.00  0.00     0.002 A 
ATOM      3  C5  UNL d   1      -1.448  -0.812  -0.179  0.00  0.00     0.002 A 
ATOM      4  C6  UNL d   1      -2.516  -0.228   0.498  0.00  0.00    -0.004 A 
ATOM      5  C7  UNL d   1      -2.463   1.121   0.842  0.00  0.00     0.002 A 
ATOM      6  C8  UNL d   1      -1.349   1.889   0.500  0.00  0.00     0.002 A 
ENDROOT
BRANCH   1   7
ATOM      7  C2  UNL d   1       0.919   2.153  -0.582  0.00  0.00     0.056 C 
BRANCH   7   8
ATOM      8  C1  UNL d   1       1.202   2.173  -2.088  0.00  0.00     0.007 C 
ATOM      9  C   UNL d   1       0.118   2.878  -2.893  0.00  0.00     0.009 C 
ENDBRANCH   7   8
ENDBRANCH   1   7
TORSDOF 2
ENDMDL
