MODEL 1
REMARK minimizedAffinity -4.17454767
REMARK minimizedRMSD -1
REMARK  2 active torsions:
REMARK  status: ('A' for Active; 'I' for Inactive)
REMARK    1  A    between atoms: C1_2  and  C2_3 
REMARK    2  A    between atoms: C2_3  and  C3_4 
ROOT
ATOM      1  C3  UNL d   1       0.322   0.623  -0.180  0.00  0.00    -0.075 A 
ATOM      2  C4  UNL d   1      -1.030   0.359   0.080  0.00  0.00     0.002 A 
ATOM      3  C5  UNL d   1      -1.425  -0.876   0.595  0.00  0.00     0.002 A 
ATOM      4  C6  UNL d   1      -0.476  -1.864   0.848  0.00  0.00    -0.004 A 
ATOM      5  C7  UNL d   1       0.869  -1.619   0.577  0.00  0.00     0.002 A 
ATOM      6  C8  UNL d   1       1.267  -0.382   0.065  0.00  0.00     0.002 A 
ENDROOT
BRANCH   1   7
ATOM      7  C2  UNL d   1       0.759   1.968  -0.711  0.00  0.00     0.056 C 
BRANCH   7   8
ATOM      8  C1  UNL d   1       1.096   1.969  -2.205  0.00  0.00     0.007 C 
ATOM      9  C   UNL d   1       0.092   2.745  -3.047  0.00  0.00     0.009 C 
ENDBRANCH   7   8
ENDBRANCH   1   7
TORSDOF 2
ENDMDL
