MODEL 1
REMARK minimizedAffinity -3.95020127
REMARK minimizedRMSD -1
REMARK  2 active torsions:
REMARK  status: ('A' for Active; 'I' for Inactive)
REMARK    1  A    between atoms: C1_2  and  C2_3 
REMARK    2  A    between atoms: C2_3  and  C3_4 
ROOT
ATOM      1  C3  UNL d   1      -0.179   0.262  -0.005  0.00  0.00    -0.075 A 
ATOM      2  C4  UNL d   1       0.741  -0.644   0.543  0.00  0.00     0.002 A 
ATOM      3  C5  UNL d   1       0.332  -1.919   0.934  0.00  0.00     0.002 A 
ATOM      4  C6  UNL d   1      -1.000  -2.301   0.793  0.00  0.00    -0.004 A 
ATOM      5  C7  UNL d   1      -1.926  -1.403   0.266  0.00  0.00     0.002 A 
ATOM      6  C8  UNL d   1      -1.519  -0.128  -0.130  0.00  0.00     0.002 A 
ENDROOT
BRANCH   1   7
ATOM      7  C2  UNL d   1       0.262   1.633  -0.458  0.00  0.00     0.056 C 
BRANCH   7   8
ATOM      8  C1  UNL d   1       0.218   1.833  -1.976  0.00  0.00     0.007 C 
ATOM      9  C   UNL d   1       1.588   2.093  -2.588  0.00  0.00     0.009 C 
ENDBRANCH   7   8
ENDBRANCH   1   7
TORSDOF 2
ENDMDL
