MODEL 1
REMARK minimizedAffinity -1.51340973
REMARK minimizedRMSD -1
REMARK  2 active torsions:
REMARK  status: ('A' for Active; 'I' for Inactive)
REMARK    1  A    between atoms: C1_2  and  C2_3 
REMARK    2  A    between atoms: C2_3  and  C3_4 
ROOT
ATOM      1  C3  UNL d   1       0.091  -0.918   0.530  0.00  0.00    -0.075 A 
ATOM      2  C4  UNL d   1       0.331  -1.694   1.673  0.00  0.00     0.002 A 
ATOM      3  C5  UNL d   1      -0.642  -2.572   2.150  0.00  0.00     0.002 A 
ATOM      4  C6  UNL d   1      -1.869  -2.678   1.498  0.00  0.00    -0.004 A 
ATOM      5  C7  UNL d   1      -2.124  -1.899   0.371  0.00  0.00     0.002 A 
ATOM      6  C8  UNL d   1      -1.150  -1.023  -0.111  0.00  0.00     0.002 A 
ENDROOT
BRANCH   1   7
ATOM      7  C2  UNL d   1       1.152   0.013  -0.009  0.00  0.00     0.056 C 
BRANCH   7   8
ATOM      8  C1  UNL d   1       2.318   0.255   0.955  0.00  0.00     0.007 C 
ATOM      9  C   UNL d   1       3.463  -0.732   0.772  0.00  0.00     0.009 C 
ENDBRANCH   7   8
ENDBRANCH   1   7
TORSDOF 2
ENDMDL
