MODEL 1
REMARK minimizedAffinity -4.37396622
REMARK minimizedRMSD -1
REMARK  2 active torsions:
REMARK  status: ('A' for Active; 'I' for Inactive)
REMARK    1  A    between atoms: C1_2  and  C2_3 
REMARK    2  A    between atoms: C2_3  and  C3_4 
ROOT
ATOM      1  C3  UNL d   1       0.412   0.729  -0.194  0.00  0.00    -0.075 A 
ATOM      2  C4  UNL d   1       1.354  -0.309  -0.252  0.00  0.00     0.002 A 
ATOM      3  C5  UNL d   1       1.127  -1.509   0.422  0.00  0.00     0.002 A 
ATOM      4  C6  UNL d   1      -0.035  -1.683   1.170  0.00  0.00    -0.004 A 
ATOM      5  C7  UNL d   1      -0.969  -0.653   1.249  0.00  0.00     0.002 A 
ATOM      6  C8  UNL d   1      -0.748   0.548   0.571  0.00  0.00     0.002 A 
ENDROOT
BRANCH   1   7
ATOM      7  C2  UNL d   1       0.637   2.019  -0.946  0.00  0.00     0.056 C 
BRANCH   7   8
ATOM      8  C1  UNL d   1       1.735   1.936  -2.012  0.00  0.00     0.007 C 
ATOM      9  C   UNL d   1       1.421   2.749  -3.261  0.00  0.00     0.009 C 
ENDBRANCH   7   8
ENDBRANCH   1   7
TORSDOF 2
ENDMDL
