MODEL 1
REMARK minimizedAffinity -3.05883455
REMARK minimizedRMSD -1
REMARK  2 active torsions:
REMARK  status: ('A' for Active; 'I' for Inactive)
REMARK    1  A    between atoms: C1_2  and  C2_3 
REMARK    2  A    between atoms: C2_3  and  C3_4 
ROOT
ATOM      1  C3  UNL d   1       0.569   0.001   0.069  0.00  0.00    -0.075 A 
ATOM      2  C4  UNL d   1       1.412  -1.115   0.172  0.00  0.00     0.002 A 
ATOM      3  C5  UNL d   1       0.930  -2.322   0.680  0.00  0.00     0.002 A 
ATOM      4  C6  UNL d   1      -0.394  -2.425   1.100  0.00  0.00    -0.004 A 
ATOM      5  C7  UNL d   1      -1.236  -1.319   1.017  0.00  0.00     0.002 A 
ATOM      6  C8  UNL d   1      -0.758  -0.111   0.505  0.00  0.00     0.002 A 
ENDROOT
BRANCH   1   7
ATOM      7  C2  UNL d   1       1.076   1.302  -0.508  0.00  0.00     0.056 C 
BRANCH   7   8
ATOM      8  C1  UNL d   1       0.480   1.652  -1.876  0.00  0.00     0.007 C 
ATOM      9  C   UNL d   1       1.536   1.967  -2.927  0.00  0.00     0.009 C 
ENDBRANCH   7   8
ENDBRANCH   1   7
TORSDOF 2
ENDMDL
