MODEL 1
REMARK minimizedAffinity -4.02588272
REMARK minimizedRMSD -1
REMARK  0 active torsions:
REMARK  status: ('A' for Active; 'I' for Inactive)
ROOT
ATOM      1  C   UNL d   1      -1.339  -1.007   2.111  0.00  0.00     0.020 A 
ATOM      2  C1  UNL d   1      -1.695  -0.546   0.845  0.00  0.00     0.020 A 
ATOM      3  C2  UNL d   1      -0.851   0.329   0.158  0.00  0.00     0.034 A 
ATOM      4  C3  UNL d   1       0.354   0.745   0.737  0.00  0.00     0.017 A 
ATOM      5  C4  UNL d   1       0.710   0.281   2.008  0.00  0.00     0.017 A 
ATOM      6  C5  UNL d   1      -0.139  -0.595   2.692  0.00  0.00     0.034 A 
ATOM      7 Cl   UNL d   1       2.180   0.750   2.787  0.00  0.00    -0.070 Cl
ATOM      8 Cl1  UNL d   1       1.350   1.827  -0.170  0.00  0.00    -0.070 Cl
ENDROOT
TORSDOF 0
ENDMDL
