MODEL 1
REMARK minimizedAffinity -3.86177945
REMARK minimizedRMSD -1
REMARK  0 active torsions:
REMARK  status: ('A' for Active; 'I' for Inactive)
ROOT
ATOM      1  C   UNL d   1      -0.622  -0.407   3.284  0.00  0.00     0.020 A 
ATOM      2  C1  UNL d   1      -1.404  -1.038   2.318  0.00  0.00     0.020 A 
ATOM      3  C2  UNL d   1      -1.096  -0.890   0.964  0.00  0.00     0.034 A 
ATOM      4  C3  UNL d   1      -0.003  -0.108   0.572  0.00  0.00     0.017 A 
ATOM      5  C4  UNL d   1       0.782   0.525   1.543  0.00  0.00     0.017 A 
ATOM      6  C5  UNL d   1       0.469   0.373   2.897  0.00  0.00     0.034 A 
ATOM      7 Cl   UNL d   1       2.146   1.505   1.136  0.00  0.00    -0.070 Cl
ATOM      8 Cl1  UNL d   1       0.320   0.031  -1.120  0.00  0.00    -0.070 Cl
ENDROOT
TORSDOF 0
ENDMDL
