MODEL 1
REMARK minimizedAffinity -3.08979774
REMARK minimizedRMSD -1
REMARK  0 active torsions:
REMARK  status: ('A' for Active; 'I' for Inactive)
ROOT
ATOM      1  C   UNL d   1      -0.669   0.642   3.070  0.00  0.00     0.020 A 
ATOM      2  C1  UNL d   1      -1.242  -0.520   2.554  0.00  0.00     0.020 A 
ATOM      3  C2  UNL d   1      -0.843  -0.998   1.304  0.00  0.00     0.034 A 
ATOM      4  C3  UNL d   1       0.130  -0.314   0.566  0.00  0.00     0.017 A 
ATOM      5  C4  UNL d   1       0.704   0.852   1.085  0.00  0.00     0.017 A 
ATOM      6  C5  UNL d   1       0.301   1.326   2.338  0.00  0.00     0.034 A 
ATOM      7 Cl   UNL d   1       1.910   1.750   0.234  0.00  0.00    -0.070 Cl
ATOM      8 Cl1  UNL d   1       0.575  -0.963  -0.972  0.00  0.00    -0.070 Cl
ENDROOT
TORSDOF 0
ENDMDL
