MODEL 1
REMARK minimizedAffinity -0.0768008232
REMARK minimizedRMSD -1
REMARK  0 active torsions:
REMARK  status: ('A' for Active; 'I' for Inactive)
ROOT
ATOM      1  C   UNL d   1      -1.884   1.835   2.403  0.00  0.00     0.020 A 
ATOM      2  C1  UNL d   1      -1.420   2.218   3.660  0.00  0.00     0.020 A 
ATOM      3  C2  UNL d   1      -2.312   2.724   4.609  0.00  0.00     0.034 A 
ATOM      4  C3  UNL d   1      -3.672   2.847   4.302  0.00  0.00     0.017 A 
ATOM      5  C4  UNL d   1      -4.136   2.461   3.039  0.00  0.00     0.017 A 
ATOM      6  C5  UNL d   1      -3.240   1.956   2.093  0.00  0.00     0.034 A 
ATOM      7 Cl   UNL d   1      -5.800   2.584   2.587  0.00  0.00    -0.070 Cl
ATOM      8 Cl1  UNL d   1      -4.717   3.480   5.523  0.00  0.00    -0.070 Cl
ENDROOT
TORSDOF 0
ENDMDL
