MODEL 1
REMARK minimizedAffinity 2.63710189
REMARK minimizedRMSD -1
REMARK  0 active torsions:
REMARK  status: ('A' for Active; 'I' for Inactive)
ROOT
ATOM      1  C   UNL d   1      -5.401  -5.516   3.708  0.00  0.00     0.020 A 
ATOM      2  C1  UNL d   1      -5.975  -6.000   2.533  0.00  0.00     0.020 A 
ATOM      3  C2  UNL d   1      -5.265  -5.938   1.333  0.00  0.00     0.034 A 
ATOM      4  C3  UNL d   1      -3.976  -5.393   1.304  0.00  0.00     0.017 A 
ATOM      5  C4  UNL d   1      -3.401  -4.908   2.484  0.00  0.00     0.017 A 
ATOM      6  C5  UNL d   1      -4.117  -4.972   3.684  0.00  0.00     0.034 A 
ATOM      7 Cl   UNL d   1      -1.815  -4.221   2.528  0.00  0.00    -0.070 Cl
ATOM      8 Cl1  UNL d   1      -3.155  -5.350  -0.216  0.00  0.00    -0.070 Cl
ENDROOT
TORSDOF 0
ENDMDL
