MODEL 1
REMARK minimizedAffinity 6.7904501
REMARK minimizedRMSD -1
REMARK  0 active torsions:
REMARK  status: ('A' for Active; 'I' for Inactive)
ROOT
ATOM      1  C   UNL d   1      -2.430  -2.144   0.414  0.00  0.00     0.020 A 
ATOM      2  C1  UNL d   1      -3.550  -1.770   1.155  0.00  0.00     0.020 A 
ATOM      3  C2  UNL d   1      -4.549  -2.706   1.432  0.00  0.00     0.034 A 
ATOM      4  C3  UNL d   1      -4.429  -4.021   0.968  0.00  0.00     0.017 A 
ATOM      5  C4  UNL d   1      -3.303  -4.396   0.225  0.00  0.00     0.017 A 
ATOM      6  C5  UNL d   1      -2.307  -3.454  -0.050  0.00  0.00     0.034 A 
ATOM      7 Cl   UNL d   1      -3.085  -6.000  -0.381  0.00  0.00    -0.070 Cl
ATOM      8 Cl1  UNL d   1      -5.701  -5.127   1.348  0.00  0.00    -0.070 Cl
ENDROOT
TORSDOF 0
ENDMDL
