MODEL 1
REMARK minimizedAffinity -4.50208282
REMARK minimizedRMSD -1
REMARK  0 active torsions:
REMARK  status: ('A' for Active; 'I' for Inactive)
ROOT
ATOM      1  C   UNL d   1       2.091  -0.160   2.073  0.00  0.00     0.020 A 
ATOM      2  C1  UNL d   1       0.963   0.070   2.858  0.00  0.00     0.020 A 
ATOM      3  C2  UNL d   1      -0.286   0.233   2.255  0.00  0.00     0.034 A 
ATOM      4  C3  UNL d   1      -0.410   0.165   0.863  0.00  0.00     0.017 A 
ATOM      5  C4  UNL d   1       0.724  -0.066   0.075  0.00  0.00     0.017 A 
ATOM      6  C5  UNL d   1       1.972  -0.228   0.684  0.00  0.00     0.034 A 
ATOM      7 Cl   UNL d   1       0.650  -0.163  -1.649  0.00  0.00    -0.070 Cl
ATOM      8 Cl1  UNL d   1      -1.985   0.375   0.185  0.00  0.00    -0.070 Cl
ENDROOT
TORSDOF 0
ENDMDL
