MODEL 1
REMARK minimizedAffinity -3.4897871
REMARK minimizedRMSD -1
REMARK  0 active torsions:
REMARK  status: ('A' for Active; 'I' for Inactive)
ROOT
ATOM      1  C   UNL d   1       1.363   0.206   2.792  0.00  0.00     0.020 A 
ATOM      2  C1  UNL d   1       0.098   0.322   3.367  0.00  0.00     0.020 A 
ATOM      3  C2  UNL d   1      -1.045   0.165   2.579  0.00  0.00     0.034 A 
ATOM      4  C3  UNL d   1      -0.925  -0.109   1.212  0.00  0.00     0.017 A 
ATOM      5  C4  UNL d   1       0.346  -0.226   0.635  0.00  0.00     0.017 A 
ATOM      6  C5  UNL d   1       1.486  -0.068   1.429  0.00  0.00     0.034 A 
ATOM      7 Cl   UNL d   1       0.574  -0.563  -1.045  0.00  0.00    -0.070 Cl
ATOM      8 Cl1  UNL d   1      -2.380  -0.292   0.298  0.00  0.00    -0.070 Cl
ENDROOT
TORSDOF 0
ENDMDL
