MODEL 1
REMARK minimizedAffinity -4.69437504
REMARK minimizedRMSD -1
REMARK  0 active torsions:
REMARK  status: ('A' for Active; 'I' for Inactive)
ROOT
ATOM      1  C   UNL d   1       1.187   0.033   2.151  0.00  0.00     0.020 A 
ATOM      2  C1  UNL d   1      -0.052  -0.090   2.777  0.00  0.00     0.020 A 
ATOM      3  C2  UNL d   1      -1.224   0.161   2.060  0.00  0.00     0.034 A 
ATOM      4  C3  UNL d   1      -1.159   0.537   0.713  0.00  0.00     0.017 A 
ATOM      5  C4  UNL d   1       0.086   0.660   0.086  0.00  0.00     0.017 A 
ATOM      6  C5  UNL d   1       1.257   0.407   0.808  0.00  0.00     0.034 A 
ATOM      7 Cl   UNL d   1       0.247   1.119  -1.573  0.00  0.00    -0.070 Cl
ATOM      8 Cl1  UNL d   1      -2.648   0.832  -0.112  0.00  0.00    -0.070 Cl
ENDROOT
TORSDOF 0
ENDMDL
