MODEL 1
REMARK minimizedAffinity -3.65678239
REMARK minimizedRMSD -1
REMARK  0 active torsions:
REMARK  status: ('A' for Active; 'I' for Inactive)
ROOT
ATOM      1  C   UNL d   1      -0.385  -0.376   3.203  0.00  0.00     0.020 A 
ATOM      2  C1  UNL d   1      -0.981  -0.996   2.106  0.00  0.00     0.020 A 
ATOM      3  C2  UNL d   1      -0.617  -0.622   0.810  0.00  0.00     0.034 A 
ATOM      4  C3  UNL d   1       0.346   0.373   0.609  0.00  0.00     0.017 A 
ATOM      5  C4  UNL d   1       0.944   0.994   1.712  0.00  0.00     0.017 A 
ATOM      6  C5  UNL d   1       0.576   0.617   3.007  0.00  0.00     0.034 A 
ATOM      7 Cl   UNL d   1       2.140   2.231   1.543  0.00  0.00    -0.070 Cl
ATOM      8 Cl1  UNL d   1       0.749   0.784  -1.020  0.00  0.00    -0.070 Cl
ENDROOT
TORSDOF 0
ENDMDL
