MODEL 1
REMARK minimizedAffinity -2.35961342
REMARK minimizedRMSD -1
REMARK  0 active torsions:
REMARK  status: ('A' for Active; 'I' for Inactive)
ROOT
ATOM      1  C   UNL d   1       0.245  -0.223   3.110  0.00  0.00     0.020 A 
ATOM      2  C1  UNL d   1       1.417   0.109   2.430  0.00  0.00     0.020 A 
ATOM      3  C2  UNL d   1       1.392   0.292   1.046  0.00  0.00     0.034 A 
ATOM      4  C3  UNL d   1       0.195   0.144   0.337  0.00  0.00     0.017 A 
ATOM      5  C4  UNL d   1      -0.980  -0.189   1.020  0.00  0.00     0.017 A 
ATOM      6  C5  UNL d   1      -0.951  -0.372   2.406  0.00  0.00     0.034 A 
ATOM      7 Cl   UNL d   1      -2.496  -0.389   0.214  0.00  0.00    -0.070 Cl
ATOM      8 Cl1  UNL d   1       0.238   0.386  -1.373  0.00  0.00    -0.070 Cl
ENDROOT
TORSDOF 0
ENDMDL
