MODEL 1
REMARK minimizedAffinity 0.0264556166
REMARK minimizedRMSD -1
REMARK  0 active torsions:
REMARK  status: ('A' for Active; 'I' for Inactive)
ROOT
ATOM      1  C   UNL d   1       0.645   0.346   2.624  0.00  0.00     0.020 A 
ATOM      2  C1  UNL d   1       1.527  -0.705   2.377  0.00  0.00     0.020 A 
ATOM      3  C2  UNL d   1       1.841  -1.059   1.063  0.00  0.00     0.034 A 
ATOM      4  C3  UNL d   1       1.272  -0.362  -0.009  0.00  0.00     0.017 A 
ATOM      5  C4  UNL d   1       0.387   0.693   0.240  0.00  0.00     0.017 A 
ATOM      6  C5  UNL d   1       0.076   1.044   1.558  0.00  0.00     0.034 A 
ATOM      7 Cl   UNL d   1      -0.355   1.601  -1.030  0.00  0.00    -0.070 Cl
ATOM      8 Cl1  UNL d   1       1.705  -0.853  -1.608  0.00  0.00    -0.070 Cl
ENDROOT
TORSDOF 0
ENDMDL
