MODEL 1
REMARK minimizedAffinity -4.30641127
REMARK minimizedRMSD -1
REMARK  0 active torsions:
REMARK  status: ('A' for Active; 'I' for Inactive)
ROOT
ATOM      1  C   UNL d   1      -1.028  -1.043   2.334  0.00  0.00     0.020 A 
ATOM      2  C1  UNL d   1      -0.071  -0.364   3.086  0.00  0.00     0.020 A 
ATOM      3  C2  UNL d   1       0.840   0.485   2.453  0.00  0.00     0.034 A 
ATOM      4  C3  UNL d   1       0.795   0.656   1.065  0.00  0.00     0.017 A 
ATOM      5  C4  UNL d   1      -0.166  -0.026   0.311  0.00  0.00     0.017 A 
ATOM      6  C5  UNL d   1      -1.076  -0.875   0.950  0.00  0.00     0.034 A 
ATOM      7 Cl   UNL d   1      -0.284   0.134  -1.406  0.00  0.00    -0.070 Cl
ATOM      8 Cl1  UNL d   1       1.952   1.721   0.349  0.00  0.00    -0.070 Cl
ENDROOT
TORSDOF 0
ENDMDL
