MODEL 1
REMARK minimizedAffinity -2.04029083
REMARK minimizedRMSD -1
REMARK  0 active torsions:
REMARK  status: ('A' for Active; 'I' for Inactive)
ROOT
ATOM      1  C   UNL d   1       2.225   0.446  -1.584  0.00  0.00     0.020 A 
ATOM      2  C1  UNL d   1       1.884  -0.801  -2.106  0.00  0.00     0.020 A 
ATOM      3  C2  UNL d   1       2.619  -1.339  -3.164  0.00  0.00     0.034 A 
ATOM      4  C3  UNL d   1       3.699  -0.631  -3.703  0.00  0.00     0.017 A 
ATOM      5  C4  UNL d   1       4.041   0.620  -3.178  0.00  0.00     0.017 A 
ATOM      6  C5  UNL d   1       3.302   1.155  -2.118  0.00  0.00     0.034 A 
ATOM      7 Cl   UNL d   1       5.361   1.553  -3.790  0.00  0.00    -0.070 Cl
ATOM      8 Cl1  UNL d   1       4.564  -1.358  -5.011  0.00  0.00    -0.070 Cl
ENDROOT
TORSDOF 0
ENDMDL
