MODEL 1
REMARK minimizedAffinity 12.1626339
REMARK minimizedRMSD -1
REMARK  0 active torsions:
REMARK  status: ('A' for Active; 'I' for Inactive)
ROOT
ATOM      1  C   UNL d   1       0.578  -5.936   1.068  0.00  0.00     0.020 A 
ATOM      2  C1  UNL d   1      -0.361  -5.923   2.098  0.00  0.00     0.020 A 
ATOM      3  C2  UNL d   1      -1.725  -5.920   1.799  0.00  0.00     0.034 A 
ATOM      4  C3  UNL d   1      -2.154  -5.928   0.467  0.00  0.00     0.017 A 
ATOM      5  C4  UNL d   1      -1.210  -5.941  -0.567  0.00  0.00     0.017 A 
ATOM      6  C5  UNL d   1       0.154  -5.945  -0.262  0.00  0.00     0.034 A 
ATOM      7 Cl   UNL d   1      -1.663  -5.952  -2.235  0.00  0.00    -0.070 Cl
ATOM      8 Cl1  UNL d   1      -3.856  -5.923   0.171  0.00  0.00    -0.070 Cl
ENDROOT
TORSDOF 0
ENDMDL
