MODEL 1
REMARK minimizedAffinity 10.4421282
REMARK minimizedRMSD -1
REMARK  0 active torsions:
REMARK  status: ('A' for Active; 'I' for Inactive)
ROOT
ATOM      1  C   UNL d   1       1.104  -3.012  -4.049  0.00  0.00     0.020 A 
ATOM      2  C1  UNL d   1       0.030  -2.412  -3.392  0.00  0.00     0.020 A 
ATOM      3  C2  UNL d   1       0.241  -1.285  -2.595  0.00  0.00     0.034 A 
ATOM      4  C3  UNL d   1       1.528  -0.755  -2.452  0.00  0.00     0.017 A 
ATOM      5  C4  UNL d   1       2.605  -1.358  -3.112  0.00  0.00     0.017 A 
ATOM      6  C5  UNL d   1       2.388  -2.486  -3.908  0.00  0.00     0.034 A 
ATOM      7 Cl   UNL d   1       4.222  -0.761  -2.984  0.00  0.00    -0.070 Cl
ATOM      8 Cl1  UNL d   1       1.716   0.641  -1.451  0.00  0.00    -0.070 Cl
ENDROOT
TORSDOF 0
ENDMDL
