MODEL 1
REMARK minimizedAffinity 2.57588482
REMARK minimizedRMSD -1
REMARK  0 active torsions:
REMARK  status: ('A' for Active; 'I' for Inactive)
ROOT
ATOM      1  C   UNL d   1       2.957  -1.242   1.317  0.00  0.00     0.020 A 
ATOM      2  C1  UNL d   1       4.016  -0.476   1.802  0.00  0.00     0.020 A 
ATOM      3  C2  UNL d   1       4.433  -0.621   3.127  0.00  0.00     0.034 A 
ATOM      4  C3  UNL d   1       3.791  -1.533   3.971  0.00  0.00     0.017 A 
ATOM      5  C4  UNL d   1       2.728  -2.302   3.484  0.00  0.00     0.017 A 
ATOM      6  C5  UNL d   1       2.314  -2.153   2.157  0.00  0.00     0.034 A 
ATOM      7 Cl   UNL d   1       1.886  -3.448   4.466  0.00  0.00    -0.070 Cl
ATOM      8 Cl1  UNL d   1       4.360  -1.660   5.598  0.00  0.00    -0.070 Cl
ENDROOT
TORSDOF 0
ENDMDL
