MODEL 1
REMARK minimizedAffinity 16.5452671
REMARK minimizedRMSD -1
REMARK  0 active torsions:
REMARK  status: ('A' for Active; 'I' for Inactive)
ROOT
ATOM      1  C   UNL d   1       1.067  -1.107  -1.681  0.00  0.00     0.020 A 
ATOM      2  C1  UNL d   1       1.958  -1.836  -2.468  0.00  0.00     0.020 A 
ATOM      3  C2  UNL d   1       3.103  -1.222  -2.979  0.00  0.00     0.034 A 
ATOM      4  C3  UNL d   1       3.360   0.126  -2.704  0.00  0.00     0.017 A 
ATOM      5  C4  UNL d   1       2.466   0.857  -1.914  0.00  0.00     0.017 A 
ATOM      6  C5  UNL d   1       1.321   0.237  -1.405  0.00  0.00     0.034 A 
ATOM      7 Cl   UNL d   1       2.716   2.524  -1.531  0.00  0.00    -0.070 Cl
ATOM      8 Cl1  UNL d   1       4.795   0.822  -3.369  0.00  0.00    -0.070 Cl
ENDROOT
TORSDOF 0
ENDMDL
