MODEL 1
REMARK minimizedAffinity 7.21800613
REMARK minimizedRMSD -1
REMARK  0 active torsions:
REMARK  status: ('A' for Active; 'I' for Inactive)
ROOT
ATOM      1  C2' OXE d   1      -2.401   1.219   2.411  0.00  0.00     0.078 C 
ATOM      2  C1' OXE d   1      -0.006  -0.157   2.911  0.00  0.00     0.078 C 
ATOM      3  C1  OXE d   1       0.086   1.296   2.515  0.00  0.00    -0.078 A 
ATOM      4  C2  OXE d   1      -1.088   1.948   2.227  0.00  0.00    -0.078 A 
ATOM      5  C3  OXE d   1      -1.064   3.303   1.909  0.00  0.00     0.003 A 
ATOM      6  C4  OXE d   1       0.156   3.968   1.731  0.00  0.00    -0.002 A 
ATOM      7  C5  OXE d   1       1.365   3.311   1.982  0.00  0.00    -0.002 A 
ATOM      8  C6  OXE d   1       1.346   1.990   2.415  0.00  0.00     0.003 A 
ENDROOT
TORSDOF 0
ENDMDL
