MODEL 1
REMARK minimizedAffinity 11.3425598
REMARK minimizedRMSD -1
REMARK  0 active torsions:
REMARK  status: ('A' for Active; 'I' for Inactive)
ROOT
ATOM      1  C2' OXE d   1       4.445  -3.406   0.651  0.00  0.00     0.078 C 
ATOM      2  C1' OXE d   1       3.976  -3.038   3.394  0.00  0.00     0.078 C 
ATOM      3  C1  OXE d   1       2.958  -2.487   2.427  0.00  0.00    -0.078 A 
ATOM      4  C2  OXE d   1       3.220  -2.630   1.085  0.00  0.00    -0.078 A 
ATOM      5  C3  OXE d   1       2.288  -2.189   0.150  0.00  0.00     0.003 A 
ATOM      6  C4  OXE d   1       1.162  -1.464   0.560  0.00  0.00    -0.002 A 
ATOM      7  C5  OXE d   1       0.897  -1.272   1.920  0.00  0.00    -0.002 A 
ATOM      8  C6  OXE d   1       1.761  -1.813   2.865  0.00  0.00     0.003 A 
ENDROOT
TORSDOF 0
ENDMDL
