MODEL 1
REMARK minimizedAffinity 3.45830536
REMARK minimizedRMSD -1
REMARK  0 active torsions:
REMARK  status: ('A' for Active; 'I' for Inactive)
ROOT
ATOM      1  C2' OXE d   1       4.305  -4.261   1.254  0.00  0.00     0.078 C 
ATOM      2  C1' OXE d   1       4.335  -3.288   3.887  0.00  0.00     0.078 C 
ATOM      3  C1  OXE d   1       3.230  -2.817   2.976  0.00  0.00    -0.078 A 
ATOM      4  C2  OXE d   1       3.249  -3.261   1.676  0.00  0.00    -0.078 A 
ATOM      5  C3  OXE d   1       2.222  -2.900   0.808  0.00  0.00     0.003 A 
ATOM      6  C4  OXE d   1       1.256  -1.967   1.203  0.00  0.00    -0.002 A 
ATOM      7  C5  OXE d   1       1.241  -1.471   2.511  0.00  0.00    -0.002 A 
ATOM      8  C6  OXE d   1       2.193  -1.918   3.420  0.00  0.00     0.003 A 
ENDROOT
TORSDOF 0
ENDMDL
