MODEL 1
REMARK minimizedAffinity 17.5675564
REMARK minimizedRMSD -1
REMARK  0 active torsions:
REMARK  status: ('A' for Active; 'I' for Inactive)
ROOT
ATOM      1  C2' OXE d   1      -2.286  -1.128  -1.029  0.00  0.00     0.078 C 
ATOM      2  C1' OXE d   1      -3.307   1.401  -1.694  0.00  0.00     0.078 C 
ATOM      3  C1  OXE d   1      -3.980   0.192  -2.292  0.00  0.00    -0.078 A 
ATOM      4  C2  OXE d   1      -3.445  -1.039  -1.999  0.00  0.00    -0.078 A 
ATOM      5  C3  OXE d   1      -4.061  -2.191  -2.480  0.00  0.00     0.003 A 
ATOM      6  C4  OXE d   1      -5.126  -2.100  -3.384  0.00  0.00    -0.002 A 
ATOM      7  C5  OXE d   1      -5.661  -0.854  -3.728  0.00  0.00    -0.002 A 
ATOM      8  C6  OXE d   1      -5.128   0.297  -3.158  0.00  0.00     0.003 A 
ENDROOT
TORSDOF 0
ENDMDL
