MODEL 1
REMARK minimizedAffinity 14.0011358
REMARK minimizedRMSD -1
REMARK  0 active torsions:
REMARK  status: ('A' for Active; 'I' for Inactive)
ROOT
ATOM      1  C   UNL d   1       1.952   3.007  -2.898  0.00  0.00    -0.002 A 
ATOM      2  C1  UNL d   1       1.780   4.182  -2.181  0.00  0.00     0.010 A 
ATOM      3  C2  UNL d   1       0.771   5.084  -2.526  0.00  0.00     0.041 A 
ATOM      4  C3  UNL d   1      -0.072   4.780  -3.614  0.00  0.00    -0.075 A 
ATOM      5  S   UNL d   1      -1.375   5.735  -4.217  0.00  0.00     0.015 SA
ATOM      6  C4  UNL d   1      -1.734   4.604  -5.441  0.00  0.00     0.022 A 
ATOM      7  C5  UNL d   1      -0.890   3.519  -5.405  0.00  0.00     0.026 A 
ATOM      8  C6  UNL d   1       0.081   3.603  -4.351  0.00  0.00    -0.082 A 
ATOM      9  C7  UNL d   1       1.114   2.709  -3.977  0.00  0.00     0.045 A 
ENDROOT
TORSDOF 0
ENDMDL
