MODEL 1
REMARK minimizedAffinity 9.43947315
REMARK minimizedRMSD -1
REMARK  0 active torsions:
REMARK  status: ('A' for Active; 'I' for Inactive)
ROOT
ATOM      1  C   UNL d   1       5.999   3.921   0.760  0.00  0.00    -0.002 A 
ATOM      2  C1  UNL d   1       5.192   4.531   1.709  0.00  0.00     0.010 A 
ATOM      3  C2  UNL d   1       3.894   4.070   1.939  0.00  0.00     0.041 A 
ATOM      4  C3  UNL d   1       3.418   2.974   1.194  0.00  0.00    -0.075 A 
ATOM      5  S   UNL d   1       1.863   2.237   1.306  0.00  0.00     0.015 SA
ATOM      6  C4  UNL d   1       2.235   1.094   0.097  0.00  0.00     0.022 A 
ATOM      7  C5  UNL d   1       3.510   1.257  -0.391  0.00  0.00     0.026 A 
ATOM      8  C6  UNL d   1       4.213   2.342   0.234  0.00  0.00    -0.082 A 
ATOM      9  C7  UNL d   1       5.524   2.833   0.023  0.00  0.00     0.045 A 
ENDROOT
TORSDOF 0
ENDMDL
