MODEL 1
REMARK minimizedAffinity 18.8750153
REMARK minimizedRMSD -1
REMARK  0 active torsions:
REMARK  status: ('A' for Active; 'I' for Inactive)
ROOT
ATOM      1  C   UNL d   1       2.143   2.756  -3.778  0.00  0.00    -0.002 A 
ATOM      2  C1  UNL d   1       1.882   3.536  -2.660  0.00  0.00     0.010 A 
ATOM      3  C2  UNL d   1       2.753   4.563  -2.292  0.00  0.00     0.041 A 
ATOM      4  C3  UNL d   1       3.902   4.796  -3.074  0.00  0.00    -0.075 A 
ATOM      5  S   UNL d   1       5.109   5.999  -2.815  0.00  0.00     0.015 SA
ATOM      6  C4  UNL d   1       6.000   5.506  -4.182  0.00  0.00     0.022 A 
ATOM      7  C5  UNL d   1       5.405   4.450  -4.832  0.00  0.00     0.026 A 
ATOM      8  C6  UNL d   1       4.185   4.024  -4.204  0.00  0.00    -0.082 A 
ATOM      9  C7  UNL d   1       3.283   2.990  -4.551  0.00  0.00     0.045 A 
ENDROOT
TORSDOF 0
ENDMDL
