MODEL 1
REMARK minimizedAffinity 19.8608055
REMARK minimizedRMSD -1
REMARK  0 active torsions:
REMARK  status: ('A' for Active; 'I' for Inactive)
ROOT
ATOM      1  C   UNL d   1       2.495  -3.642   1.185  0.00  0.00    -0.002 A 
ATOM      2  C1  UNL d   1       3.015  -2.551   1.868  0.00  0.00     0.010 A 
ATOM      3  C2  UNL d   1       2.170  -1.565   2.379  0.00  0.00     0.041 A 
ATOM      4  C3  UNL d   1       0.779  -1.695   2.193  0.00  0.00    -0.075 A 
ATOM      5  S   UNL d   1      -0.448  -0.611   2.733  0.00  0.00     0.015 SA
ATOM      6  C4  UNL d   1      -1.691  -1.571   2.071  0.00  0.00     0.022 A 
ATOM      7  C5  UNL d   1      -1.200  -2.694   1.450  0.00  0.00     0.026 A 
ATOM      8  C6  UNL d   1       0.232  -2.785   1.510  0.00  0.00    -0.082 A 
ATOM      9  C7  UNL d   1       1.115  -3.768   1.002  0.00  0.00     0.045 A 
ENDROOT
TORSDOF 0
ENDMDL
