MODEL 1
REMARK minimizedAffinity 16.7685432
REMARK minimizedRMSD -1
REMARK  0 active torsions:
REMARK  status: ('A' for Active; 'I' for Inactive)
ROOT
ATOM      1  C   UNL d   1       5.902   4.055  -4.489  0.00  0.00    -0.002 A 
ATOM      2  C1  UNL d   1       5.306   3.314  -5.500  0.00  0.00     0.010 A 
ATOM      3  C2  UNL d   1       3.975   2.907  -5.393  0.00  0.00     0.041 A 
ATOM      4  C3  UNL d   1       3.244   3.264  -4.243  0.00  0.00    -0.075 A 
ATOM      5  S   UNL d   1       1.600   2.878  -3.895  0.00  0.00     0.015 SA
ATOM      6  C4  UNL d   1       1.649   3.690  -2.397  0.00  0.00     0.022 A 
ATOM      7  C5  UNL d   1       2.881   4.247  -2.152  0.00  0.00     0.026 A 
ATOM      8  C6  UNL d   1       3.821   4.011  -3.212  0.00  0.00    -0.082 A 
ATOM      9  C7  UNL d   1       5.173   4.407  -3.350  0.00  0.00     0.045 A 
ENDROOT
TORSDOF 0
ENDMDL
