MODEL 1
REMARK minimizedAffinity 17.3688908
REMARK minimizedRMSD -1
REMARK  0 active torsions:
REMARK  status: ('A' for Active; 'I' for Inactive)
ROOT
ATOM      1  C   UNL d   1      -4.213   1.090   2.030  0.00  0.00    -0.002 A 
ATOM      2  C1  UNL d   1      -4.799  -0.006   1.412  0.00  0.00     0.010 A 
ATOM      3  C2  UNL d   1      -4.074  -1.184   1.219  0.00  0.00     0.041 A 
ATOM      4  C3  UNL d   1      -2.738  -1.242   1.663  0.00  0.00    -0.075 A 
ATOM      5  S   UNL d   1      -1.658  -2.580   1.534  0.00  0.00     0.015 SA
ATOM      6  C4  UNL d   1      -0.394  -1.728   2.297  0.00  0.00     0.022 A 
ATOM      7  C5  UNL d   1      -0.770  -0.453   2.648  0.00  0.00     0.026 A 
ATOM      8  C6  UNL d   1      -2.127  -0.152   2.289  0.00  0.00    -0.082 A 
ATOM      9  C7  UNL d   1      -2.888   1.028   2.470  0.00  0.00     0.045 A 
ENDROOT
TORSDOF 0
ENDMDL
