MODEL 1
REMARK minimizedAffinity 14.1517601
REMARK minimizedRMSD -1
REMARK  0 active torsions:
REMARK  status: ('A' for Active; 'I' for Inactive)
ROOT
ATOM      1  C   UNL d   1       2.679   5.577  -1.840  0.00  0.00    -0.002 A 
ATOM      2  C1  UNL d   1       1.731   4.734  -2.402  0.00  0.00     0.010 A 
ATOM      3  C2  UNL d   1       2.044   3.960  -3.521  0.00  0.00     0.041 A 
ATOM      4  C3  UNL d   1       3.339   4.046  -4.069  0.00  0.00    -0.075 A 
ATOM      5  S   UNL d   1       3.948   3.192  -5.437  0.00  0.00     0.015 SA
ATOM      6  C4  UNL d   1       5.481   3.925  -5.306  0.00  0.00     0.022 A 
ATOM      7  C5  UNL d   1       5.544   4.803  -4.251  0.00  0.00     0.026 A 
ATOM      8  C6  UNL d   1       4.311   4.887  -3.520  0.00  0.00    -0.082 A 
ATOM      9  C7  UNL d   1       3.963   5.660  -2.386  0.00  0.00     0.045 A 
ENDROOT
TORSDOF 0
ENDMDL
