MODEL 1
REMARK minimizedAffinity 29.5382404
REMARK minimizedRMSD -1
REMARK  0 active torsions:
REMARK  status: ('A' for Active; 'I' for Inactive)
ROOT
ATOM      1  C   UNL d   1       4.311   2.581  -5.462  0.00  0.00    -0.002 A 
ATOM      2  C1  UNL d   1       3.320   3.390  -6.000  0.00  0.00     0.010 A 
ATOM      3  C2  UNL d   1       2.224   3.779  -5.227  0.00  0.00     0.041 A 
ATOM      4  C3  UNL d   1       2.142   3.340  -3.891  0.00  0.00    -0.075 A 
ATOM      5  S   UNL d   1       0.893   3.692  -2.756  0.00  0.00     0.015 SA
ATOM      6  C4  UNL d   1       1.646   2.777  -1.530  0.00  0.00     0.022 A 
ATOM      7  C5  UNL d   1       2.822   2.210  -1.960  0.00  0.00     0.026 A 
ATOM      8  C6  UNL d   1       3.128   2.525  -3.327  0.00  0.00    -0.082 A 
ATOM      9  C7  UNL d   1       4.226   2.146  -4.137  0.00  0.00     0.045 A 
ENDROOT
TORSDOF 0
ENDMDL
