MODEL 1
REMARK minimizedAffinity 24.0443859
REMARK minimizedRMSD -1
REMARK  0 active torsions:
REMARK  status: ('A' for Active; 'I' for Inactive)
ROOT
ATOM      1  C   UNL d   1       4.178   2.765  -4.865  0.00  0.00    -0.002 A 
ATOM      2  C1  UNL d   1       3.754   3.442  -5.999  0.00  0.00     0.010 A 
ATOM      3  C2  UNL d   1       2.543   4.138  -6.000  0.00  0.00     0.041 A 
ATOM      4  C3  UNL d   1       1.760   4.145  -4.829  0.00  0.00    -0.075 A 
ATOM      5  S   UNL d   1       0.244   4.931  -4.597  0.00  0.00     0.015 SA
ATOM      6  C4  UNL d   1       0.124   4.387  -2.986  0.00  0.00     0.022 A 
ATOM      7  C5  UNL d   1       1.206   3.624  -2.617  0.00  0.00     0.026 A 
ATOM      8  C6  UNL d   1       2.167   3.471  -3.673  0.00  0.00    -0.082 A 
ATOM      9  C7  UNL d   1       3.399   2.774  -3.705  0.00  0.00     0.045 A 
ENDROOT
TORSDOF 0
ENDMDL
