MODEL 1
REMARK minimizedAffinity 13.6528864
REMARK minimizedRMSD -1
REMARK  0 active torsions:
REMARK  status: ('A' for Active; 'I' for Inactive)
ROOT
ATOM      1  C   UNL d   1      -2.305   1.656   4.255  0.00  0.00    -0.002 A 
ATOM      2  C1  UNL d   1      -1.478   1.274   5.302  0.00  0.00     0.010 A 
ATOM      3  C2  UNL d   1      -0.345   0.494   5.063  0.00  0.00     0.041 A 
ATOM      4  C3  UNL d   1      -0.053   0.103   3.742  0.00  0.00    -0.075 A 
ATOM      5  S   UNL d   1       1.281  -0.852   3.211  0.00  0.00     0.015 SA
ATOM      6  C4  UNL d   1       0.785  -0.773   1.582  0.00  0.00     0.022 A 
ATOM      7  C5  UNL d   1      -0.368  -0.041   1.429  0.00  0.00     0.026 A 
ATOM      8  C6  UNL d   1      -0.870   0.476   2.671  0.00  0.00    -0.082 A 
ATOM      9  C7  UNL d   1      -2.012   1.266   2.946  0.00  0.00     0.045 A 
ENDROOT
TORSDOF 0
ENDMDL
