MODEL 1
REMARK minimizedAffinity 15.1809254
REMARK minimizedRMSD -1
REMARK  0 active torsions:
REMARK  status: ('A' for Active; 'I' for Inactive)
ROOT
ATOM      1  C   UNL d   1      -4.188   0.435   1.714  0.00  0.00    -0.002 A 
ATOM      2  C1  UNL d   1      -3.511   1.201   2.653  0.00  0.00     0.010 A 
ATOM      3  C2  UNL d   1      -2.211   0.868   3.037  0.00  0.00     0.041 A 
ATOM      4  C3  UNL d   1      -1.594  -0.256   2.453  0.00  0.00    -0.075 A 
ATOM      5  S   UNL d   1      -0.008  -0.853   2.769  0.00  0.00     0.015 SA
ATOM      6  C4  UNL d   1      -0.190  -2.137   1.663  0.00  0.00     0.022 A 
ATOM      7  C5  UNL d   1      -1.425  -2.126   1.060  0.00  0.00     0.026 A 
ATOM      8  C6  UNL d   1      -2.255  -1.042   1.504  0.00  0.00    -0.082 A 
ATOM      9  C7  UNL d   1      -3.573  -0.680   1.137  0.00  0.00     0.045 A 
ENDROOT
TORSDOF 0
ENDMDL
