MODEL 1
REMARK minimizedAffinity 15.5715408
REMARK minimizedRMSD -1
REMARK  0 active torsions:
REMARK  status: ('A' for Active; 'I' for Inactive)
ROOT
ATOM      1  C   UNL d   1      -0.896  -0.119   3.117  0.00  0.00    -0.002 A 
ATOM      2  C1  UNL d   1      -0.985  -1.192   2.242  0.00  0.00     0.010 A 
ATOM      3  C2  UNL d   1      -2.067  -1.306   1.367  0.00  0.00     0.041 A 
ATOM      4  C3  UNL d   1      -3.066  -0.313   1.385  0.00  0.00    -0.075 A 
ATOM      5  S   UNL d   1      -4.481  -0.245   0.402  0.00  0.00     0.015 SA
ATOM      6  C4  UNL d   1      -5.000   1.211   1.121  0.00  0.00     0.022 A 
ATOM      7  C5  UNL d   1      -4.127   1.648   2.089  0.00  0.00     0.026 A 
ATOM      8  C6  UNL d   1      -2.998   0.777   2.256  0.00  0.00    -0.082 A 
ATOM      9  C7  UNL d   1      -1.889   0.864   3.132  0.00  0.00     0.045 A 
ENDROOT
TORSDOF 0
ENDMDL
