MODEL 1
REMARK minimizedAffinity 15.931406
REMARK minimizedRMSD -1
REMARK  0 active torsions:
REMARK  status: ('A' for Active; 'I' for Inactive)
ROOT
ATOM      1  C   UNL d   1       5.620   4.931  -1.856  0.00  0.00    -0.002 A 
ATOM      2  C1  UNL d   1       4.842   5.999  -1.432  0.00  0.00     0.010 A 
ATOM      3  C2  UNL d   1       3.452   5.961  -1.561  0.00  0.00     0.041 A 
ATOM      4  C3  UNL d   1       2.851   4.820  -2.127  0.00  0.00    -0.075 A 
ATOM      5  S   UNL d   1       1.168   4.551  -2.384  0.00  0.00     0.015 SA
ATOM      6  C4  UNL d   1       1.441   3.010  -3.061  0.00  0.00     0.022 A 
ATOM      7  C5  UNL d   1       2.778   2.694  -3.098  0.00  0.00     0.026 A 
ATOM      8  C6  UNL d   1       3.613   3.731  -2.560  0.00  0.00    -0.082 A 
ATOM      9  C7  UNL d   1       5.020   3.800  -2.416  0.00  0.00     0.045 A 
ENDROOT
TORSDOF 0
ENDMDL
