MODEL 1
REMARK minimizedAffinity 18.8401222
REMARK minimizedRMSD -1
REMARK  0 active torsions:
REMARK  status: ('A' for Active; 'I' for Inactive)
ROOT
ATOM      1  C   UNL d   1       1.518   4.275  -2.585  0.00  0.00    -0.002 A 
ATOM      2  C1  UNL d   1       2.100   3.357  -3.448  0.00  0.00     0.010 A 
ATOM      3  C2  UNL d   1       3.485   3.328  -3.624  0.00  0.00     0.041 A 
ATOM      4  C3  UNL d   1       4.282   4.245  -2.911  0.00  0.00    -0.075 A 
ATOM      5  S   UNL d   1       5.999   4.393  -2.968  0.00  0.00     0.015 SA
ATOM      6  C4  UNL d   1       6.000   5.678  -1.849  0.00  0.00     0.022 A 
ATOM      7  C5  UNL d   1       4.730   6.000  -1.432  0.00  0.00     0.026 A 
ATOM      8  C6  UNL d   1       3.719   5.178  -2.037  0.00  0.00    -0.082 A 
ATOM      9  C7  UNL d   1       2.312   5.183  -1.880  0.00  0.00     0.045 A 
ENDROOT
TORSDOF 0
ENDMDL
