MODEL 1
REMARK minimizedAffinity 0.031284295
REMARK minimizedRMSD -1
REMARK  0 active torsions:
REMARK  status: ('A' for Active; 'I' for Inactive)
ROOT
ATOM      1  C   UNL d   1       5.984   1.620   3.003  0.00  0.00     0.020 A 
ATOM      2  C1  UNL d   1       5.987   1.986   4.348  0.00  0.00     0.020 A 
ATOM      3  C2  UNL d   1       5.992   3.336   4.704  0.00  0.00     0.034 A 
ATOM      4  C3  UNL d   1       5.994   4.325   3.714  0.00  0.00     0.017 A 
ATOM      5  C4  UNL d   1       5.991   3.957   2.364  0.00  0.00     0.017 A 
ATOM      6  C5  UNL d   1       5.986   2.603   2.013  0.00  0.00     0.034 A 
ATOM      7 Cl   UNL d   1       5.993   5.120   1.085  0.00  0.00    -0.070 Cl
ATOM      8 Cl1  UNL d   1       6.000   5.975   4.226  0.00  0.00    -0.070 Cl
ENDROOT
TORSDOF 0
ENDMDL
