MODEL 1
REMARK minimizedAffinity -1.93722117
REMARK minimizedRMSD -1
REMARK  0 active torsions:
REMARK  status: ('A' for Active; 'I' for Inactive)
ROOT
ATOM      1  C   UNL d   1       5.999   1.602   4.691  0.00  0.00     0.020 A 
ATOM      2  C1  UNL d   1       5.999   1.287   3.333  0.00  0.00     0.020 A 
ATOM      3  C2  UNL d   1       5.998   2.307   2.379  0.00  0.00     0.034 A 
ATOM      4  C3  UNL d   1       5.998   3.647   2.782  0.00  0.00     0.017 A 
ATOM      5  C4  UNL d   1       5.998   3.963   4.146  0.00  0.00     0.017 A 
ATOM      6  C5  UNL d   1       5.999   2.938   5.096  0.00  0.00     0.034 A 
ATOM      7 Cl   UNL d   1       5.998   5.593   4.719  0.00  0.00    -0.070 Cl
ATOM      8 Cl1  UNL d   1       5.998   4.857   1.548  0.00  0.00    -0.070 Cl
ENDROOT
TORSDOF 0
ENDMDL
