MODEL 1
REMARK minimizedAffinity -1.14809036
REMARK minimizedRMSD -1
REMARK  0 active torsions:
REMARK  status: ('A' for Active; 'I' for Inactive)
ROOT
ATOM      1  C   UNL d   1       5.885   1.327   3.127  0.00  0.00     0.020 A 
ATOM      2  C1  UNL d   1       5.886   1.121   4.506  0.00  0.00     0.020 A 
ATOM      3  C2  UNL d   1       5.921   2.214   5.375  0.00  0.00     0.034 A 
ATOM      4  C3  UNL d   1       5.957   3.517   4.866  0.00  0.00     0.017 A 
ATOM      5  C4  UNL d   1       5.957   3.723   3.482  0.00  0.00     0.017 A 
ATOM      6  C5  UNL d   1       5.921   2.625   2.616  0.00  0.00     0.034 A 
ATOM      7 Cl   UNL d   1       6.000   5.301   2.779  0.00  0.00    -0.070 Cl
ATOM      8 Cl1  UNL d   1       6.000   4.821   5.999  0.00  0.00    -0.070 Cl
ENDROOT
TORSDOF 0
ENDMDL
