MODEL 1
REMARK minimizedAffinity -1.95359123
REMARK minimizedRMSD -1
REMARK  0 active torsions:
REMARK  status: ('A' for Active; 'I' for Inactive)
ROOT
ATOM      1  C   UNL d   1       5.998   5.267   2.009  0.00  0.00     0.020 A 
ATOM      2  C1  UNL d   1       5.997   5.831   3.284  0.00  0.00     0.020 A 
ATOM      3  C2  UNL d   1       5.997   5.007   4.412  0.00  0.00     0.034 A 
ATOM      4  C3  UNL d   1       5.997   3.615   4.267  0.00  0.00     0.017 A 
ATOM      5  C4  UNL d   1       5.997   3.050   2.986  0.00  0.00     0.017 A 
ATOM      6  C5  UNL d   1       5.998   3.880   1.861  0.00  0.00     0.034 A 
ATOM      7 Cl   UNL d   1       5.998   1.341   2.727  0.00  0.00    -0.070 Cl
ATOM      8 Cl1  UNL d   1       5.996   2.657   5.705  0.00  0.00    -0.070 Cl
ENDROOT
TORSDOF 0
ENDMDL
