MODEL 1
REMARK minimizedAffinity -1.57420063
REMARK minimizedRMSD -1
REMARK  0 active torsions:
REMARK  status: ('A' for Active; 'I' for Inactive)
ROOT
ATOM      1  C   UNL d   1       5.776  -2.499   5.416  0.00  0.00     0.020 A 
ATOM      2  C1  UNL d   1       5.924  -2.620   4.034  0.00  0.00     0.020 A 
ATOM      3  C2  UNL d   1       5.990  -1.476   3.237  0.00  0.00     0.034 A 
ATOM      4  C3  UNL d   1       5.908  -0.206   3.820  0.00  0.00     0.017 A 
ATOM      5  C4  UNL d   1       5.760  -0.086   5.206  0.00  0.00     0.017 A 
ATOM      6  C5  UNL d   1       5.694  -1.235   6.000  0.00  0.00     0.034 A 
ATOM      7 Cl   UNL d   1       5.651   1.447   5.997  0.00  0.00    -0.070 Cl
ATOM      8 Cl1  UNL d   1       5.997   1.166   2.773  0.00  0.00    -0.070 Cl
ENDROOT
TORSDOF 0
ENDMDL
