MODEL 1
REMARK minimizedAffinity -1.33847892
REMARK minimizedRMSD -1
REMARK  0 active torsions:
REMARK  status: ('A' for Active; 'I' for Inactive)
ROOT
ATOM      1  C   UNL d   1       6.000   1.258   4.114  0.00  0.00     0.020 A 
ATOM      2  C1  UNL d   1       5.997   1.786   5.404  0.00  0.00     0.020 A 
ATOM      3  C2  UNL d   1       5.994   3.170   5.592  0.00  0.00     0.034 A 
ATOM      4  C3  UNL d   1       5.994   4.030   4.488  0.00  0.00     0.017 A 
ATOM      5  C4  UNL d   1       5.997   3.499   3.193  0.00  0.00     0.017 A 
ATOM      6  C5  UNL d   1       6.000   2.113   3.011  0.00  0.00     0.034 A 
ATOM      7 Cl   UNL d   1       5.997   4.497   1.782  0.00  0.00    -0.070 Cl
ATOM      8 Cl1  UNL d   1       5.990   5.730   4.795  0.00  0.00    -0.070 Cl
ENDROOT
TORSDOF 0
ENDMDL
