MODEL 1
REMARK minimizedAffinity 0.454345554
REMARK minimizedRMSD -1
REMARK  0 active torsions:
REMARK  status: ('A' for Active; 'I' for Inactive)
ROOT
ATOM      1  C   UNL d   1       5.994  -2.395   3.998  0.00  0.00     0.020 A 
ATOM      2  C1  UNL d   1       5.990  -2.282   5.388  0.00  0.00     0.020 A 
ATOM      3  C2  UNL d   1       5.988  -1.019   5.986  0.00  0.00     0.034 A 
ATOM      4  C3  UNL d   1       5.991   0.134   5.194  0.00  0.00     0.017 A 
ATOM      5  C4  UNL d   1       5.996   0.020   3.799  0.00  0.00     0.017 A 
ATOM      6  C5  UNL d   1       5.997  -1.246   3.205  0.00  0.00     0.034 A 
ATOM      7 Cl   UNL d   1       6.000   1.398   2.755  0.00  0.00    -0.070 Cl
ATOM      8 Cl1  UNL d   1       5.989   1.663   6.000  0.00  0.00    -0.070 Cl
ENDROOT
TORSDOF 0
ENDMDL
