MODEL 1
REMARK minimizedAffinity 1.09996045
REMARK minimizedRMSD -1
REMARK  0 active torsions:
REMARK  status: ('A' for Active; 'I' for Inactive)
ROOT
ATOM      1  C   UNL d   1       5.914   1.579   3.232  0.00  0.00     0.020 A 
ATOM      2  C1  UNL d   1       5.915   1.932   4.581  0.00  0.00     0.020 A 
ATOM      3  C2  UNL d   1       5.942   3.279   4.950  0.00  0.00     0.034 A 
ATOM      4  C3  UNL d   1       5.968   4.277   3.969  0.00  0.00     0.017 A 
ATOM      5  C4  UNL d   1       5.967   3.921   2.615  0.00  0.00     0.017 A 
ATOM      6  C5  UNL d   1       5.940   2.571   2.252  0.00  0.00     0.034 A 
ATOM      7 Cl   UNL d   1       5.998   5.096   1.348  0.00  0.00    -0.070 Cl
ATOM      8 Cl1  UNL d   1       6.000   5.922   4.497  0.00  0.00    -0.070 Cl
ENDROOT
TORSDOF 0
ENDMDL
