MODEL 1
REMARK minimizedAffinity 0.118608564
REMARK minimizedRMSD -1
REMARK  0 active torsions:
REMARK  status: ('A' for Active; 'I' for Inactive)
ROOT
ATOM      1  C   UNL d   1       5.623  -0.747   5.254  0.00  0.00     0.020 A 
ATOM      2  C1  UNL d   1       6.000   0.373   5.995  0.00  0.00     0.020 A 
ATOM      3  C2  UNL d   1       5.998   1.636   5.400  0.00  0.00     0.034 A 
ATOM      4  C3  UNL d   1       5.619   1.783   4.061  0.00  0.00     0.017 A 
ATOM      5  C4  UNL d   1       5.240   0.659   3.318  0.00  0.00     0.017 A 
ATOM      6  C5  UNL d   1       5.243  -0.604   3.919  0.00  0.00     0.034 A 
ATOM      7 Cl   UNL d   1       4.759   0.761   1.661  0.00  0.00    -0.070 Cl
ATOM      8 Cl1  UNL d   1       5.640   3.375   3.390  0.00  0.00    -0.070 Cl
ENDROOT
TORSDOF 0
ENDMDL
