MODEL 1
REMARK minimizedAffinity -0.670760095
REMARK minimizedRMSD -1
REMARK  0 active torsions:
REMARK  status: ('A' for Active; 'I' for Inactive)
ROOT
ATOM      1  C   UNL d   1       5.287  -0.059   5.993  0.00  0.00     0.020 A 
ATOM      2  C1  UNL d   1       5.774  -0.713   4.862  0.00  0.00     0.020 A 
ATOM      3  C2  UNL d   1       5.986  -0.000   3.680  0.00  0.00     0.034 A 
ATOM      4  C3  UNL d   1       5.710   1.371   3.626  0.00  0.00     0.017 A 
ATOM      5  C4  UNL d   1       5.221   2.027   4.762  0.00  0.00     0.017 A 
ATOM      6  C5  UNL d   1       5.011   1.308   5.943  0.00  0.00     0.034 A 
ATOM      7 Cl   UNL d   1       4.858   3.716   4.772  0.00  0.00    -0.070 Cl
ATOM      8 Cl1  UNL d   1       5.996   2.189   2.132  0.00  0.00    -0.070 Cl
ENDROOT
TORSDOF 0
ENDMDL
