MODEL 1
REMARK minimizedAffinity 0.067129612
REMARK minimizedRMSD -1
REMARK  0 active torsions:
REMARK  status: ('A' for Active; 'I' for Inactive)
ROOT
ATOM      1  C   UNL d   1      -1.760   3.881   4.264  0.00  0.00     0.020 A 
ATOM      2  C1  UNL d   1      -2.391   2.872   4.990  0.00  0.00     0.020 A 
ATOM      3  C2  UNL d   1      -2.270   1.541   4.584  0.00  0.00     0.034 A 
ATOM      4  C3  UNL d   1      -1.518   1.216   3.450  0.00  0.00     0.017 A 
ATOM      5  C4  UNL d   1      -0.885   2.230   2.722  0.00  0.00     0.017 A 
ATOM      6  C5  UNL d   1      -1.009   3.561   3.132  0.00  0.00     0.034 A 
ATOM      7 Cl   UNL d   1       0.061   1.907   1.312  0.00  0.00    -0.070 Cl
ATOM      8 Cl1  UNL d   1      -1.411  -0.450   3.006  0.00  0.00    -0.070 Cl
ENDROOT
TORSDOF 0
ENDMDL
