MODEL 1
REMARK minimizedAffinity 4.38412523
REMARK minimizedRMSD -1
REMARK  0 active torsions:
REMARK  status: ('A' for Active; 'I' for Inactive)
ROOT
ATOM      1  C   UNL d   1       5.998   5.932   3.991  0.00  0.00     0.020 A 
ATOM      2  C1  UNL d   1       5.998   5.547   2.651  0.00  0.00     0.020 A 
ATOM      3  C2  UNL d   1       5.998   4.192   2.314  0.00  0.00     0.034 A 
ATOM      4  C3  UNL d   1       5.998   3.217   3.318  0.00  0.00     0.017 A 
ATOM      5  C4  UNL d   1       5.997   3.604   4.663  0.00  0.00     0.017 A 
ATOM      6  C5  UNL d   1       5.997   4.963   4.995  0.00  0.00     0.034 A 
ATOM      7 Cl   UNL d   1       5.997   2.459   5.957  0.00  0.00    -0.070 Cl
ATOM      8 Cl1  UNL d   1       5.997   1.560   2.828  0.00  0.00    -0.070 Cl
ENDROOT
TORSDOF 0
ENDMDL
