MODEL 1
REMARK minimizedAffinity 5.38823318
REMARK minimizedRMSD -1
REMARK  0 active torsions:
REMARK  status: ('A' for Active; 'I' for Inactive)
ROOT
ATOM      1  C   UNL d   1       5.999  -1.782   4.995  0.00  0.00     0.020 A 
ATOM      2  C1  UNL d   1       5.999  -0.814   5.998  0.00  0.00     0.020 A 
ATOM      3  C2  UNL d   1       5.999   0.541   5.661  0.00  0.00     0.034 A 
ATOM      4  C3  UNL d   1       5.998   0.932   4.317  0.00  0.00     0.017 A 
ATOM      5  C4  UNL d   1       5.998  -0.040   3.311  0.00  0.00     0.017 A 
ATOM      6  C5  UNL d   1       5.998  -1.396   3.654  0.00  0.00     0.034 A 
ATOM      7 Cl   UNL d   1       5.997   0.365   1.630  0.00  0.00    -0.070 Cl
ATOM      8 Cl1  UNL d   1       5.998   2.626   3.973  0.00  0.00    -0.070 Cl
ENDROOT
TORSDOF 0
ENDMDL
