MODEL 1
REMARK minimizedAffinity 1.89484847
REMARK minimizedRMSD -1
REMARK  0 active torsions:
REMARK  status: ('A' for Active; 'I' for Inactive)
ROOT
ATOM      1  C   UNL d   1       5.269   1.940   3.389  0.00  0.00     0.020 A 
ATOM      2  C1  UNL d   1       5.753   2.053   4.692  0.00  0.00     0.020 A 
ATOM      3  C2  UNL d   1       5.971   3.315   5.248  0.00  0.00     0.034 A 
ATOM      4  C3  UNL d   1       5.706   4.469   4.501  0.00  0.00     0.017 A 
ATOM      5  C4  UNL d   1       5.221   4.354   3.193  0.00  0.00     0.017 A 
ATOM      6  C5  UNL d   1       5.004   3.088   2.641  0.00  0.00     0.034 A 
ATOM      7 Cl   UNL d   1       4.870   5.732   2.210  0.00  0.00    -0.070 Cl
ATOM      8 Cl1  UNL d   1       5.999   5.997   5.252  0.00  0.00    -0.070 Cl
ENDROOT
TORSDOF 0
ENDMDL
