MODEL 1
REMARK minimizedAffinity -1.95895183
REMARK minimizedRMSD -1
REMARK  0 active torsions:
REMARK  status: ('A' for Active; 'I' for Inactive)
ROOT
ATOM      1  C   UNL d   1       5.988   0.998   3.855  0.00  0.00     0.020 A 
ATOM      2  C1  UNL d   1       5.989   1.324   5.211  0.00  0.00     0.020 A 
ATOM      3  C2  UNL d   1       5.993   2.663   5.607  0.00  0.00     0.034 A 
ATOM      4  C3  UNL d   1       5.996   3.681   4.646  0.00  0.00     0.017 A 
ATOM      5  C4  UNL d   1       5.994   3.353   3.286  0.00  0.00     0.017 A 
ATOM      6  C5  UNL d   1       5.990   2.011   2.895  0.00  0.00     0.034 A 
ATOM      7 Cl   UNL d   1       5.997   4.554   2.043  0.00  0.00    -0.070 Cl
ATOM      8 Cl1  UNL d   1       6.000   5.315   5.208  0.00  0.00    -0.070 Cl
ENDROOT
TORSDOF 0
ENDMDL
