MODEL 1
REMARK minimizedAffinity 0.498938739
REMARK minimizedRMSD -1
REMARK  0 active torsions:
REMARK  status: ('A' for Active; 'I' for Inactive)
ROOT
ATOM      1  C   UNL d   1       5.994   0.053   4.984  0.00  0.00     0.020 A 
ATOM      2  C1  UNL d   1       5.896   1.005   5.998  0.00  0.00     0.020 A 
ATOM      3  C2  UNL d   1       5.805   2.361   5.676  0.00  0.00     0.034 A 
ATOM      4  C3  UNL d   1       5.812   2.768   4.337  0.00  0.00     0.017 A 
ATOM      5  C4  UNL d   1       5.909   1.812   3.320  0.00  0.00     0.017 A 
ATOM      6  C5  UNL d   1       6.000   0.455   3.648  0.00  0.00     0.034 A 
ATOM      7 Cl   UNL d   1       5.923   2.238   1.645  0.00  0.00    -0.070 Cl
ATOM      8 Cl1  UNL d   1       5.696   4.461   4.012  0.00  0.00    -0.070 Cl
ENDROOT
TORSDOF 0
ENDMDL
