MODEL 1
REMARK minimizedAffinity 1.05918849
REMARK minimizedRMSD -1
REMARK  0 active torsions:
REMARK  status: ('A' for Active; 'I' for Inactive)
ROOT
ATOM      1  C   UNL d   1       5.997   0.990   5.812  0.00  0.00     0.020 A 
ATOM      2  C1  UNL d   1       5.998   1.669   4.594  0.00  0.00     0.020 A 
ATOM      3  C2  UNL d   1       5.999   0.952   3.395  0.00  0.00     0.034 A 
ATOM      4  C3  UNL d   1       5.999  -0.447   3.412  0.00  0.00     0.017 A 
ATOM      5  C4  UNL d   1       5.998  -1.128   4.635  0.00  0.00     0.017 A 
ATOM      6  C5  UNL d   1       5.997  -0.405   5.832  0.00  0.00     0.034 A 
ATOM      7 Cl   UNL d   1       5.999  -2.853   4.736  0.00  0.00    -0.070 Cl
ATOM      8 Cl1  UNL d   1       6.000  -1.269   1.892  0.00  0.00    -0.070 Cl
ENDROOT
TORSDOF 0
ENDMDL
