MODEL 1
REMARK minimizedAffinity -1.56883526
REMARK minimizedRMSD -1
REMARK  0 active torsions:
REMARK  status: ('A' for Active; 'I' for Inactive)
ROOT
ATOM      1  C   UNL d   1       5.915  -0.064   4.145  0.00  0.00     0.020 A 
ATOM      2  C1  UNL d   1       5.914   0.191   5.516  0.00  0.00     0.020 A 
ATOM      3  C2  UNL d   1       5.938   1.508   5.980  0.00  0.00     0.034 A 
ATOM      4  C3  UNL d   1       5.963   2.574   5.073  0.00  0.00     0.017 A 
ATOM      5  C4  UNL d   1       5.964   2.316   3.698  0.00  0.00     0.017 A 
ATOM      6  C5  UNL d   1       5.940   0.996   3.238  0.00  0.00     0.034 A 
ATOM      7 Cl   UNL d   1       5.995   3.579   2.518  0.00  0.00    -0.070 Cl
ATOM      8 Cl1  UNL d   1       5.991   4.177   5.718  0.00  0.00    -0.070 Cl
ENDROOT
TORSDOF 0
ENDMDL
