MODEL 1
REMARK minimizedAffinity 1.44123399
REMARK minimizedRMSD -1
REMARK  0 active torsions:
REMARK  status: ('A' for Active; 'I' for Inactive)
ROOT
ATOM      1  C   UNL d   1       1.839  -1.416  -3.637  0.00  0.00     0.020 A 
ATOM      2  C1  UNL d   1       1.626  -2.624  -2.975  0.00  0.00     0.020 A 
ATOM      3  C2  UNL d   1       1.046  -2.630  -1.704  0.00  0.00     0.034 A 
ATOM      4  C3  UNL d   1       0.678  -1.427  -1.092  0.00  0.00     0.017 A 
ATOM      5  C4  UNL d   1       0.893  -0.215  -1.758  0.00  0.00     0.017 A 
ATOM      6  C5  UNL d   1       1.474  -0.214  -3.030  0.00  0.00     0.034 A 
ATOM      7 Cl   UNL d   1       0.465   1.311  -1.068  0.00  0.00    -0.070 Cl
ATOM      8 Cl1  UNL d   1      -0.035  -1.509   0.480  0.00  0.00    -0.070 Cl
ENDROOT
TORSDOF 0
ENDMDL
