MODEL 1
REMARK minimizedAffinity 3.55752754
REMARK minimizedRMSD -1
REMARK  0 active torsions:
REMARK  status: ('A' for Active; 'I' for Inactive)
ROOT
ATOM      1  C4' PXY d   1      -1.621   0.965   1.854  0.00  0.00     0.077 C 
ATOM      2  C1' PXY d   1       3.062   1.202  -1.526  0.00  0.00     0.077 C 
ATOM      3  C1  PXY d   1       1.840   1.130  -0.632  0.00  0.00    -0.082 A 
ATOM      4  C2  PXY d   1       0.664   1.517  -1.100  0.00  0.00     0.003 A 
ATOM      5  C3  PXY d   1      -0.446   1.489  -0.296  0.00  0.00     0.003 A 
ATOM      6  C4  PXY d   1      -0.362   1.011   0.984  0.00  0.00    -0.082 A 
ATOM      7  C5  PXY d   1       0.832   0.605   1.466  0.00  0.00     0.003 A 
ATOM      8  C6  PXY d   1       1.955   0.679   0.646  0.00  0.00     0.003 A 
ENDROOT
TORSDOF 0
ENDMDL
