MODEL 1
REMARK minimizedAffinity -4.20350456
REMARK minimizedRMSD -1
REMARK  0 active torsions:
REMARK  status: ('A' for Active; 'I' for Inactive)
ROOT
ATOM      1  C4' PXY d   1      -3.393  -0.047   1.458  0.00  0.00     0.077 C 
ATOM      2  C1' PXY d   1       1.635   0.988  -1.200  0.00  0.00     0.077 C 
ATOM      3  C1  PXY d   1       0.322   0.710  -0.494  0.00  0.00    -0.082 A 
ATOM      4  C2  PXY d   1      -0.810   0.751  -1.177  0.00  0.00     0.003 A 
ATOM      5  C3  PXY d   1      -2.008   0.533  -0.548  0.00  0.00     0.003 A 
ATOM      6  C4  PXY d   1      -2.044   0.218   0.784  0.00  0.00    -0.082 A 
ATOM      7  C5  PXY d   1      -0.892   0.164   1.486  0.00  0.00     0.003 A 
ATOM      8  C6  PXY d   1       0.310   0.428   0.838  0.00  0.00     0.003 A 
ENDROOT
TORSDOF 0
ENDMDL
