MODEL 1
REMARK minimizedAffinity -5.6714716
REMARK minimizedRMSD -1
REMARK  0 active torsions:
REMARK  status: ('A' for Active; 'I' for Inactive)
ROOT
ATOM      1  C4' PXY d   1       1.155  -2.992  -2.111  0.00  0.00     0.077 C 
ATOM      2  C1' PXY d   1       1.033   2.406  -0.047  0.00  0.00     0.077 C 
ATOM      3  C1  PXY d   1       1.069   0.995  -0.600  0.00  0.00    -0.082 A 
ATOM      4  C2  PXY d   1       0.321   0.056  -0.044  0.00  0.00     0.003 A 
ATOM      5  C3  PXY d   1       0.365  -1.232  -0.511  0.00  0.00     0.003 A 
ATOM      6  C4  PXY d   1       1.143  -1.551  -1.592  0.00  0.00    -0.082 A 
ATOM      7  C5  PXY d   1       1.901  -0.596  -2.171  0.00  0.00     0.003 A 
ATOM      8  C6  PXY d   1       1.873   0.697  -1.656  0.00  0.00     0.003 A 
ENDROOT
TORSDOF 0
ENDMDL
