MODEL 1
REMARK minimizedAffinity -5.20827198
REMARK minimizedRMSD -1
REMARK  0 active torsions:
REMARK  status: ('A' for Active; 'I' for Inactive)
ROOT
ATOM      1  C4' PXY d   1      -0.203   0.014   0.667  0.00  0.00     0.077 C 
ATOM      2  C1' PXY d   1       2.689  -0.852  -4.263  0.00  0.00     0.077 C 
ATOM      3  C1  PXY d   1       1.937  -0.613  -2.968  0.00  0.00    -0.082 A 
ATOM      4  C2  PXY d   1       1.492  -1.645  -2.270  0.00  0.00     0.003 A 
ATOM      5  C3  PXY d   1       0.782  -1.447  -1.114  0.00  0.00     0.003 A 
ATOM      6  C4  PXY d   1       0.570  -0.180  -0.640  0.00  0.00    -0.082 A 
ATOM      7  C5  PXY d   1       1.030   0.878  -1.341  0.00  0.00     0.003 A 
ATOM      8  C6  PXY d   1       1.713   0.657  -2.534  0.00  0.00     0.003 A 
ENDROOT
TORSDOF 0
ENDMDL
