MODEL 1
REMARK minimizedAffinity -5.02666759
REMARK minimizedRMSD -1
REMARK  0 active torsions:
REMARK  status: ('A' for Active; 'I' for Inactive)
ROOT
ATOM      1  C4' PXY d   1      -1.253  -1.151   1.970  0.00  0.00     0.077 C 
ATOM      2  C1' PXY d   1       1.800   0.816  -2.528  0.00  0.00     0.077 C 
ATOM      3  C1  PXY d   1       1.005   0.309  -1.341  0.00  0.00    -0.082 A 
ATOM      4  C2  PXY d   1       0.536  -0.928  -1.348  0.00  0.00     0.003 A 
ATOM      5  C3  PXY d   1      -0.212  -1.392  -0.297  0.00  0.00     0.003 A 
ATOM      6  C4  PXY d   1      -0.437  -0.600   0.797  0.00  0.00    -0.082 A 
ATOM      7  C5  PXY d   1       0.047   0.660   0.816  0.00  0.00     0.003 A 
ATOM      8  C6  PXY d   1       0.769   1.126  -0.279  0.00  0.00     0.003 A 
ENDROOT
TORSDOF 0
ENDMDL
