MODEL 1
REMARK minimizedAffinity -3.35255003
REMARK minimizedRMSD -1
REMARK  0 active torsions:
REMARK  status: ('A' for Active; 'I' for Inactive)
ROOT
ATOM      1  C4' PXY d   1       0.876  -2.943  -0.775  0.00  0.00     0.077 C 
ATOM      2  C1' PXY d   1      -1.973   1.042   2.294  0.00  0.00     0.077 C 
ATOM      3  C1  PXY d   1      -1.228   0.004   1.478  0.00  0.00    -0.082 A 
ATOM      4  C2  PXY d   1      -1.168  -1.246   1.908  0.00  0.00     0.003 A 
ATOM      5  C3  PXY d   1      -0.471  -2.191   1.199  0.00  0.00     0.003 A 
ATOM      6  C4  PXY d   1       0.126  -1.864   0.011  0.00  0.00    -0.082 A 
ATOM      7  C5  PXY d   1       0.061  -0.593  -0.440  0.00  0.00     0.003 A 
ATOM      8  C6  PXY d   1      -0.617   0.360   0.315  0.00  0.00     0.003 A 
ENDROOT
TORSDOF 0
ENDMDL
