MODEL 1
REMARK minimizedAffinity -0.617613077
REMARK minimizedRMSD -1
REMARK  0 active torsions:
REMARK  status: ('A' for Active; 'I' for Inactive)
ROOT
ATOM      1  C4' PXY d   1      -1.608   0.077   1.899  0.00  0.00     0.077 C 
ATOM      2  C1' PXY d   1       2.558   0.050  -2.108  0.00  0.00     0.077 C 
ATOM      3  C1  PXY d   1       1.462   0.045  -1.061  0.00  0.00    -0.082 A 
ATOM      4  C2  PXY d   1       0.995   1.193  -0.598  0.00  0.00     0.003 A 
ATOM      5  C3  PXY d   1       0.026   1.207   0.373  0.00  0.00     0.003 A 
ATOM      6  C4  PXY d   1      -0.508   0.034   0.835  0.00  0.00    -0.082 A 
ATOM      7  C5  PXY d   1      -0.045  -1.141   0.359  0.00  0.00     0.003 A 
ATOM      8  C6  PXY d   1       0.968  -1.134  -0.596  0.00  0.00     0.003 A 
ENDROOT
TORSDOF 0
ENDMDL
