MODEL 1
REMARK minimizedAffinity -3.16913962
REMARK minimizedRMSD -1
REMARK  0 active torsions:
REMARK  status: ('A' for Active; 'I' for Inactive)
ROOT
ATOM      1  C4' PXY d   1      -2.066  -0.224   1.791  0.00  0.00     0.077 C 
ATOM      2  C1' PXY d   1       2.292   0.361  -1.961  0.00  0.00     0.077 C 
ATOM      3  C1  PXY d   1       1.148   0.195  -0.981  0.00  0.00    -0.082 A 
ATOM      4  C2  PXY d   1       0.476   1.260  -0.574  0.00  0.00     0.003 A 
ATOM      5  C3  PXY d   1      -0.541   1.132   0.337  0.00  0.00     0.003 A 
ATOM      6  C4  PXY d   1      -0.909  -0.105   0.795  0.00  0.00    -0.082 A 
ATOM      7  C5  PXY d   1      -0.236  -1.197   0.376  0.00  0.00     0.003 A 
ATOM      8  C6  PXY d   1       0.820  -1.041  -0.517  0.00  0.00     0.003 A 
ENDROOT
TORSDOF 0
ENDMDL
