MODEL 1
REMARK minimizedAffinity -4.17864752
REMARK minimizedRMSD -1
REMARK  0 active torsions:
REMARK  status: ('A' for Active; 'I' for Inactive)
ROOT
ATOM      1  C4' PXY d   1      -0.799  -0.009   0.962  0.00  0.00     0.077 C 
ATOM      2  C1' PXY d   1       2.314  -1.218  -3.756  0.00  0.00     0.077 C 
ATOM      3  C1  PXY d   1       1.496  -0.889  -2.523  0.00  0.00    -0.082 A 
ATOM      4  C2  PXY d   1       1.697  -1.566  -1.404  0.00  0.00     0.003 A 
ATOM      5  C3  PXY d   1       0.943  -1.303  -0.289  0.00  0.00     0.003 A 
ATOM      6  C4  PXY d   1       0.011  -0.301  -0.304  0.00  0.00    -0.082 A 
ATOM      7  C5  PXY d   1      -0.193   0.402  -1.438  0.00  0.00     0.003 A 
ATOM      8  C6  PXY d   1       0.554   0.092  -2.571  0.00  0.00     0.003 A 
ENDROOT
TORSDOF 0
ENDMDL
