MODEL 1
REMARK minimizedAffinity -5.24310875
REMARK minimizedRMSD -1
REMARK  0 active torsions:
REMARK  status: ('A' for Active; 'I' for Inactive)
ROOT
ATOM      1  C4' PXY d   1      -1.809  -0.008   1.365  0.00  0.00     0.077 C 
ATOM      2  C1' PXY d   1       2.137  -0.852  -2.773  0.00  0.00     0.077 C 
ATOM      3  C1  PXY d   1       1.097  -0.642  -1.691  0.00  0.00    -0.082 A 
ATOM      4  C2  PXY d   1       0.827   0.584  -1.272  0.00  0.00     0.003 A 
ATOM      5  C3  PXY d   1      -0.088   0.789  -0.272  0.00  0.00     0.003 A 
ATOM      6  C4  PXY d   1      -0.773  -0.266   0.268  0.00  0.00    -0.082 A 
ATOM      7  C5  PXY d   1      -0.511  -1.519  -0.162  0.00  0.00     0.003 A 
ATOM      8  C6  PXY d   1       0.451  -1.710  -1.149  0.00  0.00     0.003 A 
ENDROOT
TORSDOF 0
ENDMDL
