MODEL 1
REMARK minimizedAffinity -2.93900704
REMARK minimizedRMSD -1
REMARK  0 active torsions:
REMARK  status: ('A' for Active; 'I' for Inactive)
ROOT
ATOM      1  C4' PXY d   1      -4.132   0.301   1.595  0.00  0.00     0.077 C 
ATOM      2  C1' PXY d   1       1.103  -0.052  -0.830  0.00  0.00     0.077 C 
ATOM      3  C1  PXY d   1      -0.265   0.033  -0.184  0.00  0.00    -0.082 A 
ATOM      4  C2  PXY d   1      -1.330   0.262  -0.935  0.00  0.00     0.003 A 
ATOM      5  C3  PXY d   1      -2.571   0.374  -0.363  0.00  0.00     0.003 A 
ATOM      6  C4  PXY d   1      -2.731   0.197   0.985  0.00  0.00    -0.082 A 
ATOM      7  C5  PXY d   1      -1.651  -0.047   1.757  0.00  0.00     0.003 A 
ATOM      8  C6  PXY d   1      -0.395  -0.116   1.162  0.00  0.00     0.003 A 
ENDROOT
TORSDOF 0
ENDMDL
