MODEL 1
REMARK minimizedAffinity -5.17433119
REMARK minimizedRMSD -1
REMARK  0 active torsions:
REMARK  status: ('A' for Active; 'I' for Inactive)
ROOT
ATOM      1  C4' PXY d   1      -0.469  -0.134   1.682  0.00  0.00     0.077 C 
ATOM      2  C1' PXY d   1       1.934  -0.553  -3.559  0.00  0.00     0.077 C 
ATOM      3  C1  PXY d   1       1.298  -0.455  -2.186  0.00  0.00    -0.082 A 
ATOM      4  C2  PXY d   1       1.103   0.734  -1.639  0.00  0.00     0.003 A 
ATOM      5  C3  PXY d   1       0.559   0.840  -0.385  0.00  0.00     0.003 A 
ATOM      6  C4  PXY d   1       0.161  -0.280   0.294  0.00  0.00    -0.082 A 
ATOM      7  C5  PXY d   1       0.347  -1.496  -0.262  0.00  0.00     0.003 A 
ATOM      8  C6  PXY d   1       0.939  -1.584  -1.518  0.00  0.00     0.003 A 
ENDROOT
TORSDOF 0
ENDMDL
