MODEL 1
REMARK minimizedAffinity -0.706528723
REMARK minimizedRMSD -1
REMARK  0 active torsions:
REMARK  status: ('A' for Active; 'I' for Inactive)
ROOT
ATOM      1  C4' PXY d   1      -2.823   0.392   0.906  0.00  0.00     0.077 C 
ATOM      2  C1' PXY d   1       2.462   0.820  -1.396  0.00  0.00     0.077 C 
ATOM      3  C1  PXY d   1       1.077   0.695  -0.791  0.00  0.00    -0.082 A 
ATOM      4  C2  PXY d   1       0.160   1.608  -1.063  0.00  0.00     0.003 A 
ATOM      5  C3  PXY d   1      -1.088   1.528  -0.499  0.00  0.00     0.003 A 
ATOM      6  C4  PXY d   1      -1.415   0.473   0.310  0.00  0.00    -0.082 A 
ATOM      7  C5  PXY d   1      -0.488  -0.469   0.584  0.00  0.00     0.003 A 
ATOM      8  C6  PXY d   1       0.785  -0.347   0.035  0.00  0.00     0.003 A 
ENDROOT
TORSDOF 0
ENDMDL
