MODEL 1
REMARK minimizedAffinity -4.96589375
REMARK minimizedRMSD -1
REMARK  0 active torsions:
REMARK  status: ('A' for Active; 'I' for Inactive)
ROOT
ATOM      1  C4' PXY d   1       2.354  -1.165  -2.384  0.00  0.00     0.077 C 
ATOM      2  C1' PXY d   1      -1.073   0.729   1.868  0.00  0.00     0.077 C 
ATOM      3  C1  PXY d   1      -0.177   0.243   0.746  0.00  0.00    -0.082 A 
ATOM      4  C2  PXY d   1       0.009  -1.055   0.573  0.00  0.00     0.003 A 
ATOM      5  C3  PXY d   1       0.842  -1.511  -0.416  0.00  0.00     0.003 A 
ATOM      6  C4  PXY d   1       1.449  -0.630  -1.271  0.00  0.00    -0.082 A 
ATOM      7  C5  PXY d   1       1.256   0.696  -1.107  0.00  0.00     0.003 A 
ATOM      8  C6  PXY d   1       0.439   1.140  -0.071  0.00  0.00     0.003 A 
ENDROOT
TORSDOF 0
ENDMDL
