MODEL 1
REMARK minimizedAffinity -4.11394691
REMARK minimizedRMSD -1
REMARK  0 active torsions:
REMARK  status: ('A' for Active; 'I' for Inactive)
ROOT
ATOM      1  C4' PXY d   1       2.207  -1.198  -3.682  0.00  0.00     0.077 C 
ATOM      2  C1' PXY d   1      -0.271   0.672   1.194  0.00  0.00     0.077 C 
ATOM      3  C1  PXY d   1       0.386   0.193  -0.086  0.00  0.00    -0.082 A 
ATOM      4  C2  PXY d   1      -0.221  -0.716  -0.832  0.00  0.00     0.003 A 
ATOM      5  C3  PXY d   1       0.373  -1.184  -1.975  0.00  0.00     0.003 A 
ATOM      6  C4  PXY d   1       1.577  -0.678  -2.387  0.00  0.00    -0.082 A 
ATOM      7  C5  PXY d   1       2.197   0.257  -1.637  0.00  0.00     0.003 A 
ATOM      8  C6  PXY d   1       1.596   0.689  -0.459  0.00  0.00     0.003 A 
ENDROOT
TORSDOF 0
ENDMDL
