MODEL 1
REMARK minimizedAffinity -6.3445344
REMARK minimizedRMSD -1
REMARK  0 active torsions:
REMARK  status: ('A' for Active; 'I' for Inactive)
ROOT
ATOM      1  C4' PXY d   1      -0.846  -0.153   1.019  0.00  0.00     0.077 C 
ATOM      2  C1' PXY d   1       2.605  -0.698  -3.586  0.00  0.00     0.077 C 
ATOM      3  C1  PXY d   1       1.706  -0.544  -2.375  0.00  0.00    -0.082 A 
ATOM      4  C2  PXY d   1       1.123  -1.611  -1.853  0.00  0.00     0.003 A 
ATOM      5  C3  PXY d   1       0.282  -1.485  -0.778  0.00  0.00     0.003 A 
ATOM      6  C4  PXY d   1       0.077  -0.262  -0.197  0.00  0.00    -0.082 A 
ATOM      7  C5  PXY d   1       0.677   0.830  -0.717  0.00  0.00     0.003 A 
ATOM      8  C6  PXY d   1       1.495   0.687  -1.835  0.00  0.00     0.003 A 
ENDROOT
TORSDOF 0
ENDMDL
