MODEL 1
REMARK minimizedAffinity -5.5071969
REMARK minimizedRMSD -1
REMARK  0 active torsions:
REMARK  status: ('A' for Active; 'I' for Inactive)
ROOT
ATOM      1  C4' PXY d   1       1.464   2.326  -1.214  0.00  0.00     0.077 C 
ATOM      2  C1' PXY d   1       0.088  -2.956   0.690  0.00  0.00     0.077 C 
ATOM      3  C1  PXY d   1       0.456  -1.576   0.181  0.00  0.00    -0.082 A 
ATOM      4  C2  PXY d   1       0.416  -0.543   1.006  0.00  0.00     0.003 A 
ATOM      5  C3  PXY d   1       0.714   0.717   0.555  0.00  0.00     0.003 A 
ATOM      6  C4  PXY d   1       1.110   0.913  -0.742  0.00  0.00    -0.082 A 
ATOM      7  C5  PXY d   1       1.164  -0.138  -1.587  0.00  0.00     0.003 A 
ATOM      8  C6  PXY d   1       0.817  -1.402  -1.120  0.00  0.00     0.003 A 
ENDROOT
TORSDOF 0
ENDMDL
