MODEL 1
REMARK minimizedAffinity 0.227108836
REMARK minimizedRMSD -1
REMARK  0 active torsions:
REMARK  status: ('A' for Active; 'I' for Inactive)
ROOT
ATOM      1  C4' PXY d   1      -0.020  -2.427   0.780  0.00  0.00     0.077 C 
ATOM      2  C1' PXY d   1       1.873   2.746  -0.973  0.00  0.00     0.077 C 
ATOM      3  C1  PXY d   1       1.369   1.395  -0.505  0.00  0.00    -0.082 A 
ATOM      4  C2  PXY d   1       2.117   0.319  -0.685  0.00  0.00     0.003 A 
ATOM      5  C3  PXY d   1       1.663  -0.915  -0.297  0.00  0.00     0.003 A 
ATOM      6  C4  PXY d   1       0.453  -1.042   0.331  0.00  0.00    -0.082 A 
ATOM      7  C5  PXY d   1      -0.312   0.053   0.529  0.00  0.00     0.003 A 
ATOM      8  C6  PXY d   1       0.150   1.291   0.090  0.00  0.00     0.003 A 
ENDROOT
TORSDOF 0
ENDMDL
