MODEL 1
REMARK minimizedAffinity 15.3212414
REMARK minimizedRMSD -1
REMARK  2 active torsions:
REMARK  status: ('A' for Active; 'I' for Inactive)
REMARK    1  A    between atoms: C1_2  and  C2_3 
REMARK    2  A    between atoms: C2_3  and  C3_4 
ROOT
ATOM      1  C3  UNL d   1       3.958  -2.392   4.700  0.00  0.00    -0.075 A 
ATOM      2  C4  UNL d   1       5.082  -1.861   5.348  0.00  0.00     0.002 A 
ATOM      3  C5  UNL d   1       5.993  -2.702   5.989  0.00  0.00     0.002 A 
ATOM      4  C6  UNL d   1       5.787  -4.080   5.998  0.00  0.00    -0.004 A 
ATOM      5  C7  UNL d   1       4.665  -4.617   5.371  0.00  0.00     0.002 A 
ATOM      6  C8  UNL d   1       3.754  -3.778   4.725  0.00  0.00     0.002 A 
ENDROOT
BRANCH   1   7
ATOM      7  C2  UNL d   1       2.984  -1.491   3.979  0.00  0.00     0.056 C 
BRANCH   7   8
ATOM      8  C1  UNL d   1       2.835  -1.799   2.486  0.00  0.00     0.007 C 
ATOM      9  C   UNL d   1       1.470  -1.422   1.928  0.00  0.00     0.009 C 
ENDBRANCH   7   8
ENDBRANCH   1   7
TORSDOF 2
ENDMDL
