MODEL 1
REMARK minimizedAffinity 10.1943769
REMARK minimizedRMSD -1
REMARK  2 active torsions:
REMARK  status: ('A' for Active; 'I' for Inactive)
REMARK    1  A    between atoms: C1_2  and  C2_3 
REMARK    2  A    between atoms: C2_3  and  C3_4 
ROOT
ATOM      1  C3  UNL d   1       2.458  -4.414   0.502  0.00  0.00    -0.075 A 
ATOM      2  C4  UNL d   1       3.428  -3.442   0.785  0.00  0.00     0.002 A 
ATOM      3  C5  UNL d   1       3.052  -2.132   1.083  0.00  0.00     0.002 A 
ATOM      4  C6  UNL d   1       1.705  -1.775   1.091  0.00  0.00    -0.004 A 
ATOM      5  C7  UNL d   1       0.734  -2.729   0.794  0.00  0.00     0.002 A 
ATOM      6  C8  UNL d   1       1.107  -4.042   0.500  0.00  0.00     0.002 A 
ENDROOT
BRANCH   1   7
ATOM      7  C2  UNL d   1       2.857  -5.841   0.208  0.00  0.00     0.056 C 
BRANCH   7   8
ATOM      8  C1  UNL d   1       3.729  -6.000  -1.042  0.00  0.00     0.007 C 
ATOM      9  C   UNL d   1       5.221  -6.000  -0.738  0.00  0.00     0.009 C 
ENDBRANCH   7   8
ENDBRANCH   1   7
TORSDOF 2
ENDMDL
