MODEL 1
REMARK minimizedAffinity 5.64883614
REMARK minimizedRMSD -1
REMARK  2 active torsions:
REMARK  status: ('A' for Active; 'I' for Inactive)
REMARK    1  A    between atoms: C1_2  and  C2_3 
REMARK    2  A    between atoms: C2_3  and  C3_4 
ROOT
ATOM      1  C3  UNL d   1       4.080  -3.568   5.174  0.00  0.00    -0.075 A 
ATOM      2  C4  UNL d   1       5.399  -3.597   5.649  0.00  0.00     0.002 A 
ATOM      3  C5  UNL d   1       6.000  -4.806   5.999  0.00  0.00     0.002 A 
ATOM      4  C6  UNL d   1       5.288  -5.999   5.889  0.00  0.00    -0.004 A 
ATOM      5  C7  UNL d   1       3.971  -5.980   5.434  0.00  0.00     0.002 A 
ATOM      6  C8  UNL d   1       3.369  -4.772   5.079  0.00  0.00     0.002 A 
ENDROOT
BRANCH   1   7
ATOM      7  C2  UNL d   1       3.434  -2.266   4.765  0.00  0.00     0.056 C 
BRANCH   7   8
ATOM      8  C1  UNL d   1       3.403  -2.033   3.251  0.00  0.00     0.007 C 
ATOM      9  C   UNL d   1       2.095  -1.424   2.764  0.00  0.00     0.009 C 
ENDBRANCH   7   8
ENDBRANCH   1   7
TORSDOF 2
ENDMDL
