MODEL 1
REMARK minimizedAffinity 14.8086853
REMARK minimizedRMSD -1
REMARK  2 active torsions:
REMARK  status: ('A' for Active; 'I' for Inactive)
REMARK    1  A    between atoms: C1_2  and  C2_3 
REMARK    2  A    between atoms: C2_3  and  C3_4 
ROOT
ATOM      1  C3  UNL d   1      -3.743   2.996   5.835  0.00  0.00    -0.075 A 
ATOM      2  C4  UNL d   1      -4.962   3.688   5.879  0.00  0.00     0.002 A 
ATOM      3  C5  UNL d   1      -4.983   5.081   5.955  0.00  0.00     0.002 A 
ATOM      4  C6  UNL d   1      -3.789   5.797   5.998  0.00  0.00    -0.004 A 
ATOM      5  C7  UNL d   1      -2.572   5.119   5.972  0.00  0.00     0.002 A 
ATOM      6  C8  UNL d   1      -2.548   3.725   5.891  0.00  0.00     0.002 A 
ENDROOT
BRANCH   1   7
ATOM      7  C2  UNL d   1      -3.714   1.490   5.723  0.00  0.00     0.056 C 
BRANCH   7   8
ATOM      8  C1  UNL d   1      -2.996   0.972   4.472  0.00  0.00     0.007 C 
ATOM      9  C   UNL d   1      -3.753   1.259   3.182  0.00  0.00     0.009 C 
ENDBRANCH   7   8
ENDBRANCH   1   7
TORSDOF 2
ENDMDL
