MODEL 1
REMARK minimizedAffinity 14.9893217
REMARK minimizedRMSD -1
REMARK  2 active torsions:
REMARK  status: ('A' for Active; 'I' for Inactive)
REMARK    1  A    between atoms: C1_2  and  C2_3 
REMARK    2  A    between atoms: C2_3  and  C3_4 
ROOT
ATOM      1  C3  UNL d   1      -0.465   3.228  -4.773  0.00  0.00    -0.075 A 
ATOM      2  C4  UNL d   1      -0.762   2.241  -5.724  0.00  0.00     0.002 A 
ATOM      3  C5  UNL d   1      -1.951   1.515  -5.645  0.00  0.00     0.002 A 
ATOM      4  C6  UNL d   1      -2.852   1.760  -4.611  0.00  0.00    -0.004 A 
ATOM      5  C7  UNL d   1      -2.560   2.726  -3.651  0.00  0.00     0.002 A 
ATOM      6  C8  UNL d   1      -1.373   3.457  -3.730  0.00  0.00     0.002 A 
ENDROOT
BRANCH   1   7
ATOM      7  C2  UNL d   1       0.806   4.036  -4.870  0.00  0.00     0.056 C 
BRANCH   7   8
ATOM      8  C1  UNL d   1       0.799   5.078  -5.994  0.00  0.00     0.007 C 
ATOM      9  C   UNL d   1       2.038   5.963  -6.000  0.00  0.00     0.009 C 
ENDBRANCH   7   8
ENDBRANCH   1   7
TORSDOF 2
ENDMDL
