MODEL 1
REMARK minimizedAffinity 17.6639633
REMARK minimizedRMSD -1
REMARK  2 active torsions:
REMARK  status: ('A' for Active; 'I' for Inactive)
REMARK    1  A    between atoms: C1_2  and  C2_3 
REMARK    2  A    between atoms: C2_3  and  C3_4 
ROOT
ATOM      1  C3  UNL d   1      -3.715   2.872  -3.878  0.00  0.00    -0.075 A 
ATOM      2  C4  UNL d   1      -4.032   4.226  -4.064  0.00  0.00     0.002 A 
ATOM      3  C5  UNL d   1      -5.100   4.598  -4.881  0.00  0.00     0.002 A 
ATOM      4  C6  UNL d   1      -5.856   3.624  -5.530  0.00  0.00    -0.004 A 
ATOM      5  C7  UNL d   1      -5.540   2.277  -5.366  0.00  0.00     0.002 A 
ATOM      6  C8  UNL d   1      -4.475   1.902  -4.545  0.00  0.00     0.002 A 
ENDROOT
BRANCH   1   7
ATOM      7  C2  UNL d   1      -2.579   2.462  -2.972  0.00  0.00     0.056 C 
BRANCH   7   8
ATOM      8  C1  UNL d   1      -3.027   2.003  -1.580  0.00  0.00     0.007 C 
ATOM      9  C   UNL d   1      -3.436   0.536  -1.535  0.00  0.00     0.009 C 
ENDBRANCH   7   8
ENDBRANCH   1   7
TORSDOF 2
ENDMDL
