MODEL 1
REMARK minimizedAffinity -1.98356521
REMARK minimizedRMSD -1
REMARK  3 active torsions:
REMARK  status: ('A' for Active; 'I' for Inactive)
REMARK    1  A    between atoms: C3'_2  and  C2'_3 
REMARK    2  A    between atoms: C2'_3  and  C1'_4 
REMARK    3  A    between atoms: C1'_4  and  C1_5 
ROOT
ATOM      1  C1  N4B d   1       4.789  -5.684  -3.914  0.00  0.00    -0.075 A 
ATOM      2  C2  N4B d   1       5.991  -5.949  -3.222  0.00  0.00     0.002 A 
ATOM      3  C3  N4B d   1       5.998  -5.987  -1.850  0.00  0.00     0.002 A 
ATOM      4  C4  N4B d   1       4.825  -5.747  -1.150  0.00  0.00    -0.004 A 
ATOM      5  C5  N4B d   1       3.663  -5.517  -1.827  0.00  0.00     0.002 A 
ATOM      6  C6  N4B d   1       3.640  -5.479  -3.206  0.00  0.00     0.002 A 
ENDROOT
BRANCH   1   7
ATOM      7  C1' N4B d   1       4.748  -5.546  -5.412  0.00  0.00     0.057 C 
BRANCH   7   8
ATOM      8  C2' N4B d   1       3.381  -5.995  -5.919  0.00  0.00     0.009 C 
BRANCH   8   9
ATOM      9  C3' N4B d   1       2.247  -5.300  -5.186  0.00  0.00     0.004 C 
ATOM     10  C4' N4B d   1       0.926  -5.983  -5.379  0.00  0.00     0.003 C 
ENDBRANCH   8   9
ENDBRANCH   7   8
ENDBRANCH   1   7
TORSDOF 3
ENDMDL
