MODEL 1
REMARK minimizedAffinity 1.73779559
REMARK minimizedRMSD -1
REMARK  3 active torsions:
REMARK  status: ('A' for Active; 'I' for Inactive)
REMARK    1  A    between atoms: C3'_2  and  C2'_3 
REMARK    2  A    between atoms: C2'_3  and  C1'_4 
REMARK    3  A    between atoms: C1'_4  and  C1_5 
ROOT
ATOM      1  C1  N4B d   1       3.123  -5.193  -3.048  0.00  0.00    -0.075 A 
ATOM      2  C2  N4B d   1       2.449  -5.728  -4.168  0.00  0.00     0.002 A 
ATOM      3  C3  N4B d   1       3.142  -5.993  -5.324  0.00  0.00     0.002 A 
ATOM      4  C4  N4B d   1       4.499  -5.713  -5.390  0.00  0.00    -0.004 A 
ATOM      5  C5  N4B d   1       5.147  -5.220  -4.295  0.00  0.00     0.002 A 
ATOM      6  C6  N4B d   1       4.464  -4.953  -3.125  0.00  0.00     0.002 A 
ENDROOT
BRANCH   1   7
ATOM      7  C1' N4B d   1       2.392  -4.807  -1.791  0.00  0.00     0.057 C 
BRANCH   7   8
ATOM      8  C2' N4B d   1       1.132  -4.031  -2.162  0.00  0.00     0.009 C 
BRANCH   8   9
ATOM      9  C3' N4B d   1       0.015  -4.245  -1.155  0.00  0.00     0.004 C 
ATOM     10  C4' N4B d   1      -0.725  -2.982  -0.831  0.00  0.00     0.003 C 
ENDBRANCH   8   9
ENDBRANCH   7   8
ENDBRANCH   1   7
TORSDOF 3
ENDMDL
