MODEL 1
REMARK minimizedAffinity -1.02334785
REMARK minimizedRMSD -1
REMARK  3 active torsions:
REMARK  status: ('A' for Active; 'I' for Inactive)
REMARK    1  A    between atoms: C3'_2  and  C2'_3 
REMARK    2  A    between atoms: C2'_3  and  C1'_4 
REMARK    3  A    between atoms: C1'_4  and  C1_5 
ROOT
ATOM      1  C1  N4B d   1       3.762   1.849   1.902  0.00  0.00    -0.075 A 
ATOM      2  C2  N4B d   1       3.520   2.688   0.792  0.00  0.00     0.002 A 
ATOM      3  C3  N4B d   1       2.231   3.017   0.448  0.00  0.00     0.002 A 
ATOM      4  C4  N4B d   1       1.173   2.506   1.185  0.00  0.00    -0.004 A 
ATOM      5  C5  N4B d   1       1.417   1.718   2.272  0.00  0.00     0.002 A 
ATOM      6  C6  N4B d   1       2.707   1.382   2.631  0.00  0.00     0.002 A 
ENDROOT
BRANCH   1   7
ATOM      7  C1' N4B d   1       5.149   1.393   2.264  0.00  0.00     0.057 C 
BRANCH   7   8
ATOM      8  C2' N4B d   1       6.000   2.608   2.619  0.00  0.00     0.009 C 
BRANCH   8   9
ATOM      9  C3' N4B d   1       5.201   3.899   2.557  0.00  0.00     0.004 C 
ATOM     10  C4' N4B d   1       4.694   4.333   3.901  0.00  0.00     0.003 C 
ENDBRANCH   8   9
ENDBRANCH   7   8
ENDBRANCH   1   7
TORSDOF 3
ENDMDL
