MODEL 1
REMARK minimizedAffinity -1.29103398
REMARK minimizedRMSD -1
REMARK  3 active torsions:
REMARK  status: ('A' for Active; 'I' for Inactive)
REMARK    1  A    between atoms: C3'_2  and  C2'_3 
REMARK    2  A    between atoms: C2'_3  and  C1'_4 
REMARK    3  A    between atoms: C1'_4  and  C1_5 
ROOT
ATOM      1  C1  N4B d   1       3.654   2.911   2.420  0.00  0.00    -0.075 A 
ATOM      2  C2  N4B d   1       3.704   4.304   2.648  0.00  0.00     0.002 A 
ATOM      3  C3  N4B d   1       4.874   4.890   3.063  0.00  0.00     0.002 A 
ATOM      4  C4  N4B d   1       5.998   4.105   3.274  0.00  0.00    -0.004 A 
ATOM      5  C5  N4B d   1       5.948   2.764   3.028  0.00  0.00     0.002 A 
ATOM      6  C6  N4B d   1       4.780   2.162   2.607  0.00  0.00     0.002 A 
ENDROOT
BRANCH   1   7
ATOM      7  C1' N4B d   1       2.375   2.212   2.049  0.00  0.00     0.057 C 
BRANCH   7   8
ATOM      8  C2' N4B d   1       1.753   2.913   0.845  0.00  0.00     0.009 C 
BRANCH   8   9
ATOM      9  C3' N4B d   1       0.236   2.937   0.924  0.00  0.00     0.004 C 
ATOM     10  C4' N4B d   1      -0.286   2.425   2.233  0.00  0.00     0.003 C 
ENDBRANCH   8   9
ENDBRANCH   7   8
ENDBRANCH   1   7
TORSDOF 3
ENDMDL
