MODEL 1
REMARK minimizedAffinity -1.2732507
REMARK minimizedRMSD -1
REMARK  3 active torsions:
REMARK  status: ('A' for Active; 'I' for Inactive)
REMARK    1  A    between atoms: C3'_2  and  C2'_3 
REMARK    2  A    between atoms: C2'_3  and  C1'_4 
REMARK    3  A    between atoms: C1'_4  and  C1_5 
ROOT
ATOM      1  C1  N4B d   1       2.966  -5.249  -3.585  0.00  0.00    -0.075 A 
ATOM      2  C2  N4B d   1       3.690  -5.639  -4.733  0.00  0.00     0.002 A 
ATOM      3  C3  N4B d   1       5.059  -5.539  -4.748  0.00  0.00     0.002 A 
ATOM      4  C4  N4B d   1       5.722  -5.037  -3.638  0.00  0.00    -0.004 A 
ATOM      5  C5  N4B d   1       5.018  -4.686  -2.524  0.00  0.00     0.002 A 
ATOM      6  C6  N4B d   1       3.641  -4.784  -2.494  0.00  0.00     0.002 A 
ENDROOT
BRANCH   1   7
ATOM      7  C1' N4B d   1       1.462  -5.259  -3.554  0.00  0.00     0.057 C 
BRANCH   7   8
ATOM      8  C2' N4B d   1       0.984  -4.600  -2.263  0.00  0.00     0.009 C 
BRANCH   8   9
ATOM      9  C3' N4B d   1      -0.455  -4.125  -2.367  0.00  0.00     0.004 C 
ATOM     10  C4' N4B d   1      -1.134  -4.032  -1.033  0.00  0.00     0.003 C 
ENDBRANCH   8   9
ENDBRANCH   7   8
ENDBRANCH   1   7
TORSDOF 3
ENDMDL
