MODEL 1
REMARK minimizedAffinity 2.87400317
REMARK minimizedRMSD -1
REMARK  3 active torsions:
REMARK  status: ('A' for Active; 'I' for Inactive)
REMARK    1  A    between atoms: C3'_2  and  C2'_3 
REMARK    2  A    between atoms: C2'_3  and  C1'_4 
REMARK    3  A    between atoms: C1'_4  and  C1_5 
ROOT
ATOM      1  C1  N4B d   1       3.733  -5.425  -3.620  0.00  0.00    -0.075 A 
ATOM      2  C2  N4B d   1       3.078  -5.823  -4.807  0.00  0.00     0.002 A 
ATOM      3  C3  N4B d   1       3.783  -5.915  -5.982  0.00  0.00     0.002 A 
ATOM      4  C4  N4B d   1       5.133  -5.599  -5.999  0.00  0.00    -0.004 A 
ATOM      5  C5  N4B d   1       5.763  -5.240  -4.843  0.00  0.00     0.002 A 
ATOM      6  C6  N4B d   1       5.069  -5.147  -3.654  0.00  0.00     0.002 A 
ENDROOT
BRANCH   1   7
ATOM      7  C1' N4B d   1       2.986  -5.227  -2.329  0.00  0.00     0.057 C 
BRANCH   7   8
ATOM      8  C2' N4B d   1       1.520  -4.939  -2.638  0.00  0.00     0.009 C 
BRANCH   8   9
ATOM      9  C3' N4B d   1       0.678  -4.865  -1.376  0.00  0.00     0.004 C 
ATOM     10  C4' N4B d   1      -0.741  -4.462  -1.648  0.00  0.00     0.003 C 
ENDBRANCH   8   9
ENDBRANCH   7   8
ENDBRANCH   1   7
TORSDOF 3
ENDMDL
