MODEL 1
REMARK minimizedAffinity 0.507769406
REMARK minimizedRMSD -1
REMARK  3 active torsions:
REMARK  status: ('A' for Active; 'I' for Inactive)
REMARK    1  A    between atoms: C3'_2  and  C2'_3 
REMARK    2  A    between atoms: C2'_3  and  C1'_4 
REMARK    3  A    between atoms: C1'_4  and  C1_5 
ROOT
ATOM      1  C1  N4B d   1       2.819  -5.947  -3.559  0.00  0.00    -0.075 A 
ATOM      2  C2  N4B d   1       4.223  -5.968  -3.411  0.00  0.00     0.002 A 
ATOM      3  C3  N4B d   1       4.781  -5.999  -2.157  0.00  0.00     0.002 A 
ATOM      4  C4  N4B d   1       3.959  -5.992  -1.040  0.00  0.00    -0.004 A 
ATOM      5  C5  N4B d   1       2.603  -5.997  -1.192  0.00  0.00     0.002 A 
ATOM      6  C6  N4B d   1       2.028  -5.969  -2.447  0.00  0.00     0.002 A 
ENDROOT
BRANCH   1   7
ATOM      7  C1' N4B d   1       2.164  -5.825  -4.908  0.00  0.00     0.057 C 
BRANCH   7   8
ATOM      8  C2' N4B d   1       3.220  -5.997  -5.995  0.00  0.00     0.009 C 
BRANCH   8   9
ATOM      9  C3' N4B d   1       4.226  -4.859  -5.995  0.00  0.00     0.004 C 
ATOM     10  C4' N4B d   1       5.645  -5.338  -5.920  0.00  0.00     0.003 C 
ENDBRANCH   8   9
ENDBRANCH   7   8
ENDBRANCH   1   7
TORSDOF 3
ENDMDL
