MODEL 1
REMARK minimizedAffinity -1.32863438
REMARK minimizedRMSD -1
REMARK  3 active torsions:
REMARK  status: ('A' for Active; 'I' for Inactive)
REMARK    1  A    between atoms: C3'_2  and  C2'_3 
REMARK    2  A    between atoms: C2'_3  and  C1'_4 
REMARK    3  A    between atoms: C1'_4  and  C1_5 
ROOT
ATOM      1  C1  N4B d   1       3.915  -5.374  -3.013  0.00  0.00    -0.075 A 
ATOM      2  C2  N4B d   1       3.492  -5.973  -4.220  0.00  0.00     0.002 A 
ATOM      3  C3  N4B d   1       4.334  -5.998  -5.305  0.00  0.00     0.002 A 
ATOM      4  C4  N4B d   1       5.590  -5.417  -5.213  0.00  0.00    -0.004 A 
ATOM      5  C5  N4B d   1       6.000  -4.864  -4.036  0.00  0.00     0.002 A 
ATOM      6  C6  N4B d   1       5.167  -4.834  -2.936  0.00  0.00     0.002 A 
ENDROOT
BRANCH   1   7
ATOM      7  C1' N4B d   1       2.999  -5.246  -1.826  0.00  0.00     0.057 C 
BRANCH   7   8
ATOM      8  C2' N4B d   1       1.564  -5.082  -2.317  0.00  0.00     0.009 C 
BRANCH   8   9
ATOM      9  C3' N4B d   1       0.798  -4.055  -1.501  0.00  0.00     0.004 C 
ATOM     10  C4' N4B d   1      -0.578  -4.520  -1.128  0.00  0.00     0.003 C 
ENDBRANCH   8   9
ENDBRANCH   7   8
ENDBRANCH   1   7
TORSDOF 3
ENDMDL
