MODEL 1
REMARK minimizedAffinity 1.09686553
REMARK minimizedRMSD -1
REMARK  0 active torsions:
REMARK  status: ('A' for Active; 'I' for Inactive)
ROOT
ATOM      1  C1  BNZ d   1       1.305  -0.721  -2.581  0.00  0.00     0.000 A 
ATOM      2  C2  BNZ d   1       2.619  -0.970  -2.877  0.00  0.00     0.000 A 
ATOM      3  C3  BNZ d   1       3.604  -0.697  -1.970  0.00  0.00     0.000 A 
ATOM      4  C4  BNZ d   1       3.280  -0.141  -0.785  0.00  0.00     0.000 A 
ATOM      5  C5  BNZ d   1       1.961   0.124  -0.476  0.00  0.00     0.000 A 
ATOM      6  C6  BNZ d   1       0.968  -0.187  -1.376  0.00  0.00     0.000 A 
ENDROOT
TORSDOF 0
ENDMDL
