MODEL 1
REMARK minimizedAffinity -3.53589725
REMARK minimizedRMSD -1
REMARK  0 active torsions:
REMARK  status: ('A' for Active; 'I' for Inactive)
ROOT
ATOM      1  C1  BNZ d   1      -3.342   2.039  -5.707  0.00  0.00     0.000 A 
ATOM      2  C2  BNZ d   1      -4.675   2.060  -5.392  0.00  0.00     0.000 A 
ATOM      3  C3  BNZ d   1      -5.403   0.903  -5.355  0.00  0.00     0.000 A 
ATOM      4  C4  BNZ d   1      -4.809  -0.265  -5.671  0.00  0.00     0.000 A 
ATOM      5  C5  BNZ d   1      -3.468  -0.301  -6.000  0.00  0.00     0.000 A 
ATOM      6  C6  BNZ d   1      -2.729   0.860  -5.999  0.00  0.00     0.000 A 
ENDROOT
TORSDOF 0
ENDMDL
