MODEL 1
REMARK minimizedAffinity -2.8457756
REMARK minimizedRMSD -1
REMARK  0 active torsions:
REMARK  status: ('A' for Active; 'I' for Inactive)
ROOT
ATOM      1  C1  BNZ d   1      -2.912   1.046  -5.985  0.00  0.00     0.000 A 
ATOM      2  C2  BNZ d   1      -4.028   0.251  -5.981  0.00  0.00     0.000 A 
ATOM      3  C3  BNZ d   1      -5.279   0.802  -6.000  0.00  0.00     0.000 A 
ATOM      4  C4  BNZ d   1      -5.413   2.143  -5.983  0.00  0.00     0.000 A 
ATOM      5  C5  BNZ d   1      -4.298   2.958  -5.978  0.00  0.00     0.000 A 
ATOM      6  C6  BNZ d   1      -3.040   2.400  -5.998  0.00  0.00     0.000 A 
ENDROOT
TORSDOF 0
ENDMDL
