MODEL 1
REMARK minimizedAffinity -1.56588113
REMARK minimizedRMSD -1
REMARK  0 active torsions:
REMARK  status: ('A' for Active; 'I' for Inactive)
ROOT
ATOM      1  C1  BNZ d   1      -3.636   1.711  -6.000  0.00  0.00     0.000 A 
ATOM      2  C2  BNZ d   1      -2.967   2.905  -5.976  0.00  0.00     0.000 A 
ATOM      3  C3  BNZ d   1      -3.649   4.089  -5.939  0.00  0.00     0.000 A 
ATOM      4  C4  BNZ d   1      -4.997   4.079  -5.966  0.00  0.00     0.000 A 
ATOM      5  C5  BNZ d   1      -5.687   2.883  -5.999  0.00  0.00     0.000 A 
ATOM      6  C6  BNZ d   1      -4.997   1.692  -5.997  0.00  0.00     0.000 A 
ENDROOT
TORSDOF 0
ENDMDL
