MODEL 1
REMARK minimizedAffinity -0.782286167
REMARK minimizedRMSD -1
REMARK  0 active torsions:
REMARK  status: ('A' for Active; 'I' for Inactive)
ROOT
ATOM      1  C1  BNZ d   1      -3.991   4.632  -6.000  0.00  0.00     0.000 A 
ATOM      2  C2  BNZ d   1      -4.726   3.477  -5.998  0.00  0.00     0.000 A 
ATOM      3  C3  BNZ d   1      -4.111   2.256  -5.966  0.00  0.00     0.000 A 
ATOM      4  C4  BNZ d   1      -2.764   2.192  -5.976  0.00  0.00     0.000 A 
ATOM      5  C5  BNZ d   1      -2.009   3.347  -5.986  0.00  0.00     0.000 A 
ATOM      6  C6  BNZ d   1      -2.631   4.575  -5.980  0.00  0.00     0.000 A 
ENDROOT
TORSDOF 0
ENDMDL
