MODEL 1
REMARK minimizedAffinity 0.0890267491
REMARK minimizedRMSD -1
REMARK  0 active torsions:
REMARK  status: ('A' for Active; 'I' for Inactive)
ROOT
ATOM      1  C1  BNZ d   1      -4.385   3.945  -5.996  0.00  0.00     0.000 A 
ATOM      2  C2  BNZ d   1      -4.696   2.612  -6.000  0.00  0.00     0.000 A 
ATOM      3  C3  BNZ d   1      -3.712   1.663  -5.979  0.00  0.00     0.000 A 
ATOM      4  C4  BNZ d   1      -2.419   2.049  -5.994  0.00  0.00     0.000 A 
ATOM      5  C5  BNZ d   1      -2.090   3.389  -5.999  0.00  0.00     0.000 A 
ATOM      6  C6  BNZ d   1      -3.083   4.341  -5.981  0.00  0.00     0.000 A 
ENDROOT
TORSDOF 0
ENDMDL
