MODEL 1
REMARK minimizedAffinity -1.6634649
REMARK minimizedRMSD -1
REMARK  0 active torsions:
REMARK  status: ('A' for Active; 'I' for Inactive)
ROOT
ATOM      1  C1  BNZ d   1      -3.848   0.817  -5.989  0.00  0.00     0.000 A 
ATOM      2  C2  BNZ d   1      -2.772   1.665  -6.000  0.00  0.00     0.000 A 
ATOM      3  C3  BNZ d   1      -2.949   3.020  -5.985  0.00  0.00     0.000 A 
ATOM      4  C4  BNZ d   1      -4.200   3.526  -5.999  0.00  0.00     0.000 A 
ATOM      5  C5  BNZ d   1      -5.294   2.684  -5.998  0.00  0.00     0.000 A 
ATOM      6  C6  BNZ d   1      -5.112   1.320  -5.973  0.00  0.00     0.000 A 
ENDROOT
TORSDOF 0
ENDMDL
