MODEL 1
REMARK minimizedAffinity -1.37895417
REMARK minimizedRMSD -1
REMARK  0 active torsions:
REMARK  status: ('A' for Active; 'I' for Inactive)
ROOT
ATOM      1  C1  BNZ d   1       2.405  -0.231  -1.705  0.00  0.00     0.000 A 
ATOM      2  C2  BNZ d   1       1.197  -0.402  -2.327  0.00  0.00     0.000 A 
ATOM      3  C3  BNZ d   1       0.027  -0.181  -1.657  0.00  0.00     0.000 A 
ATOM      4  C4  BNZ d   1       0.065   0.171  -0.355  0.00  0.00     0.000 A 
ATOM      5  C5  BNZ d   1       1.274   0.338   0.289  0.00  0.00     0.000 A 
ATOM      6  C6  BNZ d   1       2.451   0.153  -0.400  0.00  0.00     0.000 A 
ENDROOT
TORSDOF 0
ENDMDL
