MODEL 1
REMARK minimizedAffinity -1.95785892
REMARK minimizedRMSD -1
REMARK  0 active torsions:
REMARK  status: ('A' for Active; 'I' for Inactive)
ROOT
ATOM      1  C1  BNZ d   1      -3.855   1.865  -6.000  0.00  0.00     0.000 A 
ATOM      2  C2  BNZ d   1      -5.224   1.858  -5.995  0.00  0.00     0.000 A 
ATOM      3  C3  BNZ d   1      -5.930   3.028  -5.988  0.00  0.00     0.000 A 
ATOM      4  C4  BNZ d   1      -5.267   4.202  -5.945  0.00  0.00     0.000 A 
ATOM      5  C5  BNZ d   1      -3.887   4.225  -5.940  0.00  0.00     0.000 A 
ATOM      6  C6  BNZ d   1      -3.179   3.046  -5.986  0.00  0.00     0.000 A 
ENDROOT
TORSDOF 0
ENDMDL
