MODEL 1
REMARK minimizedAffinity -2.18685675
REMARK minimizedRMSD -1
REMARK  0 active torsions:
REMARK  status: ('A' for Active; 'I' for Inactive)
ROOT
ATOM      1  C1  BNZ d   1      -2.336   2.151  -5.995  0.00  0.00     0.000 A 
ATOM      2  C2  BNZ d   1      -2.975   3.362  -5.998  0.00  0.00     0.000 A 
ATOM      3  C3  BNZ d   1      -4.340   3.433  -5.977  0.00  0.00     0.000 A 
ATOM      4  C4  BNZ d   1      -5.063   2.295  -5.993  0.00  0.00     0.000 A 
ATOM      5  C5  BNZ d   1      -4.434   1.066  -5.999  0.00  0.00     0.000 A 
ATOM      6  C6  BNZ d   1      -3.060   0.998  -5.982  0.00  0.00     0.000 A 
ENDROOT
TORSDOF 0
ENDMDL
