MODEL 1
REMARK minimizedAffinity -1.77052355
REMARK minimizedRMSD -1
REMARK  0 active torsions:
REMARK  status: ('A' for Active; 'I' for Inactive)
ROOT
ATOM      1  C1  BNZ d   1      -4.158   1.502  -5.999  0.00  0.00     0.000 A 
ATOM      2  C2  BNZ d   1      -2.979   2.198  -6.000  0.00  0.00     0.000 A 
ATOM      3  C3  BNZ d   1      -2.973   3.565  -5.975  0.00  0.00     0.000 A 
ATOM      4  C4  BNZ d   1      -4.145   4.233  -5.991  0.00  0.00     0.000 A 
ATOM      5  C5  BNZ d   1      -5.342   3.546  -6.000  0.00  0.00     0.000 A 
ATOM      6  C6  BNZ d   1      -5.344   2.170  -5.985  0.00  0.00     0.000 A 
ENDROOT
TORSDOF 0
ENDMDL
