MODEL 1
REMARK minimizedAffinity -1.05025184
REMARK minimizedRMSD -1
REMARK  0 active torsions:
REMARK  status: ('A' for Active; 'I' for Inactive)
ROOT
ATOM      1  C1  BNZ d   1      -1.810   1.792  -5.983  0.00  0.00     0.000 A 
ATOM      2  C2  BNZ d   1      -2.309   3.067  -5.995  0.00  0.00     0.000 A 
ATOM      3  C3  BNZ d   1      -3.658   3.291  -5.983  0.00  0.00     0.000 A 
ATOM      4  C4  BNZ d   1      -4.504   2.241  -6.000  0.00  0.00     0.000 A 
ATOM      5  C5  BNZ d   1      -4.017   0.950  -5.998  0.00  0.00     0.000 A 
ATOM      6  C6  BNZ d   1      -2.659   0.728  -5.971  0.00  0.00     0.000 A 
ENDROOT
TORSDOF 0
ENDMDL
