MODEL 1
REMARK minimizedAffinity -0.857380927
REMARK minimizedRMSD -1
REMARK  0 active torsions:
REMARK  status: ('A' for Active; 'I' for Inactive)
ROOT
ATOM      1  C1  BNZ d   1       1.327  -0.741  -1.621  0.00  0.00     0.000 A 
ATOM      2  C2  BNZ d   1       2.373  -1.502  -2.072  0.00  0.00     0.000 A 
ATOM      3  C3  BNZ d   1       3.664  -1.160  -1.781  0.00  0.00     0.000 A 
ATOM      4  C4  BNZ d   1       3.909  -0.037  -1.076  0.00  0.00     0.000 A 
ATOM      5  C5  BNZ d   1       2.866   0.746  -0.622  0.00  0.00     0.000 A 
ATOM      6  C6  BNZ d   1       1.567   0.377  -0.883  0.00  0.00     0.000 A 
ENDROOT
TORSDOF 0
ENDMDL
