MODEL 1
REMARK minimizedAffinity -3.04631948
REMARK minimizedRMSD -1
REMARK  0 active torsions:
REMARK  status: ('A' for Active; 'I' for Inactive)
ROOT
ATOM      1  C1  BNZ d   1      -4.253  -5.468  -6.000  0.00  0.00     0.000 A 
ATOM      2  C2  BNZ d   1      -4.541  -4.166  -5.689  0.00  0.00     0.000 A 
ATOM      3  C3  BNZ d   1      -3.544  -3.281  -5.386  0.00  0.00     0.000 A 
ATOM      4  C4  BNZ d   1      -2.265  -3.709  -5.355  0.00  0.00     0.000 A 
ATOM      5  C5  BNZ d   1      -1.960  -5.021  -5.657  0.00  0.00     0.000 A 
ATOM      6  C6  BNZ d   1      -2.962  -5.899  -5.999  0.00  0.00     0.000 A 
ENDROOT
TORSDOF 0
ENDMDL
