MODEL 1
REMARK minimizedAffinity -0.169932008
REMARK minimizedRMSD -1
REMARK  1 active torsions:
REMARK  status: ('A' for Active; 'I' for Inactive)
REMARK    1  A    between atoms: C1_2  and  C2_3 
ROOT
ATOM      1  C2  UNL d   1       1.399   0.182  -0.065  0.00  0.00    -0.077 A 
ATOM      2  C3  UNL d   1       1.456   1.426   0.580  0.00  0.00     0.002 A 
ATOM      3  C4  UNL d   1       2.609   2.209   0.503  0.00  0.00     0.002 A 
ATOM      4  C5  UNL d   1       3.712   1.759  -0.221  0.00  0.00    -0.004 A 
ATOM      5  C6  UNL d   1       3.666   0.523  -0.864  0.00  0.00     0.002 A 
ATOM      6  C7  UNL d   1       2.514  -0.262  -0.787  0.00  0.00     0.002 A 
ENDROOT
BRANCH   1   7
ATOM      7  C1  UNL d   1       0.138  -0.642  -0.024  0.00  0.00     0.055 C 
ATOM      8  C   UNL d   1       0.446  -2.129  -0.115  0.00  0.00     0.019 C 
ENDBRANCH   1   7
TORSDOF 1
ENDMDL
