MODEL 1
REMARK minimizedAffinity 5.25110245
REMARK minimizedRMSD -1
REMARK  1 active torsions:
REMARK  status: ('A' for Active; 'I' for Inactive)
REMARK    1  A    between atoms: C1_2  and  C2_3 
ROOT
ATOM      1  C2  UNL d   1       1.263   0.516   0.550  0.00  0.00    -0.077 A 
ATOM      2  C3  UNL d   1       1.631  -0.819   0.329  0.00  0.00     0.002 A 
ATOM      3  C4  UNL d   1       2.978  -1.171   0.218  0.00  0.00     0.002 A 
ATOM      4  C5  UNL d   1       3.966  -0.196   0.329  0.00  0.00    -0.004 A 
ATOM      5  C6  UNL d   1       3.611   1.135   0.547  0.00  0.00     0.002 A 
ATOM      6  C7  UNL d   1       2.265   1.489   0.657  0.00  0.00     0.002 A 
ENDROOT
BRANCH   1   7
ATOM      7  C1  UNL d   1      -0.186   0.891   0.719  0.00  0.00     0.055 C 
ATOM      8  C   UNL d   1      -0.634   0.730   2.165  0.00  0.00     0.019 C 
ENDBRANCH   1   7
TORSDOF 1
ENDMDL
