MODEL 1
REMARK minimizedAffinity 1.98176372
REMARK minimizedRMSD -1
REMARK  1 active torsions:
REMARK  status: ('A' for Active; 'I' for Inactive)
REMARK    1  A    between atoms: C1_2  and  C2_3 
ROOT
ATOM      1  C2  UNL d   1       1.384   0.919  -0.075  0.00  0.00    -0.077 A 
ATOM      2  C3  UNL d   1       1.665  -0.453  -0.124  0.00  0.00     0.002 A 
ATOM      3  C4  UNL d   1       2.976  -0.911   0.015  0.00  0.00     0.002 A 
ATOM      4  C5  UNL d   1       4.016  -0.004   0.207  0.00  0.00    -0.004 A 
ATOM      5  C6  UNL d   1       3.747   1.364   0.255  0.00  0.00     0.002 A 
ATOM      6  C7  UNL d   1       2.437   1.823   0.115  0.00  0.00     0.002 A 
ENDROOT
BRANCH   1   7
ATOM      7  C1  UNL d   1      -0.036   1.412  -0.176  0.00  0.00     0.055 C 
ATOM      8  C   UNL d   1      -0.694   1.487   1.194  0.00  0.00     0.019 C 
ENDBRANCH   1   7
TORSDOF 1
ENDMDL
