MODEL 1
REMARK minimizedAffinity 6.02811003
REMARK minimizedRMSD -1
REMARK  1 active torsions:
REMARK  status: ('A' for Active; 'I' for Inactive)
REMARK    1  A    between atoms: C1_2  and  C2_3 
ROOT
ATOM      1  C2  UNL d   1       2.626  -0.057   0.038  0.00  0.00    -0.077 A 
ATOM      2  C3  UNL d   1       3.525   0.993   0.272  0.00  0.00     0.002 A 
ATOM      3  C4  UNL d   1       3.088   2.319   0.234  0.00  0.00     0.002 A 
ATOM      4  C5  UNL d   1       1.751   2.606  -0.033  0.00  0.00    -0.004 A 
ATOM      5  C6  UNL d   1       0.849   1.569  -0.268  0.00  0.00     0.002 A 
ATOM      6  C7  UNL d   1       1.285   0.243  -0.232  0.00  0.00     0.002 A 
ENDROOT
BRANCH   1   7
ATOM      7  C1  UNL d   1       3.085  -1.489   0.127  0.00  0.00     0.055 C 
ATOM      8  C   UNL d   1       1.904  -2.448   0.150  0.00  0.00     0.019 C 
ENDBRANCH   1   7
TORSDOF 1
ENDMDL
