MODEL 1
REMARK minimizedAffinity -1.49836659
REMARK minimizedRMSD -1
REMARK  1 active torsions:
REMARK  status: ('A' for Active; 'I' for Inactive)
REMARK    1  A    between atoms: C1_2  and  C2_3 
ROOT
ATOM      1  C2  UNL d   1       3.138  -0.413  -0.325  0.00  0.00    -0.077 A 
ATOM      2  C3  UNL d   1       4.053   0.230  -1.170  0.00  0.00     0.002 A 
ATOM      3  C4  UNL d   1       4.180   1.620  -1.146  0.00  0.00     0.002 A 
ATOM      4  C5  UNL d   1       3.398   2.378  -0.277  0.00  0.00    -0.004 A 
ATOM      5  C6  UNL d   1       2.483   1.748   0.566  0.00  0.00     0.002 A 
ATOM      6  C7  UNL d   1       2.354   0.358   0.542  0.00  0.00     0.002 A 
ENDROOT
BRANCH   1   7
ATOM      7  C1  UNL d   1       3.035  -1.916  -0.314  0.00  0.00     0.055 C 
ATOM      8  C   UNL d   1       1.583  -2.371  -0.280  0.00  0.00     0.019 C 
ENDBRANCH   1   7
TORSDOF 1
ENDMDL
