MODEL 1
REMARK minimizedAffinity 1.42659557
REMARK minimizedRMSD -1
REMARK  1 active torsions:
REMARK  status: ('A' for Active; 'I' for Inactive)
REMARK    1  A    between atoms: C1_2  and  C2_3 
ROOT
ATOM      1  C2  UNL d   1       1.351  -0.239  -0.498  0.00  0.00    -0.077 A 
ATOM      2  C3  UNL d   1       0.039  -0.232  -0.991  0.00  0.00     0.002 A 
ATOM      3  C4  UNL d   1      -0.615  -1.432  -1.277  0.00  0.00     0.002 A 
ATOM      4  C5  UNL d   1       0.034  -2.647  -1.070  0.00  0.00    -0.004 A 
ATOM      5  C6  UNL d   1       1.340  -2.665  -0.582  0.00  0.00     0.002 A 
ATOM      6  C7  UNL d   1       1.995  -1.467  -0.296  0.00  0.00     0.002 A 
ENDROOT
BRANCH   1   7
ATOM      7  C1  UNL d   1       2.041   1.052  -0.142  0.00  0.00     0.055 C 
ATOM      8  C   UNL d   1       3.454   1.099  -0.704  0.00  0.00     0.019 C 
ENDBRANCH   1   7
TORSDOF 1
ENDMDL
