MODEL 1
REMARK minimizedAffinity 14.3652
REMARK minimizedRMSD -1
REMARK  0 active torsions:
REMARK  status: ('A' for Active; 'I' for Inactive)
ROOT
ATOM      1  C   UNL d   1      -3.292   0.293   0.447  0.00  0.00     0.023 A 
ATOM      2  C1  UNL d   1      -2.577  -0.086  -0.689  0.00  0.00     0.003 A 
ATOM      3  C2  UNL d   1      -1.183  -0.155  -0.649  0.00  0.00     0.048 A 
ATOM      4  C3  UNL d   1      -0.510   0.156   0.532  0.00  0.00     0.023 A 
ATOM      5  C4  UNL d   1      -1.221   0.535   1.672  0.00  0.00     0.048 A 
ATOM      6  C5  UNL d   1      -2.614   0.603   1.627  0.00  0.00     0.003 A 
ATOM      7  I   UNL d   1       1.565   0.055   0.596  0.00  0.00    -0.146 I 
ENDROOT
TORSDOF 0
ENDMDL
