MODEL 1
REMARK minimizedAffinity 9.07874584
REMARK minimizedRMSD -1
REMARK  0 active torsions:
REMARK  status: ('A' for Active; 'I' for Inactive)
ROOT
ATOM      1  C   UNL d   1      -1.271  -1.579   4.073  0.00  0.00     0.023 A 
ATOM      2  C1  UNL d   1      -0.261  -0.987   3.313  0.00  0.00     0.003 A 
ATOM      3  C2  UNL d   1      -0.582  -0.281   2.152  0.00  0.00     0.048 A 
ATOM      4  C3  UNL d   1      -1.915  -0.169   1.757  0.00  0.00     0.023 A 
ATOM      5  C4  UNL d   1      -2.928  -0.759   2.514  0.00  0.00     0.048 A 
ATOM      6  C5  UNL d   1      -2.603  -1.465   3.674  0.00  0.00     0.003 A 
ATOM      7  I   UNL d   1      -2.395   0.881   0.029  0.00  0.00    -0.146 I 
ENDROOT
TORSDOF 0
ENDMDL
