MODEL 1
REMARK minimizedAffinity 8.11654377
REMARK minimizedRMSD -1
REMARK  0 active torsions:
REMARK  status: ('A' for Active; 'I' for Inactive)
ROOT
ATOM      1  C   UNL d   1      -1.934   0.427   0.269  0.00  0.00     0.023 A 
ATOM      2  C1  UNL d   1      -2.559   0.349   1.514  0.00  0.00     0.003 A 
ATOM      3  C2  UNL d   1      -1.844  -0.094   2.629  0.00  0.00     0.048 A 
ATOM      4  C3  UNL d   1      -0.505  -0.455   2.492  0.00  0.00     0.023 A 
ATOM      5  C4  UNL d   1       0.125  -0.378   1.249  0.00  0.00     0.048 A 
ATOM      6  C5  UNL d   1      -0.594   0.064   0.137  0.00  0.00     0.003 A 
ATOM      7  I   UNL d   1       0.561  -1.114   4.150  0.00  0.00    -0.146 I 
ENDROOT
TORSDOF 0
ENDMDL
