MODEL 1
REMARK minimizedAffinity 8.3820467
REMARK minimizedRMSD -1
REMARK  0 active torsions:
REMARK  status: ('A' for Active; 'I' for Inactive)
ROOT
ATOM      1  C   UNL d   1       0.439  -0.983   3.809  0.00  0.00     0.023 A 
ATOM      2  C1  UNL d   1       1.108  -0.558   2.661  0.00  0.00     0.003 A 
ATOM      3  C2  UNL d   1       0.384  -0.083   1.566  0.00  0.00     0.048 A 
ATOM      4  C3  UNL d   1      -1.008  -0.033   1.626  0.00  0.00     0.023 A 
ATOM      5  C4  UNL d   1      -1.682  -0.457   2.773  0.00  0.00     0.048 A 
ATOM      6  C5  UNL d   1      -0.954  -0.932   3.865  0.00  0.00     0.003 A 
ATOM      7  I   UNL d   1      -2.088   0.674  -0.004  0.00  0.00    -0.146 I 
ENDROOT
TORSDOF 0
ENDMDL
