MODEL 1
REMARK minimizedAffinity 0.830370367
REMARK minimizedRMSD -1
REMARK  0 active torsions:
REMARK  status: ('A' for Active; 'I' for Inactive)
ROOT
ATOM      1  C   UNL d   1      -0.669   0.230   0.055  0.00  0.00     0.023 A 
ATOM      2  C1  UNL d   1       0.419  -0.475   0.569  0.00  0.00     0.003 A 
ATOM      3  C2  UNL d   1       0.384  -0.960   1.877  0.00  0.00     0.048 A 
ATOM      4  C3  UNL d   1      -0.744  -0.738   2.667  0.00  0.00     0.023 A 
ATOM      5  C4  UNL d   1      -1.836  -0.034   2.157  0.00  0.00     0.048 A 
ATOM      6  C5  UNL d   1      -1.795   0.451   0.849  0.00  0.00     0.003 A 
ATOM      7  I   UNL d   1      -0.799  -1.460   4.615  0.00  0.00    -0.146 I 
ENDROOT
TORSDOF 0
ENDMDL
