MODEL 1
REMARK minimizedAffinity 0.640619159
REMARK minimizedRMSD -1
REMARK  0 active torsions:
REMARK  status: ('A' for Active; 'I' for Inactive)
ROOT
ATOM      1  C   UNL d   1      -0.036  -0.370  -0.799  0.00  0.00     0.023 A 
ATOM      2  C1  UNL d   1       0.670  -0.228   0.395  0.00  0.00     0.003 A 
ATOM      3  C2  UNL d   1       0.003  -0.325   1.618  0.00  0.00     0.048 A 
ATOM      4  C3  UNL d   1      -1.370  -0.565   1.640  0.00  0.00     0.023 A 
ATOM      5  C4  UNL d   1      -2.081  -0.709   0.447  0.00  0.00     0.048 A 
ATOM      6  C5  UNL d   1      -1.410  -0.611  -0.773  0.00  0.00     0.003 A 
ATOM      7  I   UNL d   1      -2.365  -0.711   3.459  0.00  0.00    -0.146 I 
ENDROOT
TORSDOF 0
ENDMDL
