MODEL 1
REMARK minimizedAffinity 0.530595839
REMARK minimizedRMSD -1
REMARK  0 active torsions:
REMARK  status: ('A' for Active; 'I' for Inactive)
ROOT
ATOM      1  C   UNL d   1      -0.452  -0.016   0.527  0.00  0.00     0.023 A 
ATOM      2  C1  UNL d   1      -0.355  -0.848  -0.589  0.00  0.00     0.003 A 
ATOM      3  C2  UNL d   1      -1.500  -1.452  -1.113  0.00  0.00     0.048 A 
ATOM      4  C3  UNL d   1      -2.739  -1.220  -0.516  0.00  0.00     0.023 A 
ATOM      5  C4  UNL d   1      -2.841  -0.388   0.600  0.00  0.00     0.048 A 
ATOM      6  C5  UNL d   1      -1.693   0.213   1.121  0.00  0.00     0.003 A 
ATOM      7  I   UNL d   1      -4.444  -2.119  -1.293  0.00  0.00    -0.146 I 
ENDROOT
TORSDOF 0
ENDMDL
