MODEL 1
REMARK minimizedAffinity 4.00997782
REMARK minimizedRMSD -1
REMARK  0 active torsions:
REMARK  status: ('A' for Active; 'I' for Inactive)
ROOT
ATOM      1  C   UNL d   1      -1.724   0.420   0.833  0.00  0.00     0.023 A 
ATOM      2  C1  UNL d   1      -0.500  -0.242   0.928  0.00  0.00     0.003 A 
ATOM      3  C2  UNL d   1      -0.092  -0.787   2.147  0.00  0.00     0.048 A 
ATOM      4  C3  UNL d   1      -0.915  -0.668   3.267  0.00  0.00     0.023 A 
ATOM      5  C4  UNL d   1      -2.141  -0.007   3.176  0.00  0.00     0.048 A 
ATOM      6  C5  UNL d   1      -2.544   0.537   1.955  0.00  0.00     0.003 A 
ATOM      7  I   UNL d   1      -0.311  -1.479   5.083  0.00  0.00    -0.146 I 
ENDROOT
TORSDOF 0
ENDMDL
