MODEL 1
REMARK minimizedAffinity 3.25570416
REMARK minimizedRMSD -1
REMARK  0 active torsions:
REMARK  status: ('A' for Active; 'I' for Inactive)
ROOT
ATOM      1  C   UNL d   1      -1.739  -0.287   0.350  0.00  0.00     0.023 A 
ATOM      2  C1  UNL d   1      -0.398  -0.670   0.336  0.00  0.00     0.003 A 
ATOM      3  C2  UNL d   1       0.224  -1.080   1.517  0.00  0.00     0.048 A 
ATOM      4  C3  UNL d   1      -0.501  -1.107   2.707  0.00  0.00     0.023 A 
ATOM      5  C4  UNL d   1      -1.844  -0.726   2.726  0.00  0.00     0.048 A 
ATOM      6  C5  UNL d   1      -2.461  -0.315   1.543  0.00  0.00     0.003 A 
ATOM      7  I   UNL d   1       0.423  -1.719   4.466  0.00  0.00    -0.146 I 
ENDROOT
TORSDOF 0
ENDMDL
