MODEL 1
REMARK minimizedAffinity 1.61907458
REMARK minimizedRMSD -1
REMARK  0 active torsions:
REMARK  status: ('A' for Active; 'I' for Inactive)
ROOT
ATOM      1  C   UNL d   1      -1.692   0.195   0.406  0.00  0.00     0.023 A 
ATOM      2  C1  UNL d   1      -0.310   0.073   0.550  0.00  0.00     0.003 A 
ATOM      3  C2  UNL d   1       0.230  -0.371   1.759  0.00  0.00     0.048 A 
ATOM      4  C3  UNL d   1      -0.617  -0.692   2.819  0.00  0.00     0.023 A 
ATOM      5  C4  UNL d   1      -2.001  -0.572   2.678  0.00  0.00     0.048 A 
ATOM      6  C5  UNL d   1      -2.536  -0.127   1.468  0.00  0.00     0.003 A 
ATOM      7  I   UNL d   1       0.185  -1.353   4.618  0.00  0.00    -0.146 I 
ENDROOT
TORSDOF 0
ENDMDL
