MODEL 1
REMARK minimizedAffinity 0.571810603
REMARK minimizedRMSD -1
REMARK  0 active torsions:
REMARK  status: ('A' for Active; 'I' for Inactive)
ROOT
ATOM      1  C   UNL d   1      -2.848  -0.145   0.882  0.00  0.00     0.023 A 
ATOM      2  C1  UNL d   1      -2.260   0.002   2.139  0.00  0.00     0.003 A 
ATOM      3  C2  UNL d   1      -0.881  -0.159   2.289  0.00  0.00     0.048 A 
ATOM      4  C3  UNL d   1      -0.096  -0.468   1.179  0.00  0.00     0.023 A 
ATOM      5  C4  UNL d   1      -0.680  -0.616  -0.080  0.00  0.00     0.048 A 
ATOM      6  C5  UNL d   1      -2.059  -0.454  -0.226  0.00  0.00     0.003 A 
ATOM      7  I   UNL d   1       1.956  -0.709   1.400  0.00  0.00    -0.146 I 
ENDROOT
TORSDOF 0
ENDMDL
