MODEL 1
REMARK minimizedAffinity -4.73114014
REMARK minimizedRMSD -1
REMARK  0 active torsions:
REMARK  status: ('A' for Active; 'I' for Inactive)
ROOT
ATOM      1  C1  DEN d   1       0.666  -0.784   0.248  0.00  0.00     0.130 A 
ATOM      2  C2  DEN d   1      -0.769  -1.036   0.346  0.00  0.00    -0.031 A 
ATOM      3  C3  DEN d   1      -1.457   0.268   0.428  0.00  0.00     0.027 A 
ATOM      4  C4  DEN d   1      -0.444   2.640   0.409  0.00  0.00     0.027 A 
ATOM      5  C5  DEN d   1       0.730   3.359   0.353  0.00  0.00    -0.003 A 
ATOM      6  C6  DEN d   1       1.956   2.752   0.293  0.00  0.00     0.001 A 
ATOM      7  C7  DEN d   1       2.035   1.386   0.241  0.00  0.00     0.017 A 
ATOM      8  C8  DEN d   1       0.856   0.654   0.305  0.00  0.00    -0.094 A 
ATOM      9  C9  DEN d   1      -0.374   1.286   0.354  0.00  0.00    -0.072 A 
ENDROOT
TORSDOF 0
ENDMDL
