MODEL 1
REMARK minimizedAffinity -5.11478996
REMARK minimizedRMSD -1
REMARK  0 active torsions:
REMARK  status: ('A' for Active; 'I' for Inactive)
ROOT
ATOM      1  C1  DEN d   1      -1.358  -0.763   0.428  0.00  0.00     0.130 A 
ATOM      2  C2  DEN d   1      -0.365  -1.810   0.203  0.00  0.00    -0.031 A 
ATOM      3  C3  DEN d   1       0.925  -1.158  -0.101  0.00  0.00     0.027 A 
ATOM      4  C4  DEN d   1       1.479   1.357  -0.237  0.00  0.00     0.027 A 
ATOM      5  C5  DEN d   1       0.959   2.628  -0.134  0.00  0.00    -0.003 A 
ATOM      6  C6  DEN d   1      -0.366   2.856   0.128  0.00  0.00     0.001 A 
ATOM      7  C7  DEN d   1      -1.208   1.797   0.341  0.00  0.00     0.017 A 
ATOM      8  C8  DEN d   1      -0.692   0.512   0.231  0.00  0.00    -0.094 A 
ATOM      9  C9  DEN d   1       0.653   0.302  -0.023  0.00  0.00    -0.072 A 
ENDROOT
TORSDOF 0
ENDMDL
