MODEL 1
REMARK minimizedAffinity -5.5749402
REMARK minimizedRMSD -1
REMARK  0 active torsions:
REMARK  status: ('A' for Active; 'I' for Inactive)
ROOT
ATOM      1  C1  DEN d   1      -0.521  -1.543  -0.221  0.00  0.00     0.130 A 
ATOM      2  C2  DEN d   1       0.627  -1.970  -1.017  0.00  0.00    -0.031 A 
ATOM      3  C3  DEN d   1       1.430  -0.773  -1.338  0.00  0.00     0.027 A 
ATOM      4  C4  DEN d   1       1.014   1.685  -0.679  0.00  0.00     0.027 A 
ATOM      5  C5  DEN d   1       0.162   2.541  -0.016  0.00  0.00    -0.003 A 
ATOM      6  C6  DEN d   1      -0.986   2.104   0.591  0.00  0.00     0.001 A 
ATOM      7  C7  DEN d   1      -1.290   0.768   0.586  0.00  0.00     0.017 A 
ATOM      8  C8  DEN d   1      -0.439  -0.100  -0.087  0.00  0.00    -0.094 A 
ATOM      9  C9  DEN d   1       0.722   0.360  -0.683  0.00  0.00    -0.072 A 
ENDROOT
TORSDOF 0
ENDMDL
