MODEL 1
REMARK minimizedAffinity -4.20574856
REMARK minimizedRMSD -1
REMARK  0 active torsions:
REMARK  status: ('A' for Active; 'I' for Inactive)
ROOT
ATOM      1  C1  DEN d   1      -0.838  -0.527   0.632  0.00  0.00     0.130 A 
ATOM      2  C2  DEN d   1       0.382  -1.302   0.424  0.00  0.00    -0.031 A 
ATOM      3  C3  DEN d   1       1.434  -0.379  -0.049  0.00  0.00     0.027 A 
ATOM      4  C4  DEN d   1       1.293   2.161  -0.473  0.00  0.00     0.027 A 
ATOM      5  C5  DEN d   1       0.462   3.259  -0.447  0.00  0.00    -0.003 A 
ATOM      6  C6  DEN d   1      -0.859   3.167  -0.096  0.00  0.00     0.001 A 
ATOM      7  C7  DEN d   1      -1.376   1.958   0.288  0.00  0.00     0.017 A 
ATOM      8  C8  DEN d   1      -0.546   0.845   0.258  0.00  0.00    -0.094 A 
ATOM      9  C9  DEN d   1       0.789   0.961  -0.088  0.00  0.00    -0.072 A 
ENDROOT
TORSDOF 0
ENDMDL
