MODEL 1
REMARK minimizedAffinity -1.84985924
REMARK minimizedRMSD -1
REMARK  0 active torsions:
REMARK  status: ('A' for Active; 'I' for Inactive)
ROOT
ATOM      1  C1  DEN d   1       1.127   2.321  -0.421  0.00  0.00     0.130 A 
ATOM      2  C2  DEN d   1       0.099   3.235   0.069  0.00  0.00    -0.031 A 
ATOM      3  C3  DEN d   1      -1.021   2.426   0.589  0.00  0.00     0.027 A 
ATOM      4  C4  DEN d   1      -1.261  -0.140   0.686  0.00  0.00     0.027 A 
ATOM      5  C5  DEN d   1      -0.652  -1.337   0.379  0.00  0.00    -0.003 A 
ATOM      6  C6  DEN d   1       0.567  -1.398  -0.243  0.00  0.00     0.001 A 
ATOM      7  C7  DEN d   1       1.237  -0.240  -0.536  0.00  0.00     0.017 A 
ATOM      8  C8  DEN d   1       0.627   0.971  -0.236  0.00  0.00    -0.094 A 
ATOM      9  C9  DEN d   1      -0.600   1.011   0.404  0.00  0.00    -0.072 A 
ENDROOT
TORSDOF 0
ENDMDL
