MODEL 1
REMARK minimizedAffinity -5.37627125
REMARK minimizedRMSD -1
REMARK  0 active torsions:
REMARK  status: ('A' for Active; 'I' for Inactive)
ROOT
ATOM      1  C1  DEN d   1       0.331  -0.791  -0.085  0.00  0.00     0.130 A 
ATOM      2  C2  DEN d   1      -1.055  -0.973   0.340  0.00  0.00    -0.031 A 
ATOM      3  C3  DEN d   1      -1.656   0.364   0.521  0.00  0.00     0.027 A 
ATOM      4  C4  DEN d   1      -0.583   2.685   0.183  0.00  0.00     0.027 A 
ATOM      5  C5  DEN d   1       0.575   3.347  -0.162  0.00  0.00    -0.003 A 
ATOM      6  C6  DEN d   1       1.733   2.682  -0.469  0.00  0.00     0.001 A 
ATOM      7  C7  DEN d   1       1.746   1.312  -0.482  0.00  0.00     0.017 A 
ATOM      8  C8  DEN d   1       0.584   0.638  -0.129  0.00  0.00    -0.094 A 
ATOM      9  C9  DEN d   1      -0.579   1.328   0.167  0.00  0.00    -0.072 A 
ENDROOT
TORSDOF 0
ENDMDL
