MODEL 1
REMARK minimizedAffinity -6.05954647
REMARK minimizedRMSD -1
REMARK  0 active torsions:
REMARK  status: ('A' for Active; 'I' for Inactive)
ROOT
ATOM      1  C1  DEN d   1       1.116   2.170  -0.508  0.00  0.00     0.130 A 
ATOM      2  C2  DEN d   1       0.075   3.192  -0.446  0.00  0.00    -0.031 A 
ATOM      3  C3  DEN d   1      -1.177   2.543  -0.007  0.00  0.00     0.027 A 
ATOM      4  C4  DEN d   1      -1.600   0.069   0.585  0.00  0.00     0.027 A 
ATOM      5  C5  DEN d   1      -1.024  -1.179   0.671  0.00  0.00    -0.003 A 
ATOM      6  C6  DEN d   1       0.286  -1.403   0.341  0.00  0.00     0.001 A 
ATOM      7  C7  DEN d   1       1.077  -0.354  -0.049  0.00  0.00     0.017 A 
ATOM      8  C8  DEN d   1       0.501   0.906  -0.146  0.00  0.00    -0.094 A 
ATOM      9  C9  DEN d   1      -0.822   1.114   0.205  0.00  0.00    -0.072 A 
ENDROOT
TORSDOF 0
ENDMDL
