MODEL 1
REMARK minimizedAffinity -2.34153676
REMARK minimizedRMSD -1
REMARK  0 active torsions:
REMARK  status: ('A' for Active; 'I' for Inactive)
ROOT
ATOM      1  C1  DEN d   1       0.653  -0.185  -0.731  0.00  0.00     0.130 A 
ATOM      2  C2  DEN d   1      -0.596  -0.768  -0.247  0.00  0.00    -0.031 A 
ATOM      3  C3  DEN d   1      -1.351   0.289   0.456  0.00  0.00     0.027 A 
ATOM      4  C4  DEN d   1      -0.714   2.759   0.836  0.00  0.00     0.027 A 
ATOM      5  C5  DEN d   1       0.254   3.714   0.620  0.00  0.00    -0.003 A 
ATOM      6  C6  DEN d   1       1.429   3.431  -0.026  0.00  0.00     0.001 A 
ATOM      7  C7  DEN d   1       1.645   2.172  -0.520  0.00  0.00     0.017 A 
ATOM      8  C8  DEN d   1       0.677   1.201  -0.299  0.00  0.00    -0.094 A 
ATOM      9  C9  DEN d   1      -0.509   1.510   0.345  0.00  0.00    -0.072 A 
ENDROOT
TORSDOF 0
ENDMDL
