MODEL 1
REMARK minimizedAffinity -5.72233057
REMARK minimizedRMSD -1
REMARK  0 active torsions:
REMARK  status: ('A' for Active; 'I' for Inactive)
ROOT
ATOM      1  C1  DEN d   1      -1.429   2.354   0.329  0.00  0.00     0.130 A 
ATOM      2  C2  DEN d   1      -2.522   1.390   0.233  0.00  0.00    -0.031 A 
ATOM      3  C3  DEN d   1      -1.932   0.037   0.173  0.00  0.00     0.027 A 
ATOM      4  C4  DEN d   1       0.552  -0.654   0.223  0.00  0.00     0.027 A 
ATOM      5  C5  DEN d   1       1.846  -0.187   0.286  0.00  0.00    -0.003 A 
ATOM      6  C6  DEN d   1       2.138   1.151   0.332  0.00  0.00     0.001 A 
ATOM      7  C7  DEN d   1       1.120   2.067   0.362  0.00  0.00     0.017 A 
ATOM      8  C8  DEN d   1      -0.187   1.604   0.292  0.00  0.00    -0.094 A 
ATOM      9  C9  DEN d   1      -0.462   0.247   0.258  0.00  0.00    -0.072 A 
ENDROOT
TORSDOF 0
ENDMDL
