MODEL 1
REMARK minimizedAffinity -4.40021467
REMARK minimizedRMSD -1
REMARK  0 active torsions:
REMARK  status: ('A' for Active; 'I' for Inactive)
ROOT
ATOM      1  C1  DEN d   1       1.673   1.955  -0.366  0.00  0.00     0.130 A 
ATOM      2  C2  DEN d   1       0.801   3.094  -0.095  0.00  0.00    -0.031 A 
ATOM      3  C3  DEN d   1      -0.530   2.572   0.276  0.00  0.00     0.027 A 
ATOM      4  C4  DEN d   1      -1.318   0.124   0.460  0.00  0.00     0.027 A 
ATOM      5  C5  DEN d   1      -0.938  -1.192   0.315  0.00  0.00    -0.003 A 
ATOM      6  C6  DEN d   1       0.319  -1.548  -0.097  0.00  0.00     0.001 A 
ATOM      7  C7  DEN d   1       1.255  -0.576  -0.334  0.00  0.00     0.017 A 
ATOM      8  C8  DEN d   1       0.877   0.753  -0.198  0.00  0.00    -0.094 A 
ATOM      9  C9  DEN d   1      -0.395   1.091   0.232  0.00  0.00    -0.072 A 
ENDROOT
TORSDOF 0
ENDMDL
