MODEL 1
REMARK minimizedAffinity -2.5818305
REMARK minimizedRMSD -1
REMARK  0 active torsions:
REMARK  status: ('A' for Active; 'I' for Inactive)
ROOT
ATOM      1  C1  DEN d   1      -0.182   2.735   0.009  0.00  0.00     0.130 A 
ATOM      2  C2  DEN d   1      -1.626   2.540   0.105  0.00  0.00    -0.031 A 
ATOM      3  C3  DEN d   1      -1.882   1.094   0.262  0.00  0.00     0.027 A 
ATOM      4  C4  DEN d   1      -0.191  -0.851   0.369  0.00  0.00     0.027 A 
ATOM      5  C5  DEN d   1       1.145  -1.180   0.319  0.00  0.00    -0.003 A 
ATOM      6  C6  DEN d   1       2.123  -0.240   0.130  0.00  0.00     0.001 A 
ATOM      7  C7  DEN d   1       1.781   1.083   0.029  0.00  0.00     0.017 A 
ATOM      8  C8  DEN d   1       0.435   1.422   0.070  0.00  0.00    -0.094 A 
ATOM      9  C9  DEN d   1      -0.537   0.458   0.275  0.00  0.00    -0.072 A 
ENDROOT
TORSDOF 0
ENDMDL
