MODEL 1
REMARK minimizedAffinity -3.7163012
REMARK minimizedRMSD -1
REMARK  0 active torsions:
REMARK  status: ('A' for Active; 'I' for Inactive)
ROOT
ATOM      1  C1  DEN d   1      -1.297   1.688  -0.005  0.00  0.00     0.130 A 
ATOM      2  C2  DEN d   1      -0.615   2.977  -0.072  0.00  0.00    -0.031 A 
ATOM      3  C3  DEN d   1       0.839   2.729  -0.001  0.00  0.00     0.027 A 
ATOM      4  C4  DEN d   1       2.094   0.484   0.198  0.00  0.00     0.027 A 
ATOM      5  C5  DEN d   1       1.942  -0.881   0.300  0.00  0.00    -0.003 A 
ATOM      6  C6  DEN d   1       0.710  -1.479   0.341  0.00  0.00     0.001 A 
ATOM      7  C7  DEN d   1      -0.420  -0.711   0.235  0.00  0.00     0.017 A 
ATOM      8  C8  DEN d   1      -0.275   0.666   0.139  0.00  0.00    -0.094 A 
ATOM      9  C9  DEN d   1       0.979   1.250   0.087  0.00  0.00    -0.072 A 
ENDROOT
TORSDOF 0
ENDMDL
