MODEL 1
REMARK minimizedAffinity -1.88419962
REMARK minimizedRMSD -1
REMARK  0 active torsions:
REMARK  status: ('A' for Active; 'I' for Inactive)
ROOT
ATOM      1  C1  DEN d   1       0.838   2.872  -0.695  0.00  0.00     0.130 A 
ATOM      2  C2  DEN d   1       0.398   3.724   0.406  0.00  0.00    -0.031 A 
ATOM      3  C3  DEN d   1      -0.376   2.891   1.348  0.00  0.00     0.027 A 
ATOM      4  C4  DEN d   1      -0.930   0.375   1.210  0.00  0.00     0.027 A 
ATOM      5  C5  DEN d   1      -0.783  -0.767   0.454  0.00  0.00    -0.003 A 
ATOM      6  C6  DEN d   1      -0.121  -0.769  -0.744  0.00  0.00     0.001 A 
ATOM      7  C7  DEN d   1       0.460   0.385  -1.201  0.00  0.00     0.017 A 
ATOM      8  C8  DEN d   1       0.310   1.542  -0.448  0.00  0.00    -0.094 A 
ATOM      9  C9  DEN d   1      -0.353   1.521   0.767  0.00  0.00    -0.072 A 
ENDROOT
TORSDOF 0
ENDMDL
