MODEL 1
REMARK minimizedAffinity 17.6361847
REMARK minimizedRMSD -1
REMARK  0 active torsions:
REMARK  status: ('A' for Active; 'I' for Inactive)
ROOT
ATOM      1  C1  DEN d   1       0.787  -4.213  -3.716  0.00  0.00     0.130 A 
ATOM      2  C2  DEN d   1       0.076  -5.239  -2.959  0.00  0.00    -0.031 A 
ATOM      3  C3  DEN d   1       0.773  -5.422  -1.670  0.00  0.00     0.027 A 
ATOM      4  C4  DEN d   1       2.871  -4.217  -0.775  0.00  0.00     0.027 A 
ATOM      5  C5  DEN d   1       3.832  -3.274  -1.064  0.00  0.00    -0.003 A 
ATOM      6  C6  DEN d   1       3.867  -2.608  -2.260  0.00  0.00     0.001 A 
ATOM      7  C7  DEN d   1       2.894  -2.843  -3.196  0.00  0.00     0.017 A 
ATOM      8  C8  DEN d   1       1.925  -3.798  -2.915  0.00  0.00    -0.094 A 
ATOM      9  C9  DEN d   1       1.900  -4.451  -1.695  0.00  0.00    -0.072 A 
ENDROOT
TORSDOF 0
ENDMDL
