MODEL 1
REMARK minimizedAffinity 1.6421243
REMARK minimizedRMSD -1
REMARK  0 active torsions:
REMARK  status: ('A' for Active; 'I' for Inactive)
ROOT
ATOM      1  C   UNL d   1      -0.390  -2.577   0.267  0.00  0.00    -0.002 A 
ATOM      2  C1  UNL d   1      -1.219  -1.495   0.007  0.00  0.00     0.010 A 
ATOM      3  C2  UNL d   1      -1.797  -1.329  -1.253  0.00  0.00     0.041 A 
ATOM      4  C3  UNL d   1      -1.526  -2.278  -2.257  0.00  0.00    -0.075 A 
ATOM      5  S   UNL d   1      -2.123  -2.280  -3.875  0.00  0.00     0.015 SA
ATOM      6  C4  UNL d   1      -1.293  -3.718  -4.259  0.00  0.00     0.022 A 
ATOM      7  C5  UNL d   1      -0.572  -4.198  -3.192  0.00  0.00     0.026 A 
ATOM      8  C6  UNL d   1      -0.695  -3.377  -2.020  0.00  0.00    -0.082 A 
ATOM      9  C7  UNL d   1      -0.124  -3.517  -0.732  0.00  0.00     0.045 A 
ENDROOT
TORSDOF 0
ENDMDL
