MODEL 1
REMARK minimizedAffinity 17.5978909
REMARK minimizedRMSD -1
REMARK  0 active torsions:
REMARK  status: ('A' for Active; 'I' for Inactive)
ROOT
ATOM      1  C   UNL d   1       2.492   4.912  -5.999  0.00  0.00    -0.002 A 
ATOM      2  C1  UNL d   1       2.322   5.998  -5.152  0.00  0.00     0.010 A 
ATOM      3  C2  UNL d   1       2.358   5.831  -3.767  0.00  0.00     0.041 A 
ATOM      4  C3  UNL d   1       2.572   4.542  -3.241  0.00  0.00    -0.075 A 
ATOM      5  S   UNL d   1       2.657   4.099  -1.577  0.00  0.00     0.015 SA
ATOM      6  C4  UNL d   1       2.921   2.457  -1.950  0.00  0.00     0.022 A 
ATOM      7  C5  UNL d   1       2.947   2.235  -3.306  0.00  0.00     0.026 A 
ATOM      8  C6  UNL d   1       2.747   3.433  -4.073  0.00  0.00    -0.082 A 
ATOM      9  C7  UNL d   1       2.704   3.634  -5.473  0.00  0.00     0.045 A 
ENDROOT
TORSDOF 0
ENDMDL
