MODEL 1
REMARK minimizedAffinity 7.72891521
REMARK minimizedRMSD -1
REMARK  0 active torsions:
REMARK  status: ('A' for Active; 'I' for Inactive)
ROOT
ATOM      1  C   UNL d   1      -4.058  -2.263  -0.095  0.00  0.00    -0.002 A 
ATOM      2  C1  UNL d   1      -2.943  -1.482  -0.363  0.00  0.00     0.010 A 
ATOM      3  C2  UNL d   1      -2.331  -1.523  -1.618  0.00  0.00     0.041 A 
ATOM      4  C3  UNL d   1      -2.866  -2.369  -2.609  0.00  0.00    -0.075 A 
ATOM      5  S   UNL d   1      -2.284  -2.583  -4.218  0.00  0.00     0.015 SA
ATOM      6  C4  UNL d   1      -3.503  -3.715  -4.588  0.00  0.00     0.022 A 
ATOM      7  C5  UNL d   1      -4.342  -3.937  -3.521  0.00  0.00     0.026 A 
ATOM      8  C6  UNL d   1      -3.989  -3.165  -2.363  0.00  0.00    -0.082 A 
ATOM      9  C7  UNL d   1      -4.585  -3.101  -1.081  0.00  0.00     0.045 A 
ENDROOT
TORSDOF 0
ENDMDL
