MODEL 1
REMARK minimizedAffinity 10.7666349
REMARK minimizedRMSD -1
REMARK  0 active torsions:
REMARK  status: ('A' for Active; 'I' for Inactive)
ROOT
ATOM      1  C   UNL d   1      -0.838  -4.090  -1.720  0.00  0.00    -0.002 A 
ATOM      2  C1  UNL d   1      -1.127  -5.378  -2.148  0.00  0.00     0.010 A 
ATOM      3  C2  UNL d   1      -1.667  -5.600  -3.417  0.00  0.00     0.041 A 
ATOM      4  C3  UNL d   1      -1.913  -4.495  -4.256  0.00  0.00    -0.075 A 
ATOM      5  S   UNL d   1      -2.569  -4.526  -5.850  0.00  0.00     0.015 SA
ATOM      6  C4  UNL d   1      -2.481  -2.831  -6.000  0.00  0.00     0.022 A 
ATOM      7  C5  UNL d   1      -1.966  -2.240  -4.871  0.00  0.00     0.026 A 
ATOM      8  C6  UNL d   1      -1.629  -3.189  -3.847  0.00  0.00    -0.082 A 
ATOM      9  C7  UNL d   1      -1.083  -2.996  -2.555  0.00  0.00     0.045 A 
ENDROOT
TORSDOF 0
ENDMDL
