MODEL 1
REMARK minimizedAffinity 15.5388689
REMARK minimizedRMSD -1
REMARK  0 active torsions:
REMARK  status: ('A' for Active; 'I' for Inactive)
ROOT
ATOM      1  C   UNL d   1      -1.907  -1.900   1.850  0.00  0.00    -0.002 A 
ATOM      2  C1  UNL d   1      -0.787  -2.701   1.683  0.00  0.00     0.010 A 
ATOM      3  C2  UNL d   1      -0.410  -3.140   0.412  0.00  0.00     0.041 A 
ATOM      4  C3  UNL d   1      -1.185  -2.754  -0.699  0.00  0.00    -0.075 A 
ATOM      5  S   UNL d   1      -0.914  -3.170  -2.350  0.00  0.00     0.015 SA
ATOM      6  C4  UNL d   1      -2.279  -2.293  -2.873  0.00  0.00     0.022 A 
ATOM      7  C5  UNL d   1      -2.937  -1.691  -1.826  0.00  0.00     0.026 A 
ATOM      8  C6  UNL d   1      -2.317  -1.946  -0.556  0.00  0.00    -0.082 A 
ATOM      9  C7  UNL d   1      -2.673  -1.519   0.745  0.00  0.00     0.045 A 
ENDROOT
TORSDOF 0
ENDMDL
