MODEL 1
REMARK minimizedAffinity 12.7386827
REMARK minimizedRMSD -1
REMARK  0 active torsions:
REMARK  status: ('A' for Active; 'I' for Inactive)
ROOT
ATOM      1  C   UNL d   1      -0.175   4.387   1.670  0.00  0.00    -0.002 A 
ATOM      2  C1  UNL d   1       1.082   4.307   1.089  0.00  0.00     0.010 A 
ATOM      3  C2  UNL d   1       1.892   3.189   1.298  0.00  0.00     0.041 A 
ATOM      4  C3  UNL d   1       1.411   2.142   2.108  0.00  0.00    -0.075 A 
ATOM      5  S   UNL d   1       2.226   0.675   2.504  0.00  0.00     0.015 SA
ATOM      6  C4  UNL d   1       0.924   0.120   3.454  0.00  0.00     0.022 A 
ATOM      7  C5  UNL d   1      -0.115   1.019   3.480  0.00  0.00     0.026 A 
ATOM      8  C6  UNL d   1       0.148   2.199   2.704  0.00  0.00    -0.082 A 
ATOM      9  C7  UNL d   1      -0.649   3.346   2.473  0.00  0.00     0.045 A 
ENDROOT
TORSDOF 0
ENDMDL
