MODEL 1
REMARK minimizedAffinity 8.75668716
REMARK minimizedRMSD -1
REMARK  0 active torsions:
REMARK  status: ('A' for Active; 'I' for Inactive)
ROOT
ATOM      1  C   UNL d   1       2.269   1.277  -5.992  0.00  0.00    -0.002 A 
ATOM      2  C1  UNL d   1       3.623   1.580  -5.990  0.00  0.00     0.010 A 
ATOM      3  C2  UNL d   1       4.053   2.908  -5.990  0.00  0.00     0.041 A 
ATOM      4  C3  UNL d   1       3.091   3.937  -5.991  0.00  0.00    -0.075 A 
ATOM      5  S   UNL d   1       3.384   5.635  -5.990  0.00  0.00     0.015 SA
ATOM      6  C4  UNL d   1       1.719   5.999  -5.991  0.00  0.00     0.022 A 
ATOM      7  C5  UNL d   1       0.944   4.864  -5.993  0.00  0.00     0.026 A 
ATOM      8  C6  UNL d   1       1.721   3.656  -5.992  0.00  0.00    -0.082 A 
ATOM      9  C7  UNL d   1       1.317   2.300  -5.993  0.00  0.00     0.045 A 
ENDROOT
TORSDOF 0
ENDMDL
