MODEL 1
REMARK minimizedAffinity 15.6957502
REMARK minimizedRMSD -1
REMARK  0 active torsions:
REMARK  status: ('A' for Active; 'I' for Inactive)
ROOT
ATOM      1  C   UNL d   1      -2.614  -2.318  -1.642  0.00  0.00    -0.002 A 
ATOM      2  C1  UNL d   1      -1.437  -1.844  -2.203  0.00  0.00     0.010 A 
ATOM      3  C2  UNL d   1      -1.143  -2.084  -3.547  0.00  0.00     0.041 A 
ATOM      4  C3  UNL d   1      -2.063  -2.815  -4.325  0.00  0.00    -0.075 A 
ATOM      5  S   UNL d   1      -1.915  -3.229  -5.992  0.00  0.00     0.015 SA
ATOM      6  C4  UNL d   1      -3.412  -4.044  -5.999  0.00  0.00     0.022 A 
ATOM      7  C5  UNL d   1      -4.023  -4.011  -4.768  0.00  0.00     0.026 A 
ATOM      8  C6  UNL d   1      -3.256  -3.301  -3.783  0.00  0.00    -0.082 A 
ATOM      9  C7  UNL d   1      -3.524  -3.042  -2.417  0.00  0.00     0.045 A 
ENDROOT
TORSDOF 0
ENDMDL
