MODEL 1
REMARK minimizedAffinity 9.04257774
REMARK minimizedRMSD -1
REMARK  0 active torsions:
REMARK  status: ('A' for Active; 'I' for Inactive)
ROOT
ATOM      1  C   UNL d   1       1.640   5.908  -5.998  0.00  0.00    -0.002 A 
ATOM      2  C1  UNL d   1       0.561   5.035  -5.991  0.00  0.00     0.010 A 
ATOM      3  C2  UNL d   1       0.766   3.654  -5.989  0.00  0.00     0.041 A 
ATOM      4  C3  UNL d   1       2.086   3.160  -5.990  0.00  0.00    -0.075 A 
ATOM      5  S   UNL d   1       2.578   1.508  -5.987  0.00  0.00     0.015 SA
ATOM      6  C4  UNL d   1       4.231   1.923  -5.993  0.00  0.00     0.022 A 
ATOM      7  C5  UNL d   1       4.421   3.284  -5.998  0.00  0.00     0.026 A 
ATOM      8  C6  UNL d   1       3.188   4.020  -5.996  0.00  0.00    -0.082 A 
ATOM      9  C7  UNL d   1       2.947   5.415  -5.999  0.00  0.00     0.045 A 
ENDROOT
TORSDOF 0
ENDMDL
