MODEL 1
REMARK minimizedAffinity 16.0926552
REMARK minimizedRMSD -1
REMARK  0 active torsions:
REMARK  status: ('A' for Active; 'I' for Inactive)
ROOT
ATOM      1  C   UNL d   1      -1.801  -2.592   1.866  0.00  0.00    -0.002 A 
ATOM      2  C1  UNL d   1      -1.574  -1.622   0.900  0.00  0.00     0.010 A 
ATOM      3  C2  UNL d   1      -1.091  -0.362   1.259  0.00  0.00     0.041 A 
ATOM      4  C3  UNL d   1      -0.835  -0.092   2.618  0.00  0.00    -0.075 A 
ATOM      5  S   UNL d   1      -0.239   1.380   3.291  0.00  0.00     0.015 SA
ATOM      6  C4  UNL d   1      -0.271   0.754   4.876  0.00  0.00     0.022 A 
ATOM      7  C5  UNL d   1      -0.722  -0.544   4.909  0.00  0.00     0.026 A 
ATOM      8  C6  UNL d   1      -1.054  -1.053   3.608  0.00  0.00    -0.082 A 
ATOM      9  C7  UNL d   1      -1.546  -2.320   3.213  0.00  0.00     0.045 A 
ENDROOT
TORSDOF 0
ENDMDL
