MODEL 1
REMARK minimizedAffinity 9.83106709
REMARK minimizedRMSD -1
REMARK  0 active torsions:
REMARK  status: ('A' for Active; 'I' for Inactive)
ROOT
ATOM      1  C   UNL d   1      -1.362  -2.029   0.467  0.00  0.00    -0.002 A 
ATOM      2  C1  UNL d   1      -0.563  -3.149   0.645  0.00  0.00     0.010 A 
ATOM      3  C2  UNL d   1      -0.487  -4.132  -0.344  0.00  0.00     0.041 A 
ATOM      4  C3  UNL d   1      -1.234  -3.967  -1.527  0.00  0.00    -0.075 A 
ATOM      5  S   UNL d   1      -1.297  -5.039  -2.875  0.00  0.00     0.015 SA
ATOM      6  C4  UNL d   1      -2.385  -4.035  -3.719  0.00  0.00     0.022 A 
ATOM      7  C5  UNL d   1      -2.703  -2.905  -3.004  0.00  0.00     0.026 A 
ATOM      8  C6  UNL d   1      -2.045  -2.846  -1.729  0.00  0.00    -0.082 A 
ATOM      9  C7  UNL d   1      -2.101  -1.868  -0.707  0.00  0.00     0.045 A 
ENDROOT
TORSDOF 0
ENDMDL
