MODEL 1
REMARK minimizedAffinity 10.5988684
REMARK minimizedRMSD -1
REMARK  0 active torsions:
REMARK  status: ('A' for Active; 'I' for Inactive)
ROOT
ATOM      1  C   UNL d   1       0.202   3.713  -5.889  0.00  0.00    -0.002 A 
ATOM      2  C1  UNL d   1       0.117   5.097  -5.942  0.00  0.00     0.010 A 
ATOM      3  C2  UNL d   1       1.273   5.880  -5.959  0.00  0.00     0.041 A 
ATOM      4  C3  UNL d   1       2.528   5.242  -5.923  0.00  0.00    -0.075 A 
ATOM      5  S   UNL d   1       4.078   5.997  -5.936  0.00  0.00     0.015 SA
ATOM      6  C4  UNL d   1       4.891   4.500  -5.872  0.00  0.00     0.022 A 
ATOM      7  C5  UNL d   1       4.016   3.440  -5.841  0.00  0.00     0.026 A 
ATOM      8  C6  UNL d   1       2.640   3.850  -5.871  0.00  0.00    -0.082 A 
ATOM      9  C7  UNL d   1       1.450   3.084  -5.854  0.00  0.00     0.045 A 
ENDROOT
TORSDOF 0
ENDMDL
