MODEL 1
REMARK minimizedAffinity 13.0012932
REMARK minimizedRMSD -1
REMARK  0 active torsions:
REMARK  status: ('A' for Active; 'I' for Inactive)
ROOT
ATOM      1  C   UNL d   1       2.505   3.742  -1.847  0.00  0.00    -0.002 A 
ATOM      2  C1  UNL d   1       1.281   3.354  -2.373  0.00  0.00     0.010 A 
ATOM      3  C2  UNL d   1       0.894   3.766  -3.650  0.00  0.00     0.041 A 
ATOM      4  C3  UNL d   1       1.768   4.581  -4.397  0.00  0.00    -0.075 A 
ATOM      5  S   UNL d   1       1.506   5.205  -5.983  0.00  0.00     0.015 SA
ATOM      6  C4  UNL d   1       3.014   6.000  -6.000  0.00  0.00     0.022 A 
ATOM      7  C5  UNL d   1       3.712   5.805  -4.832  0.00  0.00     0.026 A 
ATOM      8  C6  UNL d   1       3.006   4.983  -3.890  0.00  0.00    -0.082 A 
ATOM      9  C7  UNL d   1       3.369   4.550  -2.592  0.00  0.00     0.045 A 
ENDROOT
TORSDOF 0
ENDMDL
