MODEL 1
REMARK minimizedAffinity 1.44790387
REMARK minimizedRMSD -1
REMARK  0 active torsions:
REMARK  status: ('A' for Active; 'I' for Inactive)
ROOT
ATOM      1  C   UNL d   1       3.853  -2.828  -4.971  0.00  0.00    -0.002 A 
ATOM      2  C1  UNL d   1       5.202  -2.804  -4.648  0.00  0.00     0.010 A 
ATOM      3  C2  UNL d   1       5.941  -1.626  -4.772  0.00  0.00     0.041 A 
ATOM      4  C3  UNL d   1       5.295  -0.461  -5.228  0.00  0.00    -0.075 A 
ATOM      5  S   UNL d   1       5.999   1.096  -5.457  0.00  0.00     0.015 SA
ATOM      6  C4  UNL d   1       4.525   1.767  -5.988  0.00  0.00     0.022 A 
ATOM      7  C5  UNL d   1       3.510   0.840  -5.997  0.00  0.00     0.026 A 
ATOM      8  C6  UNL d   1       3.937  -0.459  -5.559  0.00  0.00    -0.082 A 
ATOM      9  C7  UNL d   1       3.215  -1.670  -5.423  0.00  0.00     0.045 A 
ENDROOT
TORSDOF 0
ENDMDL
