MODEL 1
REMARK minimizedAffinity 6.56436396
REMARK minimizedRMSD -1
REMARK  0 active torsions:
REMARK  status: ('A' for Active; 'I' for Inactive)
ROOT
ATOM      1  C   UNL d   1      -1.552   5.513  -0.732  0.00  0.00    -0.002 A 
ATOM      2  C1  UNL d   1      -1.191   4.679  -1.782  0.00  0.00     0.010 A 
ATOM      3  C2  UNL d   1       0.009   3.967  -1.742  0.00  0.00     0.041 A 
ATOM      4  C3  UNL d   1       0.847   4.105  -0.618  0.00  0.00    -0.075 A 
ATOM      5  S   UNL d   1       2.364   3.330  -0.350  0.00  0.00     0.015 SA
ATOM      6  C4  UNL d   1       2.567   4.085   1.164  0.00  0.00     0.022 A 
ATOM      7  C5  UNL d   1       1.514   4.913   1.473  0.00  0.00     0.026 A 
ATOM      8  C6  UNL d   1       0.505   4.937   0.452  0.00  0.00    -0.082 A 
ATOM      9  C7  UNL d   1      -0.718   5.647   0.381  0.00  0.00     0.045 A 
ENDROOT
TORSDOF 0
ENDMDL
