MODEL 1
REMARK minimizedAffinity 13.5982704
REMARK minimizedRMSD -1
REMARK  0 active torsions:
REMARK  status: ('A' for Active; 'I' for Inactive)
ROOT
ATOM      1  C   UNL d   1      -1.137   3.605  -5.448  0.00  0.00     0.124 A 
ATOM      2  C1  UNL d   1      -1.830   2.402  -5.470  0.00  0.00     0.062 A 
ATOM      3  C2  UNL d   1      -3.213   2.394  -5.627  0.00  0.00     0.162 A 
ATOM      4  C3  UNL d   1      -3.913   3.592  -5.764  0.00  0.00    -0.034 A 
ATOM      5  C4  UNL d   1      -3.209   4.798  -5.741  0.00  0.00     0.162 A 
ATOM      6  C5  UNL d   1      -1.827   4.801  -5.583  0.00  0.00     0.062 A 
ATOM      7  F   UNL d   1      -1.160   5.964  -5.563  0.00  0.00    -0.097 F 
ATOM      8  F1  UNL d   1      -3.851   5.969  -5.870  0.00  0.00    -0.096 F 
ATOM      9  I   UNL d   1      -5.981   3.584  -5.999  0.00  0.00    -0.060 I 
ATOM     10  F2  UNL d   1      -3.856   1.217  -5.644  0.00  0.00    -0.096 F 
ATOM     11  F3  UNL d   1      -1.166   1.245  -5.339  0.00  0.00    -0.097 F 
ATOM     12  F4  UNL d   1       0.193   3.610  -5.296  0.00  0.00    -0.092 F 
ENDROOT
TORSDOF 0
ENDMDL
