MODEL 1
REMARK minimizedAffinity 1.66327584
REMARK minimizedRMSD -1
REMARK  0 active torsions:
REMARK  status: ('A' for Active; 'I' for Inactive)
ROOT
ATOM      1  C   UNL d   1       1.489  -0.565   0.388  0.00  0.00     0.124 A 
ATOM      2  C1  UNL d   1       0.132  -0.826   0.511  0.00  0.00     0.062 A 
ATOM      3  C2  UNL d   1      -0.743   0.184   0.902  0.00  0.00     0.162 A 
ATOM      4  C3  UNL d   1      -0.262   1.465   1.172  0.00  0.00    -0.034 A 
ATOM      5  C4  UNL d   1       1.105   1.720   1.047  0.00  0.00     0.162 A 
ATOM      6  C5  UNL d   1       1.975   0.707   0.656  0.00  0.00     0.062 A 
ATOM      7  F   UNL d   1       3.286   0.961   0.538  0.00  0.00    -0.097 F 
ATOM      8  F1  UNL d   1       1.601   2.940   1.299  0.00  0.00    -0.096 F 
ATOM      9  I   UNL d   1      -1.566   2.978   1.756  0.00  0.00    -0.060 I 
ATOM     10  F2  UNL d   1      -2.050  -0.096   1.012  0.00  0.00    -0.096 F 
ATOM     11  F3  UNL d   1      -0.340  -2.055   0.254  0.00  0.00    -0.097 F 
ATOM     12  F4  UNL d   1       2.328  -1.539   0.013  0.00  0.00    -0.092 F 
ENDROOT
TORSDOF 0
ENDMDL
