MODEL 1
REMARK minimizedAffinity 6.23586845
REMARK minimizedRMSD -1
REMARK  0 active torsions:
REMARK  status: ('A' for Active; 'I' for Inactive)
ROOT
ATOM      1  C   UNL d   1      -1.328   1.032   0.641  0.00  0.00     0.124 A 
ATOM      2  C1  UNL d   1      -0.343   0.055   0.666  0.00  0.00     0.062 A 
ATOM      3  C2  UNL d   1       0.974   0.396   0.962  0.00  0.00     0.162 A 
ATOM      4  C3  UNL d   1       1.313   1.721   1.238  0.00  0.00    -0.034 A 
ATOM      5  C4  UNL d   1       0.316   2.698   1.210  0.00  0.00     0.162 A 
ATOM      6  C5  UNL d   1      -0.998   2.352   0.913  0.00  0.00     0.062 A 
ATOM      7  F   UNL d   1      -1.949   3.298   0.889  0.00  0.00    -0.097 F 
ATOM      8  F1  UNL d   1       0.608   3.981   1.470  0.00  0.00    -0.096 F 
ATOM      9  I   UNL d   1       3.280   2.235   1.681  0.00  0.00    -0.060 I 
ATOM     10  F2  UNL d   1       1.905  -0.569   0.979  0.00  0.00    -0.096 F 
ATOM     11  F3  UNL d   1      -0.659  -1.221   0.403  0.00  0.00    -0.097 F 
ATOM     12  F4  UNL d   1      -2.594   0.701   0.355  0.00  0.00    -0.092 F 
ENDROOT
TORSDOF 0
ENDMDL
