MODEL 1
REMARK minimizedAffinity 1.84345222
REMARK minimizedRMSD -1
REMARK  0 active torsions:
REMARK  status: ('A' for Active; 'I' for Inactive)
ROOT
ATOM      1  C   UNL d   1      -0.445   1.695   1.373  0.00  0.00     0.124 A 
ATOM      2  C1  UNL d   1       0.941   1.639   1.312  0.00  0.00     0.062 A 
ATOM      3  C2  UNL d   1       1.568   0.883   0.326  0.00  0.00     0.162 A 
ATOM      4  C3  UNL d   1       0.810   0.177  -0.608  0.00  0.00    -0.034 A 
ATOM      5  C4  UNL d   1      -0.583   0.237  -0.540  0.00  0.00     0.162 A 
ATOM      6  C5  UNL d   1      -1.205   0.994   0.447  0.00  0.00     0.062 A 
ATOM      7  F   UNL d   1      -2.544   1.046   0.505  0.00  0.00    -0.097 F 
ATOM      8  F1  UNL d   1      -1.342  -0.430  -1.422  0.00  0.00    -0.096 F 
ATOM      9  I   UNL d   1       1.745  -0.955  -2.084  0.00  0.00    -0.060 I 
ATOM     10  F2  UNL d   1       2.909   0.848   0.290  0.00  0.00    -0.096 F 
ATOM     11  F3  UNL d   1       1.678   2.315   2.205  0.00  0.00    -0.097 F 
ATOM     12  F4  UNL d   1      -1.046   2.422   2.323  0.00  0.00    -0.092 F 
ENDROOT
TORSDOF 0
ENDMDL
