MODEL 1
REMARK minimizedAffinity 7.07931948
REMARK minimizedRMSD -1
REMARK  0 active torsions:
REMARK  status: ('A' for Active; 'I' for Inactive)
ROOT
ATOM      1  C   UNL d   1       1.462   1.587   1.144  0.00  0.00     0.124 A 
ATOM      2  C1  UNL d   1       0.565   2.613   1.406  0.00  0.00     0.062 A 
ATOM      3  C2  UNL d   1      -0.805   2.369   1.380  0.00  0.00     0.162 A 
ATOM      4  C3  UNL d   1      -1.286   1.092   1.092  0.00  0.00    -0.034 A 
ATOM      5  C4  UNL d   1      -0.378   0.065   0.828  0.00  0.00     0.162 A 
ATOM      6  C5  UNL d   1       0.990   0.315   0.855  0.00  0.00     0.062 A 
ATOM      7  F   UNL d   1       1.856  -0.678   0.601  0.00  0.00    -0.097 F 
ATOM      8  F1  UNL d   1      -0.807  -1.174   0.546  0.00  0.00    -0.096 F 
ATOM      9  I   UNL d   1      -3.334   0.722   1.052  0.00  0.00    -0.060 I 
ATOM     10  F2  UNL d   1      -1.649   3.379   1.638  0.00  0.00    -0.096 F 
ATOM     11  F3  UNL d   1       1.019   3.844   1.685  0.00  0.00    -0.097 F 
ATOM     12  F4  UNL d   1       2.780   1.826   1.169  0.00  0.00    -0.092 F 
ENDROOT
TORSDOF 0
ENDMDL
