MODEL 1
REMARK minimizedAffinity 11.5823135
REMARK minimizedRMSD -1
REMARK  0 active torsions:
REMARK  status: ('A' for Active; 'I' for Inactive)
ROOT
ATOM      1  C   UNL d   1      -0.525   2.713   1.192  0.00  0.00     0.124 A 
ATOM      2  C1  UNL d   1       0.509   1.790   1.119  0.00  0.00     0.062 A 
ATOM      3  C2  UNL d   1       0.246   0.471   0.760  0.00  0.00     0.162 A 
ATOM      4  C3  UNL d   1      -1.057   0.068   0.469  0.00  0.00    -0.034 A 
ATOM      5  C4  UNL d   1      -2.092   1.002   0.546  0.00  0.00     0.162 A 
ATOM      6  C5  UNL d   1      -1.824   2.318   0.906  0.00  0.00     0.062 A 
ATOM      7  F   UNL d   1      -2.824   3.209   0.976  0.00  0.00    -0.097 F 
ATOM      8  F1  UNL d   1      -3.357   0.648   0.273  0.00  0.00    -0.096 F 
ATOM      9  I   UNL d   1      -1.455  -1.903  -0.069  0.00  0.00    -0.060 I 
ATOM     10  F2  UNL d   1       1.264  -0.399   0.697  0.00  0.00    -0.096 F 
ATOM     11  F3  UNL d   1       1.765   2.168   1.397  0.00  0.00    -0.097 F 
ATOM     12  F4  UNL d   1      -0.269   3.981   1.540  0.00  0.00    -0.092 F 
ENDROOT
TORSDOF 0
ENDMDL
