MODEL 1
REMARK minimizedAffinity 2.9118526
REMARK minimizedRMSD -1
REMARK  0 active torsions:
REMARK  status: ('A' for Active; 'I' for Inactive)
ROOT
ATOM      1  C   UNL d   1       1.687   1.351   1.196  0.00  0.00     0.124 A 
ATOM      2  C1  UNL d   1       0.853   2.416   1.510  0.00  0.00     0.062 A 
ATOM      3  C2  UNL d   1      -0.529   2.267   1.440  0.00  0.00     0.162 A 
ATOM      4  C3  UNL d   1      -1.087   1.048   1.055  0.00  0.00    -0.034 A 
ATOM      5  C4  UNL d   1      -0.242  -0.018   0.740  0.00  0.00     0.162 A 
ATOM      6  C5  UNL d   1       1.139   0.136   0.812  0.00  0.00     0.062 A 
ATOM      7  F   UNL d   1       1.943  -0.894   0.508  0.00  0.00    -0.097 F 
ATOM      8  F1  UNL d   1      -0.745  -1.204   0.367  0.00  0.00    -0.096 F 
ATOM      9  I   UNL d   1      -3.153   0.821   0.949  0.00  0.00    -0.060 I 
ATOM     10  F2  UNL d   1      -1.310   3.312   1.748  0.00  0.00    -0.096 F 
ATOM     11  F3  UNL d   1       1.381   3.592   1.880  0.00  0.00    -0.097 F 
ATOM     12  F4  UNL d   1       3.016   1.498   1.263  0.00  0.00    -0.092 F 
ENDROOT
TORSDOF 0
ENDMDL
