MODEL 1
REMARK minimizedAffinity 7.53377008
REMARK minimizedRMSD -1
REMARK  0 active torsions:
REMARK  status: ('A' for Active; 'I' for Inactive)
ROOT
ATOM      1  C   UNL d   1      -1.443   1.100   0.886  0.00  0.00     0.124 A 
ATOM      2  C1  UNL d   1      -0.444   0.138   0.939  0.00  0.00     0.062 A 
ATOM      3  C2  UNL d   1       0.873   0.510   1.192  0.00  0.00     0.162 A 
ATOM      4  C3  UNL d   1       1.199   1.851   1.395  0.00  0.00    -0.034 A 
ATOM      5  C4  UNL d   1       0.188   2.813   1.339  0.00  0.00     0.162 A 
ATOM      6  C5  UNL d   1      -1.127   2.436   1.086  0.00  0.00     0.062 A 
ATOM      7  F   UNL d   1      -2.091   3.366   1.035  0.00  0.00    -0.097 F 
ATOM      8  F1  UNL d   1       0.466   4.111   1.530  0.00  0.00    -0.096 F 
ATOM      9  I   UNL d   1       3.167   2.412   1.774  0.00  0.00    -0.060 I 
ATOM     10  F2  UNL d   1       1.818  -0.440   1.238  0.00  0.00    -0.096 F 
ATOM     11  F3  UNL d   1      -0.747  -1.154   0.745  0.00  0.00    -0.097 F 
ATOM     12  F4  UNL d   1      -2.710   0.739   0.641  0.00  0.00    -0.092 F 
ENDROOT
TORSDOF 0
ENDMDL
