MODEL 1
REMARK minimizedAffinity 10.7406187
REMARK minimizedRMSD -1
REMARK  0 active torsions:
REMARK  status: ('A' for Active; 'I' for Inactive)
ROOT
ATOM      1  C   UNL d   1      -1.872   0.681   0.802  0.00  0.00     0.124 A 
ATOM      2  C1  UNL d   1      -1.591   2.024   1.007  0.00  0.00     0.062 A 
ATOM      3  C2  UNL d   1      -0.281   2.440   1.226  0.00  0.00     0.162 A 
ATOM      4  C3  UNL d   1       0.760   1.511   1.240  0.00  0.00    -0.034 A 
ATOM      5  C4  UNL d   1       0.469   0.161   1.035  0.00  0.00     0.162 A 
ATOM      6  C5  UNL d   1      -0.842  -0.249   0.817  0.00  0.00     0.062 A 
ATOM      7  F   UNL d   1      -1.111  -1.548   0.620  0.00  0.00    -0.097 F 
ATOM      8  F1  UNL d   1       1.446  -0.759   1.043  0.00  0.00    -0.096 F 
ATOM      9  I   UNL d   1       2.720   2.129   1.567  0.00  0.00    -0.060 I 
ATOM     10  F2  UNL d   1      -0.039   3.745   1.420  0.00  0.00    -0.096 F 
ATOM     11  F3  UNL d   1      -2.584   2.925   0.994  0.00  0.00    -0.097 F 
ATOM     12  F4  UNL d   1      -3.133   0.283   0.593  0.00  0.00    -0.092 F 
ENDROOT
TORSDOF 0
ENDMDL
