MODEL 1
REMARK minimizedAffinity 5.94846725
REMARK minimizedRMSD -1
REMARK  0 active torsions:
REMARK  status: ('A' for Active; 'I' for Inactive)
ROOT
ATOM      1  C   UNL d   1      -0.375   2.089   1.781  0.00  0.00     0.124 A 
ATOM      2  C1  UNL d   1      -0.804   0.976   1.071  0.00  0.00     0.062 A 
ATOM      3  C2  UNL d   1       0.124   0.100   0.515  0.00  0.00     0.162 A 
ATOM      4  C3  UNL d   1       1.491   0.334   0.667  0.00  0.00    -0.034 A 
ATOM      5  C4  UNL d   1       1.915   1.456   1.381  0.00  0.00     0.162 A 
ATOM      6  C5  UNL d   1       0.983   2.328   1.935  0.00  0.00     0.062 A 
ATOM      7  F   UNL d   1       1.399   3.403   2.620  0.00  0.00    -0.097 F 
ATOM      8  F1  UNL d   1       3.221   1.711   1.546  0.00  0.00    -0.096 F 
ATOM      9  I   UNL d   1       2.882  -0.973  -0.164  0.00  0.00    -0.060 I 
ATOM     10  F2  UNL d   1      -0.318  -0.967  -0.166  0.00  0.00    -0.096 F 
ATOM     11  F3  UNL d   1      -2.115   0.743   0.920  0.00  0.00    -0.097 F 
ATOM     12  F4  UNL d   1      -1.270   2.930   2.314  0.00  0.00    -0.092 F 
ENDROOT
TORSDOF 0
ENDMDL
