MODEL 1
REMARK minimizedAffinity 6.56264877
REMARK minimizedRMSD -1
REMARK  0 active torsions:
REMARK  status: ('A' for Active; 'I' for Inactive)
ROOT
ATOM      1  C   UNL d   1      -1.340   1.069   0.630  0.00  0.00     0.124 A 
ATOM      2  C1  UNL d   1      -1.329   2.261   1.340  0.00  0.00     0.062 A 
ATOM      3  C2  UNL d   1      -0.133   2.764   1.844  0.00  0.00     0.162 A 
ATOM      4  C3  UNL d   1       1.062   2.075   1.640  0.00  0.00    -0.034 A 
ATOM      5  C4  UNL d   1       1.043   0.876   0.926  0.00  0.00     0.162 A 
ATOM      6  C5  UNL d   1      -0.155   0.377   0.424  0.00  0.00     0.062 A 
ATOM      7  F   UNL d   1      -0.164  -0.776  -0.261  0.00  0.00    -0.097 F 
ATOM      8  F1  UNL d   1       2.174   0.187   0.712  0.00  0.00    -0.096 F 
ATOM      9  I   UNL d   1       2.852   2.824   2.393  0.00  0.00    -0.060 I 
ATOM     10  F2  UNL d   1      -0.152   3.919   2.526  0.00  0.00    -0.096 F 
ATOM     11  F3  UNL d   1      -2.473   2.931   1.541  0.00  0.00    -0.097 F 
ATOM     12  F4  UNL d   1      -2.492   0.586   0.147  0.00  0.00    -0.092 F 
ENDROOT
TORSDOF 0
ENDMDL
