MODEL 1
REMARK minimizedAffinity 6.78140783
REMARK minimizedRMSD -1
REMARK  0 active torsions:
REMARK  status: ('A' for Active; 'I' for Inactive)
ROOT
ATOM      1  C   UNL d   1       1.372   1.798   0.571  0.00  0.00     0.124 A 
ATOM      2  C1  UNL d   1       0.000   1.992   0.485  0.00  0.00     0.062 A 
ATOM      3  C2  UNL d   1      -0.711   2.458   1.587  0.00  0.00     0.162 A 
ATOM      4  C3  UNL d   1      -0.052   2.734   2.784  0.00  0.00    -0.034 A 
ATOM      5  C4  UNL d   1       1.328   2.536   2.864  0.00  0.00     0.162 A 
ATOM      6  C5  UNL d   1       2.034   2.070   1.760  0.00  0.00     0.062 A 
ATOM      7  F   UNL d   1       3.360   1.884   1.844  0.00  0.00    -0.097 F 
ATOM      8  F1  UNL d   1       1.993   2.792   4.000  0.00  0.00    -0.096 F 
ATOM      9  I   UNL d   1      -1.112   3.431   4.434  0.00  0.00    -0.060 I 
ATOM     10  F2  UNL d   1      -2.036   2.635   1.475  0.00  0.00    -0.096 F 
ATOM     11  F3  UNL d   1      -0.642   1.728  -0.662  0.00  0.00    -0.097 F 
ATOM     12  F4  UNL d   1       2.054   1.349  -0.491  0.00  0.00    -0.092 F 
ENDROOT
TORSDOF 0
ENDMDL
