MODEL 1
REMARK minimizedAffinity 13.4283142
REMARK minimizedRMSD -1
REMARK  0 active torsions:
REMARK  status: ('A' for Active; 'I' for Inactive)
ROOT
ATOM      1  C   UNL d   1      -0.605   1.800   1.562  0.00  0.00     0.124 A 
ATOM      2  C1  UNL d   1      -1.229   0.787   0.848  0.00  0.00     0.062 A 
ATOM      3  C2  UNL d   1      -0.488  -0.029  -0.002  0.00  0.00     0.162 A 
ATOM      4  C3  UNL d   1       0.886   0.165  -0.142  0.00  0.00    -0.034 A 
ATOM      5  C4  UNL d   1       1.506   1.187   0.579  0.00  0.00     0.162 A 
ATOM      6  C5  UNL d   1       0.761   2.000   1.427  0.00  0.00     0.062 A 
ATOM      7  F   UNL d   1       1.365   2.979   2.116  0.00  0.00    -0.097 F 
ATOM      8  F1  UNL d   1       2.826   1.401   0.468  0.00  0.00    -0.096 F 
ATOM      9  I   UNL d   1       1.998  -1.053  -1.412  0.00  0.00    -0.060 I 
ATOM     10  F2  UNL d   1      -1.117  -1.001  -0.679  0.00  0.00    -0.096 F 
ATOM     11  F3  UNL d   1      -2.550   0.593   0.976  0.00  0.00    -0.097 F 
ATOM     12  F4  UNL d   1      -1.321   2.585   2.378  0.00  0.00    -0.092 F 
ENDROOT
TORSDOF 0
ENDMDL
