MODEL 1
REMARK minimizedAffinity 10.1659584
REMARK minimizedRMSD -1
REMARK  0 active torsions:
REMARK  status: ('A' for Active; 'I' for Inactive)
ROOT
ATOM      1  C   UNL d   1       0.782   0.723   0.531  0.00  0.00     0.124 A 
ATOM      2  C1  UNL d   1      -0.466   0.273   0.939  0.00  0.00     0.062 A 
ATOM      3  C2  UNL d   1      -1.048  -0.831   0.324  0.00  0.00     0.162 A 
ATOM      4  C3  UNL d   1      -0.382  -1.495  -0.707  0.00  0.00    -0.034 A 
ATOM      5  C4  UNL d   1       0.872  -1.036  -1.113  0.00  0.00     0.162 A 
ATOM      6  C5  UNL d   1       1.450   0.069  -0.494  0.00  0.00     0.062 A 
ATOM      7  F   UNL d   1       2.655   0.502  -0.890  0.00  0.00    -0.097 F 
ATOM      8  F1  UNL d   1       1.540  -1.650  -2.100  0.00  0.00    -0.096 F 
ATOM      9  I   UNL d   1      -1.248  -3.147  -1.629  0.00  0.00    -0.060 I 
ATOM     10  F2  UNL d   1      -2.255  -1.244   0.739  0.00  0.00    -0.096 F 
ATOM     11  F3  UNL d   1      -1.114   0.905   1.929  0.00  0.00    -0.097 F 
ATOM     12  F4  UNL d   1       1.339   1.787   1.124  0.00  0.00    -0.092 F 
ENDROOT
TORSDOF 0
ENDMDL
