MODEL 1
REMARK minimizedAffinity 25.2043972
REMARK minimizedRMSD -1
REMARK  0 active torsions:
REMARK  status: ('A' for Active; 'I' for Inactive)
ROOT
ATOM      1  C   UNL d   1       1.501   1.283  -4.011  0.00  0.00     0.124 A 
ATOM      2  C1  UNL d   1       2.109   0.312  -3.227  0.00  0.00     0.062 A 
ATOM      3  C2  UNL d   1       1.894   0.287  -1.852  0.00  0.00     0.162 A 
ATOM      4  C3  UNL d   1       1.066   1.236  -1.251  0.00  0.00    -0.034 A 
ATOM      5  C4  UNL d   1       0.459   2.209  -2.046  0.00  0.00     0.162 A 
ATOM      6  C5  UNL d   1       0.677   2.231  -3.420  0.00  0.00     0.062 A 
ATOM      7  F   UNL d   1       0.089   3.169  -4.175  0.00  0.00    -0.097 F 
ATOM      8  F1  UNL d   1      -0.343   3.136  -1.501  0.00  0.00    -0.096 F 
ATOM      9  I   UNL d   1       0.743   1.201   0.804  0.00  0.00    -0.060 I 
ATOM     10  F2  UNL d   1       2.495  -0.663  -1.119  0.00  0.00    -0.096 F 
ATOM     11  F3  UNL d   1       2.906  -0.604  -3.795  0.00  0.00    -0.097 F 
ATOM     12  F4  UNL d   1       1.710   1.306  -5.333  0.00  0.00    -0.092 F 
ENDROOT
TORSDOF 0
ENDMDL
