MODEL 1
REMARK minimizedAffinity 8.54005527
REMARK minimizedRMSD -1
REMARK  0 active torsions:
REMARK  status: ('A' for Active; 'I' for Inactive)
ROOT
ATOM      1  C   UNL d   1       3.276  -1.115  -2.995  0.00  0.00     0.124 A 
ATOM      2  C1  UNL d   1       3.464  -1.592  -1.705  0.00  0.00     0.062 A 
ATOM      3  C2  UNL d   1       2.899  -0.926  -0.622  0.00  0.00     0.162 A 
ATOM      4  C3  UNL d   1       2.139   0.226  -0.824  0.00  0.00    -0.034 A 
ATOM      5  C4  UNL d   1       1.955   0.701  -2.124  0.00  0.00     0.162 A 
ATOM      6  C5  UNL d   1       2.522   0.031  -3.203  0.00  0.00     0.062 A 
ATOM      7  F   UNL d   1       2.339   0.494  -4.448  0.00  0.00    -0.097 F 
ATOM      8  F1  UNL d   1       1.229   1.806  -2.353  0.00  0.00    -0.096 F 
ATOM      9  I   UNL d   1       1.292   1.226   0.793  0.00  0.00    -0.060 I 
ATOM     10  F2  UNL d   1       3.097  -1.410   0.613  0.00  0.00    -0.096 F 
ATOM     11  F3  UNL d   1       4.194  -2.699  -1.501  0.00  0.00    -0.097 F 
ATOM     12  F4  UNL d   1       3.822  -1.758  -4.035  0.00  0.00    -0.092 F 
ENDROOT
TORSDOF 0
ENDMDL
