MODEL 1
REMARK minimizedAffinity 28.3166599
REMARK minimizedRMSD -1
REMARK  0 active torsions:
REMARK  status: ('A' for Active; 'I' for Inactive)
ROOT
ATOM      1  C   UNL d   1       4.849  -0.665  -2.846  0.00  0.00     0.124 A 
ATOM      2  C1  UNL d   1       4.835  -1.617  -1.835  0.00  0.00     0.062 A 
ATOM      3  C2  UNL d   1       3.641  -1.945  -1.200  0.00  0.00     0.162 A 
ATOM      4  C3  UNL d   1       2.450  -1.321  -1.573  0.00  0.00    -0.034 A 
ATOM      5  C4  UNL d   1       2.473  -0.365  -2.589  0.00  0.00     0.162 A 
ATOM      6  C5  UNL d   1       3.669  -0.040  -3.222  0.00  0.00     0.062 A 
ATOM      7  F   UNL d   1       3.681   0.879  -4.198  0.00  0.00    -0.097 F 
ATOM      8  F1  UNL d   1       1.346   0.254  -2.973  0.00  0.00    -0.096 F 
ATOM      9  I   UNL d   1       0.663  -1.809  -0.625  0.00  0.00    -0.060 I 
ATOM     10  F2  UNL d   1       3.656  -2.868  -0.227  0.00  0.00    -0.096 F 
ATOM     11  F3  UNL d   1       5.974  -2.222  -1.470  0.00  0.00    -0.097 F 
ATOM     12  F4  UNL d   1       6.000  -0.351  -3.455  0.00  0.00    -0.092 F 
ENDROOT
TORSDOF 0
ENDMDL
