MODEL 1
REMARK minimizedAffinity 17.6656017
REMARK minimizedRMSD -1
REMARK  0 active torsions:
REMARK  status: ('A' for Active; 'I' for Inactive)
ROOT
ATOM      1  C   UNL d   1      -2.938   0.930   1.007  0.00  0.00     0.124 A 
ATOM      2  C1  UNL d   1      -2.111  -0.181   1.097  0.00  0.00     0.062 A 
ATOM      3  C2  UNL d   1      -0.728  -0.028   1.065  0.00  0.00     0.162 A 
ATOM      4  C3  UNL d   1      -0.162   1.241   0.943  0.00  0.00    -0.034 A 
ATOM      5  C4  UNL d   1      -1.001   2.354   0.852  0.00  0.00     0.162 A 
ATOM      6  C5  UNL d   1      -2.382   2.196   0.884  0.00  0.00     0.062 A 
ATOM      7  F   UNL d   1      -3.180   3.271   0.797  0.00  0.00    -0.097 F 
ATOM      8  F1  UNL d   1      -0.490   3.589   0.734  0.00  0.00    -0.096 F 
ATOM      9  I   UNL d   1       1.905   1.473   0.895  0.00  0.00    -0.060 I 
ATOM     10  F2  UNL d   1       0.047  -1.119   1.155  0.00  0.00    -0.096 F 
ATOM     11  F3  UNL d   1      -2.645  -1.405   1.215  0.00  0.00    -0.097 F 
ATOM     12  F4  UNL d   1      -4.268   0.781   1.037  0.00  0.00    -0.092 F 
ENDROOT
TORSDOF 0
ENDMDL
