MODEL 1
REMARK minimizedAffinity -2.19924355
REMARK minimizedRMSD -1
REMARK  3 active torsions:
REMARK  status: ('A' for Active; 'I' for Inactive)
REMARK    1  A    between atoms: C3'_2  and  C2'_3 
REMARK    2  A    between atoms: C2'_3  and  C1'_4 
REMARK    3  A    between atoms: C1'_4  and  C1_5 
ROOT
ATOM      1  C1  N4B d   1      -0.977  -0.478   0.386  0.00  0.00    -0.075 A 
ATOM      2  C2  N4B d   1      -0.137   0.198   1.298  0.00  0.00     0.002 A 
ATOM      3  C3  N4B d   1      -0.122  -0.170   2.621  0.00  0.00     0.002 A 
ATOM      4  C4  N4B d   1      -0.948  -1.195   3.057  0.00  0.00    -0.004 A 
ATOM      5  C5  N4B d   1      -1.738  -1.860   2.165  0.00  0.00     0.002 A 
ATOM      6  C6  N4B d   1      -1.760  -1.503   0.832  0.00  0.00     0.002 A 
ENDROOT
BRANCH   1   7
ATOM      7  C1' N4B d   1      -1.091  -0.054  -1.053  0.00  0.00     0.057 C 
BRANCH   7   8
ATOM      8  C2' N4B d   1       0.302  -0.003  -1.672  0.00  0.00     0.009 C 
BRANCH   8   9
ATOM      9  C3' N4B d   1       0.448  -0.982  -2.824  0.00  0.00     0.004 C 
ATOM     10  C4' N4B d   1       1.799  -0.919  -3.473  0.00  0.00     0.003 C 
ENDBRANCH   8   9
ENDBRANCH   7   8
ENDBRANCH   1   7
TORSDOF 3
ENDMDL
