MODEL 1
REMARK minimizedAffinity -4.03552675
REMARK minimizedRMSD -1
REMARK  3 active torsions:
REMARK  status: ('A' for Active; 'I' for Inactive)
REMARK    1  A    between atoms: C3'_2  and  C2'_3 
REMARK    2  A    between atoms: C2'_3  and  C1'_4 
REMARK    3  A    between atoms: C1'_4  and  C1_5 
ROOT
ATOM      1  C1  N4B d   1       0.317  -1.167  -0.446  0.00  0.00    -0.075 A 
ATOM      2  C2  N4B d   1      -0.203  -1.259  -1.755  0.00  0.00     0.002 A 
ATOM      3  C3  N4B d   1       0.481  -1.960  -2.718  0.00  0.00     0.002 A 
ATOM      4  C4  N4B d   1       1.691  -2.559  -2.400  0.00  0.00    -0.004 A 
ATOM      5  C5  N4B d   1       2.174  -2.487  -1.126  0.00  0.00     0.002 A 
ATOM      6  C6  N4B d   1       1.495  -1.789  -0.148  0.00  0.00     0.002 A 
ENDROOT
BRANCH   1   7
ATOM      7  C1' N4B d   1      -0.352  -0.340   0.618  0.00  0.00     0.057 C 
BRANCH   7   8
ATOM      8  C2' N4B d   1       0.703   0.162   1.599  0.00  0.00     0.009 C 
BRANCH   8   9
ATOM      9  C3' N4B d   1       0.149   0.304   3.007  0.00  0.00     0.004 C 
ATOM     10  C4' N4B d   1      -0.727  -0.847   3.404  0.00  0.00     0.003 C 
ENDBRANCH   8   9
ENDBRANCH   7   8
ENDBRANCH   1   7
TORSDOF 3
ENDMDL
