MODEL 1
REMARK minimizedAffinity -5.2977581
REMARK minimizedRMSD -1
REMARK  3 active torsions:
REMARK  status: ('A' for Active; 'I' for Inactive)
REMARK    1  A    between atoms: C3'_2  and  C2'_3 
REMARK    2  A    between atoms: C2'_3  and  C1'_4 
REMARK    3  A    between atoms: C1'_4  and  C1_5 
ROOT
ATOM      1  C1  N4B d   1       0.006   0.196  -0.027  0.00  0.00    -0.075 A 
ATOM      2  C2  N4B d   1       0.973   0.650   0.897  0.00  0.00     0.002 A 
ATOM      3  C3  N4B d   1       0.846   0.345   2.230  0.00  0.00     0.002 A 
ATOM      4  C4  N4B d   1      -0.246  -0.393   2.663  0.00  0.00    -0.004 A 
ATOM      5  C5  N4B d   1      -1.162  -0.850   1.761  0.00  0.00     0.002 A 
ATOM      6  C6  N4B d   1      -1.044  -0.554   0.418  0.00  0.00     0.002 A 
ENDROOT
BRANCH   1   7
ATOM      7  C1' N4B d   1       0.057   0.576  -1.481  0.00  0.00     0.057 C 
BRANCH   7   8
ATOM      8  C2' N4B d   1       0.050  -0.691  -2.331  0.00  0.00     0.009 C 
BRANCH   8   9
ATOM      9  C3' N4B d   1       1.198  -0.715  -3.326  0.00  0.00     0.004 C 
ATOM     10  C4' N4B d   1       1.020  -1.752  -4.394  0.00  0.00     0.003 C 
ENDBRANCH   8   9
ENDBRANCH   7   8
ENDBRANCH   1   7
TORSDOF 3
ENDMDL
