MODEL 1
REMARK minimizedAffinity -5.5937376
REMARK minimizedRMSD -1
REMARK  3 active torsions:
REMARK  status: ('A' for Active; 'I' for Inactive)
REMARK    1  A    between atoms: C3'_2  and  C2'_3 
REMARK    2  A    between atoms: C2'_3  and  C1'_4 
REMARK    3  A    between atoms: C1'_4  and  C1_5 
ROOT
ATOM      1  C1  N4B d   1       0.146  -0.134  -1.801  0.00  0.00    -0.075 A 
ATOM      2  C2  N4B d   1      -0.050  -1.139  -2.775  0.00  0.00     0.002 A 
ATOM      3  C3  N4B d   1       0.820  -1.250  -3.832  0.00  0.00     0.002 A 
ATOM      4  C4  N4B d   1       1.877  -0.360  -3.946  0.00  0.00    -0.004 A 
ATOM      5  C5  N4B d   1       2.075   0.591  -2.988  0.00  0.00     0.002 A 
ATOM      6  C6  N4B d   1       1.211   0.712  -1.919  0.00  0.00     0.002 A 
ENDROOT
BRANCH   1   7
ATOM      7  C1' N4B d   1      -0.827   0.081  -0.675  0.00  0.00     0.057 C 
BRANCH   7   8
ATOM      8  C2' N4B d   1      -0.172  -0.337   0.639  0.00  0.00     0.009 C 
BRANCH   8   9
ATOM      9  C3' N4B d   1      -1.146  -1.058   1.555  0.00  0.00     0.004 C 
ATOM     10  C4' N4B d   1      -0.684  -1.095   2.981  0.00  0.00     0.003 C 
ENDBRANCH   8   9
ENDBRANCH   7   8
ENDBRANCH   1   7
TORSDOF 3
ENDMDL
