MODEL 1
REMARK minimizedAffinity -5.40515566
REMARK minimizedRMSD -1
REMARK  3 active torsions:
REMARK  status: ('A' for Active; 'I' for Inactive)
REMARK    1  A    between atoms: C3'_2  and  C2'_3 
REMARK    2  A    between atoms: C2'_3  and  C1'_4 
REMARK    3  A    between atoms: C1'_4  and  C1_5 
ROOT
ATOM      1  C1  N4B d   1       0.427   0.220  -0.384  0.00  0.00    -0.075 A 
ATOM      2  C2  N4B d   1       1.241   1.006   0.460  0.00  0.00     0.002 A 
ATOM      3  C3  N4B d   1       1.166   0.853   1.823  0.00  0.00     0.002 A 
ATOM      4  C4  N4B d   1       0.275  -0.063   2.362  0.00  0.00    -0.004 A 
ATOM      5  C5  N4B d   1      -0.489  -0.837   1.539  0.00  0.00     0.002 A 
ATOM      6  C6  N4B d   1      -0.421  -0.696   0.167  0.00  0.00     0.002 A 
ENDROOT
BRANCH   1   7
ATOM      7  C1' N4B d   1       0.412   0.412  -1.876  0.00  0.00     0.057 C 
BRANCH   7   8
ATOM      8  C2' N4B d   1       0.032  -0.905  -2.547  0.00  0.00     0.009 C 
BRANCH   8   9
ATOM      9  C3' N4B d   1       0.834  -1.149  -3.814  0.00  0.00     0.004 C 
ATOM     10  C4' N4B d   1       1.730  -2.347  -3.712  0.00  0.00     0.003 C 
ENDBRANCH   8   9
ENDBRANCH   7   8
ENDBRANCH   1   7
TORSDOF 3
ENDMDL
