MODEL 1
REMARK minimizedAffinity -5.37758064
REMARK minimizedRMSD -1
REMARK  3 active torsions:
REMARK  status: ('A' for Active; 'I' for Inactive)
REMARK    1  A    between atoms: C3'_2  and  C2'_3 
REMARK    2  A    between atoms: C2'_3  and  C1'_4 
REMARK    3  A    between atoms: C1'_4  and  C1_5 
ROOT
ATOM      1  C1  N4B d   1       0.044  -0.340   0.424  0.00  0.00    -0.075 A 
ATOM      2  C2  N4B d   1       0.977   0.357   1.223  0.00  0.00     0.002 A 
ATOM      3  C3  N4B d   1       0.793   0.438   2.581  0.00  0.00     0.002 A 
ATOM      4  C4  N4B d   1      -0.322  -0.151   3.159  0.00  0.00    -0.004 A 
ATOM      5  C5  N4B d   1      -1.205  -0.844   2.384  0.00  0.00     0.002 A 
ATOM      6  C6  N4B d   1      -1.030  -0.937   1.018  0.00  0.00     0.002 A 
ENDROOT
BRANCH   1   7
ATOM      7  C1' N4B d   1       0.158  -0.384  -1.075  0.00  0.00     0.057 C 
BRANCH   7   8
ATOM      8  C2' N4B d   1       0.417  -1.821  -1.517  0.00  0.00     0.009 C 
BRANCH   8   9
ATOM      9  C3' N4B d   1       0.395  -1.964  -3.029  0.00  0.00     0.004 C 
ATOM     10  C4' N4B d   1       1.675  -1.522  -3.673  0.00  0.00     0.003 C 
ENDBRANCH   8   9
ENDBRANCH   7   8
ENDBRANCH   1   7
TORSDOF 3
ENDMDL
