MODEL 1
REMARK minimizedAffinity -4.30153656
REMARK minimizedRMSD -1
REMARK  3 active torsions:
REMARK  status: ('A' for Active; 'I' for Inactive)
REMARK    1  A    between atoms: C3'_2  and  C2'_3 
REMARK    2  A    between atoms: C2'_3  and  C1'_4 
REMARK    3  A    between atoms: C1'_4  and  C1_5 
ROOT
ATOM      1  C1  N4B d   1       0.136   0.033   0.352  0.00  0.00    -0.075 A 
ATOM      2  C2  N4B d   1       0.601   0.828   1.422  0.00  0.00     0.002 A 
ATOM      3  C3  N4B d   1       0.266   0.504   2.714  0.00  0.00     0.002 A 
ATOM      4  C4  N4B d   1      -0.545  -0.594   2.958  0.00  0.00    -0.004 A 
ATOM      5  C5  N4B d   1      -0.969  -1.372   1.920  0.00  0.00     0.002 A 
ATOM      6  C6  N4B d   1      -0.637  -1.061   0.617  0.00  0.00     0.002 A 
ENDROOT
BRANCH   1   7
ATOM      7  C1' N4B d   1       0.405   0.396  -1.083  0.00  0.00     0.057 C 
BRANCH   7   8
ATOM      8  C2' N4B d   1       0.140  -0.820  -1.966  0.00  0.00     0.009 C 
BRANCH   8   9
ATOM      9  C3' N4B d   1       1.093  -0.883  -3.147  0.00  0.00     0.004 C 
ATOM     10  C4' N4B d   1       1.121  -2.233  -3.799  0.00  0.00     0.003 C 
ENDBRANCH   8   9
ENDBRANCH   7   8
ENDBRANCH   1   7
TORSDOF 3
ENDMDL
