MODEL 1
REMARK minimizedAffinity 0.224512354
REMARK minimizedRMSD -1
REMARK  3 active torsions:
REMARK  status: ('A' for Active; 'I' for Inactive)
REMARK    1  A    between atoms: C3'_2  and  C2'_3 
REMARK    2  A    between atoms: C2'_3  and  C1'_4 
REMARK    3  A    between atoms: C1'_4  and  C1_5 
ROOT
ATOM      1  C1  N4B d   1       0.390  -0.185   1.000  0.00  0.00    -0.075 A 
ATOM      2  C2  N4B d   1       0.982   1.043   1.369  0.00  0.00     0.002 A 
ATOM      3  C3  N4B d   1       0.698   1.601   2.592  0.00  0.00     0.002 A 
ATOM      4  C4  N4B d   1      -0.185   0.962   3.449  0.00  0.00    -0.004 A 
ATOM      5  C5  N4B d   1      -0.732  -0.236   3.095  0.00  0.00     0.002 A 
ATOM      6  C6  N4B d   1      -0.453  -0.811   1.872  0.00  0.00     0.002 A 
ENDROOT
BRANCH   1   7
ATOM      7  C1' N4B d   1       0.603  -0.791  -0.360  0.00  0.00     0.057 C 
BRANCH   7   8
ATOM      8  C2' N4B d   1      -0.676  -0.644  -1.180  0.00  0.00     0.009 C 
BRANCH   8   9
ATOM      9  C3' N4B d   1      -1.415   0.643  -0.854  0.00  0.00     0.004 C 
ATOM     10  C4' N4B d   1      -2.852   0.413  -0.493  0.00  0.00     0.003 C 
ENDBRANCH   8   9
ENDBRANCH   7   8
ENDBRANCH   1   7
TORSDOF 3
ENDMDL
