MODEL 1
REMARK minimizedAffinity -4.15121555
REMARK minimizedRMSD -1
REMARK  2 active torsions:
REMARK  status: ('A' for Active; 'I' for Inactive)
REMARK    1  A    between atoms: C1_2  and  C2_3 
REMARK    2  A    between atoms: C2_3  and  C3_4 
ROOT
ATOM      1  C3  UNL d   1       0.281  -1.258  -0.843  0.00  0.00    -0.075 A 
ATOM      2  C4  UNL d   1       1.496  -1.942  -0.693  0.00  0.00     0.002 A 
ATOM      3  C5  UNL d   1       1.796  -3.039  -1.502  0.00  0.00     0.002 A 
ATOM      4  C6  UNL d   1       0.884  -3.471  -2.461  0.00  0.00    -0.004 A 
ATOM      5  C7  UNL d   1      -0.333  -2.809  -2.608  0.00  0.00     0.002 A 
ATOM      6  C8  UNL d   1      -0.634  -1.709  -1.804  0.00  0.00     0.002 A 
ENDROOT
BRANCH   1   7
ATOM      7  C2  UNL d   1      -0.037  -0.053   0.008  0.00  0.00     0.056 C 
BRANCH   7   8
ATOM      8  C1  UNL d   1      -0.459  -0.395   1.441  0.00  0.00     0.007 C 
ATOM      9  C   UNL d   1      -1.014   0.800   2.205  0.00  0.00     0.009 C 
ENDBRANCH   7   8
ENDBRANCH   1   7
TORSDOF 2
ENDMDL
