MODEL 1
REMARK minimizedAffinity -1.24403322
REMARK minimizedRMSD -1
REMARK  2 active torsions:
REMARK  status: ('A' for Active; 'I' for Inactive)
REMARK    1  A    between atoms: C1_2  and  C2_3 
REMARK    2  A    between atoms: C2_3  and  C3_4 
ROOT
ATOM      1  C3  UNL d   1       0.105   1.249  -0.237  0.00  0.00    -0.075 A 
ATOM      2  C4  UNL d   1       0.116   2.626  -0.502  0.00  0.00     0.002 A 
ATOM      3  C5  UNL d   1      -0.467   3.525   0.391  0.00  0.00     0.002 A 
ATOM      4  C6  UNL d   1      -1.077   3.059   1.554  0.00  0.00    -0.004 A 
ATOM      5  C7  UNL d   1      -1.108   1.691   1.820  0.00  0.00     0.002 A 
ATOM      6  C8  UNL d   1      -0.521   0.790   0.930  0.00  0.00     0.002 A 
ENDROOT
BRANCH   1   7
ATOM      7  C2  UNL d   1       0.761   0.274  -1.185  0.00  0.00     0.056 C 
BRANCH   7   8
ATOM      8  C1  UNL d   1       1.368  -0.953  -0.497  0.00  0.00     0.007 C 
ATOM      9  C   UNL d   1       1.162  -2.243  -1.279  0.00  0.00     0.009 C 
ENDBRANCH   7   8
ENDBRANCH   1   7
TORSDOF 2
ENDMDL
