MODEL 1
REMARK minimizedAffinity -3.88822913
REMARK minimizedRMSD -1
REMARK  2 active torsions:
REMARK  status: ('A' for Active; 'I' for Inactive)
REMARK    1  A    between atoms: C1_2  and  C2_3 
REMARK    2  A    between atoms: C2_3  and  C3_4 
ROOT
ATOM      1  C3  UNL d   1      -0.074  -0.353   0.415  0.00  0.00    -0.075 A 
ATOM      2  C4  UNL d   1      -0.136   1.048   0.433  0.00  0.00     0.002 A 
ATOM      3  C5  UNL d   1      -0.843   1.713   1.436  0.00  0.00     0.002 A 
ATOM      4  C6  UNL d   1      -1.502   0.987   2.425  0.00  0.00    -0.004 A 
ATOM      5  C7  UNL d   1      -1.461  -0.406   2.407  0.00  0.00     0.002 A 
ATOM      6  C8  UNL d   1      -0.751  -1.073   1.408  0.00  0.00     0.002 A 
ENDROOT
BRANCH   1   7
ATOM      7  C2  UNL d   1       0.714  -1.077  -0.651  0.00  0.00     0.056 C 
BRANCH   7   8
ATOM      8  C1  UNL d   1      -0.127  -2.027  -1.511  0.00  0.00     0.007 C 
ATOM      9  C   UNL d   1       0.583  -2.475  -2.781  0.00  0.00     0.009 C 
ENDBRANCH   7   8
ENDBRANCH   1   7
TORSDOF 2
ENDMDL
