MODEL 1
REMARK minimizedAffinity -3.945997
REMARK minimizedRMSD -1
REMARK  2 active torsions:
REMARK  status: ('A' for Active; 'I' for Inactive)
REMARK    1  A    between atoms: C1_2  and  C2_3 
REMARK    2  A    between atoms: C2_3  and  C3_4 
ROOT
ATOM      1  C3  UNL d   1      -0.191   0.725   0.317  0.00  0.00    -0.075 A 
ATOM      2  C4  UNL d   1      -0.849   0.891   1.544  0.00  0.00     0.002 A 
ATOM      3  C5  UNL d   1      -1.050   2.166   2.073  0.00  0.00     0.002 A 
ATOM      4  C6  UNL d   1      -0.588   3.288   1.389  0.00  0.00    -0.004 A 
ATOM      5  C7  UNL d   1       0.081   3.134   0.177  0.00  0.00     0.002 A 
ATOM      6  C8  UNL d   1       0.280   1.860  -0.357  0.00  0.00     0.002 A 
ENDROOT
BRANCH   1   7
ATOM      7  C2  UNL d   1       0.003  -0.650  -0.276  0.00  0.00     0.056 C 
BRANCH   7   8
ATOM      8  C1  UNL d   1       1.346  -0.837  -0.991  0.00  0.00     0.007 C 
ATOM      9  C   UNL d   1       1.455  -2.168  -1.724  0.00  0.00     0.009 C 
ENDBRANCH   7   8
ENDBRANCH   1   7
TORSDOF 2
ENDMDL
