MODEL 1
REMARK minimizedAffinity -5.51798534
REMARK minimizedRMSD -1
REMARK  2 active torsions:
REMARK  status: ('A' for Active; 'I' for Inactive)
REMARK    1  A    between atoms: C1_2  and  C2_3 
REMARK    2  A    between atoms: C2_3  and  C3_4 
ROOT
ATOM      1  C3  UNL d   1       0.102   0.514   0.505  0.00  0.00    -0.075 A 
ATOM      2  C4  UNL d   1       0.469   1.396  -0.521  0.00  0.00     0.002 A 
ATOM      3  C5  UNL d   1       0.171   2.756  -0.427  0.00  0.00     0.002 A 
ATOM      4  C6  UNL d   1      -0.505   3.249   0.687  0.00  0.00    -0.004 A 
ATOM      5  C7  UNL d   1      -0.889   2.379   1.706  0.00  0.00     0.002 A 
ATOM      6  C8  UNL d   1      -0.588   1.018   1.616  0.00  0.00     0.002 A 
ENDROOT
BRANCH   1   7
ATOM      7  C2  UNL d   1       0.447  -0.954   0.423  0.00  0.00     0.056 C 
BRANCH   7   8
ATOM      8  C1  UNL d   1      -0.026  -1.634  -0.865  0.00  0.00     0.007 C 
ATOM      9  C   UNL d   1       0.771  -2.885  -1.211  0.00  0.00     0.009 C 
ENDBRANCH   7   8
ENDBRANCH   1   7
TORSDOF 2
ENDMDL
