MODEL 1
REMARK minimizedAffinity -3.08515096
REMARK minimizedRMSD -1
REMARK  2 active torsions:
REMARK  status: ('A' for Active; 'I' for Inactive)
REMARK    1  A    between atoms: C1_2  and  C2_3 
REMARK    2  A    between atoms: C2_3  and  C3_4 
ROOT
ATOM      1  C3  UNL d   1       0.332   1.022   0.327  0.00  0.00    -0.075 A 
ATOM      2  C4  UNL d   1      -0.363   0.586   1.464  0.00  0.00     0.002 A 
ATOM      3  C5  UNL d   1      -0.235  -0.730   1.911  0.00  0.00     0.002 A 
ATOM      4  C6  UNL d   1       0.580  -1.626   1.223  0.00  0.00    -0.004 A 
ATOM      5  C7  UNL d   1       1.262  -1.208   0.083  0.00  0.00     0.002 A 
ATOM      6  C8  UNL d   1       1.139   0.109  -0.364  0.00  0.00     0.002 A 
ENDROOT
BRANCH   1   7
ATOM      7  C2  UNL d   1       0.221   2.453  -0.145  0.00  0.00     0.056 C 
BRANCH   7   8
ATOM      8  C1  UNL d   1      -0.066   3.458   0.975  0.00  0.00     0.007 C 
ATOM      9  C   UNL d   1       0.350   4.881   0.626  0.00  0.00     0.009 C 
ENDBRANCH   7   8
ENDBRANCH   1   7
TORSDOF 2
ENDMDL
