MODEL 1
REMARK minimizedAffinity -3.64596701
REMARK minimizedRMSD -1
REMARK  2 active torsions:
REMARK  status: ('A' for Active; 'I' for Inactive)
REMARK    1  A    between atoms: C1_2  and  C2_3 
REMARK    2  A    between atoms: C2_3  and  C3_4 
ROOT
ATOM      1  C3  UNL d   1       0.590   0.124   0.181  0.00  0.00    -0.075 A 
ATOM      2  C4  UNL d   1       0.573   1.490  -0.135  0.00  0.00     0.002 A 
ATOM      3  C5  UNL d   1      -0.139   2.392   0.657  0.00  0.00     0.002 A 
ATOM      4  C6  UNL d   1      -0.850   1.939   1.766  0.00  0.00    -0.004 A 
ATOM      5  C7  UNL d   1      -0.854   0.581   2.079  0.00  0.00     0.002 A 
ATOM      6  C8  UNL d   1      -0.139  -0.322   1.291  0.00  0.00     0.002 A 
ENDROOT
BRANCH   1   7
ATOM      7  C2  UNL d   1       1.382  -0.852  -0.655  0.00  0.00     0.056 C 
BRANCH   7   8
ATOM      8  C1  UNL d   1       0.518  -1.832  -1.456  0.00  0.00     0.007 C 
ATOM      9  C   UNL d   1       1.297  -3.033  -1.976  0.00  0.00     0.009 C 
ENDBRANCH   7   8
ENDBRANCH   1   7
TORSDOF 2
ENDMDL
