MODEL 1
REMARK minimizedAffinity -5.2675581
REMARK minimizedRMSD -1
REMARK  2 active torsions:
REMARK  status: ('A' for Active; 'I' for Inactive)
REMARK    1  A    between atoms: C1_2  and  C2_3 
REMARK    2  A    between atoms: C2_3  and  C3_4 
ROOT
ATOM      1  C3  UNL d   1       0.187  -1.137  -0.288  0.00  0.00    -0.075 A 
ATOM      2  C4  UNL d   1      -0.894  -1.576  -1.065  0.00  0.00     0.002 A 
ATOM      3  C5  UNL d   1      -0.719  -2.576  -2.022  0.00  0.00     0.002 A 
ATOM      4  C6  UNL d   1       0.539  -3.142  -2.220  0.00  0.00    -0.004 A 
ATOM      5  C7  UNL d   1       1.623  -2.702  -1.465  0.00  0.00     0.002 A 
ATOM      6  C8  UNL d   1       1.450  -1.704  -0.504  0.00  0.00     0.002 A 
ENDROOT
BRANCH   1   7
ATOM      7  C2  UNL d   1      -0.002  -0.075   0.769  0.00  0.00     0.056 C 
BRANCH   7   8
ATOM      8  C1  UNL d   1      -1.031  -0.442   1.844  0.00  0.00     0.007 C 
ATOM      9  C   UNL d   1      -0.617  -1.640   2.688  0.00  0.00     0.009 C 
ENDBRANCH   7   8
ENDBRANCH   1   7
TORSDOF 2
ENDMDL
