MODEL 1
REMARK minimizedAffinity -4.0979805
REMARK minimizedRMSD -1
REMARK  2 active torsions:
REMARK  status: ('A' for Active; 'I' for Inactive)
REMARK    1  A    between atoms: C1_2  and  C2_3 
REMARK    2  A    between atoms: C2_3  and  C3_4 
ROOT
ATOM      1  C3  UNL d   1       0.859  -1.663  -1.362  0.00  0.00    -0.075 A 
ATOM      2  C4  UNL d   1       0.149  -1.618  -2.570  0.00  0.00     0.002 A 
ATOM      3  C5  UNL d   1      -0.447  -2.770  -3.084  0.00  0.00     0.002 A 
ATOM      4  C6  UNL d   1      -0.331  -3.981  -2.405  0.00  0.00    -0.004 A 
ATOM      5  C7  UNL d   1       0.386  -4.040  -1.212  0.00  0.00     0.002 A 
ATOM      6  C8  UNL d   1       0.979  -2.888  -0.693  0.00  0.00     0.002 A 
ENDROOT
BRANCH   1   7
ATOM      7  C2  UNL d   1       1.481  -0.413  -0.785  0.00  0.00     0.056 C 
BRANCH   7   8
ATOM      8  C1  UNL d   1       0.501   0.466  -0.001  0.00  0.00     0.007 C 
ATOM      9  C   UNL d   1       0.122  -0.117   1.354  0.00  0.00     0.009 C 
ENDBRANCH   7   8
ENDBRANCH   1   7
TORSDOF 2
ENDMDL
