MODEL 1
REMARK minimizedAffinity -3.97125673
REMARK minimizedRMSD -1
REMARK  0 active torsions:
REMARK  status: ('A' for Active; 'I' for Inactive)
ROOT
ATOM      1  O1  BZF d   1       1.316   0.547  -2.383  0.00  0.00    -0.204 OA
ATOM      2  C2  BZF d   1       1.176  -0.510  -1.504  0.00  0.00     0.174 A 
ATOM      3  C3  BZF d   1       1.204  -0.077  -0.227  0.00  0.00    -0.012 A 
ATOM      4  C3A BZF d   1       1.281   1.349  -0.315  0.00  0.00    -0.107 A 
ATOM      5  C4  BZF d   1       1.323   2.346   0.617  0.00  0.00     0.055 A 
ATOM      6  C5  BZF d   1       1.470   3.632   0.203  0.00  0.00    -0.016 A 
ATOM      7  C6  BZF d   1       1.583   3.956  -1.133  0.00  0.00     0.022 A 
ATOM      8  C7  BZF d   1       1.541   3.002  -2.095  0.00  0.00     0.029 A 
ATOM      9  C7A BZF d   1       1.359   1.705  -1.681  0.00  0.00     0.058 A 
ENDROOT
TORSDOF 0
ENDMDL
