MODEL 1
REMARK minimizedAffinity -3.88082838
REMARK minimizedRMSD -1
REMARK  0 active torsions:
REMARK  status: ('A' for Active; 'I' for Inactive)
ROOT
ATOM      1  O1  BZF d   1       1.018   4.099   0.881  0.00  0.00    -0.204 OA
ATOM      2  C2  BZF d   1       1.180   5.035  -0.123  0.00  0.00     0.174 A 
ATOM      3  C3  BZF d   1       1.404   4.431  -1.308  0.00  0.00    -0.012 A 
ATOM      4  C3A BZF d   1       1.289   3.030  -1.044  0.00  0.00    -0.107 A 
ATOM      5  C4  BZF d   1       1.392   1.916  -1.827  0.00  0.00     0.055 A 
ATOM      6  C5  BZF d   1       1.299   0.690  -1.247  0.00  0.00    -0.016 A 
ATOM      7  C6  BZF d   1       1.110   0.542   0.111  0.00  0.00     0.022 A 
ATOM      8  C7  BZF d   1       0.997   1.618   0.928  0.00  0.00     0.029 A 
ATOM      9  C7A BZF d   1       1.057   2.858   0.340  0.00  0.00     0.058 A 
ENDROOT
TORSDOF 0
ENDMDL
