MODEL 1
REMARK minimizedAffinity -5.39414692
REMARK minimizedRMSD -1
REMARK  0 active torsions:
REMARK  status: ('A' for Active; 'I' for Inactive)
ROOT
ATOM      1  O1  BZF d   1       2.347   3.978  -0.396  0.00  0.00    -0.204 OA
ATOM      2  C2  BZF d   1       2.007   4.371  -1.676  0.00  0.00     0.174 A 
ATOM      3  C3  BZF d   1       1.347   3.386  -2.320  0.00  0.00    -0.012 A 
ATOM      4  C3A BZF d   1       1.188   2.345  -1.352  0.00  0.00    -0.107 A 
ATOM      5  C4  BZF d   1       0.598   1.114  -1.385  0.00  0.00     0.055 A 
ATOM      6  C5  BZF d   1       0.681   0.311  -0.292  0.00  0.00    -0.016 A 
ATOM      7  C6  BZF d   1       1.350   0.705   0.849  0.00  0.00     0.022 A 
ATOM      8  C7  BZF d   1       1.946   1.919   0.931  0.00  0.00     0.029 A 
ATOM      9  C7A BZF d   1       1.836   2.746  -0.160  0.00  0.00     0.058 A 
ENDROOT
TORSDOF 0
ENDMDL
