MODEL 1
REMARK minimizedAffinity -4.08603573
REMARK minimizedRMSD -1
REMARK  0 active torsions:
REMARK  status: ('A' for Active; 'I' for Inactive)
ROOT
ATOM      1  O1  BZF d   1       1.366  -1.158  -2.541  0.00  0.00    -0.204 OA
ATOM      2  C2  BZF d   1       1.484  -2.247  -1.698  0.00  0.00     0.174 A 
ATOM      3  C3  BZF d   1       1.466  -1.857  -0.408  0.00  0.00    -0.012 A 
ATOM      4  C3A BZF d   1       1.236  -0.446  -0.444  0.00  0.00    -0.107 A 
ATOM      5  C4  BZF d   1       1.100   0.509   0.524  0.00  0.00     0.055 A 
ATOM      6  C5  BZF d   1       0.957   1.809   0.154  0.00  0.00    -0.016 A 
ATOM      7  C6  BZF d   1       0.950   2.190  -1.172  0.00  0.00     0.022 A 
ATOM      8  C7  BZF d   1       1.077   1.278  -2.167  0.00  0.00     0.029 A 
ATOM      9  C7A BZF d   1       1.188  -0.040  -1.798  0.00  0.00     0.058 A 
ENDROOT
TORSDOF 0
ENDMDL
