MODEL 1
REMARK minimizedAffinity -4.29132557
REMARK minimizedRMSD -1
REMARK  0 active torsions:
REMARK  status: ('A' for Active; 'I' for Inactive)
ROOT
ATOM      1  O1  BZF d   1       1.153   0.856   0.863  0.00  0.00    -0.204 OA
ATOM      2  C2  BZF d   1       1.141  -0.127  -0.108  0.00  0.00     0.174 A 
ATOM      3  C3  BZF d   1       1.180   0.419  -1.341  0.00  0.00    -0.012 A 
ATOM      4  C3A BZF d   1       1.313   1.828  -1.125  0.00  0.00    -0.107 A 
ATOM      5  C4  BZF d   1       1.420   2.900  -1.963  0.00  0.00     0.055 A 
ATOM      6  C5  BZF d   1       1.461   4.151  -1.433  0.00  0.00    -0.016 A 
ATOM      7  C6  BZF d   1       1.393   4.366  -0.072  0.00  0.00     0.022 A 
ATOM      8  C7  BZF d   1       1.291   3.333   0.799  0.00  0.00     0.029 A 
ATOM      9  C7A BZF d   1       1.283   2.066   0.269  0.00  0.00     0.058 A 
ENDROOT
TORSDOF 0
ENDMDL
