MODEL 1
REMARK minimizedAffinity 6.12034416
REMARK minimizedRMSD -1
REMARK  0 active torsions:
REMARK  status: ('A' for Active; 'I' for Inactive)
ROOT
ATOM      1  O1  BZF d   1       1.138   1.832  -2.566  0.00  0.00    -0.204 OA
ATOM      2  C2  BZF d   1       1.382   3.170  -2.320  0.00  0.00     0.174 A 
ATOM      3  C3  BZF d   1       1.503   3.399  -0.996  0.00  0.00    -0.012 A 
ATOM      4  C3A BZF d   1       1.415   2.110  -0.382  0.00  0.00    -0.107 A 
ATOM      5  C4  BZF d   1       1.481   1.681   0.913  0.00  0.00     0.055 A 
ATOM      6  C5  BZF d   1       1.284   0.363   1.183  0.00  0.00    -0.016 A 
ATOM      7  C6  BZF d   1       1.015  -0.550   0.185  0.00  0.00     0.022 A 
ATOM      8  C7  BZF d   1       0.945  -0.173  -1.115  0.00  0.00     0.029 A 
ATOM      9  C7A BZF d   1       1.176   1.152  -1.395  0.00  0.00     0.058 A 
ENDROOT
TORSDOF 0
ENDMDL
