MODEL 1
REMARK minimizedAffinity -0.377754092
REMARK minimizedRMSD -1
REMARK  0 active torsions:
REMARK  status: ('A' for Active; 'I' for Inactive)
ROOT
ATOM      1  O1  BZF d   1       0.885   3.473   0.152  0.00  0.00    -0.204 OA
ATOM      2  C2  BZF d   1       0.945   3.963  -1.138  0.00  0.00     0.174 A 
ATOM      3  C3  BZF d   1       1.312   2.995  -2.001  0.00  0.00    -0.012 A 
ATOM      4  C3A BZF d   1       1.403   1.803  -1.214  0.00  0.00    -0.107 A 
ATOM      5  C4  BZF d   1       1.710   0.505  -1.507  0.00  0.00     0.055 A 
ATOM      6  C5  BZF d   1       1.782  -0.401  -0.497  0.00  0.00    -0.016 A 
ATOM      7  C6  BZF d   1       1.557  -0.043   0.817  0.00  0.00     0.022 A 
ATOM      8  C7  BZF d   1       1.243   1.231   1.156  0.00  0.00     0.029 A 
ATOM      9  C7A BZF d   1       1.138   2.142   0.133  0.00  0.00     0.058 A 
ENDROOT
TORSDOF 0
ENDMDL
