MODEL 1
REMARK minimizedAffinity 3.83638215
REMARK minimizedRMSD -1
REMARK  0 active torsions:
REMARK  status: ('A' for Active; 'I' for Inactive)
ROOT
ATOM      1  O1  BZF d   1       1.573   4.557   0.058  0.00  0.00    -0.204 OA
ATOM      2  C2  BZF d   1       1.828   5.154  -1.161  0.00  0.00     0.174 A 
ATOM      3  C3  BZF d   1       1.807   4.242  -2.154  0.00  0.00    -0.012 A 
ATOM      4  C3A BZF d   1       1.430   3.012  -1.528  0.00  0.00    -0.107 A 
ATOM      5  C4  BZF d   1       1.223   1.746  -1.995  0.00  0.00     0.055 A 
ATOM      6  C5  BZF d   1       0.934   0.755  -1.110  0.00  0.00    -0.016 A 
ATOM      7  C6  BZF d   1       0.849   0.994   0.246  0.00  0.00     0.022 A 
ATOM      8  C7  BZF d   1       1.041   2.235   0.755  0.00  0.00     0.029 A 
ATOM      9  C7A BZF d   1       1.301   3.245  -0.139  0.00  0.00     0.058 A 
ENDROOT
TORSDOF 0
ENDMDL
