MODEL 1
REMARK minimizedAffinity -0.990325272
REMARK minimizedRMSD -1
REMARK  0 active torsions:
REMARK  status: ('A' for Active; 'I' for Inactive)
ROOT
ATOM      1  O1  BZF d   1       1.418   3.931   0.708  0.00  0.00    -0.204 OA
ATOM      2  C2  BZF d   1       1.573   4.867  -0.297  0.00  0.00     0.174 A 
ATOM      3  C3  BZF d   1       1.574   4.273  -1.508  0.00  0.00    -0.012 A 
ATOM      4  C3A BZF d   1       1.317   2.889  -1.248  0.00  0.00    -0.107 A 
ATOM      5  C4  BZF d   1       1.183   1.793  -2.051  0.00  0.00     0.055 A 
ATOM      6  C5  BZF d   1       1.009   0.573  -1.479  0.00  0.00    -0.016 A 
ATOM      7  C6  BZF d   1       0.968   0.412  -0.109  0.00  0.00     0.022 A 
ATOM      8  C7  BZF d   1       1.091   1.471   0.728  0.00  0.00     0.029 A 
ATOM      9  C7A BZF d   1       1.235   2.710   0.152  0.00  0.00     0.058 A 
ENDROOT
TORSDOF 0
ENDMDL
