MODEL 1
REMARK minimizedAffinity -1.18896186
REMARK minimizedRMSD -1
REMARK  0 active torsions:
REMARK  status: ('A' for Active; 'I' for Inactive)
ROOT
ATOM      1  O1  BZF d   1       1.769   0.686  -2.075  0.00  0.00    -0.204 OA
ATOM      2  C2  BZF d   1       1.642  -0.585  -1.548  0.00  0.00     0.174 A 
ATOM      3  C3  BZF d   1       1.355  -0.531  -0.232  0.00  0.00    -0.012 A 
ATOM      4  C3A BZF d   1       1.208   0.861   0.064  0.00  0.00    -0.107 A 
ATOM      5  C4  BZF d   1       0.907   1.552   1.203  0.00  0.00     0.055 A 
ATOM      6  C5  BZF d   1       0.914   2.911   1.172  0.00  0.00    -0.016 A 
ATOM      7  C6  BZF d   1       1.223   3.610   0.024  0.00  0.00     0.022 A 
ATOM      8  C7  BZF d   1       1.524   2.968  -1.131  0.00  0.00     0.029 A 
ATOM      9  C7A BZF d   1       1.485   1.595  -1.112  0.00  0.00     0.058 A 
ENDROOT
TORSDOF 0
ENDMDL
