MODEL 1
REMARK minimizedAffinity 4.12787628
REMARK minimizedRMSD -1
REMARK  0 active torsions:
REMARK  status: ('A' for Active; 'I' for Inactive)
ROOT
ATOM      1  O1  BZF d   1       2.196  -0.204  -0.129  0.00  0.00    -0.204 OA
ATOM      2  C2  BZF d   1       1.881   0.809  -1.014  0.00  0.00     0.174 A 
ATOM      3  C3  BZF d   1       1.060   0.359  -1.985  0.00  0.00    -0.012 A 
ATOM      4  C3A BZF d   1       0.775  -0.999  -1.636  0.00  0.00    -0.107 A 
ATOM      5  C4  BZF d   1       0.005  -1.973  -2.205  0.00  0.00     0.055 A 
ATOM      6  C5  BZF d   1      -0.002  -3.216  -1.656  0.00  0.00    -0.016 A 
ATOM      7  C6  BZF d   1       0.753  -3.521  -0.542  0.00  0.00     0.022 A 
ATOM      8  C7  BZF d   1       1.529  -2.587   0.061  0.00  0.00     0.029 A 
ATOM      9  C7A BZF d   1       1.512  -1.322  -0.473  0.00  0.00     0.058 A 
ENDROOT
TORSDOF 0
ENDMDL
