MODEL 1
REMARK minimizedAffinity -2.08317637
REMARK minimizedRMSD -1
REMARK  0 active torsions:
REMARK  status: ('A' for Active; 'I' for Inactive)
ROOT
ATOM      1  O1  BZF d   1       1.853   4.110   0.392  0.00  0.00    -0.204 OA
ATOM      2  C2  BZF d   1       2.083   4.852  -0.751  0.00  0.00     0.174 A 
ATOM      3  C3  BZF d   1       1.905   4.098  -1.855  0.00  0.00    -0.012 A 
ATOM      4  C3A BZF d   1       1.452   2.829  -1.374  0.00  0.00    -0.107 A 
ATOM      5  C4  BZF d   1       1.091   1.666  -1.992  0.00  0.00     0.055 A 
ATOM      6  C5  BZF d   1       0.766   0.587  -1.232  0.00  0.00    -0.016 A 
ATOM      7  C6  BZF d   1       0.797   0.635   0.147  0.00  0.00     0.022 A 
ATOM      8  C7  BZF d   1       1.144   1.768   0.804  0.00  0.00     0.029 A 
ATOM      9  C7A BZF d   1       1.441   2.869   0.039  0.00  0.00     0.058 A 
ENDROOT
TORSDOF 0
ENDMDL
