MODEL 1
REMARK minimizedAffinity 1.04016423
REMARK minimizedRMSD -1
REMARK  0 active torsions:
REMARK  status: ('A' for Active; 'I' for Inactive)
ROOT
ATOM      1  O1  BZF d   1       1.346   2.377  -2.981  0.00  0.00    -0.204 OA
ATOM      2  C2  BZF d   1       1.129   1.040  -2.712  0.00  0.00     0.174 A 
ATOM      3  C3  BZF d   1       1.174   0.806  -1.385  0.00  0.00    -0.012 A 
ATOM      4  C3A BZF d   1       1.344   2.092  -0.781  0.00  0.00    -0.107 A 
ATOM      5  C4  BZF d   1       1.444   2.515   0.513  0.00  0.00     0.055 A 
ATOM      6  C5  BZF d   1       1.679   3.831   0.761  0.00  0.00    -0.016 A 
ATOM      7  C6  BZF d   1       1.825   4.747  -0.259  0.00  0.00     0.022 A 
ATOM      8  C7  BZF d   1       1.729   4.375  -1.559  0.00  0.00     0.029 A 
ATOM      9  C7A BZF d   1       1.459   3.052  -1.812  0.00  0.00     0.058 A 
ENDROOT
TORSDOF 0
ENDMDL
