MODEL 1
REMARK minimizedAffinity -0.440975249
REMARK minimizedRMSD -1
REMARK  0 active torsions:
REMARK  status: ('A' for Active; 'I' for Inactive)
ROOT
ATOM      1  O1  BZF d   1       1.545   4.188  -2.286  0.00  0.00    -0.204 OA
ATOM      2  C2  BZF d   1       1.955   5.065  -1.300  0.00  0.00     0.174 A 
ATOM      3  C3  BZF d   1       1.902   4.478  -0.086  0.00  0.00    -0.012 A 
ATOM      4  C3A BZF d   1       1.518   3.124  -0.340  0.00  0.00    -0.107 A 
ATOM      5  C4  BZF d   1       1.313   2.040   0.466  0.00  0.00     0.055 A 
ATOM      6  C5  BZF d   1       0.872   0.880  -0.088  0.00  0.00    -0.016 A 
ATOM      7  C6  BZF d   1       0.622   0.770  -1.440  0.00  0.00     0.022 A 
ATOM      8  C7  BZF d   1       0.815   1.816  -2.280  0.00  0.00     0.029 A 
ATOM      9  C7A BZF d   1       1.292   2.980  -1.728  0.00  0.00     0.058 A 
ENDROOT
TORSDOF 0
ENDMDL
