MODEL 1
REMARK minimizedAffinity -4.43001604
REMARK minimizedRMSD -1
REMARK  0 active torsions:
REMARK  status: ('A' for Active; 'I' for Inactive)
ROOT
ATOM      1  O1  BZF d   1       1.636   0.769  -2.302  0.00  0.00    -0.204 OA
ATOM      2  C2  BZF d   1       1.728  -0.552  -1.907  0.00  0.00     0.174 A 
ATOM      3  C3  BZF d   1       1.533  -0.668  -0.578  0.00  0.00    -0.012 A 
ATOM      4  C3A BZF d   1       1.214   0.652  -0.127  0.00  0.00    -0.107 A 
ATOM      5  C4  BZF d   1       0.903   1.178   1.094  0.00  0.00     0.055 A 
ATOM      6  C5  BZF d   1       0.716   2.519   1.208  0.00  0.00    -0.016 A 
ATOM      7  C6  BZF d   1       0.839   3.364   0.124  0.00  0.00     0.022 A 
ATOM      8  C7  BZF d   1       1.142   2.888  -1.109  0.00  0.00     0.029 A 
ATOM      9  C7A BZF d   1       1.298   1.529  -1.233  0.00  0.00     0.058 A 
ENDROOT
TORSDOF 0
ENDMDL
