MODEL 1
REMARK minimizedAffinity -0.0405246615
REMARK minimizedRMSD -1
REMARK  0 active torsions:
REMARK  status: ('A' for Active; 'I' for Inactive)
ROOT
ATOM      1  O1  BZF d   1       2.112   3.042  -2.272  0.00  0.00    -0.204 OA
ATOM      2  C2  BZF d   1       2.497   4.195  -1.616  0.00  0.00     0.174 A 
ATOM      3  C3  BZF d   1       2.355   4.057  -0.282  0.00  0.00    -0.012 A 
ATOM      4  C3A BZF d   1       1.938   2.702  -0.087  0.00  0.00    -0.107 A 
ATOM      5  C4  BZF d   1       1.649   1.959   1.022  0.00  0.00     0.055 A 
ATOM      6  C5  BZF d   1       1.200   0.686   0.866  0.00  0.00    -0.016 A 
ATOM      7  C6  BZF d   1       1.023   0.127  -0.383  0.00  0.00     0.022 A 
ATOM      8  C7  BZF d   1       1.301   0.823  -1.512  0.00  0.00     0.029 A 
ATOM      9  C7A BZF d   1       1.786   2.098  -1.357  0.00  0.00     0.058 A 
ENDROOT
TORSDOF 0
ENDMDL
