MODEL 1
REMARK minimizedAffinity -4.76348972
REMARK minimizedRMSD -1
REMARK  0 active torsions:
REMARK  status: ('A' for Active; 'I' for Inactive)
ROOT
ATOM      1  O1  BZF d   1       1.515   1.040  -2.068  0.00  0.00    -0.204 OA
ATOM      2  C2  BZF d   1       1.445  -0.236  -1.544  0.00  0.00     0.174 A 
ATOM      3  C3  BZF d   1       1.270  -0.195  -0.207  0.00  0.00    -0.012 A 
ATOM      4  C3A BZF d   1       1.136   1.193   0.112  0.00  0.00    -0.107 A 
ATOM      5  C4  BZF d   1       0.925   1.872   1.278  0.00  0.00     0.055 A 
ATOM      6  C5  BZF d   1       0.917   3.230   1.260  0.00  0.00    -0.016 A 
ATOM      7  C6  BZF d   1       1.121   3.942   0.095  0.00  0.00     0.022 A 
ATOM      8  C7  BZF d   1       1.329   3.312  -1.087  0.00  0.00     0.029 A 
ATOM      9  C7A BZF d   1       1.305   1.939  -1.077  0.00  0.00     0.058 A 
ENDROOT
TORSDOF 0
ENDMDL
