MODEL 1
REMARK minimizedAffinity -2.60016608
REMARK minimizedRMSD -1
REMARK  0 active torsions:
REMARK  status: ('A' for Active; 'I' for Inactive)
ROOT
ATOM      1  O1  BZF d   1       1.518   4.446   0.135  0.00  0.00    -0.204 OA
ATOM      2  C2  BZF d   1       1.769   5.080  -1.066  0.00  0.00     0.174 A 
ATOM      3  C3  BZF d   1       1.784   4.193  -2.082  0.00  0.00    -0.012 A 
ATOM      4  C3A BZF d   1       1.435   2.938  -1.490  0.00  0.00    -0.107 A 
ATOM      5  C4  BZF d   1       1.269   1.678  -1.990  0.00  0.00     0.055 A 
ATOM      6  C5  BZF d   1       0.998   0.658  -1.133  0.00  0.00    -0.016 A 
ATOM      7  C6  BZF d   1       0.892   0.861   0.227  0.00  0.00     0.022 A 
ATOM      8  C7  BZF d   1       1.044   2.094   0.769  0.00  0.00     0.029 A 
ATOM      9  C7A BZF d   1       1.285   3.132  -0.097  0.00  0.00     0.058 A 
ENDROOT
TORSDOF 0
ENDMDL
