MODEL 1
REMARK minimizedAffinity 5.61455679
REMARK minimizedRMSD -1
REMARK  0 active torsions:
REMARK  status: ('A' for Active; 'I' for Inactive)
ROOT
ATOM      1  C   UNL d   1      -4.627   4.277  -2.551  0.00  0.00     0.023 A 
ATOM      2  C1  UNL d   1      -4.267   3.472  -1.470  0.00  0.00     0.003 A 
ATOM      3  C2  UNL d   1      -3.718   2.207  -1.693  0.00  0.00     0.048 A 
ATOM      4  C3  UNL d   1      -3.530   1.755  -2.999  0.00  0.00     0.023 A 
ATOM      5  C4  UNL d   1      -3.887   2.559  -4.083  0.00  0.00     0.048 A 
ATOM      6  C5  UNL d   1      -4.437   3.822  -3.855  0.00  0.00     0.003 A 
ATOM      7  I   UNL d   1      -2.712  -0.126  -3.333  0.00  0.00    -0.146 I 
ENDROOT
TORSDOF 0
ENDMDL
