MODEL 1
REMARK minimizedAffinity 13.0441694
REMARK minimizedRMSD -1
REMARK  0 active torsions:
REMARK  status: ('A' for Active; 'I' for Inactive)
ROOT
ATOM      1  C   UNL d   1       1.678  -1.091   4.666  0.00  0.00     0.023 A 
ATOM      2  C1  UNL d   1       1.847   0.270   4.922  0.00  0.00     0.003 A 
ATOM      3  C2  UNL d   1       2.272   1.126   3.903  0.00  0.00     0.048 A 
ATOM      4  C3  UNL d   1       2.525   0.615   2.631  0.00  0.00     0.023 A 
ATOM      5  C4  UNL d   1       2.356  -0.746   2.370  0.00  0.00     0.048 A 
ATOM      6  C5  UNL d   1       1.932  -1.598   3.391  0.00  0.00     0.003 A 
ATOM      7  I   UNL d   1       3.157   1.886   1.113  0.00  0.00    -0.146 I 
ENDROOT
TORSDOF 0
ENDMDL
