MODEL 1
REMARK minimizedAffinity 8.68404293
REMARK minimizedRMSD -1
REMARK  0 active torsions:
REMARK  status: ('A' for Active; 'I' for Inactive)
ROOT
ATOM      1  C   UNL d   1       3.387   2.047   0.607  0.00  0.00     0.023 A 
ATOM      2  C1  UNL d   1       3.006   2.272   1.930  0.00  0.00     0.003 A 
ATOM      3  C2  UNL d   1       2.651   1.198   2.748  0.00  0.00     0.048 A 
ATOM      4  C3  UNL d   1       2.680  -0.099   2.238  0.00  0.00     0.023 A 
ATOM      5  C4  UNL d   1       3.061  -0.330   0.915  0.00  0.00     0.048 A 
ATOM      6  C5  UNL d   1       3.414   0.748   0.100  0.00  0.00     0.003 A 
ATOM      7  I   UNL d   1       2.152  -1.699   3.454  0.00  0.00    -0.146 I 
ENDROOT
TORSDOF 0
ENDMDL
