MODEL 1
REMARK minimizedAffinity 11.7591124
REMARK minimizedRMSD -1
REMARK  0 active torsions:
REMARK  status: ('A' for Active; 'I' for Inactive)
ROOT
ATOM      1  C   UNL d   1       3.366  -0.821   2.572  0.00  0.00     0.023 A 
ATOM      2  C1  UNL d   1       4.027  -1.869   3.213  0.00  0.00     0.003 A 
ATOM      3  C2  UNL d   1       3.299  -2.941   3.733  0.00  0.00     0.048 A 
ATOM      4  C3  UNL d   1       1.910  -2.959   3.608  0.00  0.00     0.023 A 
ATOM      5  C4  UNL d   1       1.245  -1.913   2.967  0.00  0.00     0.048 A 
ATOM      6  C5  UNL d   1       1.977  -0.843   2.449  0.00  0.00     0.003 A 
ATOM      7  I   UNL d   1       0.824  -4.554   4.380  0.00  0.00    -0.146 I 
ENDROOT
TORSDOF 0
ENDMDL
