MODEL 1
REMARK minimizedAffinity 12.7820787
REMARK minimizedRMSD -1
REMARK  0 active torsions:
REMARK  status: ('A' for Active; 'I' for Inactive)
ROOT
ATOM      1  C   UNL d   1      -4.058   3.354   0.003  0.00  0.00     0.023 A 
ATOM      2  C1  UNL d   1      -3.228   2.984   1.061  0.00  0.00     0.003 A 
ATOM      3  C2  UNL d   1      -3.781   2.630   2.293  0.00  0.00     0.048 A 
ATOM      4  C3  UNL d   1      -5.165   2.647   2.460  0.00  0.00     0.023 A 
ATOM      5  C4  UNL d   1      -6.000   3.017   1.404  0.00  0.00     0.048 A 
ATOM      6  C5  UNL d   1      -5.442   3.371   0.174  0.00  0.00     0.003 A 
ATOM      7  I   UNL d   1      -5.991   2.121   4.293  0.00  0.00    -0.146 I 
ENDROOT
TORSDOF 0
ENDMDL
