MODEL 1
REMARK minimizedAffinity 8.552742
REMARK minimizedRMSD -1
REMARK  0 active torsions:
REMARK  status: ('A' for Active; 'I' for Inactive)
ROOT
ATOM      1  C   UNL d   1      -4.136   3.044  -0.251  0.00  0.00     0.023 A 
ATOM      2  C1  UNL d   1      -5.463   3.387   0.011  0.00  0.00     0.003 A 
ATOM      3  C2  UNL d   1      -6.000   3.184   1.284  0.00  0.00     0.048 A 
ATOM      4  C3  UNL d   1      -5.204   2.640   2.291  0.00  0.00     0.023 A 
ATOM      5  C4  UNL d   1      -3.875   2.297   2.034  0.00  0.00     0.048 A 
ATOM      6  C5  UNL d   1      -3.343   2.500   0.760  0.00  0.00     0.003 A 
ATOM      7  I   UNL d   1      -6.000   2.337   4.187  0.00  0.00    -0.146 I 
ENDROOT
TORSDOF 0
ENDMDL
