MODEL 1
REMARK minimizedAffinity 10.5212936
REMARK minimizedRMSD -1
REMARK  0 active torsions:
REMARK  status: ('A' for Active; 'I' for Inactive)
ROOT
ATOM      1  C   UNL d   1       3.800  -3.832   5.201  0.00  0.00     0.023 A 
ATOM      2  C1  UNL d   1       2.477  -3.862   4.761  0.00  0.00     0.003 A 
ATOM      3  C2  UNL d   1       1.948  -2.775   4.061  0.00  0.00     0.048 A 
ATOM      4  C3  UNL d   1       2.748  -1.663   3.804  0.00  0.00     0.023 A 
ATOM      5  C4  UNL d   1       4.073  -1.629   4.241  0.00  0.00     0.048 A 
ATOM      6  C5  UNL d   1       4.598  -2.717   4.941  0.00  0.00     0.003 A 
ATOM      7  I   UNL d   1       1.963  -0.045   2.762  0.00  0.00    -0.146 I 
ENDROOT
TORSDOF 0
ENDMDL
