MODEL 1
REMARK minimizedAffinity 3.1623795
REMARK minimizedRMSD -1
REMARK  0 active torsions:
REMARK  status: ('A' for Active; 'I' for Inactive)
ROOT
ATOM      1  C   UNL d   1       5.834  -4.478   6.000  0.00  0.00     0.172 C 
ATOM      2  N   UNL d   1       4.874  -3.552   5.446  0.00  0.00    -0.070 N 
ATOM      3  C1  UNL d   1       4.154  -3.741   4.296  0.00  0.00    -0.004 A 
ATOM      4  C2  UNL d   1       3.353  -2.635   4.113  0.00  0.00    -0.047 A 
ATOM      5  C3  UNL d   1       3.601  -1.750   5.190  0.00  0.00    -0.047 A 
ATOM      6  C4  UNL d   1       4.546  -2.343   6.000  0.00  0.00    -0.004 A 
ENDROOT
TORSDOF 0
ENDMDL
