MODEL 1
REMARK minimizedAffinity 1.86028397
REMARK minimizedRMSD -1
REMARK  0 active torsions:
REMARK  status: ('A' for Active; 'I' for Inactive)
ROOT
ATOM      1  C   UNL d   1      -1.042  -4.642  -3.763  0.00  0.00     0.172 C 
ATOM      2  N   UNL d   1      -0.090  -4.984  -2.733  0.00  0.00    -0.070 N 
ATOM      3  C1  UNL d   1      -0.008  -4.402  -1.496  0.00  0.00    -0.004 A 
ATOM      4  C2  UNL d   1       1.026  -5.006  -0.813  0.00  0.00    -0.047 A 
ATOM      5  C3  UNL d   1       1.584  -5.985  -1.669  0.00  0.00    -0.047 A 
ATOM      6  C4  UNL d   1       0.875  -5.950  -2.851  0.00  0.00    -0.004 A 
ENDROOT
TORSDOF 0
ENDMDL
