MODEL 1
REMARK minimizedAffinity -1.48966646
REMARK minimizedRMSD -1
REMARK  0 active torsions:
REMARK  status: ('A' for Active; 'I' for Inactive)
ROOT
ATOM      1  C   UNL d   1      -0.830   3.226   1.410  0.00  0.00     0.172 C 
ATOM      2  N   UNL d   1      -0.726   3.763   0.073  0.00  0.00    -0.070 N 
ATOM      3  C1  UNL d   1       0.370   3.670  -0.741  0.00  0.00    -0.004 A 
ATOM      4  C2  UNL d   1       0.070   4.305  -1.927  0.00  0.00    -0.047 A 
ATOM      5  C3  UNL d   1      -1.253   4.797  -1.821  0.00  0.00    -0.047 A 
ATOM      6  C4  UNL d   1      -1.722   4.447  -0.572  0.00  0.00    -0.004 A 
ENDROOT
TORSDOF 0
ENDMDL
