MODEL 1
REMARK minimizedAffinity 3.72497106
REMARK minimizedRMSD -1
REMARK  0 active torsions:
REMARK  status: ('A' for Active; 'I' for Inactive)
ROOT
ATOM      1  C   UNL d   1      -1.901   5.988   0.445  0.00  0.00     0.172 C 
ATOM      2  N   UNL d   1      -1.279   5.540  -0.779  0.00  0.00    -0.070 N 
ATOM      3  C1  UNL d   1      -0.286   4.602  -0.873  0.00  0.00    -0.004 A 
ATOM      4  C2  UNL d   1       0.032   4.457  -2.206  0.00  0.00    -0.047 A 
ATOM      5  C3  UNL d   1      -0.798   5.339  -2.938  0.00  0.00    -0.047 A 
ATOM      6  C4  UNL d   1      -1.600   5.997  -2.030  0.00  0.00    -0.004 A 
ENDROOT
TORSDOF 0
ENDMDL
