MODEL 1
REMARK minimizedAffinity 4.20510387
REMARK minimizedRMSD -1
REMARK  0 active torsions:
REMARK  status: ('A' for Active; 'I' for Inactive)
ROOT
ATOM      1  C   UNL d   1       0.441   3.376   0.547  0.00  0.00     0.172 C 
ATOM      2  N   UNL d   1      -0.226   4.252  -0.388  0.00  0.00    -0.070 N 
ATOM      3  C1  UNL d   1      -0.736   5.489  -0.097  0.00  0.00    -0.004 A 
ATOM      4  C2  UNL d   1      -1.288   5.999  -1.252  0.00  0.00    -0.047 A 
ATOM      5  C3  UNL d   1      -1.104   5.035  -2.272  0.00  0.00    -0.047 A 
ATOM      6  C4  UNL d   1      -0.444   3.963  -1.709  0.00  0.00    -0.004 A 
ENDROOT
TORSDOF 0
ENDMDL
