MODEL 1
REMARK minimizedAffinity 4.45651579
REMARK minimizedRMSD -1
REMARK  0 active torsions:
REMARK  status: ('A' for Active; 'I' for Inactive)
ROOT
ATOM      1  C   UNL d   1       1.530   0.833   3.753  0.00  0.00     0.172 C 
ATOM      2  N   UNL d   1       1.484  -0.448   4.416  0.00  0.00    -0.070 N 
ATOM      3  C1  UNL d   1       1.462  -0.646   5.771  0.00  0.00    -0.004 A 
ATOM      4  C2  UNL d   1       1.419  -2.004   5.999  0.00  0.00    -0.047 A 
ATOM      5  C3  UNL d   1       1.416  -2.646   4.737  0.00  0.00    -0.047 A 
ATOM      6  C4  UNL d   1       1.457  -1.659   3.775  0.00  0.00    -0.004 A 
ENDROOT
TORSDOF 0
ENDMDL
