MODEL 1
REMARK minimizedAffinity 3.93627191
REMARK minimizedRMSD -1
REMARK  0 active torsions:
REMARK  status: ('A' for Active; 'I' for Inactive)
ROOT
ATOM      1  C   UNL d   1      -1.477   5.825  -2.052  0.00  0.00     0.172 C 
ATOM      2  N   UNL d   1      -0.513   5.091  -1.267  0.00  0.00    -0.070 N 
ATOM      3  C1  UNL d   1      -0.696   3.839  -0.743  0.00  0.00    -0.004 A 
ATOM      4  C2  UNL d   1       0.453   3.494  -0.064  0.00  0.00    -0.047 A 
ATOM      5  C3  UNL d   1       1.357   4.576  -0.183  0.00  0.00    -0.047 A 
ATOM      6  C4  UNL d   1       0.734   5.551  -0.933  0.00  0.00    -0.004 A 
ENDROOT
TORSDOF 0
ENDMDL
