MODEL 1
REMARK minimizedAffinity 6.07937717
REMARK minimizedRMSD -1
REMARK  0 active torsions:
REMARK  status: ('A' for Active; 'I' for Inactive)
ROOT
ATOM      1  C   UNL d   1       0.110   3.210   0.040  0.00  0.00     0.172 C 
ATOM      2  N   UNL d   1       0.074   2.530   1.313  0.00  0.00    -0.070 N 
ATOM      3  C1  UNL d   1       1.165   2.169   2.057  0.00  0.00    -0.004 A 
ATOM      4  C2  UNL d   1       0.711   1.545   3.199  0.00  0.00    -0.047 A 
ATOM      5  C3  UNL d   1      -0.703   1.529   3.138  0.00  0.00    -0.047 A 
ATOM      6  C4  UNL d   1      -1.071   2.145   1.960  0.00  0.00    -0.004 A 
ENDROOT
TORSDOF 0
ENDMDL
