MODEL 1
REMARK minimizedAffinity -0.783611417
REMARK minimizedRMSD -1
REMARK  0 active torsions:
REMARK  status: ('A' for Active; 'I' for Inactive)
ROOT
ATOM      1  C   UNL d   1       0.260   3.141  -0.003  0.00  0.00     0.172 C 
ATOM      2  N   UNL d   1      -0.599   4.192  -0.496  0.00  0.00    -0.070 N 
ATOM      3  C1  UNL d   1      -1.125   5.211   0.253  0.00  0.00    -0.004 A 
ATOM      4  C2  UNL d   1      -1.886   6.000  -0.583  0.00  0.00    -0.047 A 
ATOM      5  C3  UNL d   1      -1.815   5.435  -1.878  0.00  0.00    -0.047 A 
ATOM      6  C4  UNL d   1      -1.012   4.317  -1.796  0.00  0.00    -0.004 A 
ENDROOT
TORSDOF 0
ENDMDL
