MODEL 1
REMARK minimizedAffinity 5.75968742
REMARK minimizedRMSD -1
REMARK  0 active torsions:
REMARK  status: ('A' for Active; 'I' for Inactive)
ROOT
ATOM      1  C   UNL d   1      -6.000   1.493   5.644  0.00  0.00     0.172 C 
ATOM      2  N   UNL d   1      -5.021   0.854   4.796  0.00  0.00    -0.070 N 
ATOM      3  C1  UNL d   1      -4.127   1.499   3.983  0.00  0.00    -0.004 A 
ATOM      4  C2  UNL d   1      -3.372   0.540   3.343  0.00  0.00    -0.047 A 
ATOM      5  C3  UNL d   1      -3.827  -0.724   3.786  0.00  0.00    -0.047 A 
ATOM      6  C4  UNL d   1      -4.849  -0.500   4.685  0.00  0.00    -0.004 A 
ENDROOT
TORSDOF 0
ENDMDL
