MODEL 1
REMARK minimizedAffinity 5.27984476
REMARK minimizedRMSD -1
REMARK  0 active torsions:
REMARK  status: ('A' for Active; 'I' for Inactive)
ROOT
ATOM      1  C2' OXE d   1       5.442   3.771   4.306  0.00  0.00     0.078 C 
ATOM      2  C1' OXE d   1       4.126   2.713   2.063  0.00  0.00     0.078 C 
ATOM      3  C1  OXE d   1       4.759   1.744   3.030  0.00  0.00    -0.078 A 
ATOM      4  C2  OXE d   1       5.441   2.272   4.099  0.00  0.00    -0.078 A 
ATOM      5  C3  OXE d   1       5.996   1.421   5.051  0.00  0.00     0.003 A 
ATOM      6  C4  OXE d   1       6.000   0.036   4.848  0.00  0.00    -0.002 A 
ATOM      7  C5  OXE d   1       5.346  -0.521   3.744  0.00  0.00    -0.002 A 
ATOM      8  C6  OXE d   1       4.685   0.315   2.850  0.00  0.00     0.003 A 
ENDROOT
TORSDOF 0
ENDMDL
