MODEL 1
REMARK minimizedAffinity 2.56133437
REMARK minimizedRMSD -1
REMARK  0 active torsions:
REMARK  status: ('A' for Active; 'I' for Inactive)
ROOT
ATOM      1  C2' OXE d   1       6.000   1.300   5.889  0.00  0.00     0.078 C 
ATOM      2  C1' OXE d   1       6.000   3.524   4.175  0.00  0.00     0.078 C 
ATOM      3  C1  OXE d   1       5.239   2.297   3.736  0.00  0.00    -0.078 A 
ATOM      4  C2  OXE d   1       5.283   1.198   4.559  0.00  0.00    -0.078 A 
ATOM      5  C3  OXE d   1       4.554   0.059   4.229  0.00  0.00     0.003 A 
ATOM      6  C4  OXE d   1       3.902  -0.031   2.993  0.00  0.00    -0.002 A 
ATOM      7  C5  OXE d   1       3.877   1.063   2.122  0.00  0.00    -0.002 A 
ATOM      8  C6  OXE d   1       4.504   2.247   2.496  0.00  0.00     0.003 A 
ENDROOT
TORSDOF 0
ENDMDL
