MODEL 1
REMARK minimizedAffinity 7.9991231
REMARK minimizedRMSD -1
REMARK  0 active torsions:
REMARK  status: ('A' for Active; 'I' for Inactive)
ROOT
ATOM      1  C2' OXE d   1       1.124  -3.707   1.927  0.00  0.00     0.078 C 
ATOM      2  C1' OXE d   1       1.526  -1.921   4.056  0.00  0.00     0.078 C 
ATOM      3  C1  OXE d   1       0.174  -1.927   3.388  0.00  0.00    -0.078 A 
ATOM      4  C2  OXE d   1       0.001  -2.770   2.317  0.00  0.00    -0.078 A 
ATOM      5  C3  OXE d   1      -1.243  -2.854   1.699  0.00  0.00     0.003 A 
ATOM      6  C4  OXE d   1      -2.274  -1.978   2.059  0.00  0.00    -0.002 A 
ATOM      7  C5  OXE d   1      -2.107  -1.083   3.121  0.00  0.00    -0.002 A 
ATOM      8  C6  OXE d   1      -0.906  -1.075   3.822  0.00  0.00     0.003 A 
ENDROOT
TORSDOF 0
ENDMDL
