MODEL 1
REMARK minimizedAffinity 4.01499987
REMARK minimizedRMSD -1
REMARK  0 active torsions:
REMARK  status: ('A' for Active; 'I' for Inactive)
ROOT
ATOM      1  C2' OXE d   1       0.679   4.193   0.328  0.00  0.00     0.078 C 
ATOM      2  C1' OXE d   1       2.282   4.774  -1.901  0.00  0.00     0.078 C 
ATOM      3  C1  OXE d   1       1.378   3.570  -1.980  0.00  0.00    -0.078 A 
ATOM      4  C2  OXE d   1       0.631   3.266  -0.868  0.00  0.00    -0.078 A 
ATOM      5  C3  OXE d   1      -0.260   2.197  -0.906  0.00  0.00     0.003 A 
ATOM      6  C4  OXE d   1      -0.291   1.339  -2.012  0.00  0.00    -0.002 A 
ATOM      7  C5  OXE d   1       0.491   1.608  -3.141  0.00  0.00    -0.002 A 
ATOM      8  C6  OXE d   1       1.297   2.741  -3.158  0.00  0.00     0.003 A 
ENDROOT
TORSDOF 0
ENDMDL
