MODEL 1
REMARK minimizedAffinity 0.619583786
REMARK minimizedRMSD -1
REMARK  0 active torsions:
REMARK  status: ('A' for Active; 'I' for Inactive)
ROOT
ATOM      1  C2' OXE d   1       5.943   2.891   3.964  0.00  0.00     0.078 C 
ATOM      2  C1' OXE d   1       4.255   1.369   2.316  0.00  0.00     0.078 C 
ATOM      3  C1  OXE d   1       4.720   0.749   3.610  0.00  0.00    -0.078 A 
ATOM      4  C2  OXE d   1       5.583   1.483   4.388  0.00  0.00    -0.078 A 
ATOM      5  C3  OXE d   1       6.000   0.980   5.618  0.00  0.00     0.003 A 
ATOM      6  C4  OXE d   1       5.671  -0.326   5.997  0.00  0.00    -0.002 A 
ATOM      7  C5  OXE d   1       4.825  -1.106   5.201  0.00  0.00    -0.002 A 
ATOM      8  C6  OXE d   1       4.308  -0.568   4.027  0.00  0.00     0.003 A 
ENDROOT
TORSDOF 0
ENDMDL
