MODEL 1
REMARK minimizedAffinity 9.64518261
REMARK minimizedRMSD -1
REMARK  0 active torsions:
REMARK  status: ('A' for Active; 'I' for Inactive)
ROOT
ATOM      1  C2' OXE d   1       5.576   4.041   3.757  0.00  0.00     0.078 C 
ATOM      2  C1' OXE d   1       3.970   2.844   1.790  0.00  0.00     0.078 C 
ATOM      3  C1  OXE d   1       4.607   1.946   2.820  0.00  0.00    -0.078 A 
ATOM      4  C2  OXE d   1       5.429   2.534   3.751  0.00  0.00    -0.078 A 
ATOM      5  C3  OXE d   1       5.998   1.758   4.757  0.00  0.00     0.003 A 
ATOM      6  C4  OXE d   1       5.865   0.365   4.738  0.00  0.00    -0.002 A 
ATOM      7  C5  OXE d   1       5.065  -0.259   3.775  0.00  0.00    -0.002 A 
ATOM      8  C6  OXE d   1       4.396   0.519   2.837  0.00  0.00     0.003 A 
ENDROOT
TORSDOF 0
ENDMDL
