MODEL 1
REMARK minimizedAffinity 2.68871593
REMARK minimizedRMSD -1
REMARK  0 active torsions:
REMARK  status: ('A' for Active; 'I' for Inactive)
ROOT
ATOM      1  C2' OXE d   1      -2.997  -0.824   2.755  0.00  0.00     0.078 C 
ATOM      2  C1' OXE d   1      -5.785  -0.932   2.446  0.00  0.00     0.078 C 
ATOM      3  C1  OXE d   1      -4.970  -0.397   1.295  0.00  0.00    -0.078 A 
ATOM      4  C2  OXE d   1      -3.610  -0.304   1.473  0.00  0.00    -0.078 A 
ATOM      5  C3  OXE d   1      -2.806   0.132   0.424  0.00  0.00     0.003 A 
ATOM      6  C4  OXE d   1      -3.382   0.620  -0.755  0.00  0.00    -0.002 A 
ATOM      7  C5  OXE d   1      -4.768   0.572  -0.942  0.00  0.00    -0.002 A 
ATOM      8  C6  OXE d   1      -5.571   0.028   0.055  0.00  0.00     0.003 A 
ENDROOT
TORSDOF 0
ENDMDL
