MODEL 1
REMARK minimizedAffinity 8.35037422
REMARK minimizedRMSD -1
REMARK  0 active torsions:
REMARK  status: ('A' for Active; 'I' for Inactive)
ROOT
ATOM      1  C2' OXE d   1      -3.041   0.435   2.400  0.00  0.00     0.078 C 
ATOM      2  C1' OXE d   1      -3.078   0.480  -0.406  0.00  0.00     0.078 C 
ATOM      3  C1  OXE d   1      -3.180   1.798   0.319  0.00  0.00    -0.078 A 
ATOM      4  C2  OXE d   1      -3.208   1.763   1.693  0.00  0.00    -0.078 A 
ATOM      5  C3  OXE d   1      -3.246   2.954   2.412  0.00  0.00     0.003 A 
ATOM      6  C4  OXE d   1      -3.411   4.177   1.750  0.00  0.00    -0.002 A 
ATOM      7  C5  OXE d   1      -3.424   4.231   0.352  0.00  0.00    -0.002 A 
ATOM      8  C6  OXE d   1      -3.268   3.058  -0.377  0.00  0.00     0.003 A 
ENDROOT
TORSDOF 0
ENDMDL
