MODEL 1
REMARK minimizedAffinity 7.18764353
REMARK minimizedRMSD -1
REMARK  0 active torsions:
REMARK  status: ('A' for Active; 'I' for Inactive)
ROOT
ATOM      1  C2' OXE d   1       1.310   3.234  -5.364  0.00  0.00     0.078 C 
ATOM      2  C1' OXE d   1       3.011   5.137  -4.194  0.00  0.00     0.078 C 
ATOM      3  C1  OXE d   1       3.643   3.923  -4.827  0.00  0.00    -0.078 A 
ATOM      4  C2  OXE d   1       2.801   2.974  -5.355  0.00  0.00    -0.078 A 
ATOM      5  C3  OXE d   1       3.334   1.861  -6.000  0.00  0.00     0.003 A 
ATOM      6  C4  OXE d   1       4.713   1.623  -5.979  0.00  0.00    -0.002 A 
ATOM      7  C5  OXE d   1       5.586   2.557  -5.411  0.00  0.00    -0.002 A 
ATOM      8  C6  OXE d   1       5.071   3.730  -4.870  0.00  0.00     0.003 A 
ENDROOT
TORSDOF 0
ENDMDL
