MODEL 1
REMARK minimizedAffinity 0.503005683
REMARK minimizedRMSD -1
REMARK  0 active torsions:
REMARK  status: ('A' for Active; 'I' for Inactive)
ROOT
ATOM      1  C2' OXE d   1       3.451   2.078   1.778  0.00  0.00     0.078 C 
ATOM      2  C1' OXE d   1       2.815  -0.599   2.337  0.00  0.00     0.078 C 
ATOM      3  C1  OXE d   1       3.876   0.063   3.180  0.00  0.00    -0.078 A 
ATOM      4  C2  OXE d   1       4.213   1.359   2.870  0.00  0.00    -0.078 A 
ATOM      5  C3  OXE d   1       5.146   2.034   3.651  0.00  0.00     0.003 A 
ATOM      6  C4  OXE d   1       5.854   1.359   4.653  0.00  0.00    -0.002 A 
ATOM      7  C5  OXE d   1       5.554   0.027   4.959  0.00  0.00    -0.002 A 
ATOM      8  C6  OXE d   1       4.540  -0.620   4.263  0.00  0.00     0.003 A 
ENDROOT
TORSDOF 0
ENDMDL
