MODEL 1
REMARK minimizedAffinity -3.93759871
REMARK minimizedRMSD -1
REMARK  0 active torsions:
REMARK  status: ('A' for Active; 'I' for Inactive)
ROOT
ATOM      1  C2' OXE d   1      -2.513   3.063   1.770  0.00  0.00     0.078 C 
ATOM      2  C1' OXE d   1      -1.576   0.798   3.138  0.00  0.00     0.078 C 
ATOM      3  C1  OXE d   1      -2.528   0.582   1.989  0.00  0.00    -0.078 A 
ATOM      4  C2  OXE d   1      -3.018   1.698   1.355  0.00  0.00    -0.078 A 
ATOM      5  C3  OXE d   1      -3.856   1.553   0.253  0.00  0.00     0.003 A 
ATOM      6  C4  OXE d   1      -4.326   0.288  -0.118  0.00  0.00    -0.002 A 
ATOM      7  C5  OXE d   1      -3.871  -0.860   0.540  0.00  0.00    -0.002 A 
ATOM      8  C6  OXE d   1      -2.941  -0.733   1.565  0.00  0.00     0.003 A 
ENDROOT
TORSDOF 0
ENDMDL
