MODEL 1
REMARK minimizedAffinity 4.92758846
REMARK minimizedRMSD -1
REMARK  0 active torsions:
REMARK  status: ('A' for Active; 'I' for Inactive)
ROOT
ATOM      1  C2' OXE d   1       3.184  -1.695   1.725  0.00  0.00     0.078 C 
ATOM      2  C1' OXE d   1       1.934  -1.561   4.235  0.00  0.00     0.078 C 
ATOM      3  C1  OXE d   1       3.151  -0.699   4.008  0.00  0.00    -0.078 A 
ATOM      4  C2  OXE d   1       3.784  -0.806   2.792  0.00  0.00    -0.078 A 
ATOM      5  C3  OXE d   1       4.878   0.007   2.511  0.00  0.00     0.003 A 
ATOM      6  C4  OXE d   1       5.432   0.819   3.508  0.00  0.00    -0.002 A 
ATOM      7  C5  OXE d   1       4.827   0.913   4.765  0.00  0.00    -0.002 A 
ATOM      8  C6  OXE d   1       3.664   0.194   5.017  0.00  0.00     0.003 A 
ENDROOT
TORSDOF 0
ENDMDL
