MODEL 1
REMARK minimizedAffinity 2.24510813
REMARK minimizedRMSD -1
REMARK  0 active torsions:
REMARK  status: ('A' for Active; 'I' for Inactive)
ROOT
ATOM      1  C2' OXE d   1       3.415  -0.352   3.295  0.00  0.00     0.078 C 
ATOM      2  C1' OXE d   1       3.381   2.191   2.107  0.00  0.00     0.078 C 
ATOM      3  C1  OXE d   1       4.321   1.968   3.265  0.00  0.00    -0.078 A 
ATOM      4  C2  OXE d   1       4.297   0.735   3.870  0.00  0.00    -0.078 A 
ATOM      5  C3  OXE d   1       5.183   0.459   4.908  0.00  0.00     0.003 A 
ATOM      6  C4  OXE d   1       5.989   1.473   5.440  0.00  0.00    -0.002 A 
ATOM      7  C5  OXE d   1       6.000   2.747   4.864  0.00  0.00    -0.002 A 
ATOM      8  C6  OXE d   1       5.205   2.999   3.751  0.00  0.00     0.003 A 
ENDROOT
TORSDOF 0
ENDMDL
