MODEL 1
REMARK minimizedAffinity 4.16222143
REMARK minimizedRMSD -1
REMARK  0 active torsions:
REMARK  status: ('A' for Active; 'I' for Inactive)
ROOT
ATOM      1  C2' OXE d   1      -2.625   0.711   1.630  0.00  0.00     0.078 C 
ATOM      2  C1' OXE d   1      -2.432   0.364   4.409  0.00  0.00     0.078 C 
ATOM      3  C1  OXE d   1      -3.692  -0.108   3.727  0.00  0.00    -0.078 A 
ATOM      4  C2  OXE d   1      -3.797   0.108   2.374  0.00  0.00    -0.078 A 
ATOM      5  C3  OXE d   1      -4.915  -0.357   1.687  0.00  0.00     0.003 A 
ATOM      6  C4  OXE d   1      -5.999  -0.904   2.385  0.00  0.00    -0.002 A 
ATOM      7  C5  OXE d   1      -5.928  -1.097   3.768  0.00  0.00    -0.002 A 
ATOM      8  C6  OXE d   1      -4.767  -0.744   4.447  0.00  0.00     0.003 A 
ENDROOT
TORSDOF 0
ENDMDL
