MODEL 1
REMARK minimizedAffinity -0.0198523551
REMARK minimizedRMSD -1
REMARK  0 active torsions:
REMARK  status: ('A' for Active; 'I' for Inactive)
ROOT
ATOM      1  C2' OXE d   1      -2.654   0.117   3.234  0.00  0.00     0.078 C 
ATOM      2  C1' OXE d   1      -2.914  -1.302   0.826  0.00  0.00     0.078 C 
ATOM      3  C1  OXE d   1      -2.732   0.193   0.745  0.00  0.00    -0.078 A 
ATOM      4  C2  OXE d   1      -2.653   0.885   1.930  0.00  0.00    -0.078 A 
ATOM      5  C3  OXE d   1      -2.430   2.259   1.913  0.00  0.00     0.003 A 
ATOM      6  C4  OXE d   1      -2.440   2.963   0.702  0.00  0.00    -0.002 A 
ATOM      7  C5  OXE d   1      -2.559   2.283  -0.514  0.00  0.00    -0.002 A 
ATOM      8  C6  OXE d   1      -2.663   0.896  -0.512  0.00  0.00     0.003 A 
ENDROOT
TORSDOF 0
ENDMDL
