MODEL 1
REMARK minimizedAffinity -2.72120261
REMARK minimizedRMSD -1
REMARK  0 active torsions:
REMARK  status: ('A' for Active; 'I' for Inactive)
ROOT
ATOM      1  C2' OXE d   1       5.623   0.949   5.930  0.00  0.00     0.078 C 
ATOM      2  C1' OXE d   1       4.975   2.705   3.838  0.00  0.00     0.078 C 
ATOM      3  C1  OXE d   1       4.512   1.274   3.724  0.00  0.00    -0.078 A 
ATOM      4  C2  OXE d   1       4.873   0.411   4.730  0.00  0.00    -0.078 A 
ATOM      5  C3  OXE d   1       4.426  -0.907   4.702  0.00  0.00     0.003 A 
ATOM      6  C4  OXE d   1       3.742  -1.399   3.584  0.00  0.00    -0.002 A 
ATOM      7  C5  OXE d   1       3.398  -0.546   2.530  0.00  0.00    -0.002 A 
ATOM      8  C6  OXE d   1       3.737   0.800   2.604  0.00  0.00     0.003 A 
ENDROOT
TORSDOF 0
ENDMDL
