MODEL 1
REMARK minimizedAffinity -3.23905897
REMARK minimizedRMSD -1
REMARK  0 active torsions:
REMARK  status: ('A' for Active; 'I' for Inactive)
ROOT
ATOM      1  C2' OXE d   1       2.712  -0.375   1.867  0.00  0.00     0.078 C 
ATOM      2  C1' OXE d   1       3.811   2.109   2.573  0.00  0.00     0.078 C 
ATOM      3  C1  OXE d   1       4.413   0.872   3.193  0.00  0.00    -0.078 A 
ATOM      4  C2  OXE d   1       3.838  -0.335   2.877  0.00  0.00    -0.078 A 
ATOM      5  C3  OXE d   1       4.389  -1.512   3.378  0.00  0.00     0.003 A 
ATOM      6  C4  OXE d   1       5.424  -1.466   4.320  0.00  0.00    -0.002 A 
ATOM      7  C5  OXE d   1       5.997  -0.243   4.685  0.00  0.00    -0.002 A 
ATOM      8  C6  OXE d   1       5.532   0.929   4.100  0.00  0.00     0.003 A 
ENDROOT
TORSDOF 0
ENDMDL
