MODEL 1
REMARK minimizedAffinity -0.520767391
REMARK minimizedRMSD -1
REMARK  0 active torsions:
REMARK  status: ('A' for Active; 'I' for Inactive)
ROOT
ATOM      1  C2' OXE d   1       6.000   1.126   5.256  0.00  0.00     0.078 C 
ATOM      2  C1' OXE d   1       4.897   2.740   3.241  0.00  0.00     0.078 C 
ATOM      3  C1  OXE d   1       4.417   1.314   3.342  0.00  0.00    -0.078 A 
ATOM      4  C2  OXE d   1       4.996   0.518   4.300  0.00  0.00    -0.078 A 
ATOM      5  C3  OXE d   1       4.550  -0.790   4.471  0.00  0.00     0.003 A 
ATOM      6  C4  OXE d   1       3.628  -1.348   3.577  0.00  0.00    -0.002 A 
ATOM      7  C5  OXE d   1       3.055  -0.566   2.569  0.00  0.00    -0.002 A 
ATOM      8  C6  OXE d   1       3.406   0.776   2.464  0.00  0.00     0.003 A 
ENDROOT
TORSDOF 0
ENDMDL
