MODEL 1
REMARK minimizedAffinity -2.47395372
REMARK minimizedRMSD -1
REMARK  0 active torsions:
REMARK  status: ('A' for Active; 'I' for Inactive)
ROOT
ATOM      1  C2' OXE d   1       0.436  -0.797  -0.204  0.00  0.00     0.078 C 
ATOM      2  C1' OXE d   1       2.699  -1.695   1.193  0.00  0.00     0.078 C 
ATOM      3  C1  OXE d   1       1.573  -2.674   0.975  0.00  0.00    -0.078 A 
ATOM      4  C2  OXE d   1       0.450  -2.213   0.331  0.00  0.00    -0.078 A 
ATOM      5  C3  OXE d   1      -0.596  -3.089   0.056  0.00  0.00     0.003 A 
ATOM      6  C4  OXE d   1      -0.580  -4.394   0.563  0.00  0.00    -0.002 A 
ATOM      7  C5  OXE d   1       0.538  -4.872   1.256  0.00  0.00    -0.002 A 
ATOM      8  C6  OXE d   1       1.638  -4.040   1.433  0.00  0.00     0.003 A 
ENDROOT
TORSDOF 0
ENDMDL
