MODEL 1
REMARK minimizedAffinity 0.984946609
REMARK minimizedRMSD -1
REMARK  0 active torsions:
REMARK  status: ('A' for Active; 'I' for Inactive)
ROOT
ATOM      1  C2' OXE d   1      -3.344   1.428  -0.481  0.00  0.00     0.078 C 
ATOM      2  C1' OXE d   1      -2.425   3.083   1.591  0.00  0.00     0.078 C 
ATOM      3  C1  OXE d   1      -2.824   1.672   1.943  0.00  0.00    -0.078 A 
ATOM      4  C2  OXE d   1      -3.316   0.883   0.931  0.00  0.00    -0.078 A 
ATOM      5  C3  OXE d   1      -3.647  -0.444   1.189  0.00  0.00     0.003 A 
ATOM      6  C4  OXE d   1      -3.629  -0.936   2.500  0.00  0.00    -0.002 A 
ATOM      7  C5  OXE d   1      -3.168  -0.138   3.552  0.00  0.00    -0.002 A 
ATOM      8  C6  OXE d   1      -2.723   1.152   3.284  0.00  0.00     0.003 A 
ENDROOT
TORSDOF 0
ENDMDL
