MODEL 1
REMARK minimizedAffinity -4.3891139
REMARK minimizedRMSD -1
REMARK  0 active torsions:
REMARK  status: ('A' for Active; 'I' for Inactive)
ROOT
ATOM      1  O1  BZF d   1      -0.677   2.867  -0.250  0.00  0.00    -0.204 OA
ATOM      2  C2  BZF d   1       0.012   3.970  -0.716  0.00  0.00     0.174 A 
ATOM      3  C3  BZF d   1      -0.214   4.154  -2.033  0.00  0.00    -0.012 A 
ATOM      4  C3A BZF d   1      -1.173   3.154  -2.393  0.00  0.00    -0.107 A 
ATOM      5  C4  BZF d   1      -1.804   2.837  -3.561  0.00  0.00     0.055 A 
ATOM      6  C5  BZF d   1      -2.629   1.757  -3.594  0.00  0.00    -0.016 A 
ATOM      7  C6  BZF d   1      -2.841   0.971  -2.481  0.00  0.00     0.022 A 
ATOM      8  C7  BZF d   1      -2.241   1.250  -1.298  0.00  0.00     0.029 A 
ATOM      9  C7A BZF d   1      -1.433   2.359  -1.253  0.00  0.00     0.058 A 
ENDROOT
TORSDOF 0
ENDMDL
