MODEL 1
REMARK minimizedAffinity -5.04506302
REMARK minimizedRMSD -1
REMARK  0 active torsions:
REMARK  status: ('A' for Active; 'I' for Inactive)
ROOT
ATOM      1  O1  BZF d   1      -0.334   1.588  -0.001  0.00  0.00    -0.204 OA
ATOM      2  C2  BZF d   1       0.202   0.397  -0.453  0.00  0.00     0.174 A 
ATOM      3  C3  BZF d   1       1.508   0.545  -0.757  0.00  0.00    -0.012 A 
ATOM      4  C3A BZF d   1       1.829   1.891  -0.390  0.00  0.00    -0.107 A 
ATOM      5  C4  BZF d   1       2.978   2.627  -0.437  0.00  0.00     0.055 A 
ATOM      6  C5  BZF d   1       2.939   3.936  -0.072  0.00  0.00    -0.016 A 
ATOM      7  C6  BZF d   1       1.769   4.540   0.340  0.00  0.00     0.022 A 
ATOM      8  C7  BZF d   1       0.606   3.849   0.408  0.00  0.00     0.029 A 
ATOM      9  C7A BZF d   1       0.649   2.518   0.071  0.00  0.00     0.058 A 
ENDROOT
TORSDOF 0
ENDMDL
