MODEL 1
REMARK minimizedAffinity -0.610399246
REMARK minimizedRMSD -1
REMARK  0 active torsions:
REMARK  status: ('A' for Active; 'I' for Inactive)
ROOT
ATOM      1  O1  BZF d   1       1.143   1.119  -0.232  0.00  0.00    -0.204 OA
ATOM      2  C2  BZF d   1      -0.142   1.538  -0.517  0.00  0.00     0.174 A 
ATOM      3  C3  BZF d   1      -1.026   0.538  -0.319  0.00  0.00    -0.012 A 
ATOM      4  C3A BZF d   1      -0.255  -0.547   0.206  0.00  0.00    -0.107 A 
ATOM      5  C4  BZF d   1      -0.571  -1.811   0.616  0.00  0.00     0.055 A 
ATOM      6  C5  BZF d   1       0.426  -2.647   1.006  0.00  0.00    -0.016 A 
ATOM      7  C6  BZF d   1       1.749  -2.255   0.995  0.00  0.00     0.022 A 
ATOM      8  C7  BZF d   1       2.111  -1.010   0.601  0.00  0.00     0.029 A 
ATOM      9  C7A BZF d   1       1.102  -0.151   0.238  0.00  0.00     0.058 A 
ENDROOT
TORSDOF 0
ENDMDL
