MODEL 1
REMARK minimizedAffinity -2.13447976
REMARK minimizedRMSD -1
REMARK  0 active torsions:
REMARK  status: ('A' for Active; 'I' for Inactive)
ROOT
ATOM      1  O1  BZF d   1      -1.380   1.582  -0.843  0.00  0.00    -0.204 OA
ATOM      2  C2  BZF d   1      -0.525   2.441  -0.180  0.00  0.00     0.174 A 
ATOM      3  C3  BZF d   1      -0.107   3.427  -0.999  0.00  0.00    -0.012 A 
ATOM      4  C3A BZF d   1      -0.812   3.222  -2.226  0.00  0.00    -0.107 A 
ATOM      5  C4  BZF d   1      -0.833   3.886  -3.419  0.00  0.00     0.055 A 
ATOM      6  C5  BZF d   1      -1.575   3.384  -4.441  0.00  0.00    -0.016 A 
ATOM      7  C6  BZF d   1      -2.302   2.219  -4.307  0.00  0.00     0.022 A 
ATOM      8  C7  BZF d   1      -2.315   1.528  -3.142  0.00  0.00     0.029 A 
ATOM      9  C7A BZF d   1      -1.593   2.050  -2.097  0.00  0.00     0.058 A 
ENDROOT
TORSDOF 0
ENDMDL
