MODEL 1
REMARK minimizedAffinity -1.20442462
REMARK minimizedRMSD -1
REMARK  0 active torsions:
REMARK  status: ('A' for Active; 'I' for Inactive)
ROOT
ATOM      1  O1  BZF d   1      -1.960   0.861   1.589  0.00  0.00    -0.204 OA
ATOM      2  C2  BZF d   1      -2.147  -0.086   2.577  0.00  0.00     0.174 A 
ATOM      3  C3  BZF d   1      -1.335  -1.145   2.384  0.00  0.00    -0.012 A 
ATOM      4  C3A BZF d   1      -0.529  -0.801   1.253  0.00  0.00    -0.107 A 
ATOM      5  C4  BZF d   1       0.475  -1.441   0.586  0.00  0.00     0.055 A 
ATOM      6  C5  BZF d   1       1.005  -0.863  -0.524  0.00  0.00    -0.016 A 
ATOM      7  C6  BZF d   1       0.550   0.350  -0.998  0.00  0.00     0.022 A 
ATOM      8  C7  BZF d   1      -0.441   1.026  -0.367  0.00  0.00     0.029 A 
ATOM      9  C7A BZF d   1      -0.955   0.460   0.774  0.00  0.00     0.058 A 
ENDROOT
TORSDOF 0
ENDMDL
