MODEL 1
REMARK minimizedAffinity 0.923571467
REMARK minimizedRMSD -1
REMARK  0 active torsions:
REMARK  status: ('A' for Active; 'I' for Inactive)
ROOT
ATOM      1  O1  BZF d   1      -1.463   0.867  -0.306  0.00  0.00    -0.204 OA
ATOM      2  C2  BZF d   1      -0.087   0.785  -0.223  0.00  0.00     0.174 A 
ATOM      3  C3  BZF d   1       0.482   1.064  -1.413  0.00  0.00    -0.012 A 
ATOM      4  C3A BZF d   1      -0.603   1.428  -2.272  0.00  0.00    -0.107 A 
ATOM      5  C4  BZF d   1      -0.675   1.824  -3.577  0.00  0.00     0.055 A 
ATOM      6  C5  BZF d   1      -1.895   2.034  -4.137  0.00  0.00    -0.016 A 
ATOM      7  C6  BZF d   1      -3.062   1.851  -3.425  0.00  0.00     0.022 A 
ATOM      8  C7  BZF d   1      -3.041   1.463  -2.126  0.00  0.00     0.029 A 
ATOM      9  C7A BZF d   1      -1.809   1.283  -1.548  0.00  0.00     0.058 A 
ENDROOT
TORSDOF 0
ENDMDL
