MODEL 1
REMARK minimizedAffinity -3.47212434
REMARK minimizedRMSD -1
REMARK  0 active torsions:
REMARK  status: ('A' for Active; 'I' for Inactive)
ROOT
ATOM      1  O1  BZF d   1      -3.277   1.929  -4.492  0.00  0.00    -0.204 OA
ATOM      2  C2  BZF d   1      -3.206   1.001  -3.470  0.00  0.00     0.174 A 
ATOM      3  C3  BZF d   1      -2.146   1.248  -2.673  0.00  0.00    -0.012 A 
ATOM      4  C3A BZF d   1      -1.569   2.456  -3.178  0.00  0.00    -0.107 A 
ATOM      5  C4  BZF d   1      -0.500   3.216  -2.797  0.00  0.00     0.055 A 
ATOM      6  C5  BZF d   1      -0.158   4.297  -3.546  0.00  0.00    -0.016 A 
ATOM      7  C6  BZF d   1      -0.859   4.644  -4.683  0.00  0.00     0.022 A 
ATOM      8  C7  BZF d   1      -1.929   3.923  -5.098  0.00  0.00     0.029 A 
ATOM      9  C7A BZF d   1      -2.297   2.849  -4.324  0.00  0.00     0.058 A 
ENDROOT
TORSDOF 0
ENDMDL
