MODEL 1
REMARK minimizedAffinity 0.50981456
REMARK minimizedRMSD -1
REMARK  0 active torsions:
REMARK  status: ('A' for Active; 'I' for Inactive)
ROOT
ATOM      1  O1  BZF d   1      -1.939  -1.067   1.795  0.00  0.00    -0.204 OA
ATOM      2  C2  BZF d   1      -1.143  -2.171   1.556  0.00  0.00     0.174 A 
ATOM      3  C3  BZF d   1      -0.307  -1.942   0.522  0.00  0.00    -0.012 A 
ATOM      4  C3A BZF d   1      -0.536  -0.581   0.147  0.00  0.00    -0.107 A 
ATOM      5  C4  BZF d   1       0.005   0.234  -0.807  0.00  0.00     0.055 A 
ATOM      6  C5  BZF d   1      -0.491   1.490  -0.961  0.00  0.00    -0.016 A 
ATOM      7  C6  BZF d   1      -1.528   1.962  -0.183  0.00  0.00     0.022 A 
ATOM      8  C7  BZF d   1      -2.092   1.192   0.780  0.00  0.00     0.029 A 
ATOM      9  C7A BZF d   1      -1.572  -0.066   0.960  0.00  0.00     0.058 A 
ENDROOT
TORSDOF 0
ENDMDL
