MODEL 1
REMARK minimizedAffinity -3.17041278
REMARK minimizedRMSD -1
REMARK  0 active torsions:
REMARK  status: ('A' for Active; 'I' for Inactive)
ROOT
ATOM      1  O1  BZF d   1      -0.299   0.634  -0.321  0.00  0.00    -0.204 OA
ATOM      2  C2  BZF d   1       0.749   1.426  -0.750  0.00  0.00     0.174 A 
ATOM      3  C3  BZF d   1       1.934   0.866  -0.433  0.00  0.00    -0.012 A 
ATOM      4  C3A BZF d   1       1.608  -0.397   0.155  0.00  0.00    -0.107 A 
ATOM      5  C4  BZF d   1       2.359  -1.420   0.659  0.00  0.00     0.055 A 
ATOM      6  C5  BZF d   1       1.731  -2.483   1.227  0.00  0.00    -0.016 A 
ATOM      7  C6  BZF d   1       0.356  -2.553   1.312  0.00  0.00     0.022 A 
ATOM      8  C7  BZF d   1      -0.431  -1.565   0.822  0.00  0.00     0.029 A 
ATOM      9  C7A BZF d   1       0.199  -0.505   0.218  0.00  0.00     0.058 A 
ENDROOT
TORSDOF 0
ENDMDL
