MODEL 1
REMARK minimizedAffinity -4.09640169
REMARK minimizedRMSD -1
REMARK  0 active torsions:
REMARK  status: ('A' for Active; 'I' for Inactive)
ROOT
ATOM      1  O1  BZF d   1      -0.854   0.539   0.343  0.00  0.00    -0.204 OA
ATOM      2  C2  BZF d   1      -0.206   1.403  -0.518  0.00  0.00     0.174 A 
ATOM      3  C3  BZF d   1       0.990   0.903  -0.888  0.00  0.00    -0.012 A 
ATOM      4  C3A BZF d   1       1.057  -0.395  -0.289  0.00  0.00    -0.107 A 
ATOM      5  C4  BZF d   1       1.994  -1.389  -0.303  0.00  0.00     0.055 A 
ATOM      6  C5  BZF d   1       1.785  -2.504   0.445  0.00  0.00    -0.016 A 
ATOM      7  C6  BZF d   1       0.655  -2.656   1.222  0.00  0.00     0.022 A 
ATOM      8  C7  BZF d   1      -0.304  -1.700   1.265  0.00  0.00     0.029 A 
ATOM      9  C7A BZF d   1      -0.112  -0.586   0.484  0.00  0.00     0.058 A 
ENDROOT
TORSDOF 0
ENDMDL
