MODEL 1
REMARK minimizedAffinity -3.17868519
REMARK minimizedRMSD -1
REMARK  0 active torsions:
REMARK  status: ('A' for Active; 'I' for Inactive)
ROOT
ATOM      1  O1  BZF d   1       0.883   1.139   0.042  0.00  0.00    -0.204 OA
ATOM      2  C2  BZF d   1      -0.122   1.425  -0.862  0.00  0.00     0.174 A 
ATOM      3  C3  BZF d   1      -0.742   0.296  -1.261  0.00  0.00    -0.012 A 
ATOM      4  C3A BZF d   1      -0.145  -0.753  -0.493  0.00  0.00    -0.107 A 
ATOM      5  C4  BZF d   1      -0.348  -2.102  -0.428  0.00  0.00     0.055 A 
ATOM      6  C5  BZF d   1       0.453  -2.853   0.372  0.00  0.00    -0.016 A 
ATOM      7  C6  BZF d   1       1.470  -2.290   1.116  0.00  0.00     0.022 A 
ATOM      8  C7  BZF d   1       1.707  -0.956   1.088  0.00  0.00     0.029 A 
ATOM      9  C7A BZF d   1       0.877  -0.190   0.306  0.00  0.00     0.058 A 
ENDROOT
TORSDOF 0
ENDMDL
