MODEL 1
REMARK minimizedAffinity -3.03760242
REMARK minimizedRMSD -1
REMARK  0 active torsions:
REMARK  status: ('A' for Active; 'I' for Inactive)
ROOT
ATOM      1  O1  BZF d   1       0.609  -2.537   2.073  0.00  0.00    -0.204 OA
ATOM      2  C2  BZF d   1       1.786  -2.832   1.412  0.00  0.00     0.174 A 
ATOM      3  C3  BZF d   1       1.968  -2.000   0.366  0.00  0.00    -0.012 A 
ATOM      4  C3A BZF d   1       0.881  -1.073   0.429  0.00  0.00    -0.107 A 
ATOM      5  C4  BZF d   1       0.520   0.004  -0.330  0.00  0.00     0.055 A 
ATOM      6  C5  BZF d   1      -0.639   0.654  -0.046  0.00  0.00    -0.016 A 
ATOM      7  C6  BZF d   1      -1.463   0.252   0.986  0.00  0.00     0.022 A 
ATOM      8  C7  BZF d   1      -1.144  -0.806   1.770  0.00  0.00     0.029 A 
ATOM      9  C7A BZF d   1       0.043  -1.445   1.506  0.00  0.00     0.058 A 
ENDROOT
TORSDOF 0
ENDMDL
