MODEL 1
REMARK minimizedAffinity -4.45144606
REMARK minimizedRMSD -1
REMARK  0 active torsions:
REMARK  status: ('A' for Active; 'I' for Inactive)
ROOT
ATOM      1  O1  BZF d   1       0.907   2.845   0.080  0.00  0.00    -0.204 OA
ATOM      2  C2  BZF d   1       2.256   3.099  -0.078  0.00  0.00     0.174 A 
ATOM      3  C3  BZF d   1       2.965   1.953  -0.044  0.00  0.00    -0.012 A 
ATOM      4  C3A BZF d   1       1.990   0.910   0.055  0.00  0.00    -0.107 A 
ATOM      5  C4  BZF d   1       2.075  -0.452   0.113  0.00  0.00     0.055 A 
ATOM      6  C5  BZF d   1       0.939  -1.178   0.281  0.00  0.00    -0.016 A 
ATOM      7  C6  BZF d   1      -0.297  -0.576   0.400  0.00  0.00     0.022 A 
ATOM      8  C7  BZF d   1      -0.431   0.772   0.344  0.00  0.00     0.029 A 
ATOM      9  C7A BZF d   1       0.711   1.506   0.141  0.00  0.00     0.058 A 
ENDROOT
TORSDOF 0
ENDMDL
