MODEL 1
REMARK minimizedAffinity -5.81879377
REMARK minimizedRMSD -1
REMARK  0 active torsions:
REMARK  status: ('A' for Active; 'I' for Inactive)
ROOT
ATOM      1  O1  BZF d   1       1.552   1.019  -0.103  0.00  0.00    -0.204 OA
ATOM      2  C2  BZF d   1       0.322   1.647  -0.086  0.00  0.00     0.174 A 
ATOM      3  C3  BZF d   1      -0.658   0.772   0.214  0.00  0.00    -0.012 A 
ATOM      4  C3A BZF d   1       0.011  -0.463   0.487  0.00  0.00    -0.107 A 
ATOM      5  C4  BZF d   1      -0.423  -1.704   0.858  0.00  0.00     0.055 A 
ATOM      6  C5  BZF d   1       0.480  -2.713   0.972  0.00  0.00    -0.016 A 
ATOM      7  C6  BZF d   1       1.822  -2.518   0.718  0.00  0.00     0.022 A 
ATOM      8  C7  BZF d   1       2.300  -1.304   0.353  0.00  0.00     0.029 A 
ATOM      9  C7A BZF d   1       1.395  -0.274   0.269  0.00  0.00     0.058 A 
ENDROOT
TORSDOF 0
ENDMDL
