MODEL 1
REMARK minimizedAffinity -4.84586716
REMARK minimizedRMSD -1
REMARK  0 active torsions:
REMARK  status: ('A' for Active; 'I' for Inactive)
ROOT
ATOM      1  O1  BZF d   1      -0.261  -0.334  -0.054  0.00  0.00    -0.204 OA
ATOM      2  C2  BZF d   1       0.777  -1.245  -0.102  0.00  0.00     0.174 A 
ATOM      3  C3  BZF d   1       1.966  -0.612  -0.169  0.00  0.00    -0.012 A 
ATOM      4  C3A BZF d   1       1.657   0.782  -0.070  0.00  0.00    -0.107 A 
ATOM      5  C4  BZF d   1       2.420   1.914  -0.060  0.00  0.00     0.055 A 
ATOM      6  C5  BZF d   1       1.805   3.125  -0.025  0.00  0.00    -0.016 A 
ATOM      7  C6  BZF d   1       0.430   3.240  -0.004  0.00  0.00     0.022 A 
ATOM      8  C7  BZF d   1      -0.369   2.145  -0.007  0.00  0.00     0.029 A 
ATOM      9  C7A BZF d   1       0.251   0.920  -0.010  0.00  0.00     0.058 A 
ENDROOT
TORSDOF 0
ENDMDL
