MODEL 1
REMARK minimizedAffinity -0.2348537
REMARK minimizedRMSD -1
REMARK  0 active torsions:
REMARK  status: ('A' for Active; 'I' for Inactive)
ROOT
ATOM      1  C1  BNZ d   1       1.181  -3.688   0.709  0.00  0.00     0.000 A 
ATOM      2  C2  BNZ d   1       1.051  -3.906  -0.636  0.00  0.00     0.000 A 
ATOM      3  C3  BNZ d   1       0.148  -3.196  -1.377  0.00  0.00     0.000 A 
ATOM      4  C4  BNZ d   1      -0.650  -2.297  -0.765  0.00  0.00     0.000 A 
ATOM      5  C5  BNZ d   1      -0.538  -2.073   0.593  0.00  0.00     0.000 A 
ATOM      6  C6  BNZ d   1       0.399  -2.762   1.328  0.00  0.00     0.000 A 
ENDROOT
TORSDOF 0
ENDMDL
