MODEL 1
REMARK minimizedAffinity 8.66340351
REMARK minimizedRMSD -1
REMARK  0 active torsions:
REMARK  status: ('A' for Active; 'I' for Inactive)
ROOT
ATOM      1  C1  BNZ d   1      -4.470   3.726   1.873  0.00  0.00     0.000 A 
ATOM      2  C2  BNZ d   1      -5.639   4.383   1.594  0.00  0.00     0.000 A 
ATOM      3  C3  BNZ d   1      -5.998   4.653   0.303  0.00  0.00     0.000 A 
ATOM      4  C4  BNZ d   1      -5.172   4.302  -0.703  0.00  0.00     0.000 A 
ATOM      5  C5  BNZ d   1      -3.986   3.647  -0.437  0.00  0.00     0.000 A 
ATOM      6  C6  BNZ d   1      -3.645   3.342   0.861  0.00  0.00     0.000 A 
ENDROOT
TORSDOF 0
ENDMDL
