MODEL 1
REMARK minimizedAffinity 4.28990269
REMARK minimizedRMSD -1
REMARK  0 active torsions:
REMARK  status: ('A' for Active; 'I' for Inactive)
ROOT
ATOM      1  C1  BNZ d   1       0.027  -2.169   1.113  0.00  0.00     0.000 A 
ATOM      2  C2  BNZ d   1       0.889  -3.052   0.521  0.00  0.00     0.000 A 
ATOM      3  C3  BNZ d   1       0.694  -3.465  -0.767  0.00  0.00     0.000 A 
ATOM      4  C4  BNZ d   1      -0.385  -3.026  -1.447  0.00  0.00     0.000 A 
ATOM      5  C5  BNZ d   1      -1.269  -2.143  -0.861  0.00  0.00     0.000 A 
ATOM      6  C6  BNZ d   1      -1.048  -1.699   0.423  0.00  0.00     0.000 A 
ENDROOT
TORSDOF 0
ENDMDL
