MODEL 1
REMARK minimizedAffinity 0.854991496
REMARK minimizedRMSD -1
REMARK  0 active torsions:
REMARK  status: ('A' for Active; 'I' for Inactive)
ROOT
ATOM      1  C1  BNZ d   1       1.798  -0.627   2.984  0.00  0.00     0.000 A 
ATOM      2  C2  BNZ d   1       1.877  -1.481   4.052  0.00  0.00     0.000 A 
ATOM      3  C3  BNZ d   1       1.357  -2.742   3.980  0.00  0.00     0.000 A 
ATOM      4  C4  BNZ d   1       0.723  -3.135   2.856  0.00  0.00     0.000 A 
ATOM      5  C5  BNZ d   1       0.626  -2.283   1.774  0.00  0.00     0.000 A 
ATOM      6  C6  BNZ d   1       1.186  -1.027   1.836  0.00  0.00     0.000 A 
ENDROOT
TORSDOF 0
ENDMDL
