MODEL 1
REMARK minimizedAffinity -1.02881908
REMARK minimizedRMSD -1
REMARK  0 active torsions:
REMARK  status: ('A' for Active; 'I' for Inactive)
ROOT
ATOM      1  C1  BNZ d   1       3.411  -3.636  -6.000  0.00  0.00     0.000 A 
ATOM      2  C2  BNZ d   1       3.512  -2.270  -6.000  0.00  0.00     0.000 A 
ATOM      3  C3  BNZ d   1       3.957  -1.601  -4.894  0.00  0.00     0.000 A 
ATOM      4  C4  BNZ d   1       4.263  -2.294  -3.779  0.00  0.00     0.000 A 
ATOM      5  C5  BNZ d   1       4.158  -3.671  -3.760  0.00  0.00     0.000 A 
ATOM      6  C6  BNZ d   1       3.746  -4.344  -4.887  0.00  0.00     0.000 A 
ENDROOT
TORSDOF 0
ENDMDL
