MODEL 1
REMARK minimizedAffinity -3.27214932
REMARK minimizedRMSD -1
REMARK  2 active torsions:
REMARK  status: ('A' for Active; 'I' for Inactive)
REMARK    1  A    between atoms: C1_2  and  C2_3 
REMARK    2  A    between atoms: C2_3  and  C3_4 
ROOT
ATOM      1  C3  UNL d   1      -0.464  -0.023   0.044  0.00  0.00    -0.075 A 
ATOM      2  C4  UNL d   1      -0.270   0.104   1.428  0.00  0.00     0.002 A 
ATOM      3  C5  UNL d   1      -1.078   0.956   2.181  0.00  0.00     0.002 A 
ATOM      4  C6  UNL d   1      -2.080   1.699   1.561  0.00  0.00    -0.004 A 
ATOM      5  C7  UNL d   1      -2.271   1.594   0.185  0.00  0.00     0.002 A 
ATOM      6  C8  UNL d   1      -1.467   0.738  -0.570  0.00  0.00     0.002 A 
ENDROOT
BRANCH   1   7
ATOM      7  C2  UNL d   1       0.387  -0.966  -0.772  0.00  0.00     0.056 C 
BRANCH   7   8
ATOM      8  C1  UNL d   1      -0.394  -1.758  -1.825  0.00  0.00     0.007 C 
ATOM      9  C   UNL d   1      -0.004  -3.229  -1.882  0.00  0.00     0.009 C 
ENDBRANCH   7   8
ENDBRANCH   1   7
TORSDOF 2
ENDMDL
