MODEL 1
REMARK minimizedAffinity -5.26101828
REMARK minimizedRMSD -1
REMARK  2 active torsions:
REMARK  status: ('A' for Active; 'I' for Inactive)
REMARK    1  A    between atoms: C1_2  and  C2_3 
REMARK    2  A    between atoms: C2_3  and  C3_4 
ROOT
ATOM      1  C3  UNL d   1       0.281  -0.146  -0.025  0.00  0.00    -0.075 A 
ATOM      2  C4  UNL d   1       0.050   0.934  -0.889  0.00  0.00     0.002 A 
ATOM      3  C5  UNL d   1      -0.660   2.052  -0.453  0.00  0.00     0.002 A 
ATOM      4  C6  UNL d   1      -1.157   2.101   0.848  0.00  0.00    -0.004 A 
ATOM      5  C7  UNL d   1      -0.948   1.027   1.711  0.00  0.00     0.002 A 
ATOM      6  C8  UNL d   1      -0.234  -0.091   1.277  0.00  0.00     0.002 A 
ENDROOT
BRANCH   1   7
ATOM      7  C2  UNL d   1       1.075  -1.346  -0.482  0.00  0.00     0.056 C 
BRANCH   7   8
ATOM      8  C1  UNL d   1       0.644  -1.896  -1.846  0.00  0.00     0.007 C 
ATOM      9  C   UNL d   1       0.828  -3.402  -1.972  0.00  0.00     0.009 C 
ENDBRANCH   7   8
ENDBRANCH   1   7
TORSDOF 2
ENDMDL
