MODEL 1
REMARK minimizedAffinity -5.46575308
REMARK minimizedRMSD -1
REMARK  2 active torsions:
REMARK  status: ('A' for Active; 'I' for Inactive)
REMARK    1  A    between atoms: C1_2  and  C2_3 
REMARK    2  A    between atoms: C2_3  and  C3_4 
ROOT
ATOM      1  C3  UNL d   1       0.278   0.196  -0.028  0.00  0.00    -0.075 A 
ATOM      2  C4  UNL d   1      -0.472   1.259  -0.552  0.00  0.00     0.002 A 
ATOM      3  C5  UNL d   1      -1.424   1.908   0.234  0.00  0.00     0.002 A 
ATOM      4  C6  UNL d   1      -1.647   1.498   1.546  0.00  0.00    -0.004 A 
ATOM      5  C7  UNL d   1      -0.920   0.432   2.072  0.00  0.00     0.002 A 
ATOM      6  C8  UNL d   1       0.038  -0.217   1.289  0.00  0.00     0.002 A 
ENDROOT
BRANCH   1   7
ATOM      7  C2  UNL d   1       1.331  -0.492  -0.863  0.00  0.00     0.056 C 
BRANCH   7   8
ATOM      8  C1  UNL d   1       0.764  -1.444  -1.922  0.00  0.00     0.007 C 
ATOM      9  C   UNL d   1       1.137  -2.901  -1.680  0.00  0.00     0.009 C 
ENDBRANCH   7   8
ENDBRANCH   1   7
TORSDOF 2
ENDMDL
