MODEL 1
REMARK minimizedAffinity -0.414583713
REMARK minimizedRMSD -1
REMARK  2 active torsions:
REMARK  status: ('A' for Active; 'I' for Inactive)
REMARK    1  A    between atoms: C1_2  and  C2_3 
REMARK    2  A    between atoms: C2_3  and  C3_4 
ROOT
ATOM      1  C3  UNL d   1       0.109  -0.499  -0.194  0.00  0.00    -0.075 A 
ATOM      2  C4  UNL d   1      -1.133  -0.123   0.338  0.00  0.00     0.002 A 
ATOM      3  C5  UNL d   1      -1.730   1.080  -0.039  0.00  0.00     0.002 A 
ATOM      4  C6  UNL d   1      -1.091   1.925  -0.943  0.00  0.00    -0.004 A 
ATOM      5  C7  UNL d   1       0.151   1.570  -1.465  0.00  0.00     0.002 A 
ATOM      6  C8  UNL d   1       0.749   0.364  -1.093  0.00  0.00     0.002 A 
ENDROOT
BRANCH   1   7
ATOM      7  C2  UNL d   1       0.747  -1.814   0.187  0.00  0.00     0.056 C 
BRANCH   7   8
ATOM      8  C1  UNL d   1       1.157  -2.678  -1.010  0.00  0.00     0.007 C 
ATOM      9  C   UNL d   1       0.807  -4.150  -0.836  0.00  0.00     0.009 C 
ENDBRANCH   7   8
ENDBRANCH   1   7
TORSDOF 2
ENDMDL
