MODEL 1
REMARK minimizedAffinity -5.89700556
REMARK minimizedRMSD -1
REMARK  2 active torsions:
REMARK  status: ('A' for Active; 'I' for Inactive)
REMARK    1  A    between atoms: C1_2  and  C2_3 
REMARK    2  A    between atoms: C2_3  and  C3_4 
ROOT
ATOM      1  C3  UNL d   1      -0.772   1.070  -0.156  0.00  0.00    -0.075 A 
ATOM      2  C4  UNL d   1      -0.166  -0.167   0.106  0.00  0.00     0.002 A 
ATOM      3  C5  UNL d   1       1.075  -0.479  -0.450  0.00  0.00     0.002 A 
ATOM      4  C6  UNL d   1       1.720   0.434  -1.281  0.00  0.00    -0.004 A 
ATOM      5  C7  UNL d   1       1.119   1.660  -1.562  0.00  0.00     0.002 A 
ATOM      6  C8  UNL d   1      -0.121   1.977  -1.004  0.00  0.00     0.002 A 
ENDROOT
BRANCH   1   7
ATOM      7  C2  UNL d   1      -2.101   1.426   0.465  0.00  0.00     0.056 C 
BRANCH   7   8
ATOM      8  C1  UNL d   1      -1.999   2.408   1.638  0.00  0.00     0.007 C 
ATOM      9  C   UNL d   1      -0.857   2.085   2.592  0.00  0.00     0.009 C 
ENDBRANCH   7   8
ENDBRANCH   1   7
TORSDOF 2
ENDMDL
