MODEL 1
REMARK minimizedAffinity -4.05633068
REMARK minimizedRMSD -1
REMARK  2 active torsions:
REMARK  status: ('A' for Active; 'I' for Inactive)
REMARK    1  A    between atoms: C1_2  and  C2_3 
REMARK    2  A    between atoms: C2_3  and  C3_4 
ROOT
ATOM      1  C3  UNL d   1      -0.447  -0.304  -0.032  0.00  0.00    -0.075 A 
ATOM      2  C4  UNL d   1       0.354  -0.930   0.934  0.00  0.00     0.002 A 
ATOM      3  C5  UNL d   1       0.373  -0.465   2.249  0.00  0.00     0.002 A 
ATOM      4  C6  UNL d   1      -0.399   0.636   2.613  0.00  0.00    -0.004 A 
ATOM      5  C7  UNL d   1      -1.186   1.277   1.658  0.00  0.00     0.002 A 
ATOM      6  C8  UNL d   1      -1.210   0.811   0.342  0.00  0.00     0.002 A 
ENDROOT
BRANCH   1   7
ATOM      7  C2  UNL d   1      -0.494  -0.820  -1.450  0.00  0.00     0.056 C 
BRANCH   7   8
ATOM      8  C1  UNL d   1       0.674  -1.741  -1.817  0.00  0.00     0.007 C 
ATOM      9  C   UNL d   1       0.226  -3.093  -2.357  0.00  0.00     0.009 C 
ENDBRANCH   7   8
ENDBRANCH   1   7
TORSDOF 2
ENDMDL
