MODEL 1
REMARK minimizedAffinity -2.62189198
REMARK minimizedRMSD -1
REMARK  2 active torsions:
REMARK  status: ('A' for Active; 'I' for Inactive)
REMARK    1  A    between atoms: C1_2  and  C2_3 
REMARK    2  A    between atoms: C2_3  and  C3_4 
ROOT
ATOM      1  C3  UNL d   1      -1.040   1.177  -0.276  0.00  0.00    -0.075 A 
ATOM      2  C4  UNL d   1      -0.584  -0.113   0.032  0.00  0.00     0.002 A 
ATOM      3  C5  UNL d   1       0.568  -0.620  -0.570  0.00  0.00     0.002 A 
ATOM      4  C6  UNL d   1       1.272   0.151  -1.493  0.00  0.00    -0.004 A 
ATOM      5  C7  UNL d   1       0.818   1.427  -1.819  0.00  0.00     0.002 A 
ATOM      6  C8  UNL d   1      -0.332   1.938  -1.215  0.00  0.00     0.002 A 
ENDROOT
BRANCH   1   7
ATOM      7  C2  UNL d   1      -2.270   1.742   0.394  0.00  0.00     0.056 C 
BRANCH   7   8
ATOM      8  C1  UNL d   1      -1.976   2.521   1.680  0.00  0.00     0.007 C 
ATOM      9  C   UNL d   1      -0.767   1.993   2.440  0.00  0.00     0.009 C 
ENDBRANCH   7   8
ENDBRANCH   1   7
TORSDOF 2
ENDMDL
