MODEL 1
REMARK minimizedAffinity -5.32937145
REMARK minimizedRMSD -1
REMARK  2 active torsions:
REMARK  status: ('A' for Active; 'I' for Inactive)
REMARK    1  A    between atoms: C1_2  and  C2_3 
REMARK    2  A    between atoms: C2_3  and  C3_4 
ROOT
ATOM      1  C3  UNL d   1       0.425  -0.189  -0.160  0.00  0.00    -0.075 A 
ATOM      2  C4  UNL d   1       0.338  -0.676   1.152  0.00  0.00     0.002 A 
ATOM      3  C5  UNL d   1      -0.593  -0.144   2.045  0.00  0.00     0.002 A 
ATOM      4  C6  UNL d   1      -1.438   0.887   1.642  0.00  0.00    -0.004 A 
ATOM      5  C7  UNL d   1      -1.349   1.391   0.346  0.00  0.00     0.002 A 
ATOM      6  C8  UNL d   1      -0.422   0.857  -0.551  0.00  0.00     0.002 A 
ENDROOT
BRANCH   1   7
ATOM      7  C2  UNL d   1       1.410  -0.781  -1.140  0.00  0.00     0.056 C 
BRANCH   7   8
ATOM      8  C1  UNL d   1       1.074  -2.211  -1.574  0.00  0.00     0.007 C 
ATOM      9  C   UNL d   1       0.521  -2.295  -2.991  0.00  0.00     0.009 C 
ENDBRANCH   7   8
ENDBRANCH   1   7
TORSDOF 2
ENDMDL
