MODEL 1
REMARK minimizedAffinity -5.54439259
REMARK minimizedRMSD -1
REMARK  2 active torsions:
REMARK  status: ('A' for Active; 'I' for Inactive)
REMARK    1  A    between atoms: C1_2  and  C2_3 
REMARK    2  A    between atoms: C2_3  and  C3_4 
ROOT
ATOM      1  C3  UNL d   1      -0.145   0.098   0.172  0.00  0.00    -0.075 A 
ATOM      2  C4  UNL d   1      -1.234   0.618  -0.543  0.00  0.00     0.002 A 
ATOM      3  C5  UNL d   1      -2.054   1.593   0.026  0.00  0.00     0.002 A 
ATOM      4  C6  UNL d   1      -1.803   2.052   1.318  0.00  0.00    -0.004 A 
ATOM      5  C7  UNL d   1      -0.734   1.530   2.043  0.00  0.00     0.002 A 
ATOM      6  C8  UNL d   1       0.090   0.558   1.475  0.00  0.00     0.002 A 
ENDROOT
BRANCH   1   7
ATOM      7  C2  UNL d   1       0.764  -0.936  -0.449  0.00  0.00     0.056 C 
BRANCH   7   8
ATOM      8  C1  UNL d   1       0.234  -1.524  -1.761  0.00  0.00     0.007 C 
ATOM      9  C   UNL d   1       0.493  -3.019  -1.896  0.00  0.00     0.009 C 
ENDBRANCH   7   8
ENDBRANCH   1   7
TORSDOF 2
ENDMDL
