MODEL 1
REMARK minimizedAffinity -4.43760157
REMARK minimizedRMSD -1
REMARK  2 active torsions:
REMARK  status: ('A' for Active; 'I' for Inactive)
REMARK    1  A    between atoms: C1_2  and  C2_3 
REMARK    2  A    between atoms: C2_3  and  C3_4 
ROOT
ATOM      1  C3  UNL d   1       0.528  -0.376  -0.348  0.00  0.00    -0.075 A 
ATOM      2  C4  UNL d   1       0.723  -0.306   1.039  0.00  0.00     0.002 A 
ATOM      3  C5  UNL d   1      -0.130   0.457   1.838  0.00  0.00     0.002 A 
ATOM      4  C6  UNL d   1      -1.180   1.166   1.260  0.00  0.00    -0.004 A 
ATOM      5  C7  UNL d   1      -1.374   1.117  -0.119  0.00  0.00     0.002 A 
ATOM      6  C8  UNL d   1      -0.525   0.351  -0.920  0.00  0.00     0.002 A 
ENDROOT
BRANCH   1   7
ATOM      7  C2  UNL d   1       1.429  -1.223  -1.214  0.00  0.00     0.056 C 
BRANCH   7   8
ATOM      8  C1  UNL d   1       0.873  -2.618  -1.515  0.00  0.00     0.007 C 
ATOM      9  C   UNL d   1       0.559  -2.834  -2.989  0.00  0.00     0.009 C 
ENDBRANCH   7   8
ENDBRANCH   1   7
TORSDOF 2
ENDMDL
