MODEL 1
REMARK minimizedAffinity -5.67859602
REMARK minimizedRMSD -1
REMARK  2 active torsions:
REMARK  status: ('A' for Active; 'I' for Inactive)
REMARK    1  A    between atoms: C1_2  and  C2_3 
REMARK    2  A    between atoms: C2_3  and  C3_4 
ROOT
ATOM      1  C3  UNL d   1      -0.178   0.036   0.748  0.00  0.00    -0.075 A 
ATOM      2  C4  UNL d   1      -1.124   0.688  -0.057  0.00  0.00     0.002 A 
ATOM      3  C5  UNL d   1      -1.873   1.750   0.450  0.00  0.00     0.002 A 
ATOM      4  C6  UNL d   1      -1.695   2.167   1.767  0.00  0.00    -0.004 A 
ATOM      5  C7  UNL d   1      -0.771   1.515   2.581  0.00  0.00     0.002 A 
ATOM      6  C8  UNL d   1      -0.016   0.455   2.076  0.00  0.00     0.002 A 
ENDROOT
BRANCH   1   7
ATOM      7  C2  UNL d   1       0.657  -1.095   0.198  0.00  0.00     0.056 C 
BRANCH   7   8
ATOM      8  C1  UNL d   1       0.084  -1.732  -1.073  0.00  0.00     0.007 C 
ATOM      9  C   UNL d   1       1.061  -2.672  -1.767  0.00  0.00     0.009 C 
ENDBRANCH   7   8
ENDBRANCH   1   7
TORSDOF 2
ENDMDL
