MODEL 1
REMARK minimizedAffinity -5.57918119
REMARK minimizedRMSD -1
REMARK  2 active torsions:
REMARK  status: ('A' for Active; 'I' for Inactive)
REMARK    1  A    between atoms: C1_2  and  C2_3 
REMARK    2  A    between atoms: C2_3  and  C3_4 
ROOT
ATOM      1  C3  UNL d   1      -0.017   0.084  -0.025  0.00  0.00    -0.075 A 
ATOM      2  C4  UNL d   1       0.130  -0.318   1.310  0.00  0.00     0.002 A 
ATOM      3  C5  UNL d   1      -0.749   0.144   2.290  0.00  0.00     0.002 A 
ATOM      4  C6  UNL d   1      -1.779   1.019   1.950  0.00  0.00    -0.004 A 
ATOM      5  C7  UNL d   1      -1.924   1.438   0.629  0.00  0.00     0.002 A 
ATOM      6  C8  UNL d   1      -1.048   0.974  -0.354  0.00  0.00     0.002 A 
ENDROOT
BRANCH   1   7
ATOM      7  C2  UNL d   1       0.913  -0.435  -1.095  0.00  0.00     0.056 C 
BRANCH   7   8
ATOM      8  C1  UNL d   1       0.850  -1.953  -1.294  0.00  0.00     0.007 C 
ATOM      9  C   UNL d   1       0.427  -2.357  -2.700  0.00  0.00     0.009 C 
ENDBRANCH   7   8
ENDBRANCH   1   7
TORSDOF 2
ENDMDL
