MODEL 1
REMARK minimizedAffinity -4.37416458
REMARK minimizedRMSD -1
REMARK  2 active torsions:
REMARK  status: ('A' for Active; 'I' for Inactive)
REMARK    1  A    between atoms: C1_2  and  C2_3 
REMARK    2  A    between atoms: C2_3  and  C3_4 
ROOT
ATOM      1  C3  UNL d   1       0.153   0.944   0.271  0.00  0.00    -0.075 A 
ATOM      2  C4  UNL d   1       0.030   2.337   0.171  0.00  0.00     0.002 A 
ATOM      3  C5  UNL d   1      -0.825   3.036   1.024  0.00  0.00     0.002 A 
ATOM      4  C6  UNL d   1      -1.572   2.352   1.980  0.00  0.00    -0.004 A 
ATOM      5  C7  UNL d   1      -1.470   0.966   2.078  0.00  0.00     0.002 A 
ATOM      6  C8  UNL d   1      -0.613   0.264   1.228  0.00  0.00     0.002 A 
ENDROOT
BRANCH   1   7
ATOM      7  C2  UNL d   1       1.098   0.185  -0.629  0.00  0.00     0.056 C 
BRANCH   7   8
ATOM      8  C1  UNL d   1       0.554  -1.166  -1.107  0.00  0.00     0.007 C 
ATOM      9  C   UNL d   1       1.625  -2.245  -1.200  0.00  0.00     0.009 C 
ENDBRANCH   7   8
ENDBRANCH   1   7
TORSDOF 2
ENDMDL
