MODEL 1
REMARK minimizedAffinity -2.0206418
REMARK minimizedRMSD -1
REMARK  2 active torsions:
REMARK  status: ('A' for Active; 'I' for Inactive)
REMARK    1  A    between atoms: C1_2  and  C2_3 
REMARK    2  A    between atoms: C2_3  and  C3_4 
ROOT
ATOM      1  C3  UNL d   1       0.235  -0.748   0.362  0.00  0.00    -0.075 A 
ATOM      2  C4  UNL d   1       0.045  -0.379   1.701  0.00  0.00     0.002 A 
ATOM      3  C5  UNL d   1      -0.715   0.745   2.025  0.00  0.00     0.002 A 
ATOM      4  C6  UNL d   1      -1.285   1.519   1.016  0.00  0.00    -0.004 A 
ATOM      5  C7  UNL d   1      -1.088   1.171  -0.318  0.00  0.00     0.002 A 
ATOM      6  C8  UNL d   1      -0.332   0.044  -0.645  0.00  0.00     0.002 A 
ENDROOT
BRANCH   1   7
ATOM      7  C2  UNL d   1       1.033  -1.980   0.005  0.00  0.00     0.056 C 
BRANCH   7   8
ATOM      8  C1  UNL d   1       0.672  -2.584  -1.356  0.00  0.00     0.007 C 
ATOM      9  C   UNL d   1       0.617  -4.106  -1.342  0.00  0.00     0.009 C 
ENDBRANCH   7   8
ENDBRANCH   1   7
TORSDOF 2
ENDMDL
