MODEL 1
REMARK minimizedAffinity -5.11545897
REMARK minimizedRMSD -1
REMARK  2 active torsions:
REMARK  status: ('A' for Active; 'I' for Inactive)
REMARK    1  A    between atoms: C1_2  and  C2_3 
REMARK    2  A    between atoms: C2_3  and  C3_4 
ROOT
ATOM      1  C3  UNL d   1      -0.181   0.195   0.281  0.00  0.00    -0.075 A 
ATOM      2  C4  UNL d   1      -1.011  -0.670   1.008  0.00  0.00     0.002 A 
ATOM      3  C5  UNL d   1      -2.184  -0.198   1.598  0.00  0.00     0.002 A 
ATOM      4  C6  UNL d   1      -2.536   1.144   1.478  0.00  0.00    -0.004 A 
ATOM      5  C7  UNL d   1      -1.711   2.017   0.772  0.00  0.00     0.002 A 
ATOM      6  C8  UNL d   1      -0.539   1.546   0.177  0.00  0.00     0.002 A 
ENDROOT
BRANCH   1   7
ATOM      7  C2  UNL d   1       1.074  -0.316  -0.385  0.00  0.00     0.056 C 
BRANCH   7   8
ATOM      8  C1  UNL d   1       1.123  -1.839  -0.538  0.00  0.00     0.007 C 
ATOM      9  C   UNL d   1       0.503  -2.332  -1.839  0.00  0.00     0.009 C 
ENDBRANCH   7   8
ENDBRANCH   1   7
TORSDOF 2
ENDMDL
