MODEL 1
REMARK minimizedAffinity 17.5306168
REMARK minimizedRMSD -1
REMARK  0 active torsions:
REMARK  status: ('A' for Active; 'I' for Inactive)
ROOT
ATOM      1  C   UNL d   1      -1.884   2.251  -2.834  0.00  0.00     0.078 C 
ATOM      2  C1  UNL d   1      -1.910   3.552  -3.579  0.00  0.00    -0.077 A 
ATOM      3  C2  UNL d   1      -1.930   3.581  -4.979  0.00  0.00    -0.001 A 
ATOM      4  C3  UNL d   1      -1.943   4.800  -5.660  0.00  0.00     0.003 A 
ATOM      5  C4  UNL d   1      -1.935   5.998  -4.949  0.00  0.00    -0.005 A 
ATOM      6  C5  UNL d   1      -1.913   5.979  -3.556  0.00  0.00     0.003 A 
ATOM      7  C6  UNL d   1      -1.900   4.762  -2.873  0.00  0.00    -0.001 A 
ENDROOT
TORSDOF 0
ENDMDL
