MODEL 1
REMARK minimizedAffinity 16.4045887
REMARK minimizedRMSD -1
REMARK  0 active torsions:
REMARK  status: ('A' for Active; 'I' for Inactive)
ROOT
ATOM      1  C   UNL d   1       3.395   1.956   0.836  0.00  0.00     0.078 C 
ATOM      2  C1  UNL d   1       2.350   2.993   0.553  0.00  0.00    -0.077 A 
ATOM      3  C2  UNL d   1       1.124   2.642  -0.026  0.00  0.00    -0.001 A 
ATOM      4  C3  UNL d   1       0.164   3.619  -0.293  0.00  0.00     0.003 A 
ATOM      5  C4  UNL d   1       0.420   4.954   0.014  0.00  0.00    -0.005 A 
ATOM      6  C5  UNL d   1       1.637   5.313   0.589  0.00  0.00     0.003 A 
ATOM      7  C6  UNL d   1       2.599   4.337   0.856  0.00  0.00    -0.001 A 
ENDROOT
TORSDOF 0
ENDMDL
