MODEL 1
REMARK minimizedAffinity 13.3588219
REMARK minimizedRMSD -1
REMARK  0 active torsions:
REMARK  status: ('A' for Active; 'I' for Inactive)
ROOT
ATOM      1  C   UNL d   1      -4.837   4.123  -0.835  0.00  0.00     0.078 C 
ATOM      2  C1  UNL d   1      -3.794   4.422  -1.870  0.00  0.00    -0.077 A 
ATOM      3  C2  UNL d   1      -3.371   5.736  -2.109  0.00  0.00    -0.001 A 
ATOM      4  C3  UNL d   1      -2.406   6.000  -3.082  0.00  0.00     0.003 A 
ATOM      5  C4  UNL d   1      -1.857   4.957  -3.825  0.00  0.00    -0.005 A 
ATOM      6  C5  UNL d   1      -2.274   3.647  -3.596  0.00  0.00     0.003 A 
ATOM      7  C6  UNL d   1      -3.238   3.380  -2.623  0.00  0.00    -0.001 A 
ENDROOT
TORSDOF 0
ENDMDL
