MODEL 1
REMARK minimizedAffinity 5.4381299
REMARK minimizedRMSD -1
REMARK  0 active torsions:
REMARK  status: ('A' for Active; 'I' for Inactive)
ROOT
ATOM      1  C   UNL d   1      -0.869  -0.482   3.469  0.00  0.00     0.078 C 
ATOM      2  C1  UNL d   1       0.564  -0.609   3.044  0.00  0.00    -0.077 A 
ATOM      3  C2  UNL d   1       1.595  -0.052   3.810  0.00  0.00    -0.001 A 
ATOM      4  C3  UNL d   1       2.923  -0.170   3.397  0.00  0.00     0.003 A 
ATOM      5  C4  UNL d   1       3.232  -0.844   2.218  0.00  0.00    -0.005 A 
ATOM      6  C5  UNL d   1       2.213  -1.400   1.448  0.00  0.00     0.003 A 
ATOM      7  C6  UNL d   1       0.884  -1.283   1.859  0.00  0.00    -0.001 A 
ENDROOT
TORSDOF 0
ENDMDL
