MODEL 1
REMARK minimizedAffinity 3.12515306
REMARK minimizedRMSD -1
REMARK  0 active torsions:
REMARK  status: ('A' for Active; 'I' for Inactive)
ROOT
ATOM      1  C   UNL d   1       2.464  -1.014   1.798  0.00  0.00     0.078 C 
ATOM      2  C1  UNL d   1       1.065  -1.352   2.218  0.00  0.00    -0.077 A 
ATOM      3  C2  UNL d   1       0.318  -2.316   1.530  0.00  0.00    -0.001 A 
ATOM      4  C3  UNL d   1      -0.987  -2.614   1.925  0.00  0.00     0.003 A 
ATOM      5  C4  UNL d   1      -1.557  -1.951   3.010  0.00  0.00    -0.005 A 
ATOM      6  C5  UNL d   1      -0.823  -0.988   3.700  0.00  0.00     0.003 A 
ATOM      7  C6  UNL d   1       0.482  -0.689   3.306  0.00  0.00    -0.001 A 
ENDROOT
TORSDOF 0
ENDMDL
