MODEL 1
REMARK minimizedAffinity 10.3817844
REMARK minimizedRMSD -1
REMARK  0 active torsions:
REMARK  status: ('A' for Active; 'I' for Inactive)
ROOT
ATOM      1  C   UNL d   1      -2.752   3.664  -5.996  0.00  0.00     0.078 C 
ATOM      2  C1  UNL d   1      -2.645   4.180  -4.592  0.00  0.00    -0.077 A 
ATOM      3  C2  UNL d   1      -2.403   5.535  -4.338  0.00  0.00    -0.001 A 
ATOM      4  C3  UNL d   1      -2.296   6.000  -3.026  0.00  0.00     0.003 A 
ATOM      5  C4  UNL d   1      -2.429   5.115  -1.958  0.00  0.00    -0.005 A 
ATOM      6  C5  UNL d   1      -2.667   3.764  -2.201  0.00  0.00     0.003 A 
ATOM      7  C6  UNL d   1      -2.774   3.297  -3.512  0.00  0.00    -0.001 A 
ENDROOT
TORSDOF 0
ENDMDL
