MODEL 1
REMARK minimizedAffinity 10.4317608
REMARK minimizedRMSD -1
REMARK  0 active torsions:
REMARK  status: ('A' for Active; 'I' for Inactive)
ROOT
ATOM      1  C   UNL d   1       3.299  -0.287   1.509  0.00  0.00     0.078 C 
ATOM      2  C1  UNL d   1       1.986  -0.815   2.005  0.00  0.00    -0.077 A 
ATOM      3  C2  UNL d   1       1.328  -1.855   1.337  0.00  0.00    -0.001 A 
ATOM      4  C3  UNL d   1       0.101  -2.330   1.804  0.00  0.00     0.003 A 
ATOM      5  C4  UNL d   1      -0.479  -1.770   2.940  0.00  0.00    -0.005 A 
ATOM      6  C5  UNL d   1       0.167  -0.733   3.611  0.00  0.00     0.003 A 
ATOM      7  C6  UNL d   1       1.394  -0.257   3.145  0.00  0.00    -0.001 A 
ENDROOT
TORSDOF 0
ENDMDL
