MODEL 1
REMARK minimizedAffinity 10.9164438
REMARK minimizedRMSD -1
REMARK  0 active torsions:
REMARK  status: ('A' for Active; 'I' for Inactive)
ROOT
ATOM      1  C   UNL d   1       3.683   0.830   2.340  0.00  0.00     0.078 C 
ATOM      2  C1  UNL d   1       2.781  -0.317   1.996  0.00  0.00    -0.077 A 
ATOM      3  C2  UNL d   1       1.643  -0.595   2.763  0.00  0.00    -0.001 A 
ATOM      4  C3  UNL d   1       0.817  -1.672   2.437  0.00  0.00     0.003 A 
ATOM      5  C4  UNL d   1       1.121  -2.481   1.344  0.00  0.00    -0.005 A 
ATOM      6  C5  UNL d   1       2.252  -2.213   0.576  0.00  0.00     0.003 A 
ATOM      7  C6  UNL d   1       3.079  -1.137   0.900  0.00  0.00    -0.001 A 
ENDROOT
TORSDOF 0
ENDMDL
