MODEL 1
REMARK minimizedAffinity 9.01152515
REMARK minimizedRMSD -1
REMARK  0 active torsions:
REMARK  status: ('A' for Active; 'I' for Inactive)
ROOT
ATOM      1  C   UNL d   1       4.513   0.405  -3.010  0.00  0.00     0.078 C 
ATOM      2  C1  UNL d   1       4.988  -0.757  -3.829  0.00  0.00    -0.077 A 
ATOM      3  C2  UNL d   1       5.552  -1.885  -3.221  0.00  0.00    -0.001 A 
ATOM      4  C3  UNL d   1       6.000  -2.956  -3.996  0.00  0.00     0.003 A 
ATOM      5  C4  UNL d   1       5.889  -2.909  -5.385  0.00  0.00    -0.005 A 
ATOM      6  C5  UNL d   1       5.331  -1.790  -5.999  0.00  0.00     0.003 A 
ATOM      7  C6  UNL d   1       4.883  -0.718  -5.225  0.00  0.00    -0.001 A 
ENDROOT
TORSDOF 0
ENDMDL
