MODEL 1
REMARK minimizedAffinity 17.9714985
REMARK minimizedRMSD -1
REMARK  0 active torsions:
REMARK  status: ('A' for Active; 'I' for Inactive)
ROOT
ATOM      1  C   UNL d   1       4.128   1.128   1.955  0.00  0.00     0.078 C 
ATOM      2  C1  UNL d   1       2.788   0.622   2.399  0.00  0.00    -0.077 A 
ATOM      3  C2  UNL d   1       1.913   0.009   1.493  0.00  0.00    -0.001 A 
ATOM      4  C3  UNL d   1       0.665  -0.449   1.918  0.00  0.00     0.003 A 
ATOM      5  C4  UNL d   1       0.279  -0.298   3.249  0.00  0.00    -0.005 A 
ATOM      6  C5  UNL d   1       1.142   0.313   4.156  0.00  0.00     0.003 A 
ATOM      7  C6  UNL d   1       2.391   0.771   3.733  0.00  0.00    -0.001 A 
ENDROOT
TORSDOF 0
ENDMDL
