MODEL 1
REMARK minimizedAffinity 14.5725536
REMARK minimizedRMSD -1
REMARK  0 active torsions:
REMARK  status: ('A' for Active; 'I' for Inactive)
ROOT
ATOM      1  C   UNL d   1      -1.883   4.178  -5.951  0.00  0.00     0.078 C 
ATOM      2  C1  UNL d   1      -2.303   4.456  -4.539  0.00  0.00    -0.077 A 
ATOM      3  C2  UNL d   1      -2.285   5.758  -4.023  0.00  0.00    -0.001 A 
ATOM      4  C3  UNL d   1      -2.669   6.000  -2.704  0.00  0.00     0.003 A 
ATOM      5  C4  UNL d   1      -3.074   4.945  -1.888  0.00  0.00    -0.005 A 
ATOM      6  C5  UNL d   1      -3.093   3.646  -2.391  0.00  0.00     0.003 A 
ATOM      7  C6  UNL d   1      -2.709   3.402  -3.710  0.00  0.00    -0.001 A 
ENDROOT
TORSDOF 0
ENDMDL
