MODEL 1
REMARK minimizedAffinity 2.91765714
REMARK minimizedRMSD -1
REMARK  0 active torsions:
REMARK  status: ('A' for Active; 'I' for Inactive)
ROOT
ATOM      1  C   UNL d   1      -1.725  -3.176   2.994  0.00  0.00     0.078 C 
ATOM      2  C1  UNL d   1      -0.494  -2.386   2.668  0.00  0.00    -0.077 A 
ATOM      3  C2  UNL d   1      -0.204  -1.192   3.341  0.00  0.00    -0.001 A 
ATOM      4  C3  UNL d   1       0.941  -0.461   3.020  0.00  0.00     0.003 A 
ATOM      5  C4  UNL d   1       1.805  -0.915   2.025  0.00  0.00    -0.005 A 
ATOM      6  C5  UNL d   1       1.524  -2.100   1.349  0.00  0.00     0.003 A 
ATOM      7  C6  UNL d   1       0.379  -2.832   1.668  0.00  0.00    -0.001 A 
ENDROOT
TORSDOF 0
ENDMDL
