MODEL 1
REMARK minimizedAffinity 5.75301838
REMARK minimizedRMSD -1
REMARK  0 active torsions:
REMARK  status: ('A' for Active; 'I' for Inactive)
ROOT
ATOM      1  C   UNL d   1       4.162   0.489   2.535  0.00  0.00     0.078 C 
ATOM      2  C1  UNL d   1       2.825   0.078   3.076  0.00  0.00    -0.077 A 
ATOM      3  C2  UNL d   1       2.503   0.270   4.425  0.00  0.00    -0.001 A 
ATOM      4  C3  UNL d   1       1.258  -0.126   4.916  0.00  0.00     0.003 A 
ATOM      5  C4  UNL d   1       0.326  -0.717   4.066  0.00  0.00    -0.005 A 
ATOM      6  C5  UNL d   1       0.638  -0.913   2.722  0.00  0.00     0.003 A 
ATOM      7  C6  UNL d   1       1.883  -0.518   2.229  0.00  0.00    -0.001 A 
ENDROOT
TORSDOF 0
ENDMDL
