MODEL 1
REMARK minimizedAffinity 10.029479
REMARK minimizedRMSD -1
REMARK  0 active torsions:
REMARK  status: ('A' for Active; 'I' for Inactive)
ROOT
ATOM      1  C   UNL d   1       4.468  -0.196   2.409  0.00  0.00     0.078 C 
ATOM      2  C1  UNL d   1       3.043  -0.422   2.816  0.00  0.00    -0.077 A 
ATOM      3  C2  UNL d   1       2.578  -0.017   4.073  0.00  0.00    -0.001 A 
ATOM      4  C3  UNL d   1       1.251  -0.243   4.441  0.00  0.00     0.003 A 
ATOM      5  C4  UNL d   1       0.378  -0.877   3.560  0.00  0.00    -0.005 A 
ATOM      6  C5  UNL d   1       0.832  -1.287   2.308  0.00  0.00     0.003 A 
ATOM      7  C6  UNL d   1       2.158  -1.061   1.937  0.00  0.00    -0.001 A 
ENDROOT
TORSDOF 0
ENDMDL
