MODEL 1
REMARK minimizedAffinity 2.41129231
REMARK minimizedRMSD -1
REMARK  0 active torsions:
REMARK  status: ('A' for Active; 'I' for Inactive)
ROOT
ATOM      1  C   UNL d   1       1.725  -0.951   1.537  0.00  0.00     0.078 C 
ATOM      2  C1  UNL d   1       0.649  -1.403   2.478  0.00  0.00    -0.077 A 
ATOM      3  C2  UNL d   1       0.474  -0.788   3.724  0.00  0.00    -0.001 A 
ATOM      4  C3  UNL d   1      -0.526  -1.226   4.593  0.00  0.00     0.003 A 
ATOM      5  C4  UNL d   1      -1.359  -2.282   4.227  0.00  0.00    -0.005 A 
ATOM      6  C5  UNL d   1      -1.191  -2.902   2.991  0.00  0.00     0.003 A 
ATOM      7  C6  UNL d   1      -0.192  -2.465   2.120  0.00  0.00    -0.001 A 
ENDROOT
TORSDOF 0
ENDMDL
