MODEL 1
REMARK minimizedAffinity 5.3921361
REMARK minimizedRMSD -1
REMARK  0 active torsions:
REMARK  status: ('A' for Active; 'I' for Inactive)
ROOT
ATOM      1  C   UNL d   1      -4.515   3.809  -1.087  0.00  0.00     0.078 C 
ATOM      2  C1  UNL d   1      -3.471   4.237  -2.075  0.00  0.00    -0.077 A 
ATOM      3  C2  UNL d   1      -2.832   3.303  -2.899  0.00  0.00    -0.001 A 
ATOM      4  C3  UNL d   1      -1.855   3.715  -3.807  0.00  0.00     0.003 A 
ATOM      5  C4  UNL d   1      -1.508   5.061  -3.899  0.00  0.00    -0.005 A 
ATOM      6  C5  UNL d   1      -2.138   5.998  -3.082  0.00  0.00     0.003 A 
ATOM      7  C6  UNL d   1      -3.115   5.588  -2.173  0.00  0.00    -0.001 A 
ENDROOT
TORSDOF 0
ENDMDL
