MODEL 1
REMARK minimizedAffinity 5.94938326
REMARK minimizedRMSD -1
REMARK  0 active torsions:
REMARK  status: ('A' for Active; 'I' for Inactive)
ROOT
ATOM      1  C   UNL d   1      -2.683   2.514  -3.016  0.00  0.00     0.078 C 
ATOM      2  C1  UNL d   1      -2.379   3.726  -3.845  0.00  0.00    -0.077 A 
ATOM      3  C2  UNL d   1      -1.828   4.876  -3.267  0.00  0.00    -0.001 A 
ATOM      4  C3  UNL d   1      -1.559   6.000  -4.050  0.00  0.00     0.003 A 
ATOM      5  C4  UNL d   1      -1.837   5.985  -5.415  0.00  0.00    -0.005 A 
ATOM      6  C5  UNL d   1      -2.387   4.845  -5.999  0.00  0.00     0.003 A 
ATOM      7  C6  UNL d   1      -2.657   3.721  -5.218  0.00  0.00    -0.001 A 
ENDROOT
TORSDOF 0
ENDMDL
