MODEL 1
REMARK minimizedAffinity -5.35502672
REMARK minimizedRMSD -1
REMARK  1 active torsions:
REMARK  status: ('A' for Active; 'I' for Inactive)
REMARK    1  A    between atoms: C1_2  and  C2_3 
ROOT
ATOM      1  C2  UNL d   1       2.358   2.716   0.665  0.00  0.00    -0.073 A 
ATOM      2  C3  UNL d   1       1.074   3.132   0.295  0.00  0.00    -0.002 A 
ATOM      3  C4  UNL d   1      -0.005   2.252   0.385  0.00  0.00     0.004 A 
ATOM      4  C5  UNL d   1       0.186   0.952   0.852  0.00  0.00    -0.004 A 
ATOM      5  C6  UNL d   1       1.460   0.521   1.238  0.00  0.00    -0.075 A 
ATOM      6  C7  UNL d   1       1.683  -0.875   1.740  0.00  0.00     0.076 C 
ATOM      7  C8  UNL d   1       2.539   1.410   1.142  0.00  0.00     0.001 A 
ENDROOT
BRANCH   1   8
ATOM      8  C1  UNL d   1       3.526   3.665   0.576  0.00  0.00     0.053 C 
ATOM      9  C   UNL d   1       4.045   3.797  -0.847  0.00  0.00     0.018 C 
ENDBRANCH   1   8
TORSDOF 1
ENDMDL
