MODEL 1
REMARK minimizedAffinity -3.62708473
REMARK minimizedRMSD -1
REMARK  1 active torsions:
REMARK  status: ('A' for Active; 'I' for Inactive)
REMARK    1  A    between atoms: C1_2  and  C2_3 
ROOT
ATOM      1  C2  UNL d   1       1.564   1.136   0.912  0.00  0.00    -0.073 A 
ATOM      2  C3  UNL d   1       1.412   1.644   2.207  0.00  0.00    -0.002 A 
ATOM      3  C4  UNL d   1       1.964   2.879   2.548  0.00  0.00     0.004 A 
ATOM      4  C5  UNL d   1       2.666   3.621   1.598  0.00  0.00    -0.004 A 
ATOM      5  C6  UNL d   1       2.818   3.135   0.296  0.00  0.00    -0.075 A 
ATOM      6  C7  UNL d   1       3.573   3.920  -0.737  0.00  0.00     0.076 C 
ATOM      7  C8  UNL d   1       2.263   1.893  -0.039  0.00  0.00     0.001 A 
ENDROOT
BRANCH   1   8
ATOM      8  C1  UNL d   1       0.964  -0.195   0.536  0.00  0.00     0.053 C 
ATOM      9  C   UNL d   1      -0.514  -0.273   0.887  0.00  0.00     0.018 C 
ENDBRANCH   1   8
TORSDOF 1
ENDMDL
