MODEL 1
REMARK minimizedAffinity -4.10593653
REMARK minimizedRMSD -1
REMARK  1 active torsions:
REMARK  status: ('A' for Active; 'I' for Inactive)
REMARK    1  A    between atoms: C1_2  and  C2_3 
ROOT
ATOM      1  C2  UNL d   1       2.038   0.858   0.769  0.00  0.00    -0.073 A 
ATOM      2  C3  UNL d   1       2.054   1.215   2.122  0.00  0.00    -0.002 A 
ATOM      3  C4  UNL d   1       2.625   2.423   2.525  0.00  0.00     0.004 A 
ATOM      4  C5  UNL d   1       3.177   3.288   1.581  0.00  0.00    -0.004 A 
ATOM      5  C6  UNL d   1       3.160   2.955   0.223  0.00  0.00    -0.075 A 
ATOM      6  C7  UNL d   1       3.753   3.873  -0.805  0.00  0.00     0.076 C 
ATOM      7  C8  UNL d   1       2.588   1.738  -0.174  0.00  0.00     0.001 A 
ENDROOT
BRANCH   1   8
ATOM      8  C1  UNL d   1       1.418  -0.443   0.328  0.00  0.00     0.053 C 
ATOM      9  C   UNL d   1       0.006  -0.250  -0.202  0.00  0.00     0.018 C 
ENDBRANCH   1   8
TORSDOF 1
ENDMDL
