MODEL 1
REMARK minimizedAffinity -2.67370534
REMARK minimizedRMSD -1
REMARK  1 active torsions:
REMARK  status: ('A' for Active; 'I' for Inactive)
REMARK    1  A    between atoms: C1_2  and  C2_3 
ROOT
ATOM      1  C2  UNL d   1       1.234   1.598   0.497  0.00  0.00    -0.073 A 
ATOM      2  C3  UNL d   1       1.088   2.146   1.776  0.00  0.00    -0.002 A 
ATOM      3  C4  UNL d   1       1.921   3.183   2.199  0.00  0.00     0.004 A 
ATOM      4  C5  UNL d   1       2.904   3.685   1.346  0.00  0.00    -0.004 A 
ATOM      5  C6  UNL d   1       3.058   3.159   0.059  0.00  0.00    -0.075 A 
ATOM      6  C7  UNL d   1       4.111   3.687  -0.870  0.00  0.00     0.076 C 
ATOM      7  C8  UNL d   1       2.219   2.116  -0.357  0.00  0.00     0.001 A 
ENDROOT
BRANCH   1   8
ATOM      8  C1  UNL d   1       0.333   0.483   0.034  0.00  0.00     0.053 C 
ATOM      9  C   UNL d   1       0.399  -0.724   0.956  0.00  0.00     0.018 C 
ENDBRANCH   1   8
TORSDOF 1
ENDMDL
