MODEL 1
REMARK minimizedAffinity -0.0648943558
REMARK minimizedRMSD -1
REMARK  1 active torsions:
REMARK  status: ('A' for Active; 'I' for Inactive)
REMARK    1  A    between atoms: C1_2  and  C2_3 
ROOT
ATOM      1  C2  UNL d   1       0.649   0.013   0.632  0.00  0.00    -0.073 A 
ATOM      2  C3  UNL d   1       1.162  -0.997   1.454  0.00  0.00    -0.002 A 
ATOM      3  C4  UNL d   1       0.304  -1.908   2.071  0.00  0.00     0.004 A 
ATOM      4  C5  UNL d   1      -1.073  -1.824   1.867  0.00  0.00    -0.004 A 
ATOM      5  C6  UNL d   1      -1.604  -0.829   1.040  0.00  0.00    -0.075 A 
ATOM      6  C7  UNL d   1      -3.084  -0.723   0.813  0.00  0.00     0.076 C 
ATOM      7  C8  UNL d   1      -0.736   0.084   0.426  0.00  0.00     0.001 A 
ENDROOT
BRANCH   1   8
ATOM      8  C1  UNL d   1       1.572   0.995  -0.042  0.00  0.00     0.053 C 
ATOM      9  C   UNL d   1       2.053   2.074   0.915  0.00  0.00     0.018 C 
ENDBRANCH   1   8
TORSDOF 1
ENDMDL
