MODEL 1
REMARK minimizedAffinity -3.21469736
REMARK minimizedRMSD -1
REMARK  1 active torsions:
REMARK  status: ('A' for Active; 'I' for Inactive)
REMARK    1  A    between atoms: C1_2  and  C2_3 
ROOT
ATOM      1  C2  UNL d   1       2.723   2.251   1.284  0.00  0.00    -0.073 A 
ATOM      2  C3  UNL d   1       2.456   3.238   2.239  0.00  0.00    -0.002 A 
ATOM      3  C4  UNL d   1       2.870   4.554   2.028  0.00  0.00     0.004 A 
ATOM      4  C5  UNL d   1       3.547   4.897   0.858  0.00  0.00    -0.004 A 
ATOM      5  C6  UNL d   1       3.813   3.927  -0.114  0.00  0.00    -0.075 A 
ATOM      6  C7  UNL d   1       4.542   4.279  -1.377  0.00  0.00     0.076 C 
ATOM      7  C8  UNL d   1       3.396   2.607   0.107  0.00  0.00     0.001 A 
ENDROOT
BRANCH   1   8
ATOM      8  C1  UNL d   1       2.272   0.830   1.506  0.00  0.00     0.053 C 
ATOM      9  C   UNL d   1       1.066   0.474   0.651  0.00  0.00     0.018 C 
ENDBRANCH   1   8
TORSDOF 1
ENDMDL
