MODEL 1
REMARK minimizedAffinity -2.66617393
REMARK minimizedRMSD -1
REMARK  1 active torsions:
REMARK  status: ('A' for Active; 'I' for Inactive)
REMARK    1  A    between atoms: C1_2  and  C2_3 
ROOT
ATOM      1  C2  UNL d   1      -0.218  -0.017  -0.893  0.00  0.00    -0.073 A 
ATOM      2  C3  UNL d   1      -1.366  -0.090  -1.690  0.00  0.00    -0.002 A 
ATOM      3  C4  UNL d   1      -2.554  -0.605  -1.169  0.00  0.00     0.004 A 
ATOM      4  C5  UNL d   1      -2.608  -1.045   0.153  0.00  0.00    -0.004 A 
ATOM      5  C6  UNL d   1      -1.474  -0.970   0.969  0.00  0.00    -0.075 A 
ATOM      6  C7  UNL d   1      -1.515  -1.441   2.393  0.00  0.00     0.076 C 
ATOM      7  C8  UNL d   1      -0.284  -0.453   0.438  0.00  0.00     0.001 A 
ENDROOT
BRANCH   1   8
ATOM      8  C1  UNL d   1       1.065   0.545  -1.449  0.00  0.00     0.053 C 
ATOM      9  C   UNL d   1       1.666  -0.355  -2.517  0.00  0.00     0.018 C 
ENDBRANCH   1   8
TORSDOF 1
ENDMDL
