MODEL 1
REMARK minimizedAffinity -3.04352903
REMARK minimizedRMSD -1
REMARK  1 active torsions:
REMARK  status: ('A' for Active; 'I' for Inactive)
REMARK    1  A    between atoms: C1_2  and  C2_3 
ROOT
ATOM      1  C2  UNL d   1       0.365  -0.150  -1.418  0.00  0.00    -0.073 A 
ATOM      2  C3  UNL d   1       1.164  -0.063  -0.272  0.00  0.00    -0.002 A 
ATOM      3  C4  UNL d   1       0.588  -0.137   0.997  0.00  0.00     0.004 A 
ATOM      4  C5  UNL d   1      -0.790  -0.305   1.133  0.00  0.00    -0.004 A 
ATOM      5  C6  UNL d   1      -1.604  -0.405   0.000  0.00  0.00    -0.075 A 
ATOM      6  C7  UNL d   1      -3.088  -0.584   0.130  0.00  0.00     0.076 C 
ATOM      7  C8  UNL d   1      -1.018  -0.327  -1.270  0.00  0.00     0.001 A 
ENDROOT
BRANCH   1   8
ATOM      8  C1  UNL d   1       0.984  -0.077  -2.790  0.00  0.00     0.053 C 
ATOM      9  C   UNL d   1       2.398  -0.636  -2.808  0.00  0.00     0.018 C 
ENDBRANCH   1   8
TORSDOF 1
ENDMDL
