MODEL 1
REMARK minimizedAffinity -4.75333834
REMARK minimizedRMSD -1
REMARK  1 active torsions:
REMARK  status: ('A' for Active; 'I' for Inactive)
REMARK    1  A    between atoms: C1_2  and  C2_3 
ROOT
ATOM      1  C2  UNL d   1       2.456   0.245  -2.056  0.00  0.00    -0.073 A 
ATOM      2  C3  UNL d   1       1.664   0.149  -0.906  0.00  0.00    -0.002 A 
ATOM      3  C4  UNL d   1       1.616   1.203   0.007  0.00  0.00     0.004 A 
ATOM      4  C5  UNL d   1       2.351   2.365  -0.223  0.00  0.00    -0.004 A 
ATOM      5  C6  UNL d   1       3.139   2.486  -1.373  0.00  0.00    -0.075 A 
ATOM      6  C7  UNL d   1       3.938   3.728  -1.634  0.00  0.00     0.076 C 
ATOM      7  C8  UNL d   1       3.185   1.421  -2.284  0.00  0.00     0.001 A 
ENDROOT
BRANCH   1   8
ATOM      8  C1  UNL d   1       2.506  -0.888  -3.048  0.00  0.00     0.053 C 
ATOM      9  C   UNL d   1       1.811  -0.535  -4.353  0.00  0.00     0.018 C 
ENDBRANCH   1   8
TORSDOF 1
ENDMDL
