MODEL 1
REMARK minimizedAffinity -1.65176129
REMARK minimizedRMSD -1
REMARK  1 active torsions:
REMARK  status: ('A' for Active; 'I' for Inactive)
REMARK    1  A    between atoms: C1_2  and  C2_3 
ROOT
ATOM      1  C2  UNL d   1       0.859  -0.440  -2.672  0.00  0.00    -0.073 A 
ATOM      2  C3  UNL d   1      -0.451   0.005  -2.882  0.00  0.00    -0.002 A 
ATOM      3  C4  UNL d   1      -1.334   0.131  -1.808  0.00  0.00     0.004 A 
ATOM      4  C5  UNL d   1      -0.914  -0.179  -0.515  0.00  0.00    -0.004 A 
ATOM      5  C6  UNL d   1       0.395  -0.615  -0.283  0.00  0.00    -0.075 A 
ATOM      6  C7  UNL d   1       0.861  -0.955   1.102  0.00  0.00     0.076 C 
ATOM      7  C8  UNL d   1       1.274  -0.741  -1.367  0.00  0.00     0.001 A 
ENDROOT
BRANCH   1   8
ATOM      8  C1  UNL d   1       1.817  -0.571  -3.828  0.00  0.00     0.053 C 
ATOM      9  C   UNL d   1       1.373   0.244  -5.032  0.00  0.00     0.018 C 
ENDBRANCH   1   8
TORSDOF 1
ENDMDL
