MODEL 1
REMARK minimizedAffinity -0.753245652
REMARK minimizedRMSD -1
REMARK  1 active torsions:
REMARK  status: ('A' for Active; 'I' for Inactive)
REMARK    1  A    between atoms: C1_2  and  C2_3 
ROOT
ATOM      1  C2  UNL d   1       0.452  -0.473  -0.662  0.00  0.00    -0.073 A 
ATOM      2  C3  UNL d   1       0.762  -1.112   0.544  0.00  0.00    -0.002 A 
ATOM      3  C4  UNL d   1      -0.251  -1.655   1.335  0.00  0.00     0.004 A 
ATOM      4  C5  UNL d   1      -1.582  -1.571   0.926  0.00  0.00    -0.004 A 
ATOM      5  C6  UNL d   1      -1.911  -0.947  -0.281  0.00  0.00    -0.075 A 
ATOM      6  C7  UNL d   1      -3.338  -0.846  -0.734  0.00  0.00     0.076 C 
ATOM      7  C8  UNL d   1      -0.888  -0.401  -1.069  0.00  0.00     0.001 A 
ENDROOT
BRANCH   1   8
ATOM      8  C1  UNL d   1       1.543   0.110  -1.522  0.00  0.00     0.053 C 
ATOM      9  C   UNL d   1       1.762  -0.700  -2.791  0.00  0.00     0.018 C 
ENDBRANCH   1   8
TORSDOF 1
ENDMDL
