MODEL 1
REMARK minimizedAffinity 8.16378212
REMARK minimizedRMSD -1
REMARK  2 active torsions:
REMARK  status: ('A' for Active; 'I' for Inactive)
REMARK    1  A    between atoms: C2'_3  and  C1'_4 
REMARK    2  A    between atoms: C1'_4  and  C1_5 
ROOT
ATOM      1  C1  I4B d   1      -0.008   2.365   1.432  0.00  0.00    -0.075 A 
ATOM      2  C2  I4B d   1       0.917   3.378   1.394  0.00  0.00     0.003 A 
ATOM      3  C3  I4B d   1       1.214   4.116   2.566  0.00  0.00     0.002 A 
ATOM      4  C4  I4B d   1       0.530   3.843   3.733  0.00  0.00    -0.004 A 
ATOM      5  C5  I4B d   1      -0.391   2.800   3.775  0.00  0.00     0.002 A 
ATOM      6  C6  I4B d   1      -0.653   2.048   2.621  0.00  0.00     0.003 A 
ENDROOT
BRANCH   1   7
ATOM      7  C1' I4B d   1      -0.321   1.627   0.169  0.00  0.00     0.060 C 
BRANCH   7   8
ATOM      8  C2' I4B d   1      -1.509   2.304  -0.484  0.00  0.00    -0.013 C 
ATOM      9  C4' I4B d   1      -1.119   2.951  -1.787  0.00  0.00     0.013 C 
ATOM     10  C3' I4B d   1      -2.575   1.270  -0.690  0.00  0.00     0.013 C 
ENDBRANCH   7   8
ENDBRANCH   1   7
TORSDOF 2
ENDMDL
