MODEL 1
REMARK minimizedAffinity 7.34992504
REMARK minimizedRMSD -1
REMARK  2 active torsions:
REMARK  status: ('A' for Active; 'I' for Inactive)
REMARK    1  A    between atoms: C2'_3  and  C1'_4 
REMARK    2  A    between atoms: C1'_4  and  C1_5 
ROOT
ATOM      1  C1  I4B d   1       3.513  -5.185  -3.872  0.00  0.00    -0.075 A 
ATOM      2  C2  I4B d   1       3.620  -3.843  -3.601  0.00  0.00     0.003 A 
ATOM      3  C3  I4B d   1       2.526  -3.141  -3.039  0.00  0.00     0.002 A 
ATOM      4  C4  I4B d   1       1.336  -3.803  -2.814  0.00  0.00    -0.004 A 
ATOM      5  C5  I4B d   1       1.238  -5.168  -3.068  0.00  0.00     0.002 A 
ATOM      6  C6  I4B d   1       2.337  -5.867  -3.589  0.00  0.00     0.003 A 
ENDROOT
BRANCH   1   7
ATOM      7  C1' I4B d   1       4.677  -5.888  -4.495  0.00  0.00     0.060 C 
BRANCH   7   8
ATOM      8  C2' I4B d   1       5.937  -5.412  -3.801  0.00  0.00    -0.013 C 
ATOM      9  C4' I4B d   1       5.999  -3.908  -3.757  0.00  0.00     0.013 C 
ATOM     10  C3' I4B d   1       5.954  -5.996  -2.420  0.00  0.00     0.013 C 
ENDBRANCH   7   8
ENDBRANCH   1   7
TORSDOF 2
ENDMDL
