MODEL 1
REMARK minimizedAffinity 19.0078964
REMARK minimizedRMSD -1
REMARK  2 active torsions:
REMARK  status: ('A' for Active; 'I' for Inactive)
REMARK    1  A    between atoms: C2'_3  and  C1'_4 
REMARK    2  A    between atoms: C1'_4  and  C1_5 
ROOT
ATOM      1  C1  I4B d   1       1.481  -4.130  -4.050  0.00  0.00    -0.075 A 
ATOM      2  C2  I4B d   1       2.853  -4.117  -4.013  0.00  0.00     0.003 A 
ATOM      3  C3  I4B d   1       3.596  -5.047  -4.780  0.00  0.00     0.002 A 
ATOM      4  C4  I4B d   1       2.930  -5.998  -5.526  0.00  0.00    -0.004 A 
ATOM      5  C5  I4B d   1       1.539  -5.995  -5.580  0.00  0.00     0.002 A 
ATOM      6  C6  I4B d   1       0.810  -5.048  -4.847  0.00  0.00     0.003 A 
ENDROOT
BRANCH   1   7
ATOM      7  C1' I4B d   1       0.728  -3.155  -3.201  0.00  0.00     0.060 C 
BRANCH   7   8
ATOM      8  C2' I4B d   1       0.639  -3.726  -1.801  0.00  0.00    -0.013 C 
ATOM      9  C4' I4B d   1       1.765  -3.226  -0.935  0.00  0.00     0.013 C 
ATOM     10  C3' I4B d   1      -0.694  -3.345  -1.229  0.00  0.00     0.013 C 
ENDBRANCH   7   8
ENDBRANCH   1   7
TORSDOF 2
ENDMDL
