MODEL 1
REMARK minimizedAffinity 15.0733442
REMARK minimizedRMSD -1
REMARK  2 active torsions:
REMARK  status: ('A' for Active; 'I' for Inactive)
REMARK    1  A    between atoms: C2'_3  and  C1'_4 
REMARK    2  A    between atoms: C1'_4  and  C1_5 
ROOT
ATOM      1  C1  I4B d   1      -0.675   2.690   3.154  0.00  0.00    -0.075 A 
ATOM      2  C2  I4B d   1      -1.918   2.405   3.661  0.00  0.00     0.003 A 
ATOM      3  C3  I4B d   1      -2.312   2.926   4.917  0.00  0.00     0.002 A 
ATOM      4  C4  I4B d   1      -1.420   3.680   5.650  0.00  0.00    -0.004 A 
ATOM      5  C5  I4B d   1      -0.168   3.988   5.125  0.00  0.00     0.002 A 
ATOM      6  C6  I4B d   1       0.203   3.500   3.863  0.00  0.00     0.003 A 
ENDROOT
BRANCH   1   7
ATOM      7  C1' I4B d   1      -0.279   2.097   1.839  0.00  0.00     0.060 C 
BRANCH   7   8
ATOM      8  C2' I4B d   1      -0.915   0.725   1.735  0.00  0.00    -0.013 C 
ATOM      9  C4' I4B d   1      -1.630   0.554   0.421  0.00  0.00     0.013 C 
ATOM     10  C3' I4B d   1       0.166  -0.300   1.901  0.00  0.00     0.013 C 
ENDBRANCH   7   8
ENDBRANCH   1   7
TORSDOF 2
ENDMDL
