MODEL 1
REMARK minimizedAffinity 5.38644981
REMARK minimizedRMSD -1
REMARK  2 active torsions:
REMARK  status: ('A' for Active; 'I' for Inactive)
REMARK    1  A    between atoms: C2'_3  and  C1'_4 
REMARK    2  A    between atoms: C1'_4  and  C1_5 
ROOT
ATOM      1  C1  I4B d   1      -0.895   2.112   1.799  0.00  0.00    -0.075 A 
ATOM      2  C2  I4B d   1      -1.093   2.471   3.109  0.00  0.00     0.003 A 
ATOM      3  C3  I4B d   1      -0.180   3.339   3.756  0.00  0.00     0.002 A 
ATOM      4  C4  I4B d   1       0.937   3.779   3.076  0.00  0.00    -0.004 A 
ATOM      5  C5  I4B d   1       1.124   3.433   1.741  0.00  0.00     0.002 A 
ATOM      6  C6  I4B d   1       0.196   2.603   1.094  0.00  0.00     0.003 A 
ENDROOT
BRANCH   1   7
ATOM      7  C1' I4B d   1      -1.861   1.168   1.157  0.00  0.00     0.060 C 
BRANCH   7   8
ATOM      8  C2' I4B d   1      -2.604   0.439   2.258  0.00  0.00    -0.013 C 
ATOM      9  C4' I4B d   1      -4.094   0.617   2.120  0.00  0.00     0.013 C 
ATOM     10  C3' I4B d   1      -2.224  -1.010   2.194  0.00  0.00     0.013 C 
ENDBRANCH   7   8
ENDBRANCH   1   7
TORSDOF 2
ENDMDL
