MODEL 1
REMARK minimizedAffinity -3.36338496
REMARK minimizedRMSD -1
REMARK  2 active torsions:
REMARK  status: ('A' for Active; 'I' for Inactive)
REMARK    1  A    between atoms: C2'_3  and  C1'_4 
REMARK    2  A    between atoms: C1'_4  and  C1_5 
ROOT
ATOM      1  C1  I4B d   1      -3.307  -1.040   2.980  0.00  0.00    -0.075 A 
ATOM      2  C2  I4B d   1      -3.472   0.045   2.157  0.00  0.00     0.003 A 
ATOM      3  C3  I4B d   1      -4.696   0.756   2.152  0.00  0.00     0.002 A 
ATOM      4  C4  I4B d   1      -5.739   0.320   2.944  0.00  0.00    -0.004 A 
ATOM      5  C5  I4B d   1      -5.562  -0.767   3.795  0.00  0.00     0.002 A 
ATOM      6  C6  I4B d   1      -4.334  -1.445   3.823  0.00  0.00     0.003 A 
ENDROOT
BRANCH   1   7
ATOM      7  C1' I4B d   1      -2.012  -1.788   2.935  0.00  0.00     0.060 C 
BRANCH   7   8
ATOM      8  C2' I4B d   1      -1.655  -2.017   1.481  0.00  0.00    -0.013 C 
ATOM      9  C4' I4B d   1      -0.685  -0.976   0.987  0.00  0.00     0.013 C 
ATOM     10  C3' I4B d   1      -1.079  -3.396   1.357  0.00  0.00     0.013 C 
ENDBRANCH   7   8
ENDBRANCH   1   7
TORSDOF 2
ENDMDL
