MODEL 1
REMARK minimizedAffinity 1.16148782
REMARK minimizedRMSD -1
REMARK  2 active torsions:
REMARK  status: ('A' for Active; 'I' for Inactive)
REMARK    1  A    between atoms: C2'_3  and  C1'_4 
REMARK    2  A    between atoms: C1'_4  and  C1_5 
ROOT
ATOM      1  C1  I4B d   1       0.127   2.929   1.451  0.00  0.00    -0.075 A 
ATOM      2  C2  I4B d   1      -1.016   3.060   2.199  0.00  0.00     0.003 A 
ATOM      3  C3  I4B d   1      -0.971   3.689   3.467  0.00  0.00     0.002 A 
ATOM      4  C4  I4B d   1       0.240   4.124   3.966  0.00  0.00    -0.004 A 
ATOM      5  C5  I4B d   1       1.394   4.011   3.197  0.00  0.00     0.002 A 
ATOM      6  C6  I4B d   1       1.336   3.421   1.926  0.00  0.00     0.003 A 
ENDROOT
BRANCH   1   7
ATOM      7  C1' I4B d   1       0.049   2.230   0.131  0.00  0.00     0.060 C 
BRANCH   7   8
ATOM      8  C2' I4B d   1      -0.463   0.825   0.376  0.00  0.00    -0.013 C 
ATOM      9  C4' I4B d   1      -1.577   0.477  -0.575  0.00  0.00     0.013 C 
ATOM     10  C3' I4B d   1       0.691  -0.120   0.228  0.00  0.00     0.013 C 
ENDBRANCH   7   8
ENDBRANCH   1   7
TORSDOF 2
ENDMDL
