MODEL 1
REMARK minimizedAffinity -1.56923354
REMARK minimizedRMSD -1
REMARK  2 active torsions:
REMARK  status: ('A' for Active; 'I' for Inactive)
REMARK    1  A    between atoms: C2'_3  and  C1'_4 
REMARK    2  A    between atoms: C1'_4  and  C1_5 
ROOT
ATOM      1  C1  I4B d   1       3.137   2.966  -4.356  0.00  0.00    -0.075 A 
ATOM      2  C2  I4B d   1       3.849   3.039  -5.527  0.00  0.00     0.003 A 
ATOM      3  C3  I4B d   1       5.264   3.009  -5.504  0.00  0.00     0.002 A 
ATOM      4  C4  I4B d   1       5.924   2.957  -4.293  0.00  0.00    -0.004 A 
ATOM      5  C5  I4B d   1       5.200   2.861  -3.108  0.00  0.00     0.002 A 
ATOM      6  C6  I4B d   1       3.798   2.852  -3.140  0.00  0.00     0.003 A 
ENDROOT
BRANCH   1   7
ATOM      7  C1' I4B d   1       1.644   3.033  -4.415  0.00  0.00     0.060 C 
BRANCH   7   8
ATOM      8  C2' I4B d   1       1.212   2.616  -5.806  0.00  0.00    -0.013 C 
ATOM      9  C4' I4B d   1       1.356   1.130  -5.999  0.00  0.00     0.013 C 
ATOM     10  C3' I4B d   1      -0.209   3.052  -6.000  0.00  0.00     0.013 C 
ENDBRANCH   7   8
ENDBRANCH   1   7
TORSDOF 2
ENDMDL
