MODEL 1
REMARK minimizedAffinity 1.37693143
REMARK minimizedRMSD -1
REMARK  2 active torsions:
REMARK  status: ('A' for Active; 'I' for Inactive)
REMARK    1  A    between atoms: C2'_3  and  C1'_4 
REMARK    2  A    between atoms: C1'_4  and  C1_5 
ROOT
ATOM      1  C1  I4B d   1       0.413   2.676   1.947  0.00  0.00    -0.075 A 
ATOM      2  C2  I4B d   1       1.311   2.994   2.935  0.00  0.00     0.003 A 
ATOM      3  C3  I4B d   1       0.972   3.948   3.925  0.00  0.00     0.002 A 
ATOM      4  C4  I4B d   1      -0.247   4.592   3.860  0.00  0.00    -0.004 A 
ATOM      5  C5  I4B d   1      -1.164   4.252   2.870  0.00  0.00     0.002 A 
ATOM      6  C6  I4B d   1      -0.838   3.278   1.915  0.00  0.00     0.003 A 
ENDROOT
BRANCH   1   7
ATOM      7  C1' I4B d   1       0.816   1.688   0.898  0.00  0.00     0.060 C 
BRANCH   7   8
ATOM      8  C2' I4B d   1      -0.336   0.724   0.697  0.00  0.00    -0.013 C 
ATOM      9  C4' I4B d   1      -1.284   1.222  -0.362  0.00  0.00     0.013 C 
ATOM     10  C3' I4B d   1       0.237  -0.611   0.328  0.00  0.00     0.013 C 
ENDBRANCH   7   8
ENDBRANCH   1   7
TORSDOF 2
ENDMDL
