MODEL 1
REMARK minimizedAffinity 3.7787807
REMARK minimizedRMSD -1
REMARK  2 active torsions:
REMARK  status: ('A' for Active; 'I' for Inactive)
REMARK    1  A    between atoms: C2'_3  and  C1'_4 
REMARK    2  A    between atoms: C1'_4  and  C1_5 
ROOT
ATOM      1  C1  I4B d   1      -1.355  -0.399   2.030  0.00  0.00    -0.075 A 
ATOM      2  C2  I4B d   1      -0.105  -0.592   1.498  0.00  0.00     0.003 A 
ATOM      3  C3  I4B d   1       0.468   0.386   0.649  0.00  0.00     0.002 A 
ATOM      4  C4  I4B d   1      -0.261   1.511   0.320  0.00  0.00    -0.004 A 
ATOM      5  C5  I4B d   1      -1.519   1.716   0.878  0.00  0.00     0.002 A 
ATOM      6  C6  I4B d   1      -2.065   0.761   1.748  0.00  0.00     0.003 A 
ENDROOT
BRANCH   1   7
ATOM      7  C1' I4B d   1      -1.943  -1.467   2.896  0.00  0.00     0.060 C 
BRANCH   7   8
ATOM      8  C2' I4B d   1      -2.930  -0.811   3.841  0.00  0.00    -0.013 C 
ATOM      9  C4' I4B d   1      -4.323  -1.342   3.627  0.00  0.00     0.013 C 
ATOM     10  C3' I4B d   1      -2.464  -1.062   5.244  0.00  0.00     0.013 C 
ENDBRANCH   7   8
ENDBRANCH   1   7
TORSDOF 2
ENDMDL
