MODEL 1
REMARK minimizedAffinity 9.75671768
REMARK minimizedRMSD -1
REMARK  2 active torsions:
REMARK  status: ('A' for Active; 'I' for Inactive)
REMARK    1  A    between atoms: C2'_3  and  C1'_4 
REMARK    2  A    between atoms: C1'_4  and  C1_5 
ROOT
ATOM      1  C1  I4B d   1       3.485   2.056  -3.751  0.00  0.00    -0.075 A 
ATOM      2  C2  I4B d   1       4.762   1.918  -3.266  0.00  0.00     0.003 A 
ATOM      3  C3  I4B d   1       5.865   1.923  -4.154  0.00  0.00     0.002 A 
ATOM      4  C4  I4B d   1       5.644   2.018  -5.512  0.00  0.00    -0.004 A 
ATOM      5  C5  I4B d   1       4.351   2.181  -6.000  0.00  0.00     0.002 A 
ATOM      6  C6  I4B d   1       3.265   2.212  -5.113  0.00  0.00     0.003 A 
ENDROOT
BRANCH   1   7
ATOM      7  C1' I4B d   1       2.340   2.013  -2.789  0.00  0.00     0.060 C 
BRANCH   7   8
ATOM      8  C2' I4B d   1       2.500   0.775  -1.929  0.00  0.00    -0.013 C 
ATOM      9  C4' I4B d   1       1.617   0.841  -0.710  0.00  0.00     0.013 C 
ATOM     10  C3' I4B d   1       2.170  -0.420  -2.773  0.00  0.00     0.013 C 
ENDBRANCH   7   8
ENDBRANCH   1   7
TORSDOF 2
ENDMDL
