MODEL 1
REMARK minimizedAffinity 4.9334054
REMARK minimizedRMSD -1
REMARK  2 active torsions:
REMARK  status: ('A' for Active; 'I' for Inactive)
REMARK    1  A    between atoms: C2'_3  and  C1'_4 
REMARK    2  A    between atoms: C1'_4  and  C1_5 
ROOT
ATOM      1  C1  I4B d   1       0.919   3.927   3.316  0.00  0.00    -0.075 A 
ATOM      2  C2  I4B d   1       0.475   3.669   2.043  0.00  0.00     0.003 A 
ATOM      3  C3  I4B d   1      -0.913   3.594   1.773  0.00  0.00     0.002 A 
ATOM      4  C4  I4B d   1      -1.815   3.731   2.809  0.00  0.00    -0.004 A 
ATOM      5  C5  I4B d   1      -1.364   4.015   4.095  0.00  0.00     0.002 A 
ATOM      6  C6  I4B d   1       0.011   4.126   4.348  0.00  0.00     0.003 A 
ENDROOT
BRANCH   1   7
ATOM      7  C1' I4B d   1       2.392   3.967   3.572  0.00  0.00     0.060 C 
BRANCH   7   8
ATOM      8  C2' I4B d   1       3.099   3.950   2.232  0.00  0.00    -0.013 C 
ATOM      9  C4' I4B d   1       3.752   5.276   1.943  0.00  0.00     0.013 C 
ATOM     10  C3' I4B d   1       4.109   2.842   2.256  0.00  0.00     0.013 C 
ENDBRANCH   7   8
ENDBRANCH   1   7
TORSDOF 2
ENDMDL
