MODEL 1
REMARK minimizedAffinity 0.989364922
REMARK minimizedRMSD -1
REMARK  2 active torsions:
REMARK  status: ('A' for Active; 'I' for Inactive)
REMARK    1  A    between atoms: C2'_3  and  C1'_4 
REMARK    2  A    between atoms: C1'_4  and  C1_5 
ROOT
ATOM      1  C1  I4B d   1      -1.924  -0.611   1.987  0.00  0.00    -0.075 A 
ATOM      2  C2  I4B d   1      -0.619  -0.800   1.606  0.00  0.00     0.003 A 
ATOM      3  C3  I4B d   1       0.009   0.121   0.732  0.00  0.00     0.002 A 
ATOM      4  C4  I4B d   1      -0.716   1.180   0.227  0.00  0.00    -0.004 A 
ATOM      5  C5  I4B d   1      -2.033   1.382   0.631  0.00  0.00     0.002 A 
ATOM      6  C6  I4B d   1      -2.637   0.488   1.527  0.00  0.00     0.003 A 
ENDROOT
BRANCH   1   7
ATOM      7  C1' I4B d   1      -2.566  -1.621   2.885  0.00  0.00     0.060 C 
BRANCH   7   8
ATOM      8  C2' I4B d   1      -3.842  -1.015   3.432  0.00  0.00    -0.013 C 
ATOM      9  C4' I4B d   1      -4.952  -2.031   3.479  0.00  0.00     0.013 C 
ATOM     10  C3' I4B d   1      -3.548  -0.471   4.799  0.00  0.00     0.013 C 
ENDBRANCH   7   8
ENDBRANCH   1   7
TORSDOF 2
ENDMDL
