MODEL 1
REMARK minimizedAffinity 1.54776454
REMARK minimizedRMSD -1
REMARK  2 active torsions:
REMARK  status: ('A' for Active; 'I' for Inactive)
REMARK    1  A    between atoms: C2'_3  and  C1'_4 
REMARK    2  A    between atoms: C1'_4  and  C1_5 
ROOT
ATOM      1  C1  I4B d   1      -2.689  -0.149   2.659  0.00  0.00    -0.075 A 
ATOM      2  C2  I4B d   1      -1.731  -1.132   2.644  0.00  0.00     0.003 A 
ATOM      3  C3  I4B d   1      -1.627  -2.043   3.722  0.00  0.00     0.002 A 
ATOM      4  C4  I4B d   1      -2.462  -1.905   4.812  0.00  0.00    -0.004 A 
ATOM      5  C5  I4B d   1      -3.448  -0.922   4.815  0.00  0.00     0.002 A 
ATOM      6  C6  I4B d   1      -3.571  -0.046   3.727  0.00  0.00     0.003 A 
ENDROOT
BRANCH   1   7
ATOM      7  C1' I4B d   1      -2.749   0.817   1.518  0.00  0.00     0.060 C 
BRANCH   7   8
ATOM      8  C2' I4B d   1      -1.329   1.121   1.089  0.00  0.00    -0.013 C 
ATOM      9  C4' I4B d   1      -1.005   0.467  -0.228  0.00  0.00     0.013 C 
ATOM     10  C3' I4B d   1      -1.180   2.611   1.004  0.00  0.00     0.013 C 
ENDBRANCH   7   8
ENDBRANCH   1   7
TORSDOF 2
ENDMDL
