MODEL 1
REMARK minimizedAffinity -0.0117854783
REMARK minimizedRMSD -1
REMARK  2 active torsions:
REMARK  status: ('A' for Active; 'I' for Inactive)
REMARK    1  A    between atoms: C2'_3  and  C1'_4 
REMARK    2  A    between atoms: C1'_4  and  C1_5 
ROOT
ATOM      1  C1  I4B d   1       2.702   3.224  -5.315  0.00  0.00    -0.075 A 
ATOM      2  C2  I4B d   1       2.673   2.820  -4.003  0.00  0.00     0.003 A 
ATOM      3  C3  I4B d   1       3.875   2.477  -3.337  0.00  0.00     0.002 A 
ATOM      4  C4  I4B d   1       5.068   2.503  -4.030  0.00  0.00    -0.004 A 
ATOM      5  C5  I4B d   1       5.097   2.935  -5.353  0.00  0.00     0.002 A 
ATOM      6  C6  I4B d   1       3.909   3.309  -5.996  0.00  0.00     0.003 A 
ENDROOT
BRANCH   1   7
ATOM      7  C1' I4B d   1       1.411   3.547  -5.998  0.00  0.00     0.060 C 
BRANCH   7   8
ATOM      8  C2' I4B d   1       0.285   2.969  -5.165  0.00  0.00    -0.013 C 
ATOM      9  C4' I4B d   1       0.093   3.749  -3.891  0.00  0.00     0.013 C 
ATOM     10  C3' I4B d   1      -0.961   2.981  -5.999  0.00  0.00     0.013 C 
ENDBRANCH   7   8
ENDBRANCH   1   7
TORSDOF 2
ENDMDL
