MODEL 1
REMARK minimizedAffinity 8.87460709
REMARK minimizedRMSD -1
REMARK  2 active torsions:
REMARK  status: ('A' for Active; 'I' for Inactive)
REMARK    1  A    between atoms: C2'_3  and  C1'_4 
REMARK    2  A    between atoms: C1'_4  and  C1_5 
ROOT
ATOM      1  C1  I4B d   1       0.214  -3.102  -1.380  0.00  0.00    -0.075 A 
ATOM      2  C2  I4B d   1      -1.141  -3.288  -1.266  0.00  0.00     0.003 A 
ATOM      3  C3  I4B d   1      -1.837  -4.064  -2.225  0.00  0.00     0.002 A 
ATOM      4  C4  I4B d   1      -1.151  -4.589  -3.301  0.00  0.00    -0.004 A 
ATOM      5  C5  I4B d   1       0.226  -4.418  -3.403  0.00  0.00     0.002 A 
ATOM      6  C6  I4B d   1       0.916  -3.680  -2.430  0.00  0.00     0.003 A 
ENDROOT
BRANCH   1   7
ATOM      7  C1' I4B d   1       0.912  -2.250  -0.368  0.00  0.00     0.060 C 
BRANCH   7   8
ATOM      8  C2' I4B d   1      -0.137  -1.685   0.569  0.00  0.00    -0.013 C 
ATOM      9  C4' I4B d   1      -0.030  -2.298   1.940  0.00  0.00     0.013 C 
ATOM     10  C3' I4B d   1       0.046  -0.197   0.626  0.00  0.00     0.013 C 
ENDBRANCH   7   8
ENDBRANCH   1   7
TORSDOF 2
ENDMDL
