MODEL 1
REMARK minimizedAffinity -5.37866259
REMARK minimizedRMSD -1
REMARK  0 active torsions:
REMARK  status: ('A' for Active; 'I' for Inactive)
ROOT
ATOM      1  C   UNL d   1      -5.249  -3.672  -6.000  0.00  0.00     0.077 C 
ATOM      2  C1  UNL d   1      -3.871  -3.675  -5.406  0.00  0.00    -0.074 A 
ATOM      3  C2  UNL d   1      -3.466  -2.667  -4.526  0.00  0.00    -0.005 A 
ATOM      4  C3  UNL d   1      -2.185  -2.688  -3.974  0.00  0.00     0.006 A 
ATOM      5  C4  UNL d   1      -1.298  -3.717  -4.296  0.00  0.00    -0.005 A 
ATOM      6  C5  UNL d   1      -1.687  -4.734  -5.173  0.00  0.00    -0.074 A 
ATOM      7  C6  UNL d   1      -0.750  -5.852  -5.522  0.00  0.00     0.077 C 
ATOM      8  C7  UNL d   1      -2.978  -4.709  -5.718  0.00  0.00    -0.001 A 
ENDROOT
TORSDOF 0
ENDMDL
