MODEL 1
REMARK minimizedAffinity -5.18853569
REMARK minimizedRMSD -1
REMARK  0 active torsions:
REMARK  status: ('A' for Active; 'I' for Inactive)
ROOT
ATOM      1  C   UNL d   1      -3.064   1.490  -5.643  0.00  0.00     0.077 C 
ATOM      2  C1  UNL d   1      -3.524   0.063  -5.667  0.00  0.00    -0.074 A 
ATOM      3  C2  UNL d   1      -4.884  -0.253  -5.750  0.00  0.00    -0.005 A 
ATOM      4  C3  UNL d   1      -5.297  -1.585  -5.781  0.00  0.00     0.006 A 
ATOM      5  C4  UNL d   1      -4.355  -2.613  -5.729  0.00  0.00    -0.005 A 
ATOM      6  C5  UNL d   1      -2.991  -2.317  -5.647  0.00  0.00    -0.074 A 
ATOM      7  C6  UNL d   1      -1.966  -3.411  -5.600  0.00  0.00     0.077 C 
ATOM      8  C7  UNL d   1      -2.584  -0.976  -5.623  0.00  0.00    -0.001 A 
ENDROOT
TORSDOF 0
ENDMDL
