MODEL 1
REMARK minimizedAffinity 5.32515669
REMARK minimizedRMSD -1
REMARK  0 active torsions:
REMARK  status: ('A' for Active; 'I' for Inactive)
ROOT
ATOM      1  C   UNL d   1      -0.222  -0.269  -2.761  0.00  0.00     0.077 C 
ATOM      2  C1  UNL d   1       0.170  -0.076  -1.326  0.00  0.00    -0.074 A 
ATOM      3  C2  UNL d   1      -0.116  -1.052  -0.366  0.00  0.00    -0.005 A 
ATOM      4  C3  UNL d   1       0.263  -0.863   0.963  0.00  0.00     0.006 A 
ATOM      5  C4  UNL d   1       0.931   0.302   1.345  0.00  0.00    -0.005 A 
ATOM      6  C5  UNL d   1       1.225   1.288   0.398  0.00  0.00    -0.074 A 
ATOM      7  C6  UNL d   1       1.951   2.541   0.789  0.00  0.00     0.077 C 
ATOM      8  C7  UNL d   1       0.847   1.088  -0.937  0.00  0.00    -0.001 A 
ENDROOT
TORSDOF 0
ENDMDL
