MODEL 1
REMARK minimizedAffinity 5.07892513
REMARK minimizedRMSD -1
REMARK  0 active torsions:
REMARK  status: ('A' for Active; 'I' for Inactive)
ROOT
ATOM      1  C   UNL d   1      -1.503  -2.889  -3.943  0.00  0.00     0.077 C 
ATOM      2  C1  UNL d   1      -2.882  -2.953  -4.530  0.00  0.00    -0.074 A 
ATOM      3  C2  UNL d   1      -3.305  -4.074  -5.252  0.00  0.00    -0.005 A 
ATOM      4  C3  UNL d   1      -4.593  -4.124  -5.784  0.00  0.00     0.006 A 
ATOM      5  C4  UNL d   1      -5.471  -3.054  -5.600  0.00  0.00    -0.005 A 
ATOM      6  C5  UNL d   1      -5.066  -1.925  -4.881  0.00  0.00    -0.074 A 
ATOM      7  C6  UNL d   1      -6.000  -0.771  -4.666  0.00  0.00     0.077 C 
ATOM      8  C7  UNL d   1      -3.772  -1.886  -4.343  0.00  0.00    -0.001 A 
ENDROOT
TORSDOF 0
ENDMDL
