MODEL 1
REMARK minimizedAffinity -3.44850779
REMARK minimizedRMSD -1
REMARK  0 active torsions:
REMARK  status: ('A' for Active; 'I' for Inactive)
ROOT
ATOM      1  C   UNL d   1      -1.509  -4.136  -4.870  0.00  0.00     0.077 C 
ATOM      2  C1  UNL d   1      -2.862  -3.627  -5.270  0.00  0.00    -0.074 A 
ATOM      3  C2  UNL d   1      -3.934  -4.505  -5.458  0.00  0.00    -0.005 A 
ATOM      4  C3  UNL d   1      -5.189  -4.016  -5.821  0.00  0.00     0.006 A 
ATOM      5  C4  UNL d   1      -5.384  -2.646  -6.000  0.00  0.00    -0.005 A 
ATOM      6  C5  UNL d   1      -4.325  -1.752  -5.815  0.00  0.00    -0.074 A 
ATOM      7  C6  UNL d   1      -4.520  -0.276  -5.993  0.00  0.00     0.077 C 
ATOM      8  C7  UNL d   1      -3.069  -2.251  -5.444  0.00  0.00    -0.001 A 
ENDROOT
TORSDOF 0
ENDMDL
