MODEL 1
REMARK minimizedAffinity 6.07304716
REMARK minimizedRMSD -1
REMARK  0 active torsions:
REMARK  status: ('A' for Active; 'I' for Inactive)
ROOT
ATOM      1  C   UNL d   1       2.270   3.060   0.310  0.00  0.00     0.077 C 
ATOM      2  C1  UNL d   1       1.493   1.839  -0.086  0.00  0.00    -0.074 A 
ATOM      3  C2  UNL d   1       1.391   0.742   0.776  0.00  0.00    -0.005 A 
ATOM      4  C3  UNL d   1       0.657  -0.383   0.399  0.00  0.00     0.006 A 
ATOM      5  C4  UNL d   1       0.020  -0.422  -0.842  0.00  0.00    -0.005 A 
ATOM      6  C5  UNL d   1       0.111   0.666  -1.717  0.00  0.00    -0.074 A 
ATOM      7  C6  UNL d   1      -0.576   0.644  -3.050  0.00  0.00     0.077 C 
ATOM      8  C7  UNL d   1       0.844   1.795  -1.327  0.00  0.00    -0.001 A 
ENDROOT
TORSDOF 0
ENDMDL
