MODEL 1
REMARK minimizedAffinity 4.49984598
REMARK minimizedRMSD -1
REMARK  0 active torsions:
REMARK  status: ('A' for Active; 'I' for Inactive)
ROOT
ATOM      1  C   UNL d   1       5.358  -5.239  -3.475  0.00  0.00     0.077 C 
ATOM      2  C1  UNL d   1       5.130  -3.789  -3.780  0.00  0.00    -0.074 A 
ATOM      3  C2  UNL d   1       4.987  -3.345  -5.099  0.00  0.00    -0.005 A 
ATOM      4  C3  UNL d   1       4.766  -1.994  -5.367  0.00  0.00     0.006 A 
ATOM      5  C4  UNL d   1       4.685  -1.075  -4.321  0.00  0.00    -0.005 A 
ATOM      6  C5  UNL d   1       4.824  -1.500  -2.996  0.00  0.00    -0.074 A 
ATOM      7  C6  UNL d   1       4.729  -0.526  -1.859  0.00  0.00     0.077 C 
ATOM      8  C7  UNL d   1       5.039  -2.860  -2.734  0.00  0.00    -0.001 A 
ENDROOT
TORSDOF 0
ENDMDL
