MODEL 1
REMARK minimizedAffinity -2.70214295
REMARK minimizedRMSD -1
REMARK  0 active torsions:
REMARK  status: ('A' for Active; 'I' for Inactive)
ROOT
ATOM      1  C   UNL d   1      -5.652   1.864  -5.962  0.00  0.00     0.077 C 
ATOM      2  C1  UNL d   1      -5.128   3.269  -5.957  0.00  0.00    -0.074 A 
ATOM      3  C2  UNL d   1      -6.000   4.362  -5.912  0.00  0.00    -0.005 A 
ATOM      4  C3  UNL d   1      -5.497   5.663  -5.898  0.00  0.00     0.006 A 
ATOM      5  C4  UNL d   1      -4.120   5.885  -5.929  0.00  0.00    -0.005 A 
ATOM      6  C5  UNL d   1      -3.232   4.805  -5.973  0.00  0.00    -0.074 A 
ATOM      7  C6  UNL d   1      -1.749   5.025  -5.997  0.00  0.00     0.077 C 
ATOM      8  C7  UNL d   1      -3.745   3.500  -5.980  0.00  0.00    -0.001 A 
ENDROOT
TORSDOF 0
ENDMDL
