MODEL 1
REMARK minimizedAffinity 3.57378435
REMARK minimizedRMSD -1
REMARK  0 active torsions:
REMARK  status: ('A' for Active; 'I' for Inactive)
ROOT
ATOM      1  C   UNL d   1      -1.300   2.683  -4.362  0.00  0.00     0.077 C 
ATOM      2  C1  UNL d   1      -2.219   3.745  -4.888  0.00  0.00    -0.074 A 
ATOM      3  C2  UNL d   1      -1.742   5.024  -5.189  0.00  0.00    -0.005 A 
ATOM      4  C3  UNL d   1      -2.608   5.998  -5.687  0.00  0.00     0.006 A 
ATOM      5  C4  UNL d   1      -3.957   5.703  -5.889  0.00  0.00    -0.005 A 
ATOM      6  C5  UNL d   1      -4.451   4.429  -5.595  0.00  0.00    -0.074 A 
ATOM      7  C6  UNL d   1      -5.896   4.092  -5.815  0.00  0.00     0.077 C 
ATOM      8  C7  UNL d   1      -3.574   3.453  -5.102  0.00  0.00    -0.001 A 
ENDROOT
TORSDOF 0
ENDMDL
