MODEL 1
REMARK minimizedAffinity -2.07134128
REMARK minimizedRMSD -1
REMARK  0 active torsions:
REMARK  status: ('A' for Active; 'I' for Inactive)
ROOT
ATOM      1  C   UNL d   1      -2.596  -0.726  -6.000  0.00  0.00     0.077 C 
ATOM      2  C1  UNL d   1      -2.782  -2.151  -5.569  0.00  0.00    -0.074 A 
ATOM      3  C2  UNL d   1      -1.832  -2.789  -4.766  0.00  0.00    -0.005 A 
ATOM      4  C3  UNL d   1      -2.024  -4.111  -4.365  0.00  0.00     0.006 A 
ATOM      5  C4  UNL d   1      -3.166  -4.808  -4.763  0.00  0.00    -0.005 A 
ATOM      6  C5  UNL d   1      -4.127  -4.185  -5.566  0.00  0.00    -0.074 A 
ATOM      7  C6  UNL d   1      -5.365  -4.916  -5.995  0.00  0.00     0.077 C 
ATOM      8  C7  UNL d   1      -3.931  -2.854  -5.958  0.00  0.00    -0.001 A 
ENDROOT
TORSDOF 0
ENDMDL
