MODEL 1
REMARK minimizedAffinity -1.41726685
REMARK minimizedRMSD -1
REMARK  0 active torsions:
REMARK  status: ('A' for Active; 'I' for Inactive)
ROOT
ATOM      1  C   UNL d   1      -5.247   1.425  -5.866  0.00  0.00     0.077 C 
ATOM      2  C1  UNL d   1      -4.781   2.850  -5.880  0.00  0.00    -0.074 A 
ATOM      3  C2  UNL d   1      -5.693   3.904  -5.996  0.00  0.00    -0.005 A 
ATOM      4  C3  UNL d   1      -5.245   5.225  -5.998  0.00  0.00     0.006 A 
ATOM      5  C4  UNL d   1      -3.883   5.505  -5.884  0.00  0.00    -0.005 A 
ATOM      6  C5  UNL d   1      -2.956   4.465  -5.766  0.00  0.00    -0.074 A 
ATOM      7  C6  UNL d   1      -1.490   4.749  -5.632  0.00  0.00     0.077 C 
ATOM      8  C7  UNL d   1      -3.415   3.140  -5.758  0.00  0.00    -0.001 A 
ENDROOT
TORSDOF 0
ENDMDL
