MODEL 1
REMARK minimizedAffinity 3.18013382
REMARK minimizedRMSD -1
REMARK  0 active torsions:
REMARK  status: ('A' for Active; 'I' for Inactive)
ROOT
ATOM      1  C   UNL d   1       0.894   2.062  -0.785  0.00  0.00     0.077 C 
ATOM      2  C1  UNL d   1       0.399   0.667  -0.546  0.00  0.00    -0.074 A 
ATOM      3  C2  UNL d   1       0.352   0.133   0.746  0.00  0.00    -0.005 A 
ATOM      4  C3  UNL d   1      -0.120  -1.163   0.955  0.00  0.00     0.006 A 
ATOM      5  C4  UNL d   1      -0.549  -1.937  -0.124  0.00  0.00    -0.005 A 
ATOM      6  C5  UNL d   1      -0.510  -1.419  -1.423  0.00  0.00    -0.074 A 
ATOM      7  C6  UNL d   1      -0.977  -2.234  -2.593  0.00  0.00     0.077 C 
ATOM      8  C7  UNL d   1      -0.042  -0.114  -1.624  0.00  0.00    -0.001 A 
ENDROOT
TORSDOF 0
ENDMDL
