MODEL 1
REMARK minimizedAffinity -3.30402279
REMARK minimizedRMSD -1
REMARK  0 active torsions:
REMARK  status: ('A' for Active; 'I' for Inactive)
ROOT
ATOM      1  C   UNL d   1      -1.536  -2.187  -3.001  0.00  0.00     0.077 C 
ATOM      2  C1  UNL d   1      -2.417  -2.999  -3.903  0.00  0.00    -0.074 A 
ATOM      3  C2  UNL d   1      -2.157  -4.353  -4.134  0.00  0.00    -0.005 A 
ATOM      4  C3  UNL d   1      -2.991  -5.098  -4.968  0.00  0.00     0.006 A 
ATOM      5  C4  UNL d   1      -4.092  -4.496  -5.579  0.00  0.00    -0.005 A 
ATOM      6  C5  UNL d   1      -4.369  -3.143  -5.359  0.00  0.00    -0.074 A 
ATOM      7  C6  UNL d   1      -5.554  -2.483  -5.999  0.00  0.00     0.077 C 
ATOM      8  C7  UNL d   1      -3.530  -2.403  -4.514  0.00  0.00    -0.001 A 
ENDROOT
TORSDOF 0
ENDMDL
