MODEL 1
REMARK minimizedAffinity -2.16368365
REMARK minimizedRMSD -1
REMARK  0 active torsions:
REMARK  status: ('A' for Active; 'I' for Inactive)
ROOT
ATOM      1  C   UNL d   1      -5.491   0.663  -5.968  0.00  0.00     0.077 C 
ATOM      2  C1  UNL d   1      -5.020   2.087  -5.985  0.00  0.00    -0.074 A 
ATOM      3  C2  UNL d   1      -5.934   3.146  -5.983  0.00  0.00    -0.005 A 
ATOM      4  C3  UNL d   1      -5.481   4.465  -5.989  0.00  0.00     0.006 A 
ATOM      5  C4  UNL d   1      -4.112   4.738  -5.998  0.00  0.00    -0.005 A 
ATOM      6  C5  UNL d   1      -3.184   3.692  -6.000  0.00  0.00    -0.074 A 
ATOM      7  C6  UNL d   1      -1.710   3.968  -6.000  0.00  0.00     0.077 C 
ATOM      8  C7  UNL d   1      -3.647   2.369  -5.986  0.00  0.00    -0.001 A 
ENDROOT
TORSDOF 0
ENDMDL
