MODEL 1
REMARK minimizedAffinity 0.424564213
REMARK minimizedRMSD -1
REMARK  0 active torsions:
REMARK  status: ('A' for Active; 'I' for Inactive)
ROOT
ATOM      1  C   UNL d   1      -1.722  -2.808  -4.133  0.00  0.00     0.077 C 
ATOM      2  C1  UNL d   1      -1.298  -2.354  -2.768  0.00  0.00    -0.074 A 
ATOM      3  C2  UNL d   1      -1.576  -3.126  -1.635  0.00  0.00    -0.005 A 
ATOM      4  C3  UNL d   1      -1.167  -2.695  -0.373  0.00  0.00     0.006 A 
ATOM      5  C4  UNL d   1      -0.476  -1.492  -0.231  0.00  0.00    -0.005 A 
ATOM      6  C5  UNL d   1      -0.187  -0.707  -1.353  0.00  0.00    -0.074 A 
ATOM      7  C6  UNL d   1       0.564   0.584  -1.219  0.00  0.00     0.077 C 
ATOM      8  C7  UNL d   1      -0.596  -1.150  -2.618  0.00  0.00    -0.001 A 
ENDROOT
TORSDOF 0
ENDMDL
