MODEL 1
REMARK minimizedAffinity 3.82624149
REMARK minimizedRMSD -1
REMARK  0 active torsions:
REMARK  status: ('A' for Active; 'I' for Inactive)
ROOT
ATOM      1  C   UNL d   1      -0.702  -1.420  -3.456  0.00  0.00     0.077 C 
ATOM      2  C1  UNL d   1      -1.498  -2.601  -3.926  0.00  0.00    -0.074 A 
ATOM      3  C2  UNL d   1      -0.983  -3.898  -3.834  0.00  0.00    -0.005 A 
ATOM      4  C3  UNL d   1      -1.738  -4.987  -4.266  0.00  0.00     0.006 A 
ATOM      5  C4  UNL d   1      -3.015  -4.791  -4.795  0.00  0.00    -0.005 A 
ATOM      6  C5  UNL d   1      -3.547  -3.502  -4.895  0.00  0.00    -0.074 A 
ATOM      7  C6  UNL d   1      -4.921  -3.275  -5.452  0.00  0.00     0.077 C 
ATOM      8  C7  UNL d   1      -2.784  -2.413  -4.451  0.00  0.00    -0.001 A 
ENDROOT
TORSDOF 0
ENDMDL
