MODEL 1
REMARK minimizedAffinity -0.318414956
REMARK minimizedRMSD -1
REMARK  0 active torsions:
REMARK  status: ('A' for Active; 'I' for Inactive)
ROOT
ATOM      1  C   UNL d   1       2.068   5.983   1.886  0.00  0.00     0.077 C 
ATOM      2  C1  UNL d   1       2.427   4.565   2.220  0.00  0.00    -0.074 A 
ATOM      3  C2  UNL d   1       3.421   4.278   3.161  0.00  0.00    -0.005 A 
ATOM      4  C3  UNL d   1       3.737   2.954   3.467  0.00  0.00     0.006 A 
ATOM      5  C4  UNL d   1       3.064   1.907   2.837  0.00  0.00    -0.005 A 
ATOM      6  C5  UNL d   1       2.066   2.175   1.895  0.00  0.00    -0.074 A 
ATOM      7  C6  UNL d   1       1.326   1.061   1.216  0.00  0.00     0.077 C 
ATOM      8  C7  UNL d   1       1.749   3.508   1.597  0.00  0.00    -0.001 A 
ENDROOT
TORSDOF 0
ENDMDL
