MODEL 1
REMARK minimizedAffinity -2.41065407
REMARK minimizedRMSD -1
REMARK  0 active torsions:
REMARK  status: ('A' for Active; 'I' for Inactive)
ROOT
ATOM      1  C1  BNZ d   1      -0.905   0.090   0.964  0.00  0.00     0.000 A 
ATOM      2  C2  BNZ d   1      -1.142  -0.992   1.769  0.00  0.00     0.000 A 
ATOM      3  C3  BNZ d   1      -0.494  -2.177   1.556  0.00  0.00     0.000 A 
ATOM      4  C4  BNZ d   1       0.359  -2.289   0.517  0.00  0.00     0.000 A 
ATOM      5  C5  BNZ d   1       0.601  -1.209  -0.308  0.00  0.00     0.000 A 
ATOM      6  C6  BNZ d   1      -0.024  -0.007  -0.068  0.00  0.00     0.000 A 
ENDROOT
TORSDOF 0
ENDMDL
