MODEL 1
REMARK minimizedAffinity -2.72313857
REMARK minimizedRMSD -1
REMARK  0 active torsions:
REMARK  status: ('A' for Active; 'I' for Inactive)
ROOT
ATOM      1  C1  BNZ d   1       2.490   2.246  -3.212  0.00  0.00     0.000 A 
ATOM      2  C2  BNZ d   1       2.473   2.041  -1.858  0.00  0.00     0.000 A 
ATOM      3  C3  BNZ d   1       1.305   2.117  -1.153  0.00  0.00     0.000 A 
ATOM      4  C4  BNZ d   1       0.163   2.438  -1.794  0.00  0.00     0.000 A 
ATOM      5  C5  BNZ d   1       0.165   2.656  -3.158  0.00  0.00     0.000 A 
ATOM      6  C6  BNZ d   1       1.336   2.540  -3.871  0.00  0.00     0.000 A 
ENDROOT
TORSDOF 0
ENDMDL
