MODEL 1
REMARK minimizedAffinity -3.81643772
REMARK minimizedRMSD -1
REMARK  0 active torsions:
REMARK  status: ('A' for Active; 'I' for Inactive)
ROOT
ATOM      1  C1  BNZ d   1      -0.525   0.686   0.391  0.00  0.00     0.000 A 
ATOM      2  C2  BNZ d   1      -1.445  -0.259   0.760  0.00  0.00     0.000 A 
ATOM      3  C3  BNZ d   1      -1.067  -1.552   0.988  0.00  0.00     0.000 A 
ATOM      4  C4  BNZ d   1       0.221  -1.908   0.810  0.00  0.00     0.000 A 
ATOM      5  C5  BNZ d   1       1.159  -0.969   0.429  0.00  0.00     0.000 A 
ATOM      6  C6  BNZ d   1       0.783   0.340   0.238  0.00  0.00     0.000 A 
ENDROOT
TORSDOF 0
ENDMDL
