MODEL 1
REMARK minimizedAffinity -2.34152341
REMARK minimizedRMSD -1
REMARK  0 active torsions:
REMARK  status: ('A' for Active; 'I' for Inactive)
ROOT
ATOM      1  C1  BNZ d   1      -1.053  -1.487   1.495  0.00  0.00     0.000 A 
ATOM      2  C2  BNZ d   1      -1.331  -0.216   1.070  0.00  0.00     0.000 A 
ATOM      3  C3  BNZ d   1      -0.449   0.465   0.278  0.00  0.00     0.000 A 
ATOM      4  C4  BNZ d   1       0.726  -0.109  -0.052  0.00  0.00     0.000 A 
ATOM      5  C5  BNZ d   1       1.024  -1.387   0.377  0.00  0.00     0.000 A 
ATOM      6  C6  BNZ d   1       0.117  -2.085   1.141  0.00  0.00     0.000 A 
ENDROOT
TORSDOF 0
ENDMDL
