MODEL 1
REMARK minimizedAffinity -2.50289249
REMARK minimizedRMSD -1
REMARK  0 active torsions:
REMARK  status: ('A' for Active; 'I' for Inactive)
ROOT
ATOM      1  C1  BNZ d   1      -0.493  -2.467   0.919  0.00  0.00     0.000 A 
ATOM      2  C2  BNZ d   1      -0.094  -1.531   0.003  0.00  0.00     0.000 A 
ATOM      3  C3  BNZ d   1      -0.614  -0.267   0.022  0.00  0.00     0.000 A 
ATOM      4  C4  BNZ d   1      -1.559   0.048   0.931  0.00  0.00     0.000 A 
ATOM      5  C5  BNZ d   1      -1.979  -0.887   1.856  0.00  0.00     0.000 A 
ATOM      6  C6  BNZ d   1      -1.426  -2.147   1.858  0.00  0.00     0.000 A 
ENDROOT
TORSDOF 0
ENDMDL
