MODEL 1
REMARK minimizedAffinity -3.06899881
REMARK minimizedRMSD -1
REMARK  0 active torsions:
REMARK  status: ('A' for Active; 'I' for Inactive)
ROOT
ATOM      1  C1  BNZ d   1      -1.353  -2.207   0.347  0.00  0.00     0.000 A 
ATOM      2  C2  BNZ d   1      -1.078  -1.802  -0.932  0.00  0.00     0.000 A 
ATOM      3  C3  BNZ d   1      -0.282  -0.717  -1.167  0.00  0.00     0.000 A 
ATOM      4  C4  BNZ d   1       0.206  -0.014  -0.124  0.00  0.00     0.000 A 
ATOM      5  C5  BNZ d   1      -0.070  -0.403   1.172  0.00  0.00     0.000 A 
ATOM      6  C6  BNZ d   1      -0.841  -1.519   1.404  0.00  0.00     0.000 A 
ENDROOT
TORSDOF 0
ENDMDL
