MODEL 1
REMARK minimizedAffinity -3.57220435
REMARK minimizedRMSD -1
REMARK  0 active torsions:
REMARK  status: ('A' for Active; 'I' for Inactive)
ROOT
ATOM      1  C1  BNZ d   1      -1.213   0.186   0.917  0.00  0.00     0.000 A 
ATOM      2  C2  BNZ d   1      -1.853  -0.603   1.835  0.00  0.00     0.000 A 
ATOM      3  C3  BNZ d   1      -1.434  -1.882   2.072  0.00  0.00     0.000 A 
ATOM      4  C4  BNZ d   1      -0.402  -2.384   1.363  0.00  0.00     0.000 A 
ATOM      5  C5  BNZ d   1       0.248  -1.604   0.427  0.00  0.00     0.000 A 
ATOM      6  C6  BNZ d   1      -0.153  -0.304   0.219  0.00  0.00     0.000 A 
ENDROOT
TORSDOF 0
ENDMDL
