MODEL 1
REMARK minimizedAffinity -2.2798171
REMARK minimizedRMSD -1
REMARK  0 active torsions:
REMARK  status: ('A' for Active; 'I' for Inactive)
ROOT
ATOM      1  C1  BNZ d   1       1.678  -1.273  -0.087  0.00  0.00     0.000 A 
ATOM      2  C2  BNZ d   1       1.892  -0.069  -0.703  0.00  0.00     0.000 A 
ATOM      3  C3  BNZ d   1       0.958   0.926  -0.639  0.00  0.00     0.000 A 
ATOM      4  C4  BNZ d   1      -0.205   0.703   0.007  0.00  0.00     0.000 A 
ATOM      5  C5  BNZ d   1      -0.440  -0.509   0.626  0.00  0.00     0.000 A 
ATOM      6  C6  BNZ d   1       0.519  -1.495   0.592  0.00  0.00     0.000 A 
ENDROOT
TORSDOF 0
ENDMDL
