MODEL 1
REMARK minimizedAffinity -4.07009745
REMARK minimizedRMSD -1
REMARK  0 active torsions:
REMARK  status: ('A' for Active; 'I' for Inactive)
ROOT
ATOM      1  C1  BNZ d   1       1.260  -1.063   0.189  0.00  0.00     0.000 A 
ATOM      2  C2  BNZ d   1       0.207  -1.860   0.552  0.00  0.00     0.000 A 
ATOM      3  C3  BNZ d   1      -1.029  -1.324   0.784  0.00  0.00     0.000 A 
ATOM      4  C4  BNZ d   1      -1.201   0.010   0.692  0.00  0.00     0.000 A 
ATOM      5  C5  BNZ d   1      -0.147   0.828   0.336  0.00  0.00     0.000 A 
ATOM      6  C6  BNZ d   1       1.086   0.281   0.065  0.00  0.00     0.000 A 
ENDROOT
TORSDOF 0
ENDMDL
