MODEL 1
REMARK minimizedAffinity -3.54172015
REMARK minimizedRMSD -1
REMARK  0 active torsions:
REMARK  status: ('A' for Active; 'I' for Inactive)
ROOT
ATOM      1  C1  BNZ d   1       0.386   1.382  -0.403  0.00  0.00     0.000 A 
ATOM      2  C2  BNZ d   1       0.361   0.226   0.332  0.00  0.00     0.000 A 
ATOM      3  C3  BNZ d   1       0.361  -0.995  -0.283  0.00  0.00     0.000 A 
ATOM      4  C4  BNZ d   1       0.344  -1.058  -1.630  0.00  0.00     0.000 A 
ATOM      5  C5  BNZ d   1       0.359   0.098  -2.385  0.00  0.00     0.000 A 
ATOM      6  C6  BNZ d   1       0.399   1.324  -1.762  0.00  0.00     0.000 A 
ENDROOT
TORSDOF 0
ENDMDL
