MODEL 1
REMARK minimizedAffinity -4.3868866
REMARK minimizedRMSD -1
REMARK  0 active torsions:
REMARK  status: ('A' for Active; 'I' for Inactive)
ROOT
ATOM      1  C1  BNZ d   1      -0.156  -0.033   0.743  0.00  0.00     0.000 A 
ATOM      2  C2  BNZ d   1      -0.102  -1.341   1.146  0.00  0.00     0.000 A 
ATOM      3  C3  BNZ d   1       0.229  -2.332   0.264  0.00  0.00     0.000 A 
ATOM      4  C4  BNZ d   1       0.465  -2.019  -1.026  0.00  0.00     0.000 A 
ATOM      5  C5  BNZ d   1       0.406  -0.707  -1.450  0.00  0.00     0.000 A 
ATOM      6  C6  BNZ d   1       0.110   0.293  -0.551  0.00  0.00     0.000 A 
ENDROOT
TORSDOF 0
ENDMDL
