MODEL 1
REMARK minimizedAffinity -2.70110726
REMARK minimizedRMSD -1
REMARK  0 active torsions:
REMARK  status: ('A' for Active; 'I' for Inactive)
ROOT
ATOM      1  C1  BNZ d   1       1.004  -0.741   0.036  0.00  0.00     0.000 A 
ATOM      2  C2  BNZ d   1       0.056  -1.378   0.792  0.00  0.00     0.000 A 
ATOM      3  C3  BNZ d   1      -1.226  -0.906   0.850  0.00  0.00     0.000 A 
ATOM      4  C4  BNZ d   1      -1.548   0.223   0.186  0.00  0.00     0.000 A 
ATOM      5  C5  BNZ d   1      -0.601   0.881  -0.574  0.00  0.00     0.000 A 
ATOM      6  C6  BNZ d   1       0.678   0.381  -0.661  0.00  0.00     0.000 A 
ENDROOT
TORSDOF 0
ENDMDL
