MODEL 1
REMARK minimizedAffinity -3.84943986
REMARK minimizedRMSD -1
REMARK  0 active torsions:
REMARK  status: ('A' for Active; 'I' for Inactive)
ROOT
ATOM      1  C1  BNZ d   1      -1.419  -2.657   0.974  0.00  0.00     0.000 A 
ATOM      2  C2  BNZ d   1      -0.576  -1.989   0.127  0.00  0.00     0.000 A 
ATOM      3  C3  BNZ d   1      -0.627  -0.627   0.019  0.00  0.00     0.000 A 
ATOM      4  C4  BNZ d   1      -1.546   0.060   0.726  0.00  0.00     0.000 A 
ATOM      5  C5  BNZ d   1      -2.410  -0.600   1.577  0.00  0.00     0.000 A 
ATOM      6  C6  BNZ d   1      -2.330  -1.967   1.713  0.00  0.00     0.000 A 
ENDROOT
TORSDOF 0
ENDMDL
