MODEL 1
REMARK minimizedAffinity -2.25322914
REMARK minimizedRMSD -1
REMARK  0 active torsions:
REMARK  status: ('A' for Active; 'I' for Inactive)
ROOT
ATOM      1  C1  BNZ d   1       0.280  -3.021   0.425  0.00  0.00     0.000 A 
ATOM      2  C2  BNZ d   1       0.692  -2.254  -0.632  0.00  0.00     0.000 A 
ATOM      3  C3  BNZ d   1       0.621  -0.890  -0.577  0.00  0.00     0.000 A 
ATOM      4  C4  BNZ d   1       0.102  -0.296   0.517  0.00  0.00     0.000 A 
ATOM      5  C5  BNZ d   1      -0.326  -1.056   1.588  0.00  0.00     0.000 A 
ATOM      6  C6  BNZ d   1      -0.218  -2.427   1.544  0.00  0.00     0.000 A 
ENDROOT
TORSDOF 0
ENDMDL
