MODEL 1
REMARK minimizedAffinity -4.70720625
REMARK minimizedRMSD -1
REMARK  0 active torsions:
REMARK  status: ('A' for Active; 'I' for Inactive)
ROOT
ATOM      1  C1  BNZ d   1      -1.210  -2.274  -0.316  0.00  0.00     0.000 A 
ATOM      2  C2  BNZ d   1      -0.375  -1.642  -1.198  0.00  0.00     0.000 A 
ATOM      3  C3  BNZ d   1      -0.106  -0.308  -1.074  0.00  0.00     0.000 A 
ATOM      4  C4  BNZ d   1      -0.703   0.400  -0.093  0.00  0.00     0.000 A 
ATOM      5  C5  BNZ d   1      -1.554  -0.221   0.798  0.00  0.00     0.000 A 
ATOM      6  C6  BNZ d   1      -1.792  -1.572   0.694  0.00  0.00     0.000 A 
ENDROOT
TORSDOF 0
ENDMDL
