MODEL 1
REMARK minimizedAffinity -0.542074442
REMARK minimizedRMSD -1
REMARK  0 active torsions:
REMARK  status: ('A' for Active; 'I' for Inactive)
ROOT
ATOM      1  C   UNL d   1       0.085   2.450   1.502  0.00  0.00     0.078 C 
ATOM      2  C1  UNL d   1       0.120   1.138   0.776  0.00  0.00    -0.077 A 
ATOM      3  C2  UNL d   1       1.307   0.403   0.671  0.00  0.00    -0.001 A 
ATOM      4  C3  UNL d   1       1.327  -0.811  -0.016  0.00  0.00     0.003 A 
ATOM      5  C4  UNL d   1       0.163  -1.301  -0.605  0.00  0.00    -0.005 A 
ATOM      6  C5  UNL d   1      -1.022  -0.576  -0.507  0.00  0.00     0.003 A 
ATOM      7  C6  UNL d   1      -1.044   0.639   0.179  0.00  0.00    -0.001 A 
ENDROOT
TORSDOF 0
ENDMDL
