MODEL 1
REMARK minimizedAffinity -3.79471183
REMARK minimizedRMSD -1
REMARK  0 active torsions:
REMARK  status: ('A' for Active; 'I' for Inactive)
ROOT
ATOM      1  C   UNL d   1      -0.700   1.264   2.294  0.00  0.00     0.078 C 
ATOM      2  C1  UNL d   1      -0.068   0.525   1.152  0.00  0.00    -0.077 A 
ATOM      3  C2  UNL d   1      -0.786   0.259  -0.020  0.00  0.00    -0.001 A 
ATOM      4  C3  UNL d   1      -0.188  -0.439  -1.071  0.00  0.00     0.003 A 
ATOM      5  C4  UNL d   1       1.130  -0.877  -0.960  0.00  0.00    -0.005 A 
ATOM      6  C5  UNL d   1       1.851  -0.618   0.204  0.00  0.00     0.003 A 
ATOM      7  C6  UNL d   1       1.255   0.079   1.256  0.00  0.00    -0.001 A 
ENDROOT
TORSDOF 0
ENDMDL
