MODEL 1
REMARK minimizedAffinity -4.62198353
REMARK minimizedRMSD -1
REMARK  0 active torsions:
REMARK  status: ('A' for Active; 'I' for Inactive)
ROOT
ATOM      1  C   UNL d   1       1.516  -1.495  -0.056  0.00  0.00     0.078 C 
ATOM      2  C1  UNL d   1       0.355  -0.655   0.386  0.00  0.00    -0.077 A 
ATOM      3  C2  UNL d   1       0.550   0.482   1.181  0.00  0.00    -0.001 A 
ATOM      4  C3  UNL d   1      -0.541   1.249   1.594  0.00  0.00     0.003 A 
ATOM      5  C4  UNL d   1      -1.833   0.887   1.218  0.00  0.00    -0.005 A 
ATOM      6  C5  UNL d   1      -2.036  -0.243   0.430  0.00  0.00     0.003 A 
ATOM      7  C6  UNL d   1      -0.947  -1.012   0.016  0.00  0.00    -0.001 A 
ENDROOT
TORSDOF 0
ENDMDL
