MODEL 1
REMARK minimizedAffinity -4.27514696
REMARK minimizedRMSD -1
REMARK  0 active torsions:
REMARK  status: ('A' for Active; 'I' for Inactive)
ROOT
ATOM      1  C   UNL d   1       2.337  -0.360   1.509  0.00  0.00     0.078 C 
ATOM      2  C1  UNL d   1       0.885  -0.007   1.637  0.00  0.00    -0.077 A 
ATOM      3  C2  UNL d   1       0.442   0.875   2.629  0.00  0.00    -0.001 A 
ATOM      4  C3  UNL d   1      -0.914   1.187   2.743  0.00  0.00     0.003 A 
ATOM      5  C4  UNL d   1      -1.838   0.619   1.867  0.00  0.00    -0.005 A 
ATOM      6  C5  UNL d   1      -1.406  -0.262   0.878  0.00  0.00     0.003 A 
ATOM      7  C6  UNL d   1      -0.051  -0.575   0.763  0.00  0.00    -0.001 A 
ENDROOT
TORSDOF 0
ENDMDL
