MODEL 1
REMARK minimizedAffinity -0.331399232
REMARK minimizedRMSD -1
REMARK  0 active torsions:
REMARK  status: ('A' for Active; 'I' for Inactive)
ROOT
ATOM      1  C   UNL d   1       0.652  -0.394  -1.190  0.00  0.00     0.078 C 
ATOM      2  C1  UNL d   1      -0.094  -0.198   0.095  0.00  0.00    -0.077 A 
ATOM      3  C2  UNL d   1      -1.474   0.044   0.098  0.00  0.00    -0.001 A 
ATOM      4  C3  UNL d   1      -2.154   0.234   1.302  0.00  0.00     0.003 A 
ATOM      5  C4  UNL d   1      -1.464   0.185   2.511  0.00  0.00    -0.005 A 
ATOM      6  C5  UNL d   1      -0.091  -0.054   2.518  0.00  0.00     0.003 A 
ATOM      7  C6  UNL d   1       0.591  -0.244   1.316  0.00  0.00    -0.001 A 
ENDROOT
TORSDOF 0
ENDMDL
