MODEL 1
REMARK minimizedAffinity -5.13393307
REMARK minimizedRMSD -1
REMARK  0 active torsions:
REMARK  status: ('A' for Active; 'I' for Inactive)
ROOT
ATOM      1  C   UNL d   1       0.546  -0.675  -0.821  0.00  0.00     0.078 C 
ATOM      2  C1  UNL d   1       0.080   0.048   0.407  0.00  0.00    -0.077 A 
ATOM      3  C2  UNL d   1       0.945   0.882   1.126  0.00  0.00    -0.001 A 
ATOM      4  C3  UNL d   1       0.500   1.541   2.273  0.00  0.00     0.003 A 
ATOM      5  C4  UNL d   1      -0.812   1.371   2.713  0.00  0.00    -0.005 A 
ATOM      6  C5  UNL d   1      -1.680   0.542   2.005  0.00  0.00     0.003 A 
ATOM      7  C6  UNL d   1      -1.236  -0.118   0.858  0.00  0.00    -0.001 A 
ENDROOT
TORSDOF 0
ENDMDL
