MODEL 1
REMARK minimizedAffinity -2.31847739
REMARK minimizedRMSD -1
REMARK  0 active torsions:
REMARK  status: ('A' for Active; 'I' for Inactive)
ROOT
ATOM      1  C   UNL d   1       0.355  -0.240  -0.883  0.00  0.00     0.078 C 
ATOM      2  C1  UNL d   1      -0.179   0.558   0.269  0.00  0.00    -0.077 A 
ATOM      3  C2  UNL d   1       0.313   1.839   0.550  0.00  0.00    -0.001 A 
ATOM      4  C3  UNL d   1      -0.187   2.566   1.631  0.00  0.00     0.003 A 
ATOM      5  C4  UNL d   1      -1.182   2.021   2.440  0.00  0.00    -0.005 A 
ATOM      6  C5  UNL d   1      -1.677   0.747   2.170  0.00  0.00     0.003 A 
ATOM      7  C6  UNL d   1      -1.178   0.018   1.089  0.00  0.00    -0.001 A 
ENDROOT
TORSDOF 0
ENDMDL
