MODEL 1
REMARK minimizedAffinity -5.40350056
REMARK minimizedRMSD -1
REMARK  0 active torsions:
REMARK  status: ('A' for Active; 'I' for Inactive)
ROOT
ATOM      1  C   UNL d   1       0.678  -0.605  -0.952  0.00  0.00     0.078 C 
ATOM      2  C1  UNL d   1       0.115   0.057   0.270  0.00  0.00    -0.077 A 
ATOM      3  C2  UNL d   1       0.948   0.724   1.177  0.00  0.00    -0.001 A 
ATOM      4  C3  UNL d   1       0.412   1.327   2.316  0.00  0.00     0.003 A 
ATOM      5  C4  UNL d   1      -0.959   1.269   2.559  0.00  0.00    -0.005 A 
ATOM      6  C5  UNL d   1      -1.795   0.606   1.663  0.00  0.00     0.003 A 
ATOM      7  C6  UNL d   1      -1.261   0.002   0.524  0.00  0.00    -0.001 A 
ENDROOT
TORSDOF 0
ENDMDL
