MODEL 1
REMARK minimizedAffinity -1.18055248
REMARK minimizedRMSD -1
REMARK  0 active torsions:
REMARK  status: ('A' for Active; 'I' for Inactive)
ROOT
ATOM      1  C   UNL d   1       0.914   2.693   3.295  0.00  0.00     0.078 C 
ATOM      2  C1  UNL d   1       0.290   1.343   3.488  0.00  0.00    -0.077 A 
ATOM      3  C2  UNL d   1       0.476   0.626   4.676  0.00  0.00    -0.001 A 
ATOM      4  C3  UNL d   1      -0.103  -0.634   4.837  0.00  0.00     0.003 A 
ATOM      5  C4  UNL d   1      -0.869  -1.188   3.814  0.00  0.00    -0.005 A 
ATOM      6  C5  UNL d   1      -1.058  -0.483   2.627  0.00  0.00     0.003 A 
ATOM      7  C6  UNL d   1      -0.480   0.777   2.464  0.00  0.00    -0.001 A 
ENDROOT
TORSDOF 0
ENDMDL
