MODEL 1
REMARK minimizedAffinity -4.13376665
REMARK minimizedRMSD -1
REMARK  0 active torsions:
REMARK  status: ('A' for Active; 'I' for Inactive)
ROOT
ATOM      1  C   UNL d   1      -0.361   2.296   2.472  0.00  0.00     0.078 C 
ATOM      2  C1  UNL d   1      -0.543   1.277   1.387  0.00  0.00    -0.077 A 
ATOM      3  C2  UNL d   1      -1.609   0.369   1.422  0.00  0.00    -0.001 A 
ATOM      4  C3  UNL d   1      -1.760  -0.580   0.411  0.00  0.00     0.003 A 
ATOM      5  C4  UNL d   1      -0.850  -0.632  -0.643  0.00  0.00    -0.005 A 
ATOM      6  C5  UNL d   1       0.215   0.266  -0.685  0.00  0.00     0.003 A 
ATOM      7  C6  UNL d   1       0.368   1.216   0.326  0.00  0.00    -0.001 A 
ENDROOT
TORSDOF 0
ENDMDL
