MODEL 1
REMARK minimizedAffinity -5.27898836
REMARK minimizedRMSD -1
REMARK  0 active torsions:
REMARK  status: ('A' for Active; 'I' for Inactive)
ROOT
ATOM      1  C   UNL d   1      -0.357   1.614   3.429  0.00  0.00     0.078 C 
ATOM      2  C1  UNL d   1      -0.212   0.743   2.218  0.00  0.00    -0.077 A 
ATOM      3  C2  UNL d   1       1.046   0.290   1.802  0.00  0.00    -0.001 A 
ATOM      4  C3  UNL d   1       1.168  -0.512   0.666  0.00  0.00     0.003 A 
ATOM      5  C4  UNL d   1       0.035  -0.868  -0.063  0.00  0.00    -0.005 A 
ATOM      6  C5  UNL d   1      -1.220  -0.421   0.342  0.00  0.00     0.003 A 
ATOM      7  C6  UNL d   1      -1.344   0.382   1.477  0.00  0.00    -0.001 A 
ENDROOT
TORSDOF 0
ENDMDL
