MODEL 1
REMARK minimizedAffinity -3.48434424
REMARK minimizedRMSD -1
REMARK  0 active torsions:
REMARK  status: ('A' for Active; 'I' for Inactive)
ROOT
ATOM      1  C   UNL d   1      -0.739   1.837   2.722  0.00  0.00     0.078 C 
ATOM      2  C1  UNL d   1      -0.579   0.928   1.540  0.00  0.00    -0.077 A 
ATOM      3  C2  UNL d   1      -1.695   0.415   0.868  0.00  0.00    -0.001 A 
ATOM      4  C3  UNL d   1      -1.531  -0.438  -0.224  0.00  0.00     0.003 A 
ATOM      5  C4  UNL d   1      -0.252  -0.787  -0.654  0.00  0.00    -0.005 A 
ATOM      6  C5  UNL d   1       0.864  -0.283   0.010  0.00  0.00     0.003 A 
ATOM      7  C6  UNL d   1       0.702   0.570   1.102  0.00  0.00    -0.001 A 
ENDROOT
TORSDOF 0
ENDMDL
