MODEL 1
REMARK minimizedAffinity -1.48265767
REMARK minimizedRMSD -1
REMARK  1 active torsions:
REMARK  status: ('A' for Active; 'I' for Inactive)
REMARK    1  A    between atoms: C1_2  and  C2_3 
ROOT
ATOM      1  C2  UNL d   1      -2.029  -5.840  -3.621  0.00  0.00    -0.077 A 
ATOM      2  C3  UNL d   1      -0.903  -5.664  -2.805  0.00  0.00     0.002 A 
ATOM      3  C4  UNL d   1       0.358  -5.471  -3.374  0.00  0.00     0.002 A 
ATOM      4  C5  UNL d   1       0.503  -5.447  -4.759  0.00  0.00    -0.004 A 
ATOM      5  C6  UNL d   1      -0.611  -5.623  -5.579  0.00  0.00     0.002 A 
ATOM      6  C7  UNL d   1      -1.871  -5.818  -5.012  0.00  0.00     0.002 A 
ENDROOT
BRANCH   1   7
ATOM      7  C1  UNL d   1      -3.397  -6.000  -3.010  0.00  0.00     0.055 C 
ATOM      8  C   UNL d   1      -3.328  -6.000  -1.490  0.00  0.00     0.019 C 
ENDBRANCH   1   7
TORSDOF 1
ENDMDL
