MODEL 1
REMARK minimizedAffinity 4.60692501
REMARK minimizedRMSD -1
REMARK  1 active torsions:
REMARK  status: ('A' for Active; 'I' for Inactive)
REMARK    1  A    between atoms: C1_2  and  C2_3 
ROOT
ATOM      1  C2  UNL d   1       0.759  -1.483   0.092  0.00  0.00    -0.077 A 
ATOM      2  C3  UNL d   1       0.705  -1.044  -1.238  0.00  0.00     0.002 A 
ATOM      3  C4  UNL d   1       1.500   0.023  -1.663  0.00  0.00     0.002 A 
ATOM      4  C5  UNL d   1       2.356   0.656  -0.764  0.00  0.00    -0.004 A 
ATOM      5  C6  UNL d   1       2.415   0.228   0.561  0.00  0.00     0.002 A 
ATOM      6  C7  UNL d   1       1.620  -0.837   0.988  0.00  0.00     0.002 A 
ENDROOT
BRANCH   1   7
ATOM      7  C1  UNL d   1      -0.061  -2.665   0.540  0.00  0.00     0.055 C 
ATOM      8  C   UNL d   1       0.821  -3.764   1.115  0.00  0.00     0.019 C 
ENDBRANCH   1   7
TORSDOF 1
ENDMDL
