MODEL 1
REMARK minimizedAffinity -3.01361847
REMARK minimizedRMSD -1
REMARK  1 active torsions:
REMARK  status: ('A' for Active; 'I' for Inactive)
REMARK    1  A    between atoms: C1_2  and  C2_3 
ROOT
ATOM      1  C2  UNL d   1      -0.058  -5.972  -4.629  0.00  0.00    -0.077 A 
ATOM      2  C3  UNL d   1       0.591  -5.944  -3.387  0.00  0.00     0.002 A 
ATOM      3  C4  UNL d   1       1.986  -5.944  -3.319  0.00  0.00     0.002 A 
ATOM      4  C5  UNL d   1       2.742  -5.968  -4.489  0.00  0.00    -0.004 A 
ATOM      5  C6  UNL d   1       2.106  -5.998  -5.729  0.00  0.00     0.002 A 
ATOM      6  C7  UNL d   1       0.712  -5.999  -5.799  0.00  0.00     0.002 A 
ENDROOT
BRANCH   1   7
ATOM      7  C1  UNL d   1      -1.562  -5.922  -4.706  0.00  0.00     0.055 C 
ATOM      8  C   UNL d   1      -2.190  -5.993  -3.322  0.00  0.00     0.019 C 
ENDBRANCH   1   7
TORSDOF 1
ENDMDL
