MODEL 1
REMARK minimizedAffinity 0.99171555
REMARK minimizedRMSD -1
REMARK  1 active torsions:
REMARK  status: ('A' for Active; 'I' for Inactive)
REMARK    1  A    between atoms: C1_2  and  C2_3 
ROOT
ATOM      1  C2  UNL d   1      -0.231  -5.960  -3.596  0.00  0.00    -0.077 A 
ATOM      2  C3  UNL d   1       1.159  -5.961  -3.417  0.00  0.00     0.002 A 
ATOM      3  C4  UNL d   1       2.014  -5.982  -4.521  0.00  0.00     0.002 A 
ATOM      4  C5  UNL d   1       1.488  -5.998  -5.811  0.00  0.00    -0.004 A 
ATOM      5  C6  UNL d   1       0.106  -6.000  -6.000  0.00  0.00     0.002 A 
ATOM      6  C7  UNL d   1      -0.749  -5.980  -4.897  0.00  0.00     0.002 A 
ENDROOT
BRANCH   1   7
ATOM      7  C1  UNL d   1      -1.155  -5.888  -2.408  0.00  0.00     0.055 C 
ATOM      8  C   UNL d   1      -2.613  -5.959  -2.835  0.00  0.00     0.019 C 
ENDBRANCH   1   7
TORSDOF 1
ENDMDL
