MODEL 1
REMARK minimizedAffinity 1.82946444
REMARK minimizedRMSD -1
REMARK  1 active torsions:
REMARK  status: ('A' for Active; 'I' for Inactive)
REMARK    1  A    between atoms: C1_2  and  C2_3 
ROOT
ATOM      1  C2  UNL d   1       0.004  -5.874  -3.559  0.00  0.00    -0.077 A 
ATOM      2  C3  UNL d   1      -0.693  -5.731  -4.767  0.00  0.00     0.002 A 
ATOM      3  C4  UNL d   1      -0.005  -5.711  -5.982  0.00  0.00     0.002 A 
ATOM      4  C5  UNL d   1       1.383  -5.839  -6.000  0.00  0.00    -0.004 A 
ATOM      5  C6  UNL d   1       2.085  -5.980  -4.804  0.00  0.00     0.002 A 
ATOM      6  C7  UNL d   1       1.398  -5.998  -3.589  0.00  0.00     0.002 A 
ENDROOT
BRANCH   1   7
ATOM      7  C1  UNL d   1      -0.741  -5.945  -2.252  0.00  0.00     0.055 C 
ATOM      8  C   UNL d   1      -2.246  -6.000  -2.474  0.00  0.00     0.019 C 
ENDBRANCH   1   7
TORSDOF 1
ENDMDL
