MODEL 1
REMARK minimizedAffinity 5.12096024
REMARK minimizedRMSD -1
REMARK  1 active torsions:
REMARK  status: ('A' for Active; 'I' for Inactive)
REMARK    1  A    between atoms: C1_2  and  C2_3 
ROOT
ATOM      1  C2  UNL d   1       0.314  -1.553   3.034  0.00  0.00    -0.077 A 
ATOM      2  C3  UNL d   1       1.055  -0.615   2.302  0.00  0.00     0.002 A 
ATOM      3  C4  UNL d   1       1.253  -0.786   0.931  0.00  0.00     0.002 A 
ATOM      4  C5  UNL d   1       0.709  -1.891   0.279  0.00  0.00    -0.004 A 
ATOM      5  C6  UNL d   1      -0.028  -2.831   0.999  0.00  0.00     0.002 A 
ATOM      6  C7  UNL d   1      -0.225  -2.662   2.370  0.00  0.00     0.002 A 
ENDROOT
BRANCH   1   7
ATOM      7  C1  UNL d   1       0.058  -1.345   4.504  0.00  0.00     0.055 C 
ATOM      8  C   UNL d   1      -0.721  -2.508   5.101  0.00  0.00     0.019 C 
ENDBRANCH   1   7
TORSDOF 1
ENDMDL
