MODEL 1
REMARK minimizedAffinity -0.556694865
REMARK minimizedRMSD -1
REMARK  1 active torsions:
REMARK  status: ('A' for Active; 'I' for Inactive)
REMARK    1  A    between atoms: C1_2  and  C2_3 
ROOT
ATOM      1  C2  UNL d   1      -2.362  -5.999  -3.709  0.00  0.00    -0.077 A 
ATOM      2  C3  UNL d   1      -1.420  -5.995  -2.670  0.00  0.00     0.002 A 
ATOM      3  C4  UNL d   1      -0.053  -5.990  -2.956  0.00  0.00     0.002 A 
ATOM      4  C5  UNL d   1       0.384  -5.986  -4.279  0.00  0.00    -0.004 A 
ATOM      5  C6  UNL d   1      -0.545  -5.993  -5.319  0.00  0.00     0.002 A 
ATOM      6  C7  UNL d   1      -1.912  -5.998  -5.035  0.00  0.00     0.002 A 
ENDROOT
BRANCH   1   7
ATOM      7  C1  UNL d   1      -3.836  -5.954  -3.403  0.00  0.00     0.055 C 
ATOM      8  C   UNL d   1      -4.092  -5.999  -1.903  0.00  0.00     0.019 C 
ENDBRANCH   1   7
TORSDOF 1
ENDMDL
