MODEL 1
REMARK minimizedAffinity -0.61601007
REMARK minimizedRMSD -1
REMARK  1 active torsions:
REMARK  status: ('A' for Active; 'I' for Inactive)
REMARK    1  A    between atoms: C1_2  and  C2_3 
ROOT
ATOM      1  C2  UNL d   1      -0.705  -5.824  -3.198  0.00  0.00    -0.077 A 
ATOM      2  C3  UNL d   1      -1.883  -5.966  -3.945  0.00  0.00     0.002 A 
ATOM      3  C4  UNL d   1      -1.836  -6.000  -5.340  0.00  0.00     0.002 A 
ATOM      4  C5  UNL d   1      -0.613  -5.896  -5.999  0.00  0.00    -0.004 A 
ATOM      5  C6  UNL d   1       0.564  -5.752  -5.266  0.00  0.00     0.002 A 
ATOM      6  C7  UNL d   1       0.518  -5.717  -3.872  0.00  0.00     0.002 A 
ENDROOT
BRANCH   1   7
ATOM      7  C1  UNL d   1      -0.749  -5.837  -1.692  0.00  0.00     0.055 C 
ATOM      8  C   UNL d   1      -0.367  -4.481  -1.116  0.00  0.00     0.019 C 
ENDBRANCH   1   7
TORSDOF 1
ENDMDL
