MODEL 1
REMARK minimizedAffinity 2.0595088
REMARK minimizedRMSD -1
REMARK  1 active torsions:
REMARK  status: ('A' for Active; 'I' for Inactive)
REMARK    1  A    between atoms: C1_2  and  C2_3 
ROOT
ATOM      1  C2  UNL d   1       3.285   4.243   0.346  0.00  0.00    -0.077 A 
ATOM      2  C3  UNL d   1       2.155   3.504  -0.032  0.00  0.00     0.002 A 
ATOM      3  C4  UNL d   1       0.883   3.889   0.396  0.00  0.00     0.002 A 
ATOM      4  C5  UNL d   1       0.729   5.016   1.201  0.00  0.00    -0.004 A 
ATOM      5  C6  UNL d   1       1.847   5.757   1.584  0.00  0.00     0.002 A 
ATOM      6  C7  UNL d   1       3.119   5.372   1.158  0.00  0.00     0.002 A 
ENDROOT
BRANCH   1   7
ATOM      7  C1  UNL d   1       4.652   3.857  -0.156  0.00  0.00     0.055 C 
ATOM      8  C   UNL d   1       4.865   4.316  -1.591  0.00  0.00     0.019 C 
ENDBRANCH   1   7
TORSDOF 1
ENDMDL
