MODEL 1
REMARK minimizedAffinity -2.32096958
REMARK minimizedRMSD -1
REMARK  1 active torsions:
REMARK  status: ('A' for Active; 'I' for Inactive)
REMARK    1  A    between atoms: C1_2  and  C2_3 
ROOT
ATOM      1  C2  UNL d   1      -1.020  -5.984  -3.212  0.00  0.00    -0.077 A 
ATOM      2  C3  UNL d   1       0.380  -5.905  -3.206  0.00  0.00     0.002 A 
ATOM      3  C4  UNL d   1       1.089  -5.844  -4.407  0.00  0.00     0.002 A 
ATOM      4  C5  UNL d   1       0.408  -5.858  -5.622  0.00  0.00    -0.004 A 
ATOM      5  C6  UNL d   1      -0.984  -5.938  -5.639  0.00  0.00     0.002 A 
ATOM      6  C7  UNL d   1      -1.695  -6.000  -4.440  0.00  0.00     0.002 A 
ENDROOT
BRANCH   1   7
ATOM      7  C1  UNL d   1      -1.790  -6.000  -1.918  0.00  0.00     0.055 C 
ATOM      8  C   UNL d   1      -3.291  -5.996  -2.166  0.00  0.00     0.019 C 
ENDBRANCH   1   7
TORSDOF 1
ENDMDL
