MODEL 1
REMARK minimizedAffinity 5.54271221
REMARK minimizedRMSD -1
REMARK  1 active torsions:
REMARK  status: ('A' for Active; 'I' for Inactive)
REMARK    1  A    between atoms: C1_2  and  C2_3 
ROOT
ATOM      1  C2  UNL d   1       0.189  -2.001   0.760  0.00  0.00    -0.077 A 
ATOM      2  C3  UNL d   1       1.485  -1.469   0.792  0.00  0.00     0.002 A 
ATOM      3  C4  UNL d   1       1.694  -0.104   0.581  0.00  0.00     0.002 A 
ATOM      4  C5  UNL d   1       0.611   0.739   0.341  0.00  0.00    -0.004 A 
ATOM      5  C6  UNL d   1      -0.682   0.219   0.306  0.00  0.00     0.002 A 
ATOM      6  C7  UNL d   1      -0.893  -1.144   0.515  0.00  0.00     0.002 A 
ENDROOT
BRANCH   1   7
ATOM      7  C1  UNL d   1      -0.043  -3.463   1.036  0.00  0.00     0.055 C 
ATOM      8  C   UNL d   1      -1.073  -3.662   2.140  0.00  0.00     0.019 C 
ENDBRANCH   1   7
TORSDOF 1
ENDMDL
