MODEL 1
REMARK minimizedAffinity 7.96304464
REMARK minimizedRMSD -1
REMARK  1 active torsions:
REMARK  status: ('A' for Active; 'I' for Inactive)
REMARK    1  A    between atoms: C1_2  and  C2_3 
ROOT
ATOM      1  C2  UNL d   1       0.885  -0.327   0.395  0.00  0.00    -0.077 A 
ATOM      2  C3  UNL d   1       0.613   1.043   0.277  0.00  0.00     0.002 A 
ATOM      3  C4  UNL d   1       1.656   1.962   0.151  0.00  0.00     0.002 A 
ATOM      4  C5  UNL d   1       2.977   1.521   0.136  0.00  0.00    -0.004 A 
ATOM      5  C6  UNL d   1       3.258   0.160   0.255  0.00  0.00     0.002 A 
ATOM      6  C7  UNL d   1       2.217  -0.759   0.383  0.00  0.00     0.002 A 
ENDROOT
BRANCH   1   7
ATOM      7  C1  UNL d   1      -0.241  -1.324   0.482  0.00  0.00     0.055 C 
ATOM      8  C   UNL d   1       0.287  -2.743   0.638  0.00  0.00     0.019 C 
ENDBRANCH   1   7
TORSDOF 1
ENDMDL
