MODEL 1
REMARK minimizedAffinity -0.524354756
REMARK minimizedRMSD -1
REMARK  1 active torsions:
REMARK  status: ('A' for Active; 'I' for Inactive)
REMARK    1  A    between atoms: C1_2  and  C2_3 
ROOT
ATOM      1  C2  UNL d   1      -0.271  -5.983  -3.567  0.00  0.00    -0.077 A 
ATOM      2  C3  UNL d   1       1.128  -5.995  -3.484  0.00  0.00     0.002 A 
ATOM      3  C4  UNL d   1       1.905  -5.984  -4.645  0.00  0.00     0.002 A 
ATOM      4  C5  UNL d   1       1.291  -5.956  -5.895  0.00  0.00    -0.004 A 
ATOM      5  C6  UNL d   1      -0.100  -5.946  -5.988  0.00  0.00     0.002 A 
ATOM      6  C7  UNL d   1      -0.878  -5.958  -4.829  0.00  0.00     0.002 A 
ENDROOT
BRANCH   1   7
ATOM      7  C1  UNL d   1      -1.110  -5.945  -2.316  0.00  0.00     0.055 C 
ATOM      8  C   UNL d   1      -2.595  -6.000  -2.643  0.00  0.00     0.019 C 
ENDBRANCH   1   7
TORSDOF 1
ENDMDL
