MODEL 1
REMARK minimizedAffinity 5.19398212
REMARK minimizedRMSD -1
REMARK  1 active torsions:
REMARK  status: ('A' for Active; 'I' for Inactive)
REMARK    1  A    between atoms: C1_2  and  C2_3 
ROOT
ATOM      1  C2  UNL d   1       1.221  -1.004   1.082  0.00  0.00    -0.077 A 
ATOM      2  C3  UNL d   1       0.598  -0.093   0.218  0.00  0.00     0.002 A 
ATOM      3  C4  UNL d   1       1.355   0.852  -0.477  0.00  0.00     0.002 A 
ATOM      4  C5  UNL d   1       2.739   0.892  -0.318  0.00  0.00    -0.004 A 
ATOM      5  C6  UNL d   1       3.367  -0.008   0.542  0.00  0.00     0.002 A 
ATOM      6  C7  UNL d   1       2.612  -0.952   1.238  0.00  0.00     0.002 A 
ENDROOT
BRANCH   1   7
ATOM      7  C1  UNL d   1       0.411  -2.056   1.795  0.00  0.00     0.055 C 
ATOM      8  C   UNL d   1       0.506  -3.400   1.088  0.00  0.00     0.019 C 
ENDBRANCH   1   7
TORSDOF 1
ENDMDL
