MODEL 1
REMARK minimizedAffinity -0.691503346
REMARK minimizedRMSD -1
REMARK  1 active torsions:
REMARK  status: ('A' for Active; 'I' for Inactive)
REMARK    1  A    between atoms: C1_2  and  C2_3 
ROOT
ATOM      1  C2  UNL d   1      -0.761   2.345   0.166  0.00  0.00    -0.076 A 
ATOM      2  C3  UNL d   1      -1.076   3.702   0.353  0.00  0.00     0.004 A 
ATOM      3  C4  UNL d   1      -0.546   4.683  -0.484  0.00  0.00    -0.003 A 
ATOM      4  C5  UNL d   1       0.307   4.323  -1.521  0.00  0.00     0.000 A 
ATOM      5  C6  UNL d   1       0.616   2.980  -1.732  0.00  0.00     0.000 A 
ATOM      6  C7  UNL d   1       0.078   1.976  -0.908  0.00  0.00    -0.073 A 
ATOM      7  C8  UNL d   1       0.451   0.544  -1.177  0.00  0.00     0.078 C 
ENDROOT
BRANCH   1   8
ATOM      8  C1  UNL d   1      -1.343   1.328   1.121  0.00  0.00     0.053 C 
ATOM      9  C   UNL d   1      -0.495   1.149   2.370  0.00  0.00     0.018 C 
ENDBRANCH   1   8
TORSDOF 1
ENDMDL
