MODEL 1
REMARK minimizedAffinity 3.94550586
REMARK minimizedRMSD -1
REMARK  1 active torsions:
REMARK  status: ('A' for Active; 'I' for Inactive)
REMARK    1  A    between atoms: C1_2  and  C2_3 
ROOT
ATOM      1  C2  UNL d   1      -0.234   1.560   1.385  0.00  0.00    -0.076 A 
ATOM      2  C3  UNL d   1      -0.306   1.798   2.768  0.00  0.00     0.004 A 
ATOM      3  C4  UNL d   1       0.373   0.985   3.673  0.00  0.00    -0.003 A 
ATOM      4  C5  UNL d   1       1.137  -0.081   3.209  0.00  0.00     0.000 A 
ATOM      5  C6  UNL d   1       1.234  -0.322   1.839  0.00  0.00     0.000 A 
ATOM      6  C7  UNL d   1       0.569   0.499   0.913  0.00  0.00    -0.073 A 
ATOM      7  C8  UNL d   1       0.704   0.190  -0.553  0.00  0.00     0.078 C 
ENDROOT
BRANCH   1   8
ATOM      8  C1  UNL d   1      -1.014   2.459   0.453  0.00  0.00     0.053 C 
ATOM      9  C   UNL d   1      -0.289   3.763   0.158  0.00  0.00     0.018 C 
ENDBRANCH   1   8
TORSDOF 1
ENDMDL
