MODEL 1
REMARK minimizedAffinity 2.55503035
REMARK minimizedRMSD -1
REMARK  1 active torsions:
REMARK  status: ('A' for Active; 'I' for Inactive)
REMARK    1  A    between atoms: C1_2  and  C2_3 
ROOT
ATOM      1  C2  UNL d   1      -1.828   1.995   1.515  0.00  0.00    -0.076 A 
ATOM      2  C3  UNL d   1      -0.614   1.454   1.056  0.00  0.00     0.004 A 
ATOM      3  C4  UNL d   1       0.067   2.027  -0.016  0.00  0.00    -0.003 A 
ATOM      4  C5  UNL d   1      -0.455   3.151  -0.648  0.00  0.00     0.000 A 
ATOM      5  C6  UNL d   1      -1.649   3.711  -0.195  0.00  0.00     0.000 A 
ATOM      6  C7  UNL d   1      -2.340   3.155   0.895  0.00  0.00    -0.073 A 
ATOM      7  C8  UNL d   1      -3.627   3.796   1.337  0.00  0.00     0.078 C 
ENDROOT
BRANCH   1   8
ATOM      8  C1  UNL d   1      -2.535   1.314   2.665  0.00  0.00     0.053 C 
ATOM      9  C   UNL d   1      -2.075  -0.121   2.864  0.00  0.00     0.018 C 
ENDBRANCH   1   8
TORSDOF 1
ENDMDL
