MODEL 1
REMARK minimizedAffinity 3.49750042
REMARK minimizedRMSD -1
REMARK  1 active torsions:
REMARK  status: ('A' for Active; 'I' for Inactive)
REMARK    1  A    between atoms: C1_2  and  C2_3 
ROOT
ATOM      1  C2  UNL d   1      -0.377   1.615   0.977  0.00  0.00    -0.076 A 
ATOM      2  C3  UNL d   1      -0.496   1.923  -0.389  0.00  0.00     0.004 A 
ATOM      3  C4  UNL d   1       0.549   1.668  -1.276  0.00  0.00    -0.003 A 
ATOM      4  C5  UNL d   1       1.730   1.100  -0.810  0.00  0.00     0.000 A 
ATOM      5  C6  UNL d   1       1.858   0.771   0.539  0.00  0.00     0.000 A 
ATOM      6  C7  UNL d   1       0.808   1.007   1.443  0.00  0.00    -0.073 A 
ATOM      7  C8  UNL d   1       1.004   0.638   2.888  0.00  0.00     0.078 C 
ENDROOT
BRANCH   1   8
ATOM      8  C1  UNL d   1      -1.533   1.939   1.896  0.00  0.00     0.053 C 
ATOM      9  C   UNL d   1      -2.444   0.743   2.131  0.00  0.00     0.018 C 
ENDBRANCH   1   8
TORSDOF 1
ENDMDL
