MODEL 1
REMARK minimizedAffinity 1.5965699
REMARK minimizedRMSD -1
REMARK  1 active torsions:
REMARK  status: ('A' for Active; 'I' for Inactive)
REMARK    1  A    between atoms: C1_2  and  C2_3 
ROOT
ATOM      1  C2  UNL d   1      -1.228   1.201   1.376  0.00  0.00    -0.076 A 
ATOM      2  C3  UNL d   1      -2.309   1.994   1.799  0.00  0.00     0.004 A 
ATOM      3  C4  UNL d   1      -2.660   3.154   1.111  0.00  0.00    -0.003 A 
ATOM      4  C5  UNL d   1      -1.936   3.540  -0.012  0.00  0.00     0.000 A 
ATOM      5  C6  UNL d   1      -0.872   2.756  -0.456  0.00  0.00     0.000 A 
ATOM      6  C7  UNL d   1      -0.515   1.574   0.217  0.00  0.00    -0.073 A 
ATOM      7  C8  UNL d   1       0.645   0.770  -0.302  0.00  0.00     0.078 C 
ENDROOT
BRANCH   1   8
ATOM      8  C1  UNL d   1      -0.878  -0.032   2.178  0.00  0.00     0.053 C 
ATOM      9  C   UNL d   1      -2.054  -0.556   2.987  0.00  0.00     0.018 C 
ENDBRANCH   1   8
TORSDOF 1
ENDMDL
