MODEL 1
REMARK minimizedAffinity 2.42159891
REMARK minimizedRMSD -1
REMARK  1 active torsions:
REMARK  status: ('A' for Active; 'I' for Inactive)
REMARK    1  A    between atoms: C1_2  and  C2_3 
ROOT
ATOM      1  C2  UNL d   1      -0.472   1.756   0.610  0.00  0.00    -0.076 A 
ATOM      2  C3  UNL d   1       0.153   0.599   0.114  0.00  0.00     0.004 A 
ATOM      3  C4  UNL d   1       0.851   0.622  -1.092  0.00  0.00    -0.003 A 
ATOM      4  C5  UNL d   1       0.937   1.804  -1.821  0.00  0.00     0.000 A 
ATOM      5  C6  UNL d   1       0.338   2.965  -1.335  0.00  0.00     0.000 A 
ATOM      6  C7  UNL d   1      -0.357   2.963  -0.113  0.00  0.00    -0.073 A 
ATOM      7  C8  UNL d   1      -0.989   4.243   0.361  0.00  0.00     0.078 C 
ENDROOT
BRANCH   1   8
ATOM      8  C1  UNL d   1      -1.239   1.664   1.910  0.00  0.00     0.053 C 
ATOM      9  C   UNL d   1      -1.577   0.230   2.287  0.00  0.00     0.018 C 
ENDBRANCH   1   8
TORSDOF 1
ENDMDL
