MODEL 1
REMARK minimizedAffinity 5.89409876
REMARK minimizedRMSD -1
REMARK  1 active torsions:
REMARK  status: ('A' for Active; 'I' for Inactive)
REMARK    1  A    between atoms: C1_2  and  C2_3 
ROOT
ATOM      1  C2  UNL d   1      -2.036  -2.423   4.009  0.00  0.00    -0.076 A 
ATOM      2  C3  UNL d   1      -0.814  -3.014   3.644  0.00  0.00     0.004 A 
ATOM      3  C4  UNL d   1      -0.217  -3.982   4.449  0.00  0.00    -0.003 A 
ATOM      4  C5  UNL d   1      -0.833  -4.377   5.632  0.00  0.00     0.000 A 
ATOM      5  C6  UNL d   1      -2.055  -3.814   6.000  0.00  0.00     0.000 A 
ATOM      6  C7  UNL d   1      -2.678  -2.848   5.191  0.00  0.00    -0.073 A 
ATOM      7  C8  UNL d   1      -3.992  -2.270   5.640  0.00  0.00     0.078 C 
ENDROOT
BRANCH   1   8
ATOM      8  C1  UNL d   1      -2.622  -1.358   3.109  0.00  0.00     0.053 C 
ATOM      9  C   UNL d   1      -1.604  -0.296   2.724  0.00  0.00     0.018 C 
ENDBRANCH   1   8
TORSDOF 1
ENDMDL
