MODEL 1
REMARK minimizedAffinity 3.83521914
REMARK minimizedRMSD -1
REMARK  1 active torsions:
REMARK  status: ('A' for Active; 'I' for Inactive)
REMARK    1  A    between atoms: C1_2  and  C2_3 
ROOT
ATOM      1  C2  UNL d   1      -0.689   1.801   0.564  0.00  0.00    -0.076 A 
ATOM      2  C3  UNL d   1      -1.273   3.003   1.001  0.00  0.00     0.004 A 
ATOM      3  C4  UNL d   1      -1.200   4.159   0.226  0.00  0.00    -0.003 A 
ATOM      4  C5  UNL d   1      -0.542   4.132  -0.999  0.00  0.00     0.000 A 
ATOM      5  C6  UNL d   1       0.028   2.944  -1.456  0.00  0.00     0.000 A 
ATOM      6  C7  UNL d   1      -0.051   1.766  -0.694  0.00  0.00    -0.073 A 
ATOM      7  C8  UNL d   1       0.587   0.514  -1.233  0.00  0.00     0.078 C 
ENDROOT
BRANCH   1   8
ATOM      8  C1  UNL d   1      -0.777   0.586   1.459  0.00  0.00     0.053 C 
ATOM      9  C   UNL d   1      -2.016   0.601   2.342  0.00  0.00     0.018 C 
ENDBRANCH   1   8
TORSDOF 1
ENDMDL
