MODEL 1
REMARK minimizedAffinity 6.66070986
REMARK minimizedRMSD -1
REMARK  1 active torsions:
REMARK  status: ('A' for Active; 'I' for Inactive)
REMARK    1  A    between atoms: C1_2  and  C2_3 
ROOT
ATOM      1  C2  UNL d   1       0.440   1.161   0.339  0.00  0.00    -0.076 A 
ATOM      2  C3  UNL d   1      -0.593   2.013   0.767  0.00  0.00     0.004 A 
ATOM      3  C4  UNL d   1      -0.831   2.227   2.123  0.00  0.00    -0.003 A 
ATOM      4  C5  UNL d   1      -0.038   1.594   3.074  0.00  0.00     0.000 A 
ATOM      5  C6  UNL d   1       1.003   0.760   2.667  0.00  0.00     0.000 A 
ATOM      6  C7  UNL d   1       1.266   0.546   1.304  0.00  0.00    -0.073 A 
ATOM      7  C8  UNL d   1       2.397  -0.369   0.922  0.00  0.00     0.078 C 
ENDROOT
BRANCH   1   8
ATOM      8  C1  UNL d   1       0.633   0.946  -1.145  0.00  0.00     0.053 C 
ATOM      9  C   UNL d   1       0.294   2.183  -1.963  0.00  0.00     0.018 C 
ENDBRANCH   1   8
TORSDOF 1
ENDMDL
