MODEL 1
REMARK minimizedAffinity 14.7343979
REMARK minimizedRMSD -1
REMARK  1 active torsions:
REMARK  status: ('A' for Active; 'I' for Inactive)
REMARK    1  A    between atoms: C1_2  and  C2_3 
ROOT
ATOM      1  C2  UNL d   1      -0.034   2.157   2.378  0.00  0.00    -0.076 A 
ATOM      2  C3  UNL d   1      -1.306   2.420   2.916  0.00  0.00     0.004 A 
ATOM      3  C4  UNL d   1      -2.258   1.409   3.033  0.00  0.00    -0.003 A 
ATOM      4  C5  UNL d   1      -1.954   0.118   2.615  0.00  0.00     0.000 A 
ATOM      5  C6  UNL d   1      -0.691  -0.165   2.095  0.00  0.00     0.000 A 
ATOM      6  C7  UNL d   1       0.286   0.839   1.985  0.00  0.00    -0.073 A 
ATOM      7  C8  UNL d   1       1.629   0.480   1.412  0.00  0.00     0.078 C 
ENDROOT
BRANCH   1   8
ATOM      8  C1  UNL d   1       0.949   3.299   2.250  0.00  0.00     0.053 C 
ATOM      9  C   UNL d   1       0.406   4.443   1.408  0.00  0.00     0.018 C 
ENDBRANCH   1   8
TORSDOF 1
ENDMDL
