MODEL 1
REMARK minimizedAffinity 7.55502367
REMARK minimizedRMSD -1
REMARK  1 active torsions:
REMARK  status: ('A' for Active; 'I' for Inactive)
REMARK    1  A    between atoms: C1_2  and  C2_3 
ROOT
ATOM      1  C2  UNL d   1       0.170   0.922   0.653  0.00  0.00    -0.076 A 
ATOM      2  C3  UNL d   1      -0.883   1.816   0.913  0.00  0.00     0.004 A 
ATOM      3  C4  UNL d   1      -1.081   2.339   2.190  0.00  0.00    -0.003 A 
ATOM      4  C5  UNL d   1      -0.229   1.976   3.227  0.00  0.00     0.000 A 
ATOM      5  C6  UNL d   1       0.831   1.104   2.983  0.00  0.00     0.000 A 
ATOM      6  C7  UNL d   1       1.055   0.580   1.698  0.00  0.00    -0.073 A 
ATOM      7  C8  UNL d   1       2.209  -0.361   1.493  0.00  0.00     0.078 C 
ENDROOT
BRANCH   1   8
ATOM      8  C1  UNL d   1       0.319   0.366  -0.746  0.00  0.00     0.053 C 
ATOM      9  C   UNL d   1      -0.968   0.458  -1.550  0.00  0.00     0.018 C 
ENDBRANCH   1   8
TORSDOF 1
ENDMDL
