MODEL 1
REMARK minimizedAffinity 0.259575754
REMARK minimizedRMSD -1
REMARK  0 active torsions:
REMARK  status: ('A' for Active; 'I' for Inactive)
ROOT
ATOM      1  N1  IND d   1       2.999   0.576  -2.370  0.00  0.00    -0.196 N 
ATOM      2  C2  IND d   1       1.743   1.047  -2.632  0.00  0.00     0.054 A 
ATOM      3  C3  IND d   1       1.663   1.488  -3.907  0.00  0.00    -0.031 A 
ATOM      4  C4  IND d   1       3.438   1.437  -5.770  0.00  0.00     0.051 A 
ATOM      5  C5  IND d   1       4.751   1.133  -5.999  0.00  0.00    -0.031 A 
ATOM      6  C6  IND d   1       5.562   0.614  -5.011  0.00  0.00     0.015 A 
ATOM      7  C7  IND d   1       5.086   0.369  -3.754  0.00  0.00    -0.016 A 
ATOM      8  C8  IND d   1       3.756   0.683  -3.516  0.00  0.00    -0.047 A 
ATOM      9  C9  IND d   1       2.939   1.250  -4.503  0.00  0.00    -0.096 A 
ATOM     10  HN1 IND d   1       3.271   0.264  -1.616  0.00  0.00     0.298 HD
ENDROOT
TORSDOF 0
ENDMDL
