MODEL 1
REMARK minimizedAffinity 0.0741859227
REMARK minimizedRMSD -1
REMARK  0 active torsions:
REMARK  status: ('A' for Active; 'I' for Inactive)
ROOT
ATOM      1  N1  IND d   1       5.006   2.733   3.294  0.00  0.00    -0.196 N 
ATOM      2  C2  IND d   1       4.125   2.623   2.255  0.00  0.00     0.054 A 
ATOM      3  C3  IND d   1       3.748   1.334   2.093  0.00  0.00    -0.031 A 
ATOM      4  C4  IND d   1       4.374  -0.740   3.483  0.00  0.00     0.051 A 
ATOM      5  C5  IND d   1       5.178  -1.145   4.511  0.00  0.00    -0.031 A 
ATOM      6  C6  IND d   1       5.980  -0.260   5.202  0.00  0.00     0.015 A 
ATOM      7  C7  IND d   1       5.999   1.072   4.896  0.00  0.00    -0.016 A 
ATOM      8  C8  IND d   1       5.190   1.485   3.848  0.00  0.00    -0.047 A 
ATOM      9  C9  IND d   1       4.406   0.585   3.116  0.00  0.00    -0.096 A 
ATOM     10  HN1 IND d   1       5.383   3.460   3.557  0.00  0.00     0.298 HD
ENDROOT
TORSDOF 0
ENDMDL
