MODEL 1
REMARK minimizedAffinity 1.48956466
REMARK minimizedRMSD -1
REMARK  0 active torsions:
REMARK  status: ('A' for Active; 'I' for Inactive)
ROOT
ATOM      1  N1  IND d   1      -3.310  -0.242   3.646  0.00  0.00    -0.196 N 
ATOM      2  C2  IND d   1      -1.946  -0.149   3.624  0.00  0.00     0.054 A 
ATOM      3  C3  IND d   1      -1.463  -0.602   2.446  0.00  0.00    -0.031 A 
ATOM      4  C4  IND d   1      -2.735  -1.446   0.372  0.00  0.00     0.051 A 
ATOM      5  C5  IND d   1      -3.992  -1.747  -0.071  0.00  0.00    -0.031 A 
ATOM      6  C6  IND d   1      -5.108  -1.556   0.716  0.00  0.00     0.015 A 
ATOM      7  C7  IND d   1      -5.010  -1.043   1.979  0.00  0.00    -0.016 A 
ATOM      8  C8  IND d   1      -3.735  -0.742   2.435  0.00  0.00    -0.047 A 
ATOM      9  C9  IND d   1      -2.594  -0.974   1.656  0.00  0.00    -0.096 A 
ATOM     10  HN1 IND d   1      -3.817  -0.024   4.306  0.00  0.00     0.298 HD
ENDROOT
TORSDOF 0
ENDMDL
