MODEL 1
REMARK minimizedAffinity 0.73635453
REMARK minimizedRMSD -1
REMARK  0 active torsions:
REMARK  status: ('A' for Active; 'I' for Inactive)
ROOT
ATOM      1  N1  IND d   1      -2.440   1.213   3.638  0.00  0.00    -0.196 N 
ATOM      2  C2  IND d   1      -2.956   0.061   4.162  0.00  0.00     0.054 A 
ATOM      3  C3  IND d   1      -3.488  -0.705   3.183  0.00  0.00    -0.031 A 
ATOM      4  C4  IND d   1      -3.533  -0.309   0.640  0.00  0.00     0.051 A 
ATOM      5  C5  IND d   1      -3.218   0.620  -0.312  0.00  0.00    -0.031 A 
ATOM      6  C6  IND d   1      -2.613   1.817   0.011  0.00  0.00     0.015 A 
ATOM      7  C7  IND d   1      -2.289   2.127   1.302  0.00  0.00    -0.016 A 
ATOM      8  C8  IND d   1      -2.613   1.189   2.271  0.00  0.00    -0.047 A 
ATOM      9  C9  IND d   1      -3.266  -0.010   1.955  0.00  0.00    -0.096 A 
ATOM     10  HN1 IND d   1      -2.070   1.847   4.086  0.00  0.00     0.298 HD
ENDROOT
TORSDOF 0
ENDMDL
