MODEL 1
REMARK minimizedAffinity 2.98686433
REMARK minimizedRMSD -1
REMARK  0 active torsions:
REMARK  status: ('A' for Active; 'I' for Inactive)
ROOT
ATOM      1  N1  IND d   1       4.501   2.911   2.625  0.00  0.00    -0.196 N 
ATOM      2  C2  IND d   1       3.534   2.626   1.701  0.00  0.00     0.054 A 
ATOM      3  C3  IND d   1       3.290   1.296   1.672  0.00  0.00    -0.031 A 
ATOM      4  C4  IND d   1       4.288  -0.582   3.122  0.00  0.00     0.051 A 
ATOM      5  C5  IND d   1       5.235  -0.817   4.079  0.00  0.00    -0.031 A 
ATOM      6  C6  IND d   1       6.000   0.201   4.612  0.00  0.00     0.015 A 
ATOM      7  C7  IND d   1       5.837   1.498   4.216  0.00  0.00    -0.016 A 
ATOM      8  C8  IND d   1       4.880   1.738   3.239  0.00  0.00    -0.047 A 
ATOM      9  C9  IND d   1       4.131   0.704   2.663  0.00  0.00    -0.096 A 
ATOM     10  HN1 IND d   1       4.818   3.693   2.793  0.00  0.00     0.298 HD
ENDROOT
TORSDOF 0
ENDMDL
