MODEL 1
REMARK minimizedAffinity 3.41425633
REMARK minimizedRMSD -1
REMARK  0 active torsions:
REMARK  status: ('A' for Active; 'I' for Inactive)
ROOT
ATOM      1  N1  IND d   1      -2.660   0.710   3.593  0.00  0.00    -0.196 N 
ATOM      2  C2  IND d   1      -2.930  -0.530   4.101  0.00  0.00     0.054 A 
ATOM      3  C3  IND d   1      -3.099  -1.422   3.100  0.00  0.00    -0.031 A 
ATOM      4  C4  IND d   1      -2.878  -1.087   0.557  0.00  0.00     0.051 A 
ATOM      5  C5  IND d   1      -2.680  -0.121  -0.389  0.00  0.00    -0.031 A 
ATOM      6  C6  IND d   1      -2.458   1.198  -0.049  0.00  0.00     0.015 A 
ATOM      7  C7  IND d   1      -2.414   1.599   1.256  0.00  0.00    -0.016 A 
ATOM      8  C8  IND d   1      -2.622   0.622   2.219  0.00  0.00    -0.047 A 
ATOM      9  C9  IND d   1      -2.890  -0.710   1.879  0.00  0.00    -0.096 A 
ATOM     10  HN1 IND d   1      -2.535   1.425   4.055  0.00  0.00     0.298 HD
ENDROOT
TORSDOF 0
ENDMDL
