MODEL 1
REMARK minimizedAffinity -5.76114607
REMARK minimizedRMSD -1
REMARK  0 active torsions:
REMARK  status: ('A' for Active; 'I' for Inactive)
ROOT
ATOM      1  N1  IND d   1       4.972  -1.132  -3.771  0.00  0.00    -0.196 N 
ATOM      2  C2  IND d   1       5.251  -0.073  -4.589  0.00  0.00     0.054 A 
ATOM      3  C3  IND d   1       4.113   0.577  -4.922  0.00  0.00    -0.031 A 
ATOM      4  C4  IND d   1       1.695   0.135  -4.157  0.00  0.00     0.051 A 
ATOM      5  C5  IND d   1       0.936  -0.745  -3.438  0.00  0.00    -0.031 A 
ATOM      6  C6  IND d   1       1.496  -1.820  -2.778  0.00  0.00     0.015 A 
ATOM      7  C7  IND d   1       2.843  -2.048  -2.803  0.00  0.00    -0.016 A 
ATOM      8  C8  IND d   1       3.615  -1.161  -3.538  0.00  0.00    -0.047 A 
ATOM      9  C9  IND d   1       3.048  -0.093  -4.245  0.00  0.00    -0.096 A 
ATOM     10  HN1 IND d   1       5.548  -1.688  -3.456  0.00  0.00     0.298 HD
ENDROOT
TORSDOF 0
ENDMDL
