MODEL 1
REMARK minimizedAffinity -2.55511332
REMARK minimizedRMSD -1
REMARK  0 active torsions:
REMARK  status: ('A' for Active; 'I' for Inactive)
ROOT
ATOM      1  N1  IND d   1      -2.894   1.427   3.565  0.00  0.00    -0.196 N 
ATOM      2  C2  IND d   1      -3.349   0.369   4.302  0.00  0.00     0.054 A 
ATOM      3  C3  IND d   1      -3.348  -0.759   3.557  0.00  0.00    -0.031 A 
ATOM      4  C4  IND d   1      -2.543  -1.120   1.138  0.00  0.00     0.051 A 
ATOM      5  C5  IND d   1      -2.078  -0.444   0.046  0.00  0.00    -0.031 A 
ATOM      6  C6  IND d   1      -1.854   0.917   0.072  0.00  0.00     0.015 A 
ATOM      7  C7  IND d   1      -2.077   1.655   1.200  0.00  0.00    -0.016 A 
ATOM      8  C8  IND d   1      -2.556   0.973   2.309  0.00  0.00    -0.047 A 
ATOM      9  C9  IND d   1      -2.826  -0.402   2.276  0.00  0.00    -0.096 A 
ATOM     10  HN1 IND d   1      -2.830   2.239   3.840  0.00  0.00     0.298 HD
ENDROOT
TORSDOF 0
ENDMDL
