MODEL 1
REMARK minimizedAffinity -5.49258709
REMARK minimizedRMSD -1
REMARK  0 active torsions:
REMARK  status: ('A' for Active; 'I' for Inactive)
ROOT
ATOM      1  N1  IND d   1      -2.909   1.455   4.079  0.00  0.00    -0.196 N 
ATOM      2  C2  IND d   1      -3.271   0.202   4.489  0.00  0.00     0.054 A 
ATOM      3  C3  IND d   1      -3.422  -0.616   3.423  0.00  0.00    -0.031 A 
ATOM      4  C4  IND d   1      -3.027  -0.138   0.925  0.00  0.00     0.051 A 
ATOM      5  C5  IND d   1      -2.723   0.873   0.056  0.00  0.00    -0.031 A 
ATOM      6  C6  IND d   1      -2.458   2.155   0.493  0.00  0.00     0.015 A 
ATOM      7  C7  IND d   1      -2.475   2.472   1.822  0.00  0.00    -0.016 A 
ATOM      8  C8  IND d   1      -2.790   1.450   2.706  0.00  0.00    -0.047 A 
ATOM      9  C9  IND d   1      -3.102   0.157   2.266  0.00  0.00    -0.096 A 
ATOM     10  HN1 IND d   1      -2.778   2.133   4.592  0.00  0.00     0.298 HD
ENDROOT
TORSDOF 0
ENDMDL
