MODEL 1
REMARK minimizedAffinity 6.8975215
REMARK minimizedRMSD -1
REMARK  0 active torsions:
REMARK  status: ('A' for Active; 'I' for Inactive)
ROOT
ATOM      1  N1  IND d   1      -3.803  -0.406   4.703  0.00  0.00    -0.196 N 
ATOM      2  C2  IND d   1      -2.439  -0.372   4.634  0.00  0.00     0.054 A 
ATOM      3  C3  IND d   1      -2.031  -0.467   3.348  0.00  0.00    -0.031 A 
ATOM      4  C4  IND d   1      -3.433  -0.586   1.192  0.00  0.00     0.051 A 
ATOM      5  C5  IND d   1      -4.722  -0.683   0.750  0.00  0.00    -0.031 A 
ATOM      6  C6  IND d   1      -5.793  -0.690   1.620  0.00  0.00     0.015 A 
ATOM      7  C7  IND d   1      -5.614  -0.588   2.971  0.00  0.00    -0.016 A 
ATOM      8  C8  IND d   1      -4.306  -0.497   3.424  0.00  0.00    -0.047 A 
ATOM      9  C9  IND d   1      -3.213  -0.532   2.548  0.00  0.00    -0.096 A 
ATOM     10  HN1 IND d   1      -4.270  -0.376   5.425  0.00  0.00     0.298 HD
ENDROOT
TORSDOF 0
ENDMDL
