MODEL 1
REMARK minimizedAffinity 11.9008837
REMARK minimizedRMSD -1
REMARK  0 active torsions:
REMARK  status: ('A' for Active; 'I' for Inactive)
ROOT
ATOM      1  N1  IND d   1       4.755   3.400   3.412  0.00  0.00    -0.196 N 
ATOM      2  C2  IND d   1       3.773   3.591   2.480  0.00  0.00     0.054 A 
ATOM      3  C3  IND d   1       3.414   2.412   1.925  0.00  0.00    -0.031 A 
ATOM      4  C4  IND d   1       4.235   0.033   2.469  0.00  0.00     0.051 A 
ATOM      5  C5  IND d   1       5.152  -0.645   3.222  0.00  0.00    -0.031 A 
ATOM      6  C6  IND d   1       5.999   0.005   4.098  0.00  0.00     0.015 A 
ATOM      7  C7  IND d   1       5.952   1.360   4.260  0.00  0.00    -0.016 A 
ATOM      8  C8  IND d   1       5.027   2.052   3.491  0.00  0.00    -0.047 A 
ATOM      9  C9  IND d   1       4.194   1.403   2.571  0.00  0.00    -0.096 A 
ATOM     10  HN1 IND d   1       5.138   4.018   3.871  0.00  0.00     0.298 HD
ENDROOT
TORSDOF 0
ENDMDL
