MODEL 1
REMARK minimizedAffinity 1.19536173
REMARK minimizedRMSD -1
REMARK  0 active torsions:
REMARK  status: ('A' for Active; 'I' for Inactive)
ROOT
ATOM      1  N1  IND d   1      -3.216   0.882   4.067  0.00  0.00    -0.196 N 
ATOM      2  C2  IND d   1      -2.707   2.132   3.848  0.00  0.00     0.054 A 
ATOM      3  C3  IND d   1      -2.311   2.260   2.562  0.00  0.00    -0.031 A 
ATOM      4  C4  IND d   1      -2.497   0.583   0.618  0.00  0.00     0.051 A 
ATOM      5  C5  IND d   1      -2.859  -0.705   0.337  0.00  0.00    -0.031 A 
ATOM      6  C6  IND d   1      -3.372  -1.545   1.304  0.00  0.00     0.015 A 
ATOM      7  C7  IND d   1      -3.553  -1.124   2.591  0.00  0.00    -0.016 A 
ATOM      8  C8  IND d   1      -3.179   0.181   2.882  0.00  0.00    -0.047 A 
ATOM      9  C9  IND d   1      -2.619   1.025   1.914  0.00  0.00    -0.096 A 
ATOM     10  HN1 IND d   1      -3.509   0.584   4.818  0.00  0.00     0.298 HD
ENDROOT
TORSDOF 0
ENDMDL
