MODEL 1
REMARK minimizedAffinity 5.68194008
REMARK minimizedRMSD -1
REMARK  0 active torsions:
REMARK  status: ('A' for Active; 'I' for Inactive)
ROOT
ATOM      1  N1  IND d   1       4.995   3.541   3.321  0.00  0.00    -0.196 N 
ATOM      2  C2  IND d   1       4.122   3.447   2.273  0.00  0.00     0.054 A 
ATOM      3  C3  IND d   1       3.765   2.159   2.072  0.00  0.00    -0.031 A 
ATOM      4  C4  IND d   1       4.410   0.055   3.407  0.00  0.00     0.051 A 
ATOM      5  C5  IND d   1       5.213  -0.368   4.429  0.00  0.00    -0.031 A 
ATOM      6  C6  IND d   1       5.997   0.508   5.151  0.00  0.00     0.015 A 
ATOM      7  C7  IND d   1       6.000   1.848   4.883  0.00  0.00    -0.016 A 
ATOM      8  C8  IND d   1       5.192   2.280   3.841  0.00  0.00    -0.047 A 
ATOM      9  C9  IND d   1       4.426   1.390   3.078  0.00  0.00    -0.096 A 
ATOM     10  HN1 IND d   1       5.359   4.265   3.608  0.00  0.00     0.298 HD
ENDROOT
TORSDOF 0
ENDMDL
