MODEL 1
REMARK minimizedAffinity 7.08396387
REMARK minimizedRMSD -1
REMARK  0 active torsions:
REMARK  status: ('A' for Active; 'I' for Inactive)
ROOT
ATOM      1  N1  IND d   1      -2.965   1.006   3.364  0.00  0.00    -0.196 N 
ATOM      2  C2  IND d   1      -3.222  -0.242   3.859  0.00  0.00     0.054 A 
ATOM      3  C3  IND d   1      -3.255  -1.147   2.855  0.00  0.00    -0.031 A 
ATOM      4  C4  IND d   1      -2.815  -0.818   0.340  0.00  0.00     0.051 A 
ATOM      5  C5  IND d   1      -2.577   0.150  -0.594  0.00  0.00    -0.031 A 
ATOM      6  C6  IND d   1      -2.450   1.480  -0.249  0.00  0.00     0.015 A 
ATOM      7  C7  IND d   1      -2.547   1.892   1.050  0.00  0.00    -0.016 A 
ATOM      8  C8  IND d   1      -2.796   0.912   2.001  0.00  0.00    -0.047 A 
ATOM      9  C9  IND d   1      -2.968  -0.434   1.651  0.00  0.00    -0.096 A 
ATOM     10  HN1 IND d   1      -2.918   1.729   3.828  0.00  0.00     0.298 HD
ENDROOT
TORSDOF 0
ENDMDL
