MODEL 1
REMARK minimizedAffinity -0.668092906
REMARK minimizedRMSD -1
REMARK  0 active torsions:
REMARK  status: ('A' for Active; 'I' for Inactive)
ROOT
ATOM      1  N1  IND d   1      -3.040   5.040  -0.373  0.00  0.00    -0.196 N 
ATOM      2  C2  IND d   1      -4.131   5.235   0.427  0.00  0.00     0.054 A 
ATOM      3  C3  IND d   1      -4.472   4.084   1.048  0.00  0.00    -0.031 A 
ATOM      4  C4  IND d   1      -3.316   1.784   0.978  0.00  0.00     0.051 A 
ATOM      5  C5  IND d   1      -2.303   1.106   0.360  0.00  0.00    -0.031 A 
ATOM      6  C6  IND d   1      -1.466   1.717  -0.551  0.00  0.00     0.015 A 
ATOM      7  C7  IND d   1      -1.603   3.039  -0.869  0.00  0.00    -0.016 A 
ATOM      8  C8  IND d   1      -2.635   3.729  -0.249  0.00  0.00    -0.047 A 
ATOM      9  C9  IND d   1      -3.515   3.103   0.644  0.00  0.00    -0.096 A 
ATOM     10  HN1 IND d   1      -2.669   5.635  -0.869  0.00  0.00     0.298 HD
ENDROOT
TORSDOF 0
ENDMDL
