MODEL 1
REMARK minimizedAffinity 8.58433533
REMARK minimizedRMSD -1
REMARK  0 active torsions:
REMARK  status: ('A' for Active; 'I' for Inactive)
ROOT
ATOM      1  N1  IND d   1      -3.000   0.982   4.079  0.00  0.00    -0.196 N 
ATOM      2  C2  IND d   1      -3.280  -0.288   4.500  0.00  0.00     0.054 A 
ATOM      3  C3  IND d   1      -3.373  -1.124   3.442  0.00  0.00    -0.031 A 
ATOM      4  C4  IND d   1      -3.000  -0.645   0.940  0.00  0.00     0.051 A 
ATOM      5  C5  IND d   1      -2.760   0.375   0.063  0.00  0.00    -0.031 A 
ATOM      6  C6  IND d   1      -2.581   1.676   0.488  0.00  0.00     0.015 A 
ATOM      7  C7  IND d   1      -2.625   2.004   1.814  0.00  0.00    -0.016 A 
ATOM      8  C8  IND d   1      -2.876   0.972   2.707  0.00  0.00    -0.047 A 
ATOM      9  C9  IND d   1      -3.100  -0.343   2.278  0.00  0.00    -0.096 A 
ATOM     10  HN1 IND d   1      -2.916   1.672   4.585  0.00  0.00     0.298 HD
ENDROOT
TORSDOF 0
ENDMDL
