MODEL 1
REMARK minimizedAffinity 2.61426187
REMARK minimizedRMSD -1
REMARK  0 active torsions:
REMARK  status: ('A' for Active; 'I' for Inactive)
ROOT
ATOM      1  N1  IND d   1      -3.219   3.039  -1.389  0.00  0.00    -0.196 N 
ATOM      2  C2  IND d   1      -3.339   4.294  -0.859  0.00  0.00     0.054 A 
ATOM      3  C3  IND d   1      -3.295   4.241   0.491  0.00  0.00    -0.031 A 
ATOM      4  C4  IND d   1      -2.928   2.215   2.037  0.00  0.00     0.051 A 
ATOM      5  C5  IND d   1      -2.804   0.854   2.018  0.00  0.00    -0.031 A 
ATOM      6  C6  IND d   1      -2.809   0.138   0.839  0.00  0.00     0.015 A 
ATOM      7  C7  IND d   1      -2.928   0.760  -0.372  0.00  0.00    -0.016 A 
ATOM      8  C8  IND d   1      -3.061   2.141  -0.356  0.00  0.00    -0.047 A 
ATOM      9  C9  IND d   1      -3.100   2.869   0.840  0.00  0.00    -0.096 A 
ATOM     10  HN1 IND d   1      -3.238   2.844  -2.226  0.00  0.00     0.298 HD
ENDROOT
TORSDOF 0
ENDMDL
