MODEL 1
REMARK minimizedAffinity 4.3435421
REMARK minimizedRMSD -1
REMARK  0 active torsions:
REMARK  status: ('A' for Active; 'I' for Inactive)
ROOT
ATOM      1  N1  IND d   1      -5.938  -0.448   0.215  0.00  0.00    -0.196 N 
ATOM      2  C2  IND d   1      -5.034  -0.249  -0.791  0.00  0.00     0.054 A 
ATOM      3  C3  IND d   1      -3.772  -0.375  -0.322  0.00  0.00    -0.031 A 
ATOM      4  C4  IND d   1      -2.960  -1.003   2.039  0.00  0.00     0.051 A 
ATOM      5  C5  IND d   1      -3.414  -1.244   3.305  0.00  0.00    -0.031 A 
ATOM      6  C6  IND d   1      -4.759  -1.234   3.612  0.00  0.00     0.015 A 
ATOM      7  C7  IND d   1      -5.706  -0.993   2.657  0.00  0.00    -0.016 A 
ATOM      8  C8  IND d   1      -5.249  -0.741   1.371  0.00  0.00    -0.047 A 
ATOM      9  C9  IND d   1      -3.883  -0.708   1.063  0.00  0.00    -0.096 A 
ATOM     10  HN1 IND d   1      -6.793  -0.398   0.139  0.00  0.00     0.298 HD
ENDROOT
TORSDOF 0
ENDMDL
