MODEL 1
REMARK minimizedAffinity 17.4461708
REMARK minimizedRMSD -1
REMARK  0 active torsions:
REMARK  status: ('A' for Active; 'I' for Inactive)
ROOT
ATOM      1  C   UNL d   1      -2.139   1.589  -0.957  0.00  0.00    -0.002 A 
ATOM      2  C1  UNL d   1      -2.643   1.109  -2.157  0.00  0.00     0.010 A 
ATOM      3  C2  UNL d   1      -3.837   1.612  -2.678  0.00  0.00     0.041 A 
ATOM      4  C3  UNL d   1      -4.521   2.616  -1.966  0.00  0.00    -0.075 A 
ATOM      5  S   UNL d   1      -6.000   3.382  -2.412  0.00  0.00     0.015 SA
ATOM      6  C4  UNL d   1      -5.997   4.365  -1.020  0.00  0.00     0.022 A 
ATOM      7  C5  UNL d   1      -4.902   4.128  -0.223  0.00  0.00     0.026 A 
ATOM      8  C6  UNL d   1      -4.033   3.116  -0.756  0.00  0.00    -0.082 A 
ATOM      9  C7  UNL d   1      -2.821   2.585  -0.253  0.00  0.00     0.045 A 
ENDROOT
TORSDOF 0
ENDMDL
