MODEL 1
REMARK minimizedAffinity 17.9989243
REMARK minimizedRMSD -1
REMARK  0 active torsions:
REMARK  status: ('A' for Active; 'I' for Inactive)
ROOT
ATOM      1  C   UNL d   1       1.964  -1.843   1.512  0.00  0.00    -0.002 A 
ATOM      2  C1  UNL d   1       0.843  -1.911   2.328  0.00  0.00     0.010 A 
ATOM      3  C2  UNL d   1       0.286  -0.750   2.868  0.00  0.00     0.041 A 
ATOM      4  C3  UNL d   1       0.879   0.493   2.570  0.00  0.00    -0.075 A 
ATOM      5  S   UNL d   1       0.369   2.046   3.117  0.00  0.00     0.015 SA
ATOM      6  C4  UNL d   1       1.626   2.837   2.280  0.00  0.00     0.022 A 
ATOM      7  C5  UNL d   1       2.425   1.952   1.595  0.00  0.00     0.026 A 
ATOM      8  C6  UNL d   1       2.007   0.587   1.750  0.00  0.00    -0.082 A 
ATOM      9  C7  UNL d   1       2.549  -0.608   1.218  0.00  0.00     0.045 A 
ENDROOT
TORSDOF 0
ENDMDL
