MODEL 1
REMARK minimizedAffinity 11.1685638
REMARK minimizedRMSD -1
REMARK  0 active torsions:
REMARK  status: ('A' for Active; 'I' for Inactive)
ROOT
ATOM      1  C   UNL d   1       2.423   1.128   0.692  0.00  0.00    -0.002 A 
ATOM      2  C1  UNL d   1       3.021   0.056   0.044  0.00  0.00     0.010 A 
ATOM      3  C2  UNL d   1       2.985  -1.222   0.604  0.00  0.00     0.041 A 
ATOM      4  C3  UNL d   1       2.331  -1.408   1.837  0.00  0.00    -0.075 A 
ATOM      5  S   UNL d   1       2.160  -2.884   2.712  0.00  0.00     0.015 SA
ATOM      6  C4  UNL d   1       1.289  -2.127   3.966  0.00  0.00     0.022 A 
ATOM      7  C5  UNL d   1       1.124  -0.782   3.740  0.00  0.00     0.026 A 
ATOM      8  C6  UNL d   1       1.721  -0.345   2.509  0.00  0.00    -0.082 A 
ATOM      9  C7  UNL d   1       1.775   0.940   1.916  0.00  0.00     0.045 A 
ENDROOT
TORSDOF 0
ENDMDL
