MODEL 1
REMARK minimizedAffinity 22.2639332
REMARK minimizedRMSD -1
REMARK  0 active torsions:
REMARK  status: ('A' for Active; 'I' for Inactive)
ROOT
ATOM      1  C   UNL d   1      -2.742   0.047  -2.613  0.00  0.00    -0.002 A 
ATOM      2  C1  UNL d   1      -3.961   0.666  -2.850  0.00  0.00     0.010 A 
ATOM      3  C2  UNL d   1      -4.422   1.675  -2.002  0.00  0.00     0.041 A 
ATOM      4  C3  UNL d   1      -3.627   2.057  -0.903  0.00  0.00    -0.075 A 
ATOM      5  S   UNL d   1      -3.988   3.269   0.269  0.00  0.00     0.015 SA
ATOM      6  C4  UNL d   1      -2.531   2.995   1.110  0.00  0.00     0.022 A 
ATOM      7  C5  UNL d   1      -1.776   2.006   0.525  0.00  0.00     0.026 A 
ATOM      8  C6  UNL d   1      -2.395   1.449  -0.645  0.00  0.00    -0.082 A 
ATOM      9  C7  UNL d   1      -1.957   0.429  -1.522  0.00  0.00     0.045 A 
ENDROOT
TORSDOF 0
ENDMDL
