MODEL 1
REMARK minimizedAffinity 9.34674644
REMARK minimizedRMSD -1
REMARK  0 active torsions:
REMARK  status: ('A' for Active; 'I' for Inactive)
ROOT
ATOM      1  C   UNL d   1      -4.718  -6.000  -4.338  0.00  0.00    -0.002 A 
ATOM      2  C1  UNL d   1      -5.557  -5.999  -5.444  0.00  0.00     0.010 A 
ATOM      3  C2  UNL d   1      -6.000  -4.797  -5.999  0.00  0.00     0.041 A 
ATOM      4  C3  UNL d   1      -5.580  -3.584  -5.420  0.00  0.00    -0.075 A 
ATOM      5  S   UNL d   1      -5.995  -1.990  -5.930  0.00  0.00     0.015 SA
ATOM      6  C4  UNL d   1      -5.068  -1.272  -4.693  0.00  0.00     0.022 A 
ATOM      7  C5  UNL d   1      -4.451  -2.210  -3.901  0.00  0.00     0.026 A 
ATOM      8  C6  UNL d   1      -4.735  -3.558  -4.306  0.00  0.00    -0.082 A 
ATOM      9  C7  UNL d   1      -4.304  -4.794  -3.766  0.00  0.00     0.045 A 
ENDROOT
TORSDOF 0
ENDMDL
