MODEL 1
REMARK minimizedAffinity 5.72621965
REMARK minimizedRMSD -1
REMARK  0 active torsions:
REMARK  status: ('A' for Active; 'I' for Inactive)
ROOT
ATOM      1  C   UNL d   1       0.178  -2.908   0.857  0.00  0.00    -0.002 A 
ATOM      2  C1  UNL d   1      -0.878  -2.017   0.728  0.00  0.00     0.010 A 
ATOM      3  C2  UNL d   1      -0.677  -0.647   0.909  0.00  0.00     0.041 A 
ATOM      4  C3  UNL d   1       0.616  -0.183   1.222  0.00  0.00    -0.075 A 
ATOM      5  S   UNL d   1       1.098   1.451   1.486  0.00  0.00     0.015 SA
ATOM      6  C4  UNL d   1       2.717   1.005   1.776  0.00  0.00     0.022 A 
ATOM      7  C5  UNL d   1       2.903  -0.354   1.678  0.00  0.00     0.026 A 
ATOM      8  C6  UNL d   1       1.695  -1.061   1.356  0.00  0.00    -0.082 A 
ATOM      9  C7  UNL d   1       1.459  -2.444   1.168  0.00  0.00     0.045 A 
ENDROOT
TORSDOF 0
ENDMDL
