MODEL 1
REMARK minimizedAffinity 12.7792063
REMARK minimizedRMSD -1
REMARK  0 active torsions:
REMARK  status: ('A' for Active; 'I' for Inactive)
ROOT
ATOM      1  C   UNL d   1      -1.974  -2.584  -0.776  0.00  0.00    -0.002 A 
ATOM      2  C1  UNL d   1      -1.171  -2.582  -1.909  0.00  0.00     0.010 A 
ATOM      3  C2  UNL d   1       0.193  -2.299  -1.812  0.00  0.00     0.041 A 
ATOM      4  C3  UNL d   1       0.742  -2.018  -0.545  0.00  0.00    -0.075 A 
ATOM      5  S   UNL d   1       2.387  -1.646  -0.185  0.00  0.00     0.015 SA
ATOM      6  C4  UNL d   1       2.063  -1.482   1.480  0.00  0.00     0.022 A 
ATOM      7  C5  UNL d   1       0.737  -1.702   1.772  0.00  0.00     0.026 A 
ATOM      8  C6  UNL d   1      -0.045  -2.016   0.609  0.00  0.00    -0.082 A 
ATOM      9  C7  UNL d   1      -1.425  -2.305   0.478  0.00  0.00     0.045 A 
ENDROOT
TORSDOF 0
ENDMDL
