MODEL 1
REMARK minimizedAffinity 1.24831426
REMARK minimizedRMSD -1
REMARK  3 active torsions:
REMARK  status: ('A' for Active; 'I' for Inactive)
REMARK    1  A    between atoms: C3'_2  and  C2'_3 
REMARK    2  A    between atoms: C2'_3  and  C1'_4 
REMARK    3  A    between atoms: C1'_4  and  C1_5 
ROOT
ATOM      1  C1  N4B d   1       0.033  -0.502   0.517  0.00  0.00    -0.075 A 
ATOM      2  C2  N4B d   1      -1.342  -0.260   0.726  0.00  0.00     0.002 A 
ATOM      3  C3  N4B d   1      -1.885  -0.419   1.977  0.00  0.00     0.002 A 
ATOM      4  C4  N4B d   1      -1.080  -0.836   3.026  0.00  0.00    -0.004 A 
ATOM      5  C5  N4B d   1       0.253  -1.043   2.822  0.00  0.00     0.002 A 
ATOM      6  C6  N4B d   1       0.813  -0.883   1.570  0.00  0.00     0.002 A 
ENDROOT
BRANCH   1   7
ATOM      7  C1' N4B d   1       0.655  -0.425  -0.851  0.00  0.00     0.057 C 
BRANCH   7   8
ATOM      8  C2' N4B d   1       2.031  -1.082  -0.813  0.00  0.00     0.009 C 
BRANCH   8   9
ATOM      9  C3' N4B d   1       3.089  -0.223  -1.485  0.00  0.00     0.004 C 
ATOM     10  C4' N4B d   1       2.945   1.234  -1.162  0.00  0.00     0.003 C 
ENDBRANCH   8   9
ENDBRANCH   7   8
ENDBRANCH   1   7
TORSDOF 3
ENDMDL
