MODEL 1
REMARK minimizedAffinity 4.39531231
REMARK minimizedRMSD -1
REMARK  0 active torsions:
REMARK  status: ('A' for Active; 'I' for Inactive)
ROOT
ATOM      1  C   UNL d   1       1.658   5.984   5.655  0.00  0.00     0.078 C 
ATOM      2  C1  UNL d   1       3.035   5.474   5.349  0.00  0.00    -0.077 A 
ATOM      3  C2  UNL d   1       4.159   5.999   5.998  0.00  0.00    -0.001 A 
ATOM      4  C3  UNL d   1       5.435   5.521   5.697  0.00  0.00     0.003 A 
ATOM      5  C4  UNL d   1       5.600   4.518   4.744  0.00  0.00    -0.005 A 
ATOM      6  C5  UNL d   1       4.487   3.991   4.091  0.00  0.00     0.003 A 
ATOM      7  C6  UNL d   1       3.210   4.468   4.391  0.00  0.00    -0.001 A 
ENDROOT
TORSDOF 0
ENDMDL
