MODEL 1
REMARK minimizedAffinity 2.91782641
REMARK minimizedRMSD -1
REMARK  0 active torsions:
REMARK  status: ('A' for Active; 'I' for Inactive)
ROOT
ATOM      1  C   UNL d   1      -0.577  -3.683   1.501  0.00  0.00     0.078 C 
ATOM      2  C1  UNL d   1       0.901  -3.764   1.259  0.00  0.00    -0.077 A 
ATOM      3  C2  UNL d   1       1.640  -4.878   1.676  0.00  0.00    -0.001 A 
ATOM      4  C3  UNL d   1       3.016  -4.936   1.453  0.00  0.00     0.003 A 
ATOM      5  C4  UNL d   1       3.666  -3.882   0.813  0.00  0.00    -0.005 A 
ATOM      6  C5  UNL d   1       2.940  -2.768   0.397  0.00  0.00     0.003 A 
ATOM      7  C6  UNL d   1       1.563  -2.709   0.619  0.00  0.00    -0.001 A 
ENDROOT
TORSDOF 0
ENDMDL
