MODEL 1
REMARK minimizedAffinity 7.40018368
REMARK minimizedRMSD -1
REMARK  0 active torsions:
REMARK  status: ('A' for Active; 'I' for Inactive)
ROOT
ATOM      1  C   UNL d   1      -2.666   3.020  -3.712  0.00  0.00     0.078 C 
ATOM      2  C1  UNL d   1      -1.402   3.164  -4.505  0.00  0.00    -0.077 A 
ATOM      3  C2  UNL d   1      -1.150   4.317  -5.258  0.00  0.00    -0.001 A 
ATOM      4  C3  UNL d   1       0.027   4.433  -5.999  0.00  0.00     0.003 A 
ATOM      5  C4  UNL d   1       0.961   3.399  -5.996  0.00  0.00    -0.005 A 
ATOM      6  C5  UNL d   1       0.718   2.247  -5.252  0.00  0.00     0.003 A 
ATOM      7  C6  UNL d   1      -0.458   2.129  -4.510  0.00  0.00    -0.001 A 
ENDROOT
TORSDOF 0
ENDMDL
