MODEL 1
REMARK minimizedAffinity 3.20661974
REMARK minimizedRMSD -1
REMARK  0 active torsions:
REMARK  status: ('A' for Active; 'I' for Inactive)
ROOT
ATOM      1  C   UNL d   1      -3.015   2.997  -3.399  0.00  0.00     0.078 C 
ATOM      2  C1  UNL d   1      -1.881   3.385  -4.301  0.00  0.00    -0.077 A 
ATOM      3  C2  UNL d   1      -1.811   4.666  -4.862  0.00  0.00    -0.001 A 
ATOM      4  C3  UNL d   1      -0.755   5.010  -5.707  0.00  0.00     0.003 A 
ATOM      5  C4  UNL d   1       0.239   4.078  -6.000  0.00  0.00    -0.005 A 
ATOM      6  C5  UNL d   1       0.177   2.800  -5.448  0.00  0.00     0.003 A 
ATOM      7  C6  UNL d   1      -0.878   2.455  -4.602  0.00  0.00    -0.001 A 
ENDROOT
TORSDOF 0
ENDMDL
