MODEL 1
REMARK minimizedAffinity 5.02452612
REMARK minimizedRMSD -1
REMARK  0 active torsions:
REMARK  status: ('A' for Active; 'I' for Inactive)
ROOT
ATOM      1  C   UNL d   1       2.832  -3.207  -0.082  0.00  0.00     0.078 C 
ATOM      2  C1  UNL d   1       1.502  -2.953   0.562  0.00  0.00    -0.077 A 
ATOM      3  C2  UNL d   1       1.313  -1.864   1.423  0.00  0.00    -0.001 A 
ATOM      4  C3  UNL d   1       0.072  -1.646   2.023  0.00  0.00     0.003 A 
ATOM      5  C4  UNL d   1      -0.990  -2.512   1.770  0.00  0.00    -0.005 A 
ATOM      6  C5  UNL d   1      -0.811  -3.600   0.917  0.00  0.00     0.003 A 
ATOM      7  C6  UNL d   1       0.430  -3.820   0.316  0.00  0.00    -0.001 A 
ENDROOT
TORSDOF 0
ENDMDL
