MODEL 1
REMARK minimizedAffinity -3.36852241
REMARK minimizedRMSD -1
REMARK  0 active torsions:
REMARK  status: ('A' for Active; 'I' for Inactive)
ROOT
ATOM      1  C   UNL d   1      -1.094  -0.327  -3.998  0.00  0.00     0.078 C 
ATOM      2  C1  UNL d   1      -1.440   1.120  -4.190  0.00  0.00    -0.077 A 
ATOM      3  C2  UNL d   1      -0.548   1.997  -4.819  0.00  0.00    -0.001 A 
ATOM      4  C3  UNL d   1      -0.878   3.343  -4.983  0.00  0.00     0.003 A 
ATOM      5  C4  UNL d   1      -2.101   3.824  -4.519  0.00  0.00    -0.005 A 
ATOM      6  C5  UNL d   1      -2.994   2.960  -3.890  0.00  0.00     0.003 A 
ATOM      7  C6  UNL d   1      -2.665   1.613  -3.726  0.00  0.00    -0.001 A 
ENDROOT
TORSDOF 0
ENDMDL
