MODEL 1
REMARK minimizedAffinity 2.00484729
REMARK minimizedRMSD -1
REMARK  0 active torsions:
REMARK  status: ('A' for Active; 'I' for Inactive)
ROOT
ATOM      1  C   UNL d   1      -4.004   3.316  -2.083  0.00  0.00     0.078 C 
ATOM      2  C1  UNL d   1      -3.000   3.562  -3.169  0.00  0.00    -0.077 A 
ATOM      3  C2  UNL d   1      -1.927   2.686  -3.371  0.00  0.00    -0.001 A 
ATOM      4  C3  UNL d   1      -0.994   2.933  -4.380  0.00  0.00     0.003 A 
ATOM      5  C4  UNL d   1      -1.125   4.056  -5.195  0.00  0.00    -0.005 A 
ATOM      6  C5  UNL d   1      -2.189   4.935  -5.000  0.00  0.00     0.003 A 
ATOM      7  C6  UNL d   1      -3.122   4.690  -3.991  0.00  0.00    -0.001 A 
ENDROOT
TORSDOF 0
ENDMDL
