MODEL 1
REMARK minimizedAffinity -0.383947074
REMARK minimizedRMSD -1
REMARK  0 active torsions:
REMARK  status: ('A' for Active; 'I' for Inactive)
ROOT
ATOM      1  C   UNL d   1       2.718  -3.263  -0.176  0.00  0.00     0.078 C 
ATOM      2  C1  UNL d   1       1.512  -2.762   0.561  0.00  0.00    -0.077 A 
ATOM      3  C2  UNL d   1       1.524  -1.517   1.203  0.00  0.00    -0.001 A 
ATOM      4  C3  UNL d   1       0.397  -1.068   1.893  0.00  0.00     0.003 A 
ATOM      5  C4  UNL d   1      -0.750  -1.858   1.949  0.00  0.00    -0.005 A 
ATOM      6  C5  UNL d   1      -0.770  -3.099   1.316  0.00  0.00     0.003 A 
ATOM      7  C6  UNL d   1       0.356  -3.550   0.625  0.00  0.00    -0.001 A 
ENDROOT
TORSDOF 0
ENDMDL
