MODEL 1
REMARK minimizedAffinity -4.09706259
REMARK minimizedRMSD -1
REMARK  0 active torsions:
REMARK  status: ('A' for Active; 'I' for Inactive)
ROOT
ATOM      1  C2' OXE d   1       1.727   0.967   2.166  0.00  0.00     0.078 C 
ATOM      2  C1' OXE d   1      -0.783   1.653   3.218  0.00  0.00     0.078 C 
ATOM      3  C1  OXE d   1      -0.749   0.935   1.893  0.00  0.00    -0.078 A 
ATOM      4  C2  OXE d   1       0.486   0.644   1.363  0.00  0.00    -0.078 A 
ATOM      5  C3  OXE d   1       0.574  -0.066   0.169  0.00  0.00     0.003 A 
ATOM      6  C4  OXE d   1      -0.579  -0.351  -0.573  0.00  0.00    -0.002 A 
ATOM      7  C5  OXE d   1      -1.844  -0.029  -0.070  0.00  0.00    -0.002 A 
ATOM      8  C6  OXE d   1      -1.948   0.575   1.178  0.00  0.00     0.003 A 
ENDROOT
TORSDOF 0
ENDMDL
