MODEL 1
REMARK minimizedAffinity -4.860919
REMARK minimizedRMSD -1
REMARK  0 active torsions:
REMARK  status: ('A' for Active; 'I' for Inactive)
ROOT
ATOM      1  C2' OXE d   1      -2.286   0.182  -0.021  0.00  0.00     0.078 C 
ATOM      2  C1' OXE d   1       0.294  -0.559  -0.842  0.00  0.00     0.078 C 
ATOM      3  C1  OXE d   1       0.121  -0.063   0.572  0.00  0.00    -0.078 A 
ATOM      4  C2  OXE d   1      -1.136   0.342   0.951  0.00  0.00    -0.078 A 
ATOM      5  C3  OXE d   1      -1.362   0.756   2.260  0.00  0.00     0.003 A 
ATOM      6  C4  OXE d   1      -0.292   0.910   3.149  0.00  0.00    -0.002 A 
ATOM      7  C5  OXE d   1       1.004   0.541   2.771  0.00  0.00    -0.002 A 
ATOM      8  C6  OXE d   1       1.220   0.014   1.503  0.00  0.00     0.003 A 
ENDROOT
TORSDOF 0
ENDMDL
