MODEL 1
REMARK minimizedAffinity -4.59942055
REMARK minimizedRMSD -1
REMARK  0 active torsions:
REMARK  status: ('A' for Active; 'I' for Inactive)
ROOT
ATOM      1  C2' OXE d   1      -2.592  -0.620   0.022  0.00  0.00     0.078 C 
ATOM      2  C1' OXE d   1      -0.139   0.052  -1.165  0.00  0.00     0.078 C 
ATOM      3  C1  OXE d   1      -0.391   0.526   0.244  0.00  0.00    -0.078 A 
ATOM      4  C2  OXE d   1      -1.613   0.232   0.801  0.00  0.00    -0.078 A 
ATOM      5  C3  OXE d   1      -1.877   0.598   2.117  0.00  0.00     0.003 A 
ATOM      6  C4  OXE d   1      -0.970   1.395   2.827  0.00  0.00    -0.002 A 
ATOM      7  C5  OXE d   1       0.264   1.739   2.264  0.00  0.00    -0.002 A 
ATOM      8  C6  OXE d   1       0.586   1.278   0.992  0.00  0.00     0.003 A 
ENDROOT
TORSDOF 0
ENDMDL
