MODEL 1
REMARK minimizedAffinity -4.42212009
REMARK minimizedRMSD -1
REMARK  0 active torsions:
REMARK  status: ('A' for Active; 'I' for Inactive)
ROOT
ATOM      1  C2' OXE d   1      -2.522  -0.780  -0.041  0.00  0.00     0.078 C 
ATOM      2  C1' OXE d   1       0.086  -0.150  -0.866  0.00  0.00     0.078 C 
ATOM      3  C1  OXE d   1      -0.381   0.390   0.462  0.00  0.00    -0.078 A 
ATOM      4  C2  OXE d   1      -1.675   0.116   0.837  0.00  0.00    -0.078 A 
ATOM      5  C3  OXE d   1      -2.139   0.544   2.077  0.00  0.00     0.003 A 
ATOM      6  C4  OXE d   1      -1.352   1.380   2.879  0.00  0.00    -0.002 A 
ATOM      7  C5  OXE d   1      -0.046   1.704   2.498  0.00  0.00    -0.002 A 
ATOM      8  C6  OXE d   1       0.469   1.183   1.315  0.00  0.00     0.003 A 
ENDROOT
TORSDOF 0
ENDMDL
