MODEL 1
REMARK minimizedAffinity -3.48978519
REMARK minimizedRMSD -1
REMARK  0 active torsions:
REMARK  status: ('A' for Active; 'I' for Inactive)
ROOT
ATOM      1  C2' OXE d   1      -0.469   0.886   3.291  0.00  0.00     0.078 C 
ATOM      2  C1' OXE d   1      -2.997   0.408   2.168  0.00  0.00     0.078 C 
ATOM      3  C1  OXE d   1      -1.790   0.240   1.280  0.00  0.00    -0.078 A 
ATOM      4  C2  OXE d   1      -0.560   0.521   1.825  0.00  0.00    -0.078 A 
ATOM      5  C3  OXE d   1       0.591   0.329   1.065  0.00  0.00     0.003 A 
ATOM      6  C4  OXE d   1       0.497   0.001  -0.293  0.00  0.00    -0.002 A 
ATOM      7  C5  OXE d   1      -0.748  -0.251  -0.878  0.00  0.00    -0.002 A 
ATOM      8  C6  OXE d   1      -1.896  -0.177  -0.096  0.00  0.00     0.003 A 
ENDROOT
TORSDOF 0
ENDMDL
