MODEL 1
REMARK minimizedAffinity -2.01527405
REMARK minimizedRMSD -1
REMARK  0 active torsions:
REMARK  status: ('A' for Active; 'I' for Inactive)
ROOT
ATOM      1  C2' OXE d   1      -2.094   0.529  -0.518  0.00  0.00     0.078 C 
ATOM      2  C1' OXE d   1       0.047  -0.883  -1.661  0.00  0.00     0.078 C 
ATOM      3  C1  OXE d   1       0.228  -0.336  -0.267  0.00  0.00    -0.078 A 
ATOM      4  C2  OXE d   1      -0.807   0.393   0.266  0.00  0.00    -0.078 A 
ATOM      5  C3  OXE d   1      -0.712   0.873   1.569  0.00  0.00     0.003 A 
ATOM      6  C4  OXE d   1       0.485   0.752   2.284  0.00  0.00    -0.002 A 
ATOM      7  C5  OXE d   1       1.566   0.047   1.744  0.00  0.00    -0.002 A 
ATOM      8  C6  OXE d   1       1.439  -0.538   0.489  0.00  0.00     0.003 A 
ENDROOT
TORSDOF 0
ENDMDL
