MODEL 1
REMARK minimizedAffinity 5.88420534
REMARK minimizedRMSD -1
REMARK  0 active torsions:
REMARK  status: ('A' for Active; 'I' for Inactive)
ROOT
ATOM      1  C1  DEN d   1       1.877   0.687   0.323  0.00  0.00     0.130 A 
ATOM      2  C2  DEN d   1       2.636   1.820   0.844  0.00  0.00    -0.031 A 
ATOM      3  C3  DEN d   1       3.108   1.470   2.199  0.00  0.00     0.027 A 
ATOM      4  C4  DEN d   1       2.741  -0.708   3.532  0.00  0.00     0.027 A 
ATOM      5  C5  DEN d   1       2.150  -1.952   3.509  0.00  0.00    -0.003 A 
ATOM      6  C6  DEN d   1       1.404  -2.386   2.446  0.00  0.00     0.001 A 
ATOM      7  C7  DEN d   1       1.267  -1.588   1.341  0.00  0.00     0.017 A 
ATOM      8  C8  DEN d   1       1.854  -0.329   1.360  0.00  0.00    -0.094 A 
ATOM      9  C9  DEN d   1       2.614   0.087   2.439  0.00  0.00    -0.072 A 
ENDROOT
TORSDOF 0
ENDMDL
