MODEL 1
REMARK minimizedAffinity 7.3223238
REMARK minimizedRMSD -1
REMARK  0 active torsions:
REMARK  status: ('A' for Active; 'I' for Inactive)
ROOT
ATOM      1  C1  DEN d   1       1.753  -3.227  -0.309  0.00  0.00     0.130 A 
ATOM      2  C2  DEN d   1       2.044  -3.884  -1.581  0.00  0.00    -0.031 A 
ATOM      3  C3  DEN d   1       1.059  -3.411  -2.575  0.00  0.00     0.027 A 
ATOM      4  C4  DEN d   1      -0.875  -1.732  -2.271  0.00  0.00     0.027 A 
ATOM      5  C5  DEN d   1      -1.525  -0.921  -1.368  0.00  0.00    -0.003 A 
ATOM      6  C6  DEN d   1      -1.153  -0.847  -0.052  0.00  0.00     0.001 A 
ATOM      7  C7  DEN d   1      -0.073  -1.565   0.389  0.00  0.00     0.017 A 
ATOM      8  C8  DEN d   1       0.583  -2.391  -0.514  0.00  0.00    -0.094 A 
ATOM      9  C9  DEN d   1       0.199  -2.442  -1.843  0.00  0.00    -0.072 A 
ENDROOT
TORSDOF 0
ENDMDL
