MODEL 1
REMARK minimizedAffinity -3.58500481
REMARK minimizedRMSD -1
REMARK  0 active torsions:
REMARK  status: ('A' for Active; 'I' for Inactive)
ROOT
ATOM      1  C1  DEN d   1       1.922   6.000  -3.754  0.00  0.00     0.130 A 
ATOM      2  C2  DEN d   1       1.275   5.682  -2.484  0.00  0.00    -0.031 A 
ATOM      3  C3  DEN d   1       2.328   5.333  -1.510  0.00  0.00     0.027 A 
ATOM      4  C4  DEN d   1       4.885   5.258  -1.841  0.00  0.00     0.027 A 
ATOM      5  C5  DEN d   1       5.905   5.437  -2.750  0.00  0.00    -0.003 A 
ATOM      6  C6  DEN d   1       5.668   5.779  -4.055  0.00  0.00     0.001 A 
ATOM      7  C7  DEN d   1       4.384   5.999  -4.477  0.00  0.00     0.017 A 
ATOM      8  C8  DEN d   1       3.350   5.814  -3.569  0.00  0.00    -0.094 A 
ATOM      9  C9  DEN d   1       3.610   5.479  -2.251  0.00  0.00    -0.072 A 
ENDROOT
TORSDOF 0
ENDMDL
