MODEL 1
REMARK minimizedAffinity 7.75836611
REMARK minimizedRMSD -1
REMARK  0 active torsions:
REMARK  status: ('A' for Active; 'I' for Inactive)
ROOT
ATOM      1  C1  DEN d   1       2.617  -1.822   4.281  0.00  0.00     0.130 A 
ATOM      2  C2  DEN d   1       1.997  -3.138   4.410  0.00  0.00    -0.031 A 
ATOM      3  C3  DEN d   1       1.039  -3.302   3.299  0.00  0.00     0.027 A 
ATOM      4  C4  DEN d   1       0.462  -1.657   1.398  0.00  0.00     0.027 A 
ATOM      5  C5  DEN d   1       0.722  -0.409   0.875  0.00  0.00    -0.003 A 
ATOM      6  C6  DEN d   1       1.599   0.461   1.466  0.00  0.00     0.001 A 
ATOM      7  C7  DEN d   1       2.283   0.078   2.589  0.00  0.00     0.017 A 
ATOM      8  C8  DEN d   1       2.020  -1.176   3.126  0.00  0.00    -0.094 A 
ATOM      9  C9  DEN d   1       1.139  -2.046   2.508  0.00  0.00    -0.072 A 
ENDROOT
TORSDOF 0
ENDMDL
