MODEL 1
REMARK minimizedAffinity 12.5854807
REMARK minimizedRMSD -1
REMARK  0 active torsions:
REMARK  status: ('A' for Active; 'I' for Inactive)
ROOT
ATOM      1  C1  DEN d   1      -2.559  -2.082  -1.455  0.00  0.00     0.130 A 
ATOM      2  C2  DEN d   1      -3.014  -1.122  -0.452  0.00  0.00    -0.031 A 
ATOM      3  C3  DEN d   1      -1.843  -0.701   0.341  0.00  0.00     0.027 A 
ATOM      4  C4  DEN d   1       0.620  -1.432   0.114  0.00  0.00     0.027 A 
ATOM      5  C5  DEN d   1       1.492  -2.237  -0.585  0.00  0.00    -0.003 A 
ATOM      6  C6  DEN d   1       1.073  -3.066  -1.592  0.00  0.00     0.001 A 
ATOM      7  C7  DEN d   1      -0.247  -3.074  -1.959  0.00  0.00     0.017 A 
ATOM      8  C8  DEN d   1      -1.133  -2.270  -1.254  0.00  0.00    -0.094 A 
ATOM      9  C9  DEN d   1      -0.688  -1.431  -0.247  0.00  0.00    -0.072 A 
ENDROOT
TORSDOF 0
ENDMDL
