MODEL 1
REMARK minimizedAffinity 5.23186922
REMARK minimizedRMSD -1
REMARK  0 active torsions:
REMARK  status: ('A' for Active; 'I' for Inactive)
ROOT
ATOM      1  C1  DEN d   1       1.931  -1.505   3.660  0.00  0.00     0.130 A 
ATOM      2  C2  DEN d   1       1.614  -2.475   2.615  0.00  0.00    -0.031 A 
ATOM      3  C3  DEN d   1       1.833  -1.825   1.307  0.00  0.00     0.027 A 
ATOM      4  C4  DEN d   1       2.633   0.574   0.802  0.00  0.00     0.027 A 
ATOM      5  C5  DEN d   1       3.016   1.772   1.364  0.00  0.00    -0.003 A 
ATOM      6  C6  DEN d   1       3.031   1.971   2.719  0.00  0.00     0.001 A 
ATOM      7  C7  DEN d   1       2.700   0.941   3.560  0.00  0.00     0.017 A 
ATOM      8  C8  DEN d   1       2.306  -0.267   3.000  0.00  0.00    -0.094 A 
ATOM      9  C9  DEN d   1       2.309  -0.452   1.628  0.00  0.00    -0.072 A 
ENDROOT
TORSDOF 0
ENDMDL
