MODEL 1
REMARK minimizedAffinity 3.19188476
REMARK minimizedRMSD -1
REMARK  0 active torsions:
REMARK  status: ('A' for Active; 'I' for Inactive)
ROOT
ATOM      1  C1  DEN d   1       1.395  -2.358  -1.074  0.00  0.00     0.130 A 
ATOM      2  C2  DEN d   1       2.132  -2.251  -2.331  0.00  0.00    -0.031 A 
ATOM      3  C3  DEN d   1       2.918  -1.002  -2.295  0.00  0.00     0.027 A 
ATOM      4  C4  DEN d   1       3.070   0.766  -0.422  0.00  0.00     0.027 A 
ATOM      5  C5  DEN d   1       2.617   1.116   0.830  0.00  0.00    -0.003 A 
ATOM      6  C6  DEN d   1       1.706   0.357   1.516  0.00  0.00     0.001 A 
ATOM      7  C7  DEN d   1       1.253  -0.816   0.972  0.00  0.00     0.017 A 
ATOM      8  C8  DEN d   1       1.700  -1.172  -0.294  0.00  0.00    -0.094 A 
ATOM      9  C9  DEN d   1       2.631  -0.397  -0.966  0.00  0.00    -0.072 A 
ENDROOT
TORSDOF 0
ENDMDL
