MODEL 1
REMARK minimizedAffinity 7.20709085
REMARK minimizedRMSD -1
REMARK  0 active torsions:
REMARK  status: ('A' for Active; 'I' for Inactive)
ROOT
ATOM      1  C1  DEN d   1      -0.002  -2.711  -2.697  0.00  0.00     0.130 A 
ATOM      2  C2  DEN d   1       1.303  -2.314  -2.174  0.00  0.00    -0.031 A 
ATOM      3  C3  DEN d   1       1.079  -1.464  -0.988  0.00  0.00     0.027 A 
ATOM      4  C4  DEN d   1      -1.148  -0.734   0.089  0.00  0.00     0.027 A 
ATOM      5  C5  DEN d   1      -2.520  -0.812  -0.007  0.00  0.00    -0.003 A 
ATOM      6  C6  DEN d   1      -3.144  -1.495  -1.017  0.00  0.00     0.001 A 
ATOM      7  C7  DEN d   1      -2.394  -2.165  -1.948  0.00  0.00     0.017 A 
ATOM      8  C8  DEN d   1      -1.010  -2.085  -1.862  0.00  0.00    -0.094 A 
ATOM      9  C9  DEN d   1      -0.398  -1.399  -0.826  0.00  0.00    -0.072 A 
ENDROOT
TORSDOF 0
ENDMDL
