MODEL 1
REMARK minimizedAffinity 6.05327368
REMARK minimizedRMSD -1
REMARK  0 active torsions:
REMARK  status: ('A' for Active; 'I' for Inactive)
ROOT
ATOM      1  C1  DEN d   1       3.077   1.313   2.263  0.00  0.00     0.130 A 
ATOM      2  C2  DEN d   1       2.826   1.671   0.870  0.00  0.00    -0.031 A 
ATOM      3  C3  DEN d   1       2.009   0.600   0.263  0.00  0.00     0.027 A 
ATOM      4  C4  DEN d   1       1.111  -1.563   1.342  0.00  0.00     0.027 A 
ATOM      5  C5  DEN d   1       1.074  -2.309   2.499  0.00  0.00    -0.003 A 
ATOM      6  C6  DEN d   1       1.725  -1.920   3.640  0.00  0.00     0.001 A 
ATOM      7  C7  DEN d   1       2.404  -0.731   3.661  0.00  0.00     0.017 A 
ATOM      8  C8  DEN d   1       2.452   0.023   2.496  0.00  0.00    -0.094 A 
ATOM      9  C9  DEN d   1       1.777  -0.381   1.357  0.00  0.00    -0.072 A 
ENDROOT
TORSDOF 0
ENDMDL
