MODEL 1
REMARK minimizedAffinity -5.4717598
REMARK minimizedRMSD -1
REMARK  0 active torsions:
REMARK  status: ('A' for Active; 'I' for Inactive)
ROOT
ATOM      1  C4' PXY d   1      -0.835   0.610  -2.436  0.00  0.00     0.077 C 
ATOM      2  C1' PXY d   1       1.252  -0.804   2.765  0.00  0.00     0.077 C 
ATOM      3  C1  PXY d   1       0.693  -0.434   1.406  0.00  0.00    -0.082 A 
ATOM      4  C2  PXY d   1       1.429  -0.622   0.323  0.00  0.00     0.003 A 
ATOM      5  C3  PXY d   1       0.951  -0.263  -0.912  0.00  0.00     0.003 A 
ATOM      6  C4  PXY d   1      -0.314   0.243  -1.044  0.00  0.00    -0.082 A 
ATOM      7  C5  PXY d   1      -1.076   0.427   0.055  0.00  0.00     0.003 A 
ATOM      8  C6  PXY d   1      -0.556   0.095   1.303  0.00  0.00     0.003 A 
ENDROOT
TORSDOF 0
ENDMDL
