MODEL 1
REMARK minimizedAffinity -4.77072525
REMARK minimizedRMSD -1
REMARK  0 active torsions:
REMARK  status: ('A' for Active; 'I' for Inactive)
ROOT
ATOM      1  C4' PXY d   1      -0.893   1.110  -1.645  0.00  0.00     0.077 C 
ATOM      2  C1' PXY d   1       1.294  -1.044   3.253  0.00  0.00     0.077 C 
ATOM      3  C1  PXY d   1       0.732  -0.478   1.963  0.00  0.00    -0.082 A 
ATOM      4  C2  PXY d   1      -0.433   0.148   1.976  0.00  0.00     0.003 A 
ATOM      5  C3  PXY d   1      -0.971   0.637   0.814  0.00  0.00     0.003 A 
ATOM      6  C4  PXY d   1      -0.283   0.532  -0.366  0.00  0.00    -0.082 A 
ATOM      7  C5  PXY d   1       0.912  -0.096  -0.385  0.00  0.00     0.003 A 
ATOM      8  C6  PXY d   1       1.421  -0.623   0.798  0.00  0.00     0.003 A 
ENDROOT
TORSDOF 0
ENDMDL
