MODEL 1
REMARK minimizedAffinity -4.33407497
REMARK minimizedRMSD -1
REMARK  0 active torsions:
REMARK  status: ('A' for Active; 'I' for Inactive)
ROOT
ATOM      1  C4' PXY d   1      -1.581   0.624  -1.489  0.00  0.00     0.077 C 
ATOM      2  C1' PXY d   1       1.844  -1.021   2.867  0.00  0.00     0.077 C 
ATOM      3  C1  PXY d   1       0.936  -0.595   1.731  0.00  0.00    -0.082 A 
ATOM      4  C2  PXY d   1       1.441  -0.418   0.521  0.00  0.00     0.003 A 
ATOM      5  C3  PXY d   1       0.639  -0.002  -0.511  0.00  0.00     0.003 A 
ATOM      6  C4  PXY d   1      -0.703   0.185  -0.314  0.00  0.00    -0.082 A 
ATOM      7  C5  PXY d   1      -1.227  -0.004   0.915  0.00  0.00     0.003 A 
ATOM      8  C6  PXY d   1      -0.389  -0.387   1.958  0.00  0.00     0.003 A 
ENDROOT
TORSDOF 0
ENDMDL
