MODEL 1
REMARK minimizedAffinity -5.58919907
REMARK minimizedRMSD -1
REMARK  0 active torsions:
REMARK  status: ('A' for Active; 'I' for Inactive)
ROOT
ATOM      1  C4' PXY d   1      -1.499   1.120  -2.627  0.00  0.00     0.077 C 
ATOM      2  C1' PXY d   1       1.222  -0.678   2.146  0.00  0.00     0.077 C 
ATOM      3  C1  PXY d   1       0.511  -0.218   0.889  0.00  0.00    -0.082 A 
ATOM      4  C2  PXY d   1       0.410   1.075   0.630  0.00  0.00     0.003 A 
ATOM      5  C3  PXY d   1      -0.257   1.510  -0.486  0.00  0.00     0.003 A 
ATOM      6  C4  PXY d   1      -0.781   0.609  -1.374  0.00  0.00    -0.082 A 
ATOM      7  C5  PXY d   1      -0.673  -0.713  -1.123  0.00  0.00     0.003 A 
ATOM      8  C6  PXY d   1      -0.028  -1.132   0.036  0.00  0.00     0.003 A 
ENDROOT
TORSDOF 0
ENDMDL
