MODEL 1
REMARK minimizedAffinity -3.35959482
REMARK minimizedRMSD -1
REMARK  0 active torsions:
REMARK  status: ('A' for Active; 'I' for Inactive)
ROOT
ATOM      1  C4' PXY d   1      -1.199   1.091  -2.396  0.00  0.00     0.077 C 
ATOM      2  C1' PXY d   1       0.502  -1.147   2.655  0.00  0.00     0.077 C 
ATOM      3  C1  PXY d   1       0.069  -0.560   1.326  0.00  0.00    -0.082 A 
ATOM      4  C2  PXY d   1      -1.089   0.076   1.239  0.00  0.00     0.003 A 
ATOM      5  C3  PXY d   1      -1.511   0.585   0.038  0.00  0.00     0.003 A 
ATOM      6  C4  PXY d   1      -0.716   0.490  -1.073  0.00  0.00    -0.082 A 
ATOM      7  C5  PXY d   1       0.471  -0.147  -0.989  0.00  0.00     0.003 A 
ATOM      8  C6  PXY d   1       0.863  -0.693   0.229  0.00  0.00     0.003 A 
ENDROOT
TORSDOF 0
ENDMDL
