MODEL 1
REMARK minimizedAffinity 1.81443131
REMARK minimizedRMSD -1
REMARK  0 active torsions:
REMARK  status: ('A' for Active; 'I' for Inactive)
ROOT
ATOM      1  C4' PXY d   1       1.457  -1.293   2.724  0.00  0.00     0.077 C 
ATOM      2  C1' PXY d   1      -1.391   0.997  -1.755  0.00  0.00     0.077 C 
ATOM      3  C1  PXY d   1      -0.633   0.395  -0.588  0.00  0.00    -0.082 A 
ATOM      4  C2  PXY d   1      -1.302  -0.171   0.404  0.00  0.00     0.003 A 
ATOM      5  C3  PXY d   1      -0.634  -0.691   1.483  0.00  0.00     0.003 A 
ATOM      6  C4  PXY d   1       0.734  -0.681   1.521  0.00  0.00    -0.082 A 
ATOM      7  C5  PXY d   1       1.424  -0.115   0.508  0.00  0.00     0.003 A 
ATOM      8  C6  PXY d   1       0.726   0.445  -0.558  0.00  0.00     0.003 A 
ENDROOT
TORSDOF 0
ENDMDL
