MODEL 1
REMARK minimizedAffinity -2.89852738
REMARK minimizedRMSD -1
REMARK  0 active torsions:
REMARK  status: ('A' for Active; 'I' for Inactive)
ROOT
ATOM      1  C4' PXY d   1      -0.751   2.241  -1.670  0.00  0.00     0.077 C 
ATOM      2  C1' PXY d   1      -0.055  -1.617   2.578  0.00  0.00     0.077 C 
ATOM      3  C1  PXY d   1      -0.225  -0.608   1.460  0.00  0.00    -0.082 A 
ATOM      4  C2  PXY d   1      -1.095   0.380   1.597  0.00  0.00     0.003 A 
ATOM      5  C3  PXY d   1      -1.285   1.283   0.583  0.00  0.00     0.003 A 
ATOM      6  C4  PXY d   1      -0.539   1.205  -0.563  0.00  0.00    -0.082 A 
ATOM      7  C5  PXY d   1       0.358   0.206  -0.706  0.00  0.00     0.003 A 
ATOM      8  C6  PXY d   1       0.506  -0.724   0.319  0.00  0.00     0.003 A 
ENDROOT
TORSDOF 0
ENDMDL
