MODEL 1
REMARK minimizedAffinity -4.34437275
REMARK minimizedRMSD -1
REMARK  0 active torsions:
REMARK  status: ('A' for Active; 'I' for Inactive)
ROOT
ATOM      1  C4' PXY d   1      -0.930   1.055  -2.344  0.00  0.00     0.077 C 
ATOM      2  C1' PXY d   1       0.744  -1.051   2.773  0.00  0.00     0.077 C 
ATOM      3  C1  PXY d   1       0.317  -0.500   1.426  0.00  0.00    -0.082 A 
ATOM      4  C2  PXY d   1      -0.719   0.319   1.353  0.00  0.00     0.003 A 
ATOM      5  C3  PXY d   1      -1.139   0.801   0.140  0.00  0.00     0.003 A 
ATOM      6  C4  PXY d   1      -0.458   0.483  -1.005  0.00  0.00    -0.082 A 
ATOM      7  C5  PXY d   1       0.607  -0.344  -0.937  0.00  0.00     0.003 A 
ATOM      8  C6  PXY d   1       0.992  -0.855   0.299  0.00  0.00     0.003 A 
ENDROOT
TORSDOF 0
ENDMDL
