MODEL 1
REMARK minimizedAffinity 11.1294785
REMARK minimizedRMSD -1
REMARK  2 active torsions:
REMARK  status: ('A' for Active; 'I' for Inactive)
REMARK    1  A    between atoms: C2'_3  and  C1'_4 
REMARK    2  A    between atoms: C1'_4  and  C1_5 
ROOT
ATOM      1  C1  I4B d   1       4.419  -5.571  -3.235  0.00  0.00    -0.075 A 
ATOM      2  C2  I4B d   1       5.628  -5.228  -3.787  0.00  0.00     0.003 A 
ATOM      3  C3  I4B d   1       5.803  -5.254  -5.192  0.00  0.00     0.002 A 
ATOM      4  C4  I4B d   1       4.766  -5.674  -5.999  0.00  0.00    -0.004 A 
ATOM      5  C5  I4B d   1       3.534  -6.000  -5.439  0.00  0.00     0.002 A 
ATOM      6  C6  I4B d   1       3.355  -5.936  -4.050  0.00  0.00     0.003 A 
ENDROOT
BRANCH   1   7
ATOM      7  C1' I4B d   1       4.278  -5.564  -1.746  0.00  0.00     0.060 C 
BRANCH   7   8
ATOM      8  C2' I4B d   1       5.561  -5.014  -1.158  0.00  0.00    -0.013 C 
ATOM      9  C4' I4B d   1       5.478  -3.522  -0.969  0.00  0.00     0.013 C 
ATOM     10  C3' I4B d   1       5.811  -5.712   0.145  0.00  0.00     0.013 C 
ENDBRANCH   7   8
ENDBRANCH   1   7
TORSDOF 2
ENDMDL
