MODEL 1
REMARK minimizedAffinity 4.77044535
REMARK minimizedRMSD -1
REMARK  2 active torsions:
REMARK  status: ('A' for Active; 'I' for Inactive)
REMARK    1  A    between atoms: C2'_3  and  C1'_4 
REMARK    2  A    between atoms: C1'_4  and  C1_5 
ROOT
ATOM      1  C1  I4B d   1      -1.476   4.809   0.168  0.00  0.00    -0.075 A 
ATOM      2  C2  I4B d   1      -1.470   4.846  -1.204  0.00  0.00     0.003 A 
ATOM      3  C3  I4B d   1      -0.969   3.748  -1.945  0.00  0.00     0.002 A 
ATOM      4  C4  I4B d   1      -0.441   2.662  -1.277  0.00  0.00    -0.004 A 
ATOM      5  C5  I4B d   1      -0.469   2.616   0.114  0.00  0.00     0.002 A 
ATOM      6  C6  I4B d   1      -1.001   3.691   0.841  0.00  0.00     0.003 A 
ENDROOT
BRANCH   1   7
ATOM      7  C1' I4B d   1      -1.983   5.999   0.919  0.00  0.00     0.060 C 
BRANCH   7   8
ATOM      8  C2' I4B d   1      -2.990   5.512   1.941  0.00  0.00    -0.013 C 
ATOM      9  C4' I4B d   1      -2.642   5.997   3.323  0.00  0.00     0.013 C 
ATOM     10  C3' I4B d   1      -4.346   5.998   1.522  0.00  0.00     0.013 C 
ENDBRANCH   7   8
ENDBRANCH   1   7
TORSDOF 2
ENDMDL
