MODEL 1
REMARK minimizedAffinity 12.2554188
REMARK minimizedRMSD -1
REMARK  2 active torsions:
REMARK  status: ('A' for Active; 'I' for Inactive)
REMARK    1  A    between atoms: C2'_3  and  C1'_4 
REMARK    2  A    between atoms: C1'_4  and  C1_5 
ROOT
ATOM      1  C1  I4B d   1       0.336   2.640   1.070  0.00  0.00    -0.075 A 
ATOM      2  C2  I4B d   1      -0.558   2.013   1.901  0.00  0.00     0.003 A 
ATOM      3  C3  I4B d   1      -0.111   1.395   3.094  0.00  0.00     0.002 A 
ATOM      4  C4  I4B d   1       1.237   1.384   3.389  0.00  0.00    -0.004 A 
ATOM      5  C5  I4B d   1       2.140   2.040   2.557  0.00  0.00     0.002 A 
ATOM      6  C6  I4B d   1       1.685   2.683   1.396  0.00  0.00     0.003 A 
ENDROOT
BRANCH   1   7
ATOM      7  C1' I4B d   1      -0.166   3.254  -0.198  0.00  0.00     0.060 C 
BRANCH   7   8
ATOM      8  C2' I4B d   1       0.153   4.734  -0.159  0.00  0.00    -0.013 C 
ATOM      9  C4' I4B d   1       1.037   5.132  -1.311  0.00  0.00     0.013 C 
ATOM     10  C3' I4B d   1      -1.143   5.489  -0.185  0.00  0.00     0.013 C 
ENDBRANCH   7   8
ENDBRANCH   1   7
TORSDOF 2
ENDMDL
