MODEL 1
REMARK minimizedAffinity 12.8474131
REMARK minimizedRMSD -1
REMARK  2 active torsions:
REMARK  status: ('A' for Active; 'I' for Inactive)
REMARK    1  A    between atoms: C2'_3  and  C1'_4 
REMARK    2  A    between atoms: C1'_4  and  C1_5 
ROOT
ATOM      1  C1  I4B d   1      -0.326   3.183  -0.364  0.00  0.00    -0.075 A 
ATOM      2  C2  I4B d   1       0.025   3.203  -1.691  0.00  0.00     0.003 A 
ATOM      3  C3  I4B d   1      -0.329   4.306  -2.505  0.00  0.00     0.002 A 
ATOM      4  C4  I4B d   1      -1.072   5.338  -1.967  0.00  0.00    -0.004 A 
ATOM      5  C5  I4B d   1      -1.406   5.326  -0.616  0.00  0.00     0.002 A 
ATOM      6  C6  I4B d   1      -1.021   4.248   0.194  0.00  0.00     0.003 A 
ENDROOT
BRANCH   1   7
ATOM      7  C1' I4B d   1       0.035   1.987   0.459  0.00  0.00     0.060 C 
BRANCH   7   8
ATOM      8  C2' I4B d   1      -0.691   0.788  -0.117  0.00  0.00    -0.013 C 
ATOM      9  C4' I4B d   1       0.227  -0.400  -0.236  0.00  0.00     0.013 C 
ATOM     10  C3' I4B d   1      -1.858   0.483   0.774  0.00  0.00     0.013 C 
ENDBRANCH   7   8
ENDBRANCH   1   7
TORSDOF 2
ENDMDL
