MODEL 1
REMARK minimizedAffinity -6.07064772
REMARK minimizedRMSD -1
REMARK  0 active torsions:
REMARK  status: ('A' for Active; 'I' for Inactive)
ROOT
ATOM      1  C   UNL d   1       0.262  -1.147  -0.168  0.00  0.00     0.078 C 
ATOM      2  C1  UNL d   1       0.583   0.297   0.082  0.00  0.00    -0.077 A 
ATOM      3  C2  UNL d   1       1.900   0.714   0.311  0.00  0.00    -0.001 A 
ATOM      4  C3  UNL d   1       2.182   2.059   0.552  0.00  0.00     0.003 A 
ATOM      5  C4  UNL d   1       1.153   2.998   0.567  0.00  0.00    -0.005 A 
ATOM      6  C5  UNL d   1      -0.160   2.593   0.342  0.00  0.00     0.003 A 
ATOM      7  C6  UNL d   1      -0.445   1.248   0.101  0.00  0.00    -0.001 A 
ENDROOT
TORSDOF 0
ENDMDL
