MODEL 1
REMARK minimizedAffinity -5.467309
REMARK minimizedRMSD -1
REMARK  0 active torsions:
REMARK  status: ('A' for Active; 'I' for Inactive)
ROOT
ATOM      1  C   UNL d   1       0.062  -1.233   0.055  0.00  0.00     0.078 C 
ATOM      2  C1  UNL d   1       0.214   0.258   0.047  0.00  0.00    -0.077 A 
ATOM      3  C2  UNL d   1      -0.889   1.097   0.249  0.00  0.00    -0.001 A 
ATOM      4  C3  UNL d   1      -0.735   2.484   0.229  0.00  0.00     0.003 A 
ATOM      5  C4  UNL d   1       0.521   3.045   0.006  0.00  0.00    -0.005 A 
ATOM      6  C5  UNL d   1       1.624   2.219  -0.199  0.00  0.00     0.003 A 
ATOM      7  C6  UNL d   1       1.472   0.831  -0.179  0.00  0.00    -0.001 A 
ENDROOT
TORSDOF 0
ENDMDL
