MODEL 1
REMARK minimizedAffinity -3.08315206
REMARK minimizedRMSD -1
REMARK  0 active torsions:
REMARK  status: ('A' for Active; 'I' for Inactive)
ROOT
ATOM      1  C   UNL d   1       0.183   3.314   0.348  0.00  0.00     0.078 C 
ATOM      2  C1  UNL d   1      -0.034   1.836   0.484  0.00  0.00    -0.077 A 
ATOM      3  C2  UNL d   1      -1.200   1.330   1.070  0.00  0.00    -0.001 A 
ATOM      4  C3  UNL d   1      -1.385  -0.047   1.199  0.00  0.00     0.003 A 
ATOM      5  C4  UNL d   1      -0.407  -0.930   0.745  0.00  0.00    -0.005 A 
ATOM      6  C5  UNL d   1       0.758  -0.435   0.163  0.00  0.00     0.003 A 
ATOM      7  C6  UNL d   1       0.945   0.942   0.033  0.00  0.00    -0.001 A 
ENDROOT
TORSDOF 0
ENDMDL
