MODEL 1
REMARK minimizedAffinity -5.98677492
REMARK minimizedRMSD -1
REMARK  0 active torsions:
REMARK  status: ('A' for Active; 'I' for Inactive)
ROOT
ATOM      1  C   UNL d   1       0.374  -0.789   0.387  0.00  0.00     0.078 C 
ATOM      2  C1  UNL d   1       0.842   0.636   0.372  0.00  0.00    -0.077 A 
ATOM      3  C2  UNL d   1       2.201   0.950   0.498  0.00  0.00    -0.001 A 
ATOM      4  C3  UNL d   1       2.621   2.281   0.491  0.00  0.00     0.003 A 
ATOM      5  C4  UNL d   1       1.689   3.308   0.360  0.00  0.00    -0.005 A 
ATOM      6  C5  UNL d   1       0.335   3.006   0.236  0.00  0.00     0.003 A 
ATOM      7  C6  UNL d   1      -0.087   1.675   0.243  0.00  0.00    -0.001 A 
ENDROOT
TORSDOF 0
ENDMDL
