MODEL 1
REMARK minimizedAffinity -5.2241168
REMARK minimizedRMSD -1
REMARK  0 active torsions:
REMARK  status: ('A' for Active; 'I' for Inactive)
ROOT
ATOM      1  C   UNL d   1       4.023   1.995   0.895  0.00  0.00     0.078 C 
ATOM      2  C1  UNL d   1       2.535   1.822   0.834  0.00  0.00    -0.077 A 
ATOM      3  C2  UNL d   1       1.673   2.860   1.208  0.00  0.00    -0.001 A 
ATOM      4  C3  UNL d   1       0.289   2.682   1.156  0.00  0.00     0.003 A 
ATOM      5  C4  UNL d   1      -0.244   1.466   0.732  0.00  0.00    -0.005 A 
ATOM      6  C5  UNL d   1       0.606   0.427   0.360  0.00  0.00     0.003 A 
ATOM      7  C6  UNL d   1       1.990   0.603   0.412  0.00  0.00    -0.001 A 
ENDROOT
TORSDOF 0
ENDMDL
