MODEL 1
REMARK minimizedAffinity -5.8658886
REMARK minimizedRMSD -1
REMARK  0 active torsions:
REMARK  status: ('A' for Active; 'I' for Inactive)
ROOT
ATOM      1  C   UNL d   1       0.682  -1.082  -0.093  0.00  0.00     0.078 C 
ATOM      2  C1  UNL d   1       1.044   0.367   0.046  0.00  0.00    -0.077 A 
ATOM      3  C2  UNL d   1       2.362   0.759   0.312  0.00  0.00    -0.001 A 
ATOM      4  C3  UNL d   1       2.683   2.110   0.448  0.00  0.00     0.003 A 
ATOM      5  C4  UNL d   1       1.691   3.081   0.322  0.00  0.00    -0.005 A 
ATOM      6  C5  UNL d   1       0.377   2.700   0.059  0.00  0.00     0.003 A 
ATOM      7  C6  UNL d   1       0.054   1.349  -0.078  0.00  0.00    -0.001 A 
ENDROOT
TORSDOF 0
ENDMDL
