MODEL 1
REMARK minimizedAffinity -4.97284365
REMARK minimizedRMSD -1
REMARK  0 active torsions:
REMARK  status: ('A' for Active; 'I' for Inactive)
ROOT
ATOM      1  C   UNL d   1       0.041  -1.355   0.414  0.00  0.00     0.078 C 
ATOM      2  C1  UNL d   1       0.238   0.116   0.197  0.00  0.00    -0.077 A 
ATOM      3  C2  UNL d   1      -0.738   1.040   0.590  0.00  0.00    -0.001 A 
ATOM      4  C3  UNL d   1      -0.545   2.405   0.372  0.00  0.00     0.003 A 
ATOM      5  C4  UNL d   1       0.621   2.859  -0.240  0.00  0.00    -0.005 A 
ATOM      6  C5  UNL d   1       1.597   1.946  -0.637  0.00  0.00     0.003 A 
ATOM      7  C6  UNL d   1       1.406   0.581  -0.420  0.00  0.00    -0.001 A 
ENDROOT
TORSDOF 0
ENDMDL
