MODEL 1
REMARK minimizedAffinity -2.11203098
REMARK minimizedRMSD -1
REMARK  0 active torsions:
REMARK  status: ('A' for Active; 'I' for Inactive)
ROOT
ATOM      1  C   UNL d   1      -0.153   3.134   0.640  0.00  0.00     0.078 C 
ATOM      2  C1  UNL d   1       0.071   1.666   0.427  0.00  0.00    -0.077 A 
ATOM      3  C2  UNL d   1      -1.005   0.771   0.389  0.00  0.00    -0.001 A 
ATOM      4  C3  UNL d   1      -0.780  -0.594   0.200  0.00  0.00     0.003 A 
ATOM      5  C4  UNL d   1       0.519  -1.075   0.049  0.00  0.00    -0.005 A 
ATOM      6  C5  UNL d   1       1.595  -0.192   0.087  0.00  0.00     0.003 A 
ATOM      7  C6  UNL d   1       1.373   1.173   0.276  0.00  0.00    -0.001 A 
ENDROOT
TORSDOF 0
ENDMDL
