MODEL 1
REMARK minimizedAffinity -5.0896244
REMARK minimizedRMSD -1
REMARK  0 active torsions:
REMARK  status: ('A' for Active; 'I' for Inactive)
ROOT
ATOM      1  C   UNL d   1      -1.830   0.900   0.342  0.00  0.00     0.078 C 
ATOM      2  C1  UNL d   1      -0.536   1.657   0.305  0.00  0.00    -0.077 A 
ATOM      3  C2  UNL d   1       0.690   0.985   0.229  0.00  0.00    -0.001 A 
ATOM      4  C3  UNL d   1       1.888   1.703   0.205  0.00  0.00     0.003 A 
ATOM      5  C4  UNL d   1       1.870   3.095   0.258  0.00  0.00    -0.005 A 
ATOM      6  C5  UNL d   1       0.655   3.772   0.335  0.00  0.00     0.003 A 
ATOM      7  C6  UNL d   1      -0.544   3.056   0.359  0.00  0.00    -0.001 A 
ENDROOT
TORSDOF 0
ENDMDL
