MODEL 1
REMARK minimizedAffinity -3.28729415
REMARK minimizedRMSD -1
REMARK  0 active torsions:
REMARK  status: ('A' for Active; 'I' for Inactive)
ROOT
ATOM      1  C   UNL d   1      -1.485   0.357   0.763  0.00  0.00     0.078 C 
ATOM      2  C1  UNL d   1      -0.334   1.261   0.434  0.00  0.00    -0.077 A 
ATOM      3  C2  UNL d   1      -0.428   2.645   0.621  0.00  0.00    -0.001 A 
ATOM      4  C3  UNL d   1       0.648   3.475   0.301  0.00  0.00     0.003 A 
ATOM      5  C4  UNL d   1       1.825   2.931  -0.209  0.00  0.00    -0.005 A 
ATOM      6  C5  UNL d   1       1.927   1.554  -0.400  0.00  0.00     0.003 A 
ATOM      7  C6  UNL d   1       0.852   0.723  -0.081  0.00  0.00    -0.001 A 
ENDROOT
TORSDOF 0
ENDMDL
