MODEL 1
REMARK minimizedAffinity -3.85002041
REMARK minimizedRMSD -1
REMARK  0 active torsions:
REMARK  status: ('A' for Active; 'I' for Inactive)
ROOT
ATOM      1  C   UNL d   1      -1.137  -2.218  -2.861  0.00  0.00     0.078 C 
ATOM      2  C1  UNL d   1      -0.900  -1.289  -1.708  0.00  0.00    -0.077 A 
ATOM      3  C2  UNL d   1      -0.083  -1.665  -0.635  0.00  0.00    -0.001 A 
ATOM      4  C3  UNL d   1       0.121  -0.795   0.437  0.00  0.00     0.003 A 
ATOM      5  C4  UNL d   1      -0.491   0.457   0.447  0.00  0.00    -0.005 A 
ATOM      6  C5  UNL d   1      -1.308   0.839  -0.615  0.00  0.00     0.003 A 
ATOM      7  C6  UNL d   1      -1.513  -0.030  -1.687  0.00  0.00    -0.001 A 
ENDROOT
TORSDOF 0
ENDMDL
