MODEL 1
REMARK minimizedAffinity -5.89333868
REMARK minimizedRMSD -1
REMARK  0 active torsions:
REMARK  status: ('A' for Active; 'I' for Inactive)
ROOT
ATOM      1  C   UNL d   1       3.224   1.284   0.601  0.00  0.00     0.078 C 
ATOM      2  C1  UNL d   1       1.756   1.517   0.403  0.00  0.00    -0.077 A 
ATOM      3  C2  UNL d   1       1.207   2.800   0.519  0.00  0.00    -0.001 A 
ATOM      4  C3  UNL d   1      -0.163   3.000   0.342  0.00  0.00     0.003 A 
ATOM      5  C4  UNL d   1      -0.996   1.922   0.049  0.00  0.00    -0.005 A 
ATOM      6  C5  UNL d   1      -0.459   0.641  -0.065  0.00  0.00     0.003 A 
ATOM      7  C6  UNL d   1       0.910   0.439   0.112  0.00  0.00    -0.001 A 
ENDROOT
TORSDOF 0
ENDMDL
