MODEL 1
REMARK minimizedAffinity -4.50931501
REMARK minimizedRMSD -1
REMARK  0 active torsions:
REMARK  status: ('A' for Active; 'I' for Inactive)
ROOT
ATOM      1  C   UNL d   1       0.176  -1.938   0.326  0.00  0.00     0.078 C 
ATOM      2  C1  UNL d   1      -0.108  -0.467   0.387  0.00  0.00    -0.077 A 
ATOM      3  C2  UNL d   1      -1.303   0.015   0.937  0.00  0.00    -0.001 A 
ATOM      4  C3  UNL d   1      -1.558   1.387   0.978  0.00  0.00     0.003 A 
ATOM      5  C4  UNL d   1      -0.624   2.288   0.471  0.00  0.00    -0.005 A 
ATOM      6  C5  UNL d   1       0.567   1.818  -0.080  0.00  0.00     0.003 A 
ATOM      7  C6  UNL d   1       0.824   0.446  -0.123  0.00  0.00    -0.001 A 
ENDROOT
TORSDOF 0
ENDMDL
