MODEL 1
REMARK minimizedAffinity -5.64880848
REMARK minimizedRMSD -1
REMARK  0 active torsions:
REMARK  status: ('A' for Active; 'I' for Inactive)
ROOT
ATOM      1  C   UNL d   1      -1.328   0.626   0.110  0.00  0.00     0.078 C 
ATOM      2  C1  UNL d   1      -0.173   1.582   0.096  0.00  0.00    -0.077 A 
ATOM      3  C2  UNL d   1       1.146   1.120   0.010  0.00  0.00    -0.001 A 
ATOM      4  C3  UNL d   1       2.212   2.021   0.007  0.00  0.00     0.003 A 
ATOM      5  C4  UNL d   1       1.970   3.391   0.091  0.00  0.00    -0.005 A 
ATOM      6  C5  UNL d   1       0.661   3.861   0.179  0.00  0.00     0.003 A 
ATOM      7  C6  UNL d   1      -0.406   2.961   0.182  0.00  0.00    -0.001 A 
ENDROOT
TORSDOF 0
ENDMDL
