MODEL 1
REMARK minimizedAffinity -5.26203537
REMARK minimizedRMSD -1
REMARK  0 active torsions:
REMARK  status: ('A' for Active; 'I' for Inactive)
ROOT
ATOM      1  C   UNL d   1       0.019  -0.464   0.255  0.00  0.00     0.078 C 
ATOM      2  C1  UNL d   1       0.386   0.989   0.296  0.00  0.00    -0.077 A 
ATOM      3  C2  UNL d   1       1.691   1.395   0.602  0.00  0.00    -0.001 A 
ATOM      4  C3  UNL d   1       2.017   2.751   0.647  0.00  0.00     0.003 A 
ATOM      5  C4  UNL d   1       1.043   3.714   0.388  0.00  0.00    -0.005 A 
ATOM      6  C5  UNL d   1      -0.259   3.320   0.085  0.00  0.00     0.003 A 
ATOM      7  C6  UNL d   1      -0.587   1.964   0.040  0.00  0.00    -0.001 A 
ENDROOT
TORSDOF 0
ENDMDL
