MODEL 1
REMARK minimizedAffinity -2.85120678
REMARK minimizedRMSD -1
REMARK  0 active torsions:
REMARK  status: ('A' for Active; 'I' for Inactive)
ROOT
ATOM      1  C   UNL d   1      -0.132  -1.420  -0.285  0.00  0.00     0.078 C 
ATOM      2  C1  UNL d   1      -0.159   0.058  -0.036  0.00  0.00    -0.077 A 
ATOM      3  C2  UNL d   1      -1.326   0.694   0.407  0.00  0.00    -0.001 A 
ATOM      4  C3  UNL d   1      -1.339   2.072   0.625  0.00  0.00     0.003 A 
ATOM      5  C4  UNL d   1      -0.189   2.827   0.402  0.00  0.00    -0.005 A 
ATOM      6  C5  UNL d   1       0.976   2.204  -0.040  0.00  0.00     0.003 A 
ATOM      7  C6  UNL d   1       0.991   0.825  -0.259  0.00  0.00    -0.001 A 
ENDROOT
TORSDOF 0
ENDMDL
