MODEL 1
REMARK minimizedAffinity -3.72593379
REMARK minimizedRMSD -1
REMARK  0 active torsions:
REMARK  status: ('A' for Active; 'I' for Inactive)
ROOT
ATOM      1  C   UNL d   1       0.008  -1.073  -1.030  0.00  0.00     0.078 C 
ATOM      2  C1  UNL d   1      -0.241   0.268  -0.406  0.00  0.00    -0.077 A 
ATOM      3  C2  UNL d   1      -1.259   0.446   0.539  0.00  0.00    -0.001 A 
ATOM      4  C3  UNL d   1      -1.486   1.701   1.105  0.00  0.00     0.003 A 
ATOM      5  C4  UNL d   1      -0.699   2.789   0.731  0.00  0.00    -0.005 A 
ATOM      6  C5  UNL d   1       0.315   2.623  -0.210  0.00  0.00     0.003 A 
ATOM      7  C6  UNL d   1       0.543   1.368  -0.777  0.00  0.00    -0.001 A 
ENDROOT
TORSDOF 0
ENDMDL
