MODEL 1
REMARK minimizedAffinity -1.84533548
REMARK minimizedRMSD -1
REMARK  0 active torsions:
REMARK  status: ('A' for Active; 'I' for Inactive)
ROOT
ATOM      1  C1  DEN d   1       1.806   2.245  -5.907  0.00  0.00     0.130 A 
ATOM      2  C2  DEN d   1       2.986   1.385  -5.954  0.00  0.00    -0.031 A 
ATOM      3  C3  DEN d   1       4.181   2.251  -5.987  0.00  0.00     0.027 A 
ATOM      4  C4  DEN d   1       4.320   4.827  -5.963  0.00  0.00     0.027 A 
ATOM      5  C5  DEN d   1       3.584   5.990  -5.939  0.00  0.00    -0.003 A 
ATOM      6  C6  DEN d   1       2.214   5.988  -5.937  0.00  0.00     0.001 A 
ATOM      7  C7  DEN d   1       1.538   4.797  -5.913  0.00  0.00     0.017 A 
ATOM      8  C8  DEN d   1       2.273   3.619  -5.945  0.00  0.00    -0.094 A 
ATOM      9  C9  DEN d   1       3.657   3.643  -5.935  0.00  0.00    -0.072 A 
ENDROOT
TORSDOF 0
ENDMDL
