MODEL 1
REMARK minimizedAffinity 4.37139273
REMARK minimizedRMSD -1
REMARK  0 active torsions:
REMARK  status: ('A' for Active; 'I' for Inactive)
ROOT
ATOM      1  C1  DEN d   1       5.499   5.993   3.316  0.00  0.00     0.130 A 
ATOM      2  C2  DEN d   1       5.608   5.961   1.860  0.00  0.00    -0.031 A 
ATOM      3  C3  DEN d   1       4.242   5.940   1.300  0.00  0.00     0.027 A 
ATOM      4  C4  DEN d   1       1.980   5.959   2.539  0.00  0.00     0.027 A 
ATOM      5  C5  DEN d   1       1.379   5.972   3.779  0.00  0.00    -0.003 A 
ATOM      6  C6  DEN d   1       2.103   5.958   4.941  0.00  0.00     0.001 A 
ATOM      7  C7  DEN d   1       3.472   5.977   4.889  0.00  0.00     0.017 A 
ATOM      8  C8  DEN d   1       4.085   5.956   3.643  0.00  0.00    -0.094 A 
ATOM      9  C9  DEN d   1       3.335   5.982   2.479  0.00  0.00    -0.072 A 
ENDROOT
TORSDOF 0
ENDMDL
