MODEL 1
REMARK minimizedAffinity -0.0684106946
REMARK minimizedRMSD -1
REMARK  0 active torsions:
REMARK  status: ('A' for Active; 'I' for Inactive)
ROOT
ATOM      1  C1  DEN d   1       0.712  -0.772  -0.523  0.00  0.00     0.130 A 
ATOM      2  C2  DEN d   1       1.871  -1.302   0.191  0.00  0.00    -0.031 A 
ATOM      3  C3  DEN d   1       1.477  -1.528   1.596  0.00  0.00     0.027 A 
ATOM      4  C4  DEN d   1      -0.803  -1.116   2.728  0.00  0.00     0.027 A 
ATOM      5  C5  DEN d   1      -2.089  -0.663   2.531  0.00  0.00    -0.003 A 
ATOM      6  C6  DEN d   1      -2.518  -0.187   1.320  0.00  0.00     0.001 A 
ATOM      7  C7  DEN d   1      -1.666  -0.195   0.247  0.00  0.00     0.017 A 
ATOM      8  C8  DEN d   1      -0.366  -0.643   0.440  0.00  0.00    -0.094 A 
ATOM      9  C9  DEN d   1       0.045  -1.132   1.669  0.00  0.00    -0.072 A 
ENDROOT
TORSDOF 0
ENDMDL
