MODEL 1
REMARK minimizedAffinity 1.62505102
REMARK minimizedRMSD -1
REMARK  0 active torsions:
REMARK  status: ('A' for Active; 'I' for Inactive)
ROOT
ATOM      1  C1  DEN d   1       1.595  -1.493   1.776  0.00  0.00     0.130 A 
ATOM      2  C2  DEN d   1       2.089  -1.532   0.403  0.00  0.00    -0.031 A 
ATOM      3  C3  DEN d   1       0.992  -1.107  -0.490  0.00  0.00     0.027 A 
ATOM      4  C4  DEN d   1      -1.410  -0.391   0.119  0.00  0.00     0.027 A 
ATOM      5  C5  DEN d   1      -2.298  -0.209   1.156  0.00  0.00    -0.003 A 
ATOM      6  C6  DEN d   1      -1.965  -0.473   2.458  0.00  0.00     0.001 A 
ATOM      7  C7  DEN d   1      -0.696  -0.891   2.762  0.00  0.00     0.017 A 
ATOM      8  C8  DEN d   1       0.203  -1.083   1.722  0.00  0.00    -0.094 A 
ATOM      9  C9  DEN d   1      -0.149  -0.799   0.413  0.00  0.00    -0.072 A 
ENDROOT
TORSDOF 0
ENDMDL
