MODEL 1
REMARK minimizedAffinity 6.71110392
REMARK minimizedRMSD -1
REMARK  0 active torsions:
REMARK  status: ('A' for Active; 'I' for Inactive)
ROOT
ATOM      1  C1  DEN d   1      -1.552  -0.639   2.300  0.00  0.00     0.130 A 
ATOM      2  C2  DEN d   1      -2.923  -0.652   1.797  0.00  0.00    -0.031 A 
ATOM      3  C3  DEN d   1      -2.868  -0.698   0.322  0.00  0.00     0.027 A 
ATOM      4  C4  DEN d   1      -0.804  -0.754  -1.224  0.00  0.00     0.027 A 
ATOM      5  C5  DEN d   1       0.573  -0.747  -1.258  0.00  0.00    -0.003 A 
ATOM      6  C6  DEN d   1       1.332  -0.670  -0.120  0.00  0.00     0.001 A 
ATOM      7  C7  DEN d   1       0.718  -0.642   1.104  0.00  0.00     0.017 A 
ATOM      8  C8  DEN d   1      -0.670  -0.642   1.147  0.00  0.00    -0.094 A 
ATOM      9  C9  DEN d   1      -1.419  -0.733  -0.014  0.00  0.00    -0.072 A 
ENDROOT
TORSDOF 0
ENDMDL
