MODEL 1
REMARK minimizedAffinity -1.98363411
REMARK minimizedRMSD -1
REMARK  0 active torsions:
REMARK  status: ('A' for Active; 'I' for Inactive)
ROOT
ATOM      1  C1  DEN d   1      -3.011   1.874  -3.004  0.00  0.00     0.130 A 
ATOM      2  C2  DEN d   1      -2.623   3.192  -3.501  0.00  0.00    -0.031 A 
ATOM      3  C3  DEN d   1      -1.148   3.262  -3.503  0.00  0.00     0.027 A 
ATOM      4  C4  DEN d   1       0.563   1.467  -2.794  0.00  0.00     0.027 A 
ATOM      5  C5  DEN d   1       0.711   0.192  -2.293  0.00  0.00    -0.003 A 
ATOM      6  C6  DEN d   1      -0.363  -0.592  -1.965  0.00  0.00     0.001 A 
ATOM      7  C7  DEN d   1      -1.634  -0.126  -2.176  0.00  0.00     0.017 A 
ATOM      8  C8  DEN d   1      -1.791   1.161  -2.674  0.00  0.00    -0.094 A 
ATOM      9  C9  DEN d   1      -0.692   1.934  -3.011  0.00  0.00    -0.072 A 
ENDROOT
TORSDOF 0
ENDMDL
