MODEL 1
REMARK minimizedAffinity 7.2386446
REMARK minimizedRMSD -1
REMARK  0 active torsions:
REMARK  status: ('A' for Active; 'I' for Inactive)
ROOT
ATOM      1  C1  DEN d   1       0.191  -0.714  -1.215  0.00  0.00     0.130 A 
ATOM      2  C2  DEN d   1       1.476  -1.212  -0.732  0.00  0.00    -0.031 A 
ATOM      3  C3  DEN d   1       1.354  -1.457   0.719  0.00  0.00     0.027 A 
ATOM      4  C4  DEN d   1      -0.690  -1.122   2.256  0.00  0.00     0.027 A 
ATOM      5  C5  DEN d   1      -2.002  -0.707   2.304  0.00  0.00    -0.003 A 
ATOM      6  C6  DEN d   1      -2.660  -0.238   1.198  0.00  0.00     0.001 A 
ATOM      7  C7  DEN d   1      -2.021  -0.214  -0.013  0.00  0.00     0.017 A 
ATOM      8  C8  DEN d   1      -0.695  -0.623  -0.068  0.00  0.00    -0.094 A 
ATOM      9  C9  DEN d   1      -0.051  -1.106   1.059  0.00  0.00    -0.072 A 
ENDROOT
TORSDOF 0
ENDMDL
