MODEL 1
REMARK minimizedAffinity 7.08160162
REMARK minimizedRMSD -1
REMARK  0 active torsions:
REMARK  status: ('A' for Active; 'I' for Inactive)
ROOT
ATOM      1  C1  DEN d   1       1.700  -2.195   1.588  0.00  0.00     0.130 A 
ATOM      2  C2  DEN d   1       2.197  -1.711   0.303  0.00  0.00    -0.031 A 
ATOM      3  C3  DEN d   1       1.197  -0.778  -0.251  0.00  0.00     0.027 A 
ATOM      4  C4  DEN d   1      -1.060  -0.034   0.752  0.00  0.00     0.027 A 
ATOM      5  C5  DEN d   1      -1.918  -0.184   1.819  0.00  0.00    -0.003 A 
ATOM      6  C6  DEN d   1      -1.648  -1.034   2.859  0.00  0.00     0.001 A 
ATOM      7  C7  DEN d   1      -0.470  -1.733   2.876  0.00  0.00     0.017 A 
ATOM      8  C8  DEN d   1       0.397  -1.592   1.800  0.00  0.00    -0.094 A 
ATOM      9  C9  DEN d   1       0.112  -0.719   0.765  0.00  0.00    -0.072 A 
ENDROOT
TORSDOF 0
ENDMDL
