MODEL 1
REMARK minimizedAffinity -0.145944104
REMARK minimizedRMSD -1
REMARK  0 active torsions:
REMARK  status: ('A' for Active; 'I' for Inactive)
ROOT
ATOM      1  C1  DEN d   1      -0.041  -0.903   0.556  0.00  0.00     0.130 A 
ATOM      2  C2  DEN d   1      -0.832   0.202   1.090  0.00  0.00    -0.031 A 
ATOM      3  C3  DEN d   1      -0.113   1.459   0.801  0.00  0.00     0.027 A 
ATOM      4  C4  DEN d   1       2.133   1.801  -0.420  0.00  0.00     0.027 A 
ATOM      5  C5  DEN d   1       3.180   1.159  -1.044  0.00  0.00    -0.003 A 
ATOM      6  C6  DEN d   1       3.243  -0.205  -1.148  0.00  0.00     0.001 A 
ATOM      7  C7  DEN d   1       2.218  -0.971  -0.659  0.00  0.00     0.017 A 
ATOM      8  C8  DEN d   1       1.163  -0.332  -0.022  0.00  0.00    -0.094 A 
ATOM      9  C9  DEN d   1       1.111   1.049   0.062  0.00  0.00    -0.072 A 
ENDROOT
TORSDOF 0
ENDMDL
