MODEL 1
REMARK minimizedAffinity 1.93614352
REMARK minimizedRMSD -1
REMARK  1 active torsions:
REMARK  status: ('A' for Active; 'I' for Inactive)
REMARK    1  A    between atoms: N_2  and  C1_3 
ROOT
ATOM      1  C1  UNL d   1      -0.819   0.045   1.790  0.00  0.00     0.143 A 
ATOM      2  C2  UNL d   1      -1.266   1.369   1.865  0.00  0.00    -0.057 A 
ATOM      3  C3  UNL d   1      -0.669   2.381   1.105  0.00  0.00     0.033 A 
ATOM      4  C4  UNL d   1       0.409   2.092   0.275  0.00  0.00    -0.042 A 
ATOM      5  C5  UNL d   1       0.886   0.788   0.203  0.00  0.00     0.033 A 
ATOM      6  C6  UNL d   1       0.281  -0.220   0.959  0.00  0.00    -0.057 A 
ENDROOT
BRANCH   1   7
ATOM      7  N   UNL d   1      -1.307  -0.988   2.594  0.00  0.00    -0.732 N 
ATOM      8  C   UNL d   1      -2.699  -1.019   2.990  0.00  0.00     0.284 C 
ATOM      9  H3  UNL d   1      -0.929  -1.896   2.332  0.00  0.00     0.395 HD
ENDBRANCH   1   7
TORSDOF 1
ENDMDL
