MODEL 1
REMARK minimizedAffinity 11.6291485
REMARK minimizedRMSD -1
REMARK  1 active torsions:
REMARK  status: ('A' for Active; 'I' for Inactive)
REMARK    1  A    between atoms: N_2  and  C1_3 
ROOT
ATOM      1  C1  UNL d   1       1.458   0.824  -0.429  0.00  0.00     0.143 A 
ATOM      2  C2  UNL d   1       1.119   0.511  -1.750  0.00  0.00    -0.057 A 
ATOM      3  C3  UNL d   1       0.946  -0.817  -2.159  0.00  0.00     0.033 A 
ATOM      4  C4  UNL d   1       1.137  -1.859  -1.259  0.00  0.00    -0.042 A 
ATOM      5  C5  UNL d   1       1.498  -1.572   0.053  0.00  0.00     0.033 A 
ATOM      6  C6  UNL d   1       1.664  -0.244   0.457  0.00  0.00    -0.057 A 
ENDROOT
BRANCH   1   7
ATOM      7  N   UNL d   1       1.741   2.118   0.015  0.00  0.00    -0.732 N 
ATOM      8  C   UNL d   1       0.671   3.035   0.345  0.00  0.00     0.284 C 
ATOM      9  H3  UNL d   1       2.525   2.144   0.663  0.00  0.00     0.395 HD
ENDBRANCH   1   7
TORSDOF 1
ENDMDL
