MODEL 1
REMARK minimizedAffinity 3.1019392
REMARK minimizedRMSD -1
REMARK  1 active torsions:
REMARK  status: ('A' for Active; 'I' for Inactive)
REMARK    1  A    between atoms: N_2  and  C1_3 
ROOT
ATOM      1  C1  UNL d   1       1.514   2.272   0.942  0.00  0.00     0.143 A 
ATOM      2  C2  UNL d   1       0.741   2.212   2.107  0.00  0.00    -0.057 A 
ATOM      3  C3  UNL d   1      -0.604   2.603   2.107  0.00  0.00     0.033 A 
ATOM      4  C4  UNL d   1      -1.193   3.089   0.945  0.00  0.00    -0.042 A 
ATOM      5  C5  UNL d   1      -0.437   3.180  -0.219  0.00  0.00     0.033 A 
ATOM      6  C6  UNL d   1       0.903   2.782  -0.214  0.00  0.00    -0.057 A 
ENDROOT
BRANCH   1   7
ATOM      7  N   UNL d   1       2.882   1.991   0.902  0.00  0.00    -0.732 N 
ATOM      8  C   UNL d   1       3.707   2.175   2.076  0.00  0.00     0.284 C 
ATOM      9  H3  UNL d   1       3.089   1.145   0.376  0.00  0.00     0.395 HD
ENDBRANCH   1   7
TORSDOF 1
ENDMDL
