MODEL 1
REMARK minimizedAffinity 3.10246539
REMARK minimizedRMSD -1
REMARK  1 active torsions:
REMARK  status: ('A' for Active; 'I' for Inactive)
REMARK    1  A    between atoms: N_2  and  C1_3 
ROOT
ATOM      1  C1  UNL d   1      -0.919   2.115   1.491  0.00  0.00     0.143 A 
ATOM      2  C2  UNL d   1       0.416   1.912   1.124  0.00  0.00    -0.057 A 
ATOM      3  C3  UNL d   1       0.954   2.513  -0.020  0.00  0.00     0.033 A 
ATOM      4  C4  UNL d   1       0.156   3.307  -0.837  0.00  0.00    -0.042 A 
ATOM      5  C5  UNL d   1      -1.180   3.502  -0.506  0.00  0.00     0.033 A 
ATOM      6  C6  UNL d   1      -1.710   2.905   0.642  0.00  0.00    -0.057 A 
ENDROOT
BRANCH   1   7
ATOM      7  N   UNL d   1      -1.538   1.467   2.562  0.00  0.00    -0.732 N 
ATOM      8  C   UNL d   1      -1.946   0.083   2.450  0.00  0.00     0.284 C 
ATOM      9  H3  UNL d   1      -1.116   1.704   3.457  0.00  0.00     0.395 HD
ENDBRANCH   1   7
TORSDOF 1
ENDMDL
