MODEL 1
REMARK minimizedAffinity 2.07791567
REMARK minimizedRMSD -1
REMARK  1 active torsions:
REMARK  status: ('A' for Active; 'I' for Inactive)
REMARK    1  A    between atoms: N_2  and  C1_3 
ROOT
ATOM      1  C1  UNL d   1       1.121   1.129   0.521  0.00  0.00     0.143 A 
ATOM      2  C2  UNL d   1       2.338   1.808   0.398  0.00  0.00    -0.057 A 
ATOM      3  C3  UNL d   1       2.382   3.200   0.253  0.00  0.00     0.033 A 
ATOM      4  C4  UNL d   1       1.204   3.937   0.200  0.00  0.00    -0.042 A 
ATOM      5  C5  UNL d   1      -0.019   3.281   0.295  0.00  0.00     0.033 A 
ATOM      6  C6  UNL d   1      -0.056   1.891   0.446  0.00  0.00    -0.057 A 
ENDROOT
BRANCH   1   7
ATOM      7  N   UNL d   1       1.007  -0.262   0.568  0.00  0.00    -0.732 N 
ATOM      8  C   UNL d   1       2.181  -1.102   0.461  0.00  0.00     0.284 C 
ATOM      9  H3  UNL d   1       0.335  -0.574   1.266  0.00  0.00     0.395 HD
ENDBRANCH   1   7
TORSDOF 1
ENDMDL
