MODEL 1
REMARK minimizedAffinity 3.81315827
REMARK minimizedRMSD -1
REMARK  1 active torsions:
REMARK  status: ('A' for Active; 'I' for Inactive)
REMARK    1  A    between atoms: N_2  and  C1_3 
ROOT
ATOM      1  C1  UNL d   1       0.321   1.706   1.496  0.00  0.00     0.143 A 
ATOM      2  C2  UNL d   1       0.916   0.448   1.640  0.00  0.00    -0.057 A 
ATOM      3  C3  UNL d   1       1.721  -0.095   0.631  0.00  0.00     0.033 A 
ATOM      4  C4  UNL d   1       1.922   0.601  -0.557  0.00  0.00    -0.042 A 
ATOM      5  C5  UNL d   1       1.320   1.843  -0.732  0.00  0.00     0.033 A 
ATOM      6  C6  UNL d   1       0.523   2.382   0.282  0.00  0.00    -0.057 A 
ENDROOT
BRANCH   1   7
ATOM      7  N   UNL d   1      -0.569   2.256   2.421  0.00  0.00    -0.732 N 
ATOM      8  C   UNL d   1      -0.516   1.870   3.815  0.00  0.00     0.284 C 
ATOM      9  H3  UNL d   1      -0.719   3.251   2.271  0.00  0.00     0.395 HD
ENDBRANCH   1   7
TORSDOF 1
ENDMDL
