MODEL 1
REMARK minimizedAffinity -0.866562009
REMARK minimizedRMSD -1
REMARK  1 active torsions:
REMARK  status: ('A' for Active; 'I' for Inactive)
REMARK    1  A    between atoms: N_2  and  C1_3 
ROOT
ATOM      1  C1  UNL d   1       1.456   2.601   1.720  0.00  0.00     0.143 A 
ATOM      2  C2  UNL d   1       1.482   3.667   0.815  0.00  0.00    -0.057 A 
ATOM      3  C3  UNL d   1       0.301   4.183   0.267  0.00  0.00     0.033 A 
ATOM      4  C4  UNL d   1      -0.928   3.620   0.593  0.00  0.00    -0.042 A 
ATOM      5  C5  UNL d   1      -0.975   2.543   1.472  0.00  0.00     0.033 A 
ATOM      6  C6  UNL d   1       0.207   2.037   2.021  0.00  0.00    -0.057 A 
ENDROOT
BRANCH   1   7
ATOM      7  N   UNL d   1       2.602   1.980   2.223  0.00  0.00    -0.732 N 
ATOM      8  C   UNL d   1       3.881   2.656   2.191  0.00  0.00     0.284 C 
ATOM      9  H3  UNL d   1       2.422   1.472   3.086  0.00  0.00     0.395 HD
ENDBRANCH   1   7
TORSDOF 1
ENDMDL
