MODEL 1
REMARK minimizedAffinity 5.26428509
REMARK minimizedRMSD -1
REMARK  1 active torsions:
REMARK  status: ('A' for Active; 'I' for Inactive)
REMARK    1  A    between atoms: N_2  and  C1_3 
ROOT
ATOM      1  C1  UNL d   1       2.836   1.804  -0.700  0.00  0.00     0.143 A 
ATOM      2  C2  UNL d   1       1.577   1.857  -0.092  0.00  0.00    -0.057 A 
ATOM      3  C3  UNL d   1       1.419   1.589   1.273  0.00  0.00     0.033 A 
ATOM      4  C4  UNL d   1       2.516   1.235   2.050  0.00  0.00    -0.042 A 
ATOM      5  C5  UNL d   1       3.773   1.152   1.462  0.00  0.00     0.033 A 
ATOM      6  C6  UNL d   1       3.926   1.427   0.099  0.00  0.00    -0.057 A 
ENDROOT
BRANCH   1   7
ATOM      7  N   UNL d   1       3.044   1.963  -2.073  0.00  0.00    -0.732 N 
ATOM      8  C   UNL d   1       2.102   1.421  -3.029  0.00  0.00     0.284 C 
ATOM      9  H3  UNL d   1       3.388   2.891  -2.309  0.00  0.00     0.395 HD
ENDBRANCH   1   7
TORSDOF 1
ENDMDL
