MODEL 1
REMARK minimizedAffinity 0.977751851
REMARK minimizedRMSD -1
REMARK  1 active torsions:
REMARK  status: ('A' for Active; 'I' for Inactive)
REMARK    1  A    between atoms: N_2  and  C1_3 
ROOT
ATOM      1  C1  UNL d   1       3.100   4.816   2.426  0.00  0.00     0.143 A 
ATOM      2  C2  UNL d   1       4.437   4.616   2.067  0.00  0.00    -0.057 A 
ATOM      3  C3  UNL d   1       4.885   3.376   1.598  0.00  0.00     0.033 A 
ATOM      4  C4  UNL d   1       4.006   2.301   1.506  0.00  0.00    -0.042 A 
ATOM      5  C5  UNL d   1       2.678   2.470   1.881  0.00  0.00     0.033 A 
ATOM      6  C6  UNL d   1       2.235   3.713   2.343  0.00  0.00    -0.057 A 
ENDROOT
BRANCH   1   7
ATOM      7  N   UNL d   1       2.614   5.998   2.992  0.00  0.00    -0.732 N 
ATOM      8  C   UNL d   1       1.381   6.000   3.749  0.00  0.00     0.284 C 
ATOM      9  H3  UNL d   1       3.354   6.565   3.401  0.00  0.00     0.395 HD
ENDBRANCH   1   7
TORSDOF 1
ENDMDL
