MODEL 1
REMARK minimizedAffinity 2.24311209
REMARK minimizedRMSD -1
REMARK  1 active torsions:
REMARK  status: ('A' for Active; 'I' for Inactive)
REMARK    1  A    between atoms: N_2  and  C1_3 
ROOT
ATOM      1  C1  UNL d   1       0.946   2.574   0.772  0.00  0.00     0.143 A 
ATOM      2  C2  UNL d   1       2.038   3.339   1.192  0.00  0.00    -0.057 A 
ATOM      3  C3  UNL d   1       3.333   2.807   1.211  0.00  0.00     0.033 A 
ATOM      4  C4  UNL d   1       3.555   1.487   0.834  0.00  0.00    -0.042 A 
ATOM      5  C5  UNL d   1       2.480   0.700   0.436  0.00  0.00     0.033 A 
ATOM      6  C6  UNL d   1       1.190   1.238   0.414  0.00  0.00    -0.057 A 
ENDROOT
BRANCH   1   7
ATOM      7  N   UNL d   1      -0.379   3.014   0.825  0.00  0.00    -0.732 N 
ATOM      8  C   UNL d   1      -1.324   2.634  -0.204  0.00  0.00     0.284 C 
ATOM      9  H3  UNL d   1      -0.759   2.989   1.768  0.00  0.00     0.395 HD
ENDBRANCH   1   7
TORSDOF 1
ENDMDL
