MODEL 1
REMARK minimizedAffinity 3.63228321
REMARK minimizedRMSD -1
REMARK  1 active torsions:
REMARK  status: ('A' for Active; 'I' for Inactive)
REMARK    1  A    between atoms: N_2  and  C1_3 
ROOT
ATOM      1  C1  UNL d   1       0.532   2.811   0.347  0.00  0.00     0.143 A 
ATOM      2  C2  UNL d   1       1.435   3.832   0.659  0.00  0.00    -0.057 A 
ATOM      3  C3  UNL d   1       2.813   3.592   0.712  0.00  0.00     0.033 A 
ATOM      4  C4  UNL d   1       3.312   2.314   0.482  0.00  0.00    -0.042 A 
ATOM      5  C5  UNL d   1       2.431   1.278   0.195  0.00  0.00     0.033 A 
ATOM      6  C6  UNL d   1       1.056   1.526   0.136  0.00  0.00    -0.057 A 
ENDROOT
BRANCH   1   7
ATOM      7  N   UNL d   1      -0.856   2.964   0.375  0.00  0.00    -0.732 N 
ATOM      8  C   UNL d   1      -1.716   1.840   0.678  0.00  0.00     0.284 C 
ATOM      9  H3  UNL d   1      -1.142   3.836   0.815  0.00  0.00     0.395 HD
ENDBRANCH   1   7
TORSDOF 1
ENDMDL
