MODEL 1
REMARK minimizedAffinity 2.62383056
REMARK minimizedRMSD -1
REMARK  1 active torsions:
REMARK  status: ('A' for Active; 'I' for Inactive)
REMARK    1  A    between atoms: N_2  and  C1_3 
ROOT
ATOM      1  C1  UNL d   1       0.941   2.407   0.844  0.00  0.00     0.143 A 
ATOM      2  C2  UNL d   1       1.122   1.149   0.259  0.00  0.00    -0.057 A 
ATOM      3  C3  UNL d   1       2.389   0.558   0.186  0.00  0.00     0.033 A 
ATOM      4  C4  UNL d   1       3.506   1.230   0.672  0.00  0.00    -0.042 A 
ATOM      5  C5  UNL d   1       3.353   2.492   1.235  0.00  0.00     0.033 A 
ATOM      6  C6  UNL d   1       2.084   3.074   1.311  0.00  0.00    -0.057 A 
ENDROOT
BRANCH   1   7
ATOM      7  N   UNL d   1      -0.278   3.090   0.858  0.00  0.00    -0.732 N 
ATOM      8  C   UNL d   1      -1.486   2.452   0.381  0.00  0.00     0.284 C 
ATOM      9  H3  UNL d   1      -0.405   3.641   1.704  0.00  0.00     0.395 HD
ENDBRANCH   1   7
TORSDOF 1
ENDMDL
