MODEL 1
REMARK minimizedAffinity -0.690533638
REMARK minimizedRMSD -1
REMARK  0 active torsions:
REMARK  status: ('A' for Active; 'I' for Inactive)
ROOT
ATOM      1  N1  IND d   1      -1.920  -0.128  -4.656  0.00  0.00    -0.196 N 
ATOM      2  C2  IND d   1      -1.799  -0.833  -3.492  0.00  0.00     0.054 A 
ATOM      3  C3  IND d   1      -3.020  -1.137  -2.996  0.00  0.00    -0.031 A 
ATOM      4  C4  IND d   1      -5.350  -0.665  -3.985  0.00  0.00     0.051 A 
ATOM      5  C5  IND d   1      -5.972  -0.017  -5.015  0.00  0.00    -0.031 A 
ATOM      6  C6  IND d   1      -5.261   0.639  -5.999  0.00  0.00     0.015 A 
ATOM      7  C7  IND d   1      -3.895   0.660  -5.996  0.00  0.00    -0.016 A 
ATOM      8  C8  IND d   1      -3.260   0.009  -4.948  0.00  0.00    -0.047 A 
ATOM      9  C9  IND d   1      -3.977  -0.621  -3.923  0.00  0.00    -0.096 A 
ATOM     10  HN1 IND d   1      -1.270   0.179  -5.127  0.00  0.00     0.298 HD
ENDROOT
TORSDOF 0
ENDMDL
