MODEL 1
REMARK minimizedAffinity 5.52323627
REMARK minimizedRMSD -1
REMARK  0 active torsions:
REMARK  status: ('A' for Active; 'I' for Inactive)
ROOT
ATOM      1  N1  IND d   1       5.649  -2.450   0.382  0.00  0.00    -0.196 N 
ATOM      2  C2  IND d   1       5.857  -3.693   0.912  0.00  0.00     0.054 A 
ATOM      3  C3  IND d   1       4.691  -4.216   1.353  0.00  0.00    -0.031 A 
ATOM      4  C4  IND d   1       2.308  -3.251   1.215  0.00  0.00     0.051 A 
ATOM      5  C5  IND d   1       1.620  -2.129   0.847  0.00  0.00    -0.031 A 
ATOM      6  C6  IND d   1       2.253  -1.035   0.292  0.00  0.00     0.015 A 
ATOM      7  C7  IND d   1       3.601  -1.027   0.073  0.00  0.00    -0.016 A 
ATOM      8  C8  IND d   1       4.304  -2.162   0.451  0.00  0.00    -0.047 A 
ATOM      9  C9  IND d   1       3.674  -3.259   1.053  0.00  0.00    -0.096 A 
ATOM     10  HN1 IND d   1       6.257  -1.934   0.059  0.00  0.00     0.298 HD
ENDROOT
TORSDOF 0
ENDMDL
