MODEL 1
REMARK minimizedAffinity 11.7414351
REMARK minimizedRMSD -1
REMARK  0 active torsions:
REMARK  status: ('A' for Active; 'I' for Inactive)
ROOT
ATOM      1  N1  IND d   1       3.508  -2.206   0.223  0.00  0.00    -0.196 N 
ATOM      2  C2  IND d   1       2.337  -2.790   0.618  0.00  0.00     0.054 A 
ATOM      3  C3  IND d   1       1.354  -1.866   0.696  0.00  0.00    -0.031 A 
ATOM      4  C4  IND d   1       1.419   0.643   0.123  0.00  0.00     0.051 A 
ATOM      5  C5  IND d   1       2.276   1.642  -0.245  0.00  0.00    -0.031 A 
ATOM      6  C6  IND d   1       3.614   1.404  -0.484  0.00  0.00     0.015 A 
ATOM      7  C7  IND d   1       4.145   0.150  -0.373  0.00  0.00    -0.016 A 
ATOM      8  C8  IND d   1       3.279  -0.865   0.007  0.00  0.00    -0.047 A 
ATOM      9  C9  IND d   1       1.929  -0.622   0.292  0.00  0.00    -0.096 A 
ATOM     10  HN1 IND d   1       4.262  -2.609   0.126  0.00  0.00     0.298 HD
ENDROOT
TORSDOF 0
ENDMDL
