MODEL 1
REMARK minimizedAffinity -1.74179149
REMARK minimizedRMSD -1
REMARK  0 active torsions:
REMARK  status: ('A' for Active; 'I' for Inactive)
ROOT
ATOM      1  N1  IND d   1      -4.561  -1.509  -2.851  0.00  0.00    -0.196 N 
ATOM      2  C2  IND d   1      -3.363  -1.512  -2.192  0.00  0.00     0.054 A 
ATOM      3  C3  IND d   1      -2.454  -0.771  -2.865  0.00  0.00    -0.031 A 
ATOM      4  C4  IND d   1      -2.744   0.617  -5.013  0.00  0.00     0.051 A 
ATOM      5  C5  IND d   1      -3.647   0.902  -5.998  0.00  0.00    -0.031 A 
ATOM      6  C6  IND d   1      -4.928   0.389  -5.983  0.00  0.00     0.015 A 
ATOM      7  C7  IND d   1      -5.359  -0.422  -4.971  0.00  0.00    -0.016 A 
ATOM      8  C8  IND d   1      -4.442  -0.719  -3.973  0.00  0.00    -0.047 A 
ATOM      9  C9  IND d   1      -3.127  -0.236  -4.005  0.00  0.00    -0.096 A 
ATOM     10  HN1 IND d   1      -5.269  -1.930  -2.606  0.00  0.00     0.298 HD
ENDROOT
TORSDOF 0
ENDMDL
