MODEL 1
REMARK minimizedAffinity -2.89599872
REMARK minimizedRMSD -1
REMARK  0 active torsions:
REMARK  status: ('A' for Active; 'I' for Inactive)
ROOT
ATOM      1  N1  IND d   1       5.093  -3.719   2.492  0.00  0.00    -0.196 N 
ATOM      2  C2  IND d   1       4.999  -3.736   3.855  0.00  0.00     0.054 A 
ATOM      3  C3  IND d   1       3.902  -3.056   4.260  0.00  0.00    -0.031 A 
ATOM      4  C4  IND d   1       2.069  -1.924   2.852  0.00  0.00     0.051 A 
ATOM      5  C5  IND d   1       1.738  -1.613   1.563  0.00  0.00    -0.031 A 
ATOM      6  C6  IND d   1       2.524  -1.998   0.496  0.00  0.00     0.015 A 
ATOM      7  C7  IND d   1       3.668  -2.722   0.678  0.00  0.00    -0.016 A 
ATOM      8  C8  IND d   1       4.010  -3.033   1.986  0.00  0.00    -0.047 A 
ATOM      9  C9  IND d   1       3.240  -2.608   3.076  0.00  0.00    -0.096 A 
ATOM     10  HN1 IND d   1       5.723  -4.076   2.028  0.00  0.00     0.298 HD
ENDROOT
TORSDOF 0
ENDMDL
