MODEL 1
REMARK minimizedAffinity -1.62485397
REMARK minimizedRMSD -1
REMARK  0 active torsions:
REMARK  status: ('A' for Active; 'I' for Inactive)
ROOT
ATOM      1  N1  IND d   1      -2.273  -1.123  -3.744  0.00  0.00    -0.196 N 
ATOM      2  C2  IND d   1      -2.872  -1.589  -2.607  0.00  0.00     0.054 A 
ATOM      3  C3  IND d   1      -4.126  -1.094  -2.499  0.00  0.00    -0.031 A 
ATOM      4  C4  IND d   1      -5.434   0.416  -4.123  0.00  0.00     0.051 A 
ATOM      5  C5  IND d   1      -5.294   1.129  -5.280  0.00  0.00    -0.031 A 
ATOM      6  C6  IND d   1      -4.117   1.127  -6.000  0.00  0.00     0.015 A 
ATOM      7  C7  IND d   1      -3.035   0.398  -5.594  0.00  0.00    -0.016 A 
ATOM      8  C8  IND d   1      -3.171  -0.323  -4.416  0.00  0.00    -0.047 A 
ATOM      9  C9  IND d   1      -4.349  -0.290  -3.658  0.00  0.00    -0.096 A 
ATOM     10  HN1 IND d   1      -1.471  -1.299  -3.997  0.00  0.00     0.298 HD
ENDROOT
TORSDOF 0
ENDMDL
