MODEL 1
REMARK minimizedAffinity 1.16892791
REMARK minimizedRMSD -1
REMARK  0 active torsions:
REMARK  status: ('A' for Active; 'I' for Inactive)
ROOT
ATOM      1  N1  IND d   1      -3.203  -1.815  -3.956  0.00  0.00    -0.196 N 
ATOM      2  C2  IND d   1      -1.924  -1.488  -4.312  0.00  0.00     0.054 A 
ATOM      3  C3  IND d   1      -1.914  -0.341  -5.028  0.00  0.00    -0.031 A 
ATOM      4  C4  IND d   1      -3.867   1.218  -5.647  0.00  0.00     0.051 A 
ATOM      5  C5  IND d   1      -5.228   1.321  -5.575  0.00  0.00    -0.031 A 
ATOM      6  C6  IND d   1      -5.998   0.366  -4.944  0.00  0.00     0.015 A 
ATOM      7  C7  IND d   1      -5.433  -0.727  -4.350  0.00  0.00    -0.016 A 
ATOM      8  C8  IND d   1      -4.052  -0.838  -4.427  0.00  0.00    -0.047 A 
ATOM      9  C9  IND d   1      -3.269   0.106  -5.102  0.00  0.00    -0.096 A 
ATOM     10  HN1 IND d   1      -3.437  -2.513  -3.512  0.00  0.00     0.298 HD
ENDROOT
TORSDOF 0
ENDMDL
