MODEL 1
REMARK minimizedAffinity 4.34697151
REMARK minimizedRMSD -1
REMARK  0 active torsions:
REMARK  status: ('A' for Active; 'I' for Inactive)
ROOT
ATOM      1  N1  IND d   1      -3.273  -2.020  -3.912  0.00  0.00    -0.196 N 
ATOM      2  C2  IND d   1      -4.524  -1.894  -3.374  0.00  0.00     0.054 A 
ATOM      3  C3  IND d   1      -5.068  -0.707  -3.721  0.00  0.00    -0.031 A 
ATOM      4  C4  IND d   1      -4.127   1.141  -5.247  0.00  0.00     0.051 A 
ATOM      5  C5  IND d   1      -3.005   1.495  -5.942  0.00  0.00    -0.031 A 
ATOM      6  C6  IND d   1      -1.894   0.679  -6.000  0.00  0.00     0.015 A 
ATOM      7  C7  IND d   1      -1.867  -0.533  -5.371  0.00  0.00    -0.016 A 
ATOM      8  C8  IND d   1      -3.002  -0.894  -4.658  0.00  0.00    -0.047 A 
ATOM      9  C9  IND d   1      -4.116  -0.051  -4.560  0.00  0.00    -0.096 A 
ATOM     10  HN1 IND d   1      -2.745  -2.689  -3.803  0.00  0.00     0.298 HD
ENDROOT
TORSDOF 0
ENDMDL
