MODEL 1
REMARK minimizedAffinity 4.60456753
REMARK minimizedRMSD -1
REMARK  0 active torsions:
REMARK  status: ('A' for Active; 'I' for Inactive)
ROOT
ATOM      1  N1  IND d   1      -4.576   0.615  -5.970  0.00  0.00    -0.196 N 
ATOM      2  C2  IND d   1      -5.710   0.732  -5.215  0.00  0.00     0.054 A 
ATOM      3  C3  IND d   1      -5.552   0.105  -4.028  0.00  0.00    -0.031 A 
ATOM      4  C4  IND d   1      -3.482  -1.092  -3.073  0.00  0.00     0.051 A 
ATOM      5  C5  IND d   1      -2.218  -1.489  -3.407  0.00  0.00    -0.031 A 
ATOM      6  C6  IND d   1      -1.663  -1.197  -4.636  0.00  0.00     0.015 A 
ATOM      7  C7  IND d   1      -2.350  -0.484  -5.577  0.00  0.00    -0.016 A 
ATOM      8  C8  IND d   1      -3.637  -0.085  -5.244  0.00  0.00    -0.047 A 
ATOM      9  C9  IND d   1      -4.221  -0.415  -4.014  0.00  0.00    -0.096 A 
ATOM     10  HN1 IND d   1      -4.467   0.926  -6.764  0.00  0.00     0.298 HD
ENDROOT
TORSDOF 0
ENDMDL
