MODEL 1
REMARK minimizedAffinity -0.542900383
REMARK minimizedRMSD -1
REMARK  0 active torsions:
REMARK  status: ('A' for Active; 'I' for Inactive)
ROOT
ATOM      1  N1  IND d   1      -2.564  -1.617  -4.140  0.00  0.00    -0.196 N 
ATOM      2  C2  IND d   1      -1.649  -1.255  -5.089  0.00  0.00     0.054 A 
ATOM      3  C3  IND d   1      -2.171  -0.318  -5.913  0.00  0.00    -0.031 A 
ATOM      4  C4  IND d   1      -4.470   0.838  -5.825  0.00  0.00     0.051 A 
ATOM      5  C5  IND d   1      -5.663   0.814  -5.159  0.00  0.00    -0.031 A 
ATOM      6  C6  IND d   1      -5.888  -0.037  -4.096  0.00  0.00     0.015 A 
ATOM      7  C7  IND d   1      -4.919  -0.891  -3.650  0.00  0.00    -0.016 A 
ATOM      8  C8  IND d   1      -3.709  -0.875  -4.329  0.00  0.00    -0.047 A 
ATOM      9  C9  IND d   1      -3.489  -0.044  -5.435  0.00  0.00    -0.096 A 
ATOM     10  HN1 IND d   1      -2.444  -2.209  -3.528  0.00  0.00     0.298 HD
ENDROOT
TORSDOF 0
ENDMDL
