MODEL 1
REMARK minimizedAffinity 12.8042994
REMARK minimizedRMSD -1
REMARK  0 active torsions:
REMARK  status: ('A' for Active; 'I' for Inactive)
ROOT
ATOM      1  N1  IND d   1       0.981   2.729   1.721  0.00  0.00    -0.196 N 
ATOM      2  C2  IND d   1       0.303   1.938   2.607  0.00  0.00     0.054 A 
ATOM      3  C3  IND d   1       0.686   0.648   2.473  0.00  0.00    -0.031 A 
ATOM      4  C4  IND d   1       2.480  -0.376   0.937  0.00  0.00     0.051 A 
ATOM      5  C5  IND d   1       3.341  -0.056  -0.075  0.00  0.00    -0.031 A 
ATOM      6  C6  IND d   1       3.463   1.234  -0.548  0.00  0.00     0.015 A 
ATOM      7  C7  IND d   1       2.735   2.260  -0.016  0.00  0.00    -0.016 A 
ATOM      8  C8  IND d   1       1.854   1.938   1.007  0.00  0.00    -0.047 A 
ATOM      9  C9  IND d   1       1.695   0.623   1.462  0.00  0.00    -0.096 A 
ATOM     10  HN1 IND d   1       0.879   3.577   1.626  0.00  0.00     0.298 HD
ENDROOT
TORSDOF 0
ENDMDL
