MODEL 1
REMARK minimizedAffinity 21.4796181
REMARK minimizedRMSD -1
REMARK  0 active torsions:
REMARK  status: ('A' for Active; 'I' for Inactive)
ROOT
ATOM      1  N1  IND d   1      -1.144   0.074  -2.081  0.00  0.00    -0.196 N 
ATOM      2  C2  IND d   1      -2.347  -0.471  -2.432  0.00  0.00     0.054 A 
ATOM      3  C3  IND d   1      -2.205  -1.788  -2.705  0.00  0.00    -0.031 A 
ATOM      4  C4  IND d   1      -0.110  -3.276  -2.540  0.00  0.00     0.051 A 
ATOM      5  C5  IND d   1       1.234  -3.221  -2.297  0.00  0.00    -0.031 A 
ATOM      6  C6  IND d   1       1.866  -2.041  -1.960  0.00  0.00     0.015 A 
ATOM      7  C7  IND d   1       1.173  -0.870  -1.842  0.00  0.00    -0.016 A 
ATOM      8  C8  IND d   1      -0.191  -0.920  -2.095  0.00  0.00    -0.047 A 
ATOM      9  C9  IND d   1      -0.831  -2.106  -2.479  0.00  0.00    -0.096 A 
ATOM     10  HN1 IND d   1      -1.005   0.900  -1.885  0.00  0.00     0.298 HD
ENDROOT
TORSDOF 0
ENDMDL
