MODEL 1
REMARK minimizedAffinity 8.46392632
REMARK minimizedRMSD -1
REMARK  0 active torsions:
REMARK  status: ('A' for Active; 'I' for Inactive)
ROOT
ATOM      1  N1  IND d   1       3.903   2.325  -1.827  0.00  0.00    -0.196 N 
ATOM      2  C2  IND d   1       4.951   2.780  -1.076  0.00  0.00     0.054 A 
ATOM      3  C3  IND d   1       4.895   2.262   0.171  0.00  0.00    -0.031 A 
ATOM      4  C4  IND d   1       3.231   0.569   1.166  0.00  0.00     0.051 A 
ATOM      5  C5  IND d   1       2.079  -0.107   0.876  0.00  0.00    -0.031 A 
ATOM      6  C6  IND d   1       1.466  -0.008  -0.356  0.00  0.00     0.015 A 
ATOM      7  C7  IND d   1       1.990   0.767  -1.352  0.00  0.00    -0.016 A 
ATOM      8  C8  IND d   1       3.156   1.461  -1.058  0.00  0.00    -0.047 A 
ATOM      9  C9  IND d   1       3.759   1.397   0.204  0.00  0.00    -0.096 A 
ATOM     10  HN1 IND d   1       3.739   2.543  -2.643  0.00  0.00     0.298 HD
ENDROOT
TORSDOF 0
ENDMDL
