MODEL 1
REMARK minimizedAffinity 15.1665001
REMARK minimizedRMSD -1
REMARK  0 active torsions:
REMARK  status: ('A' for Active; 'I' for Inactive)
ROOT
ATOM      1  N1  IND d   1       5.780   3.985   1.310  0.00  0.00    -0.196 N 
ATOM      2  C2  IND d   1       5.475   3.719   2.616  0.00  0.00     0.054 A 
ATOM      3  C3  IND d   1       4.514   2.771   2.690  0.00  0.00    -0.031 A 
ATOM      4  C4  IND d   1       3.374   1.446   0.800  0.00  0.00     0.051 A 
ATOM      5  C5  IND d   1       3.296   1.363  -0.562  0.00  0.00    -0.031 A 
ATOM      6  C6  IND d   1       4.061   2.163  -1.386  0.00  0.00     0.015 A 
ATOM      7  C7  IND d   1       4.943   3.074  -0.877  0.00  0.00    -0.016 A 
ATOM      8  C8  IND d   1       5.019   3.166   0.506  0.00  0.00    -0.047 A 
ATOM      9  C9  IND d   1       4.215   2.386   1.347  0.00  0.00    -0.096 A 
ATOM     10  HN1 IND d   1       6.352   4.567   1.037  0.00  0.00     0.298 HD
ENDROOT
TORSDOF 0
ENDMDL
