MODEL 1
REMARK minimizedAffinity 13.0906191
REMARK minimizedRMSD -1
REMARK  0 active torsions:
REMARK  status: ('A' for Active; 'I' for Inactive)
ROOT
ATOM      1  N1  IND d   1       4.465   1.519  -2.635  0.00  0.00    -0.196 N 
ATOM      2  C2  IND d   1       5.060   2.691  -2.258  0.00  0.00     0.054 A 
ATOM      3  C3  IND d   1       4.661   3.041  -1.014  0.00  0.00    -0.031 A 
ATOM      4  C4  IND d   1       3.119   1.789   0.623  0.00  0.00     0.051 A 
ATOM      5  C5  IND d   1       2.308   0.693   0.714  0.00  0.00    -0.031 A 
ATOM      6  C6  IND d   1       2.173  -0.203  -0.327  0.00  0.00     0.015 A 
ATOM      7  C7  IND d   1       2.857  -0.042  -1.499  0.00  0.00    -0.016 A 
ATOM      8  C8  IND d   1       3.677   1.073  -1.597  0.00  0.00    -0.047 A 
ATOM      9  C9  IND d   1       3.784   2.009  -0.560  0.00  0.00    -0.096 A 
ATOM     10  HN1 IND d   1       4.566   1.127  -3.393  0.00  0.00     0.298 HD
ENDROOT
TORSDOF 0
ENDMDL
