MODEL 1
REMARK minimizedAffinity 17.1839466
REMARK minimizedRMSD -1
REMARK  0 active torsions:
REMARK  status: ('A' for Active; 'I' for Inactive)
ROOT
ATOM      1  N1  IND d   1       2.518   1.410  -1.309  0.00  0.00    -0.196 N 
ATOM      2  C2  IND d   1       3.135   2.180  -0.363  0.00  0.00     0.054 A 
ATOM      3  C3  IND d   1       3.380   1.453   0.750  0.00  0.00    -0.031 A 
ATOM      4  C4  IND d   1       2.947  -1.045   1.199  0.00  0.00     0.051 A 
ATOM      5  C5  IND d   1       2.369  -2.154   0.648  0.00  0.00    -0.031 A 
ATOM      6  C6  IND d   1       1.802  -2.132  -0.610  0.00  0.00     0.015 A 
ATOM      7  C7  IND d   1       1.802  -0.998  -1.372  0.00  0.00    -0.016 A 
ATOM      8  C8  IND d   1       2.382   0.132  -0.813  0.00  0.00    -0.047 A 
ATOM      9  C9  IND d   1       2.921   0.127   0.480  0.00  0.00    -0.096 A 
ATOM     10  HN1 IND d   1       2.258   1.678  -2.083  0.00  0.00     0.298 HD
ENDROOT
TORSDOF 0
ENDMDL
