MODEL 1
REMARK minimizedAffinity 13.0768738
REMARK minimizedRMSD -1
REMARK  0 active torsions:
REMARK  status: ('A' for Active; 'I' for Inactive)
ROOT
ATOM      1  N1  IND d   1       1.076  -3.269  -0.189  0.00  0.00    -0.196 N 
ATOM      2  C2  IND d   1       0.396  -3.252  -1.375  0.00  0.00     0.054 A 
ATOM      3  C3  IND d   1       0.624  -2.092  -2.031  0.00  0.00    -0.031 A 
ATOM      4  C4  IND d   1       2.156  -0.125  -1.391  0.00  0.00     0.051 A 
ATOM      5  C5  IND d   1       2.954   0.335  -0.382  0.00  0.00    -0.031 A 
ATOM      6  C6  IND d   1       3.174  -0.399   0.766  0.00  0.00     0.015 A 
ATOM      7  C7  IND d   1       2.610  -1.631   0.942  0.00  0.00    -0.016 A 
ATOM      8  C8  IND d   1       1.793  -2.098  -0.078  0.00  0.00    -0.047 A 
ATOM      9  C9  IND d   1       1.532  -1.339  -1.226  0.00  0.00    -0.096 A 
ATOM     10  HN1 IND d   1       1.058  -3.904   0.391  0.00  0.00     0.298 HD
ENDROOT
TORSDOF 0
ENDMDL
