MODEL 1
REMARK minimizedAffinity 18.2282887
REMARK minimizedRMSD -1
REMARK  0 active torsions:
REMARK  status: ('A' for Active; 'I' for Inactive)
ROOT
ATOM      1  N1  IND d   1       2.947   1.320  -1.532  0.00  0.00    -0.196 N 
ATOM      2  C2  IND d   1       3.597   2.269  -0.793  0.00  0.00     0.054 A 
ATOM      3  C3  IND d   1       3.904   1.783   0.431  0.00  0.00    -0.031 A 
ATOM      4  C4  IND d   1       3.524  -0.572   1.398  0.00  0.00     0.051 A 
ATOM      5  C5  IND d   1       2.936  -1.772   1.113  0.00  0.00    -0.031 A 
ATOM      6  C6  IND d   1       2.310  -2.008  -0.095  0.00  0.00     0.015 A 
ATOM      7  C7  IND d   1       2.261  -1.053  -1.070  0.00  0.00    -0.016 A 
ATOM      8  C8  IND d   1       2.851   0.169  -0.781  0.00  0.00    -0.047 A 
ATOM      9  C9  IND d   1       3.450   0.429   0.459  0.00  0.00    -0.096 A 
ATOM     10  HN1 IND d   1       2.649   1.424  -2.332  0.00  0.00     0.298 HD
ENDROOT
TORSDOF 0
ENDMDL
