MODEL 1
REMARK minimizedAffinity 10.2002907
REMARK minimizedRMSD -1
REMARK  0 active torsions:
REMARK  status: ('A' for Active; 'I' for Inactive)
ROOT
ATOM      1  N1  IND d   1      -1.719  -0.382  -4.450  0.00  0.00    -0.196 N 
ATOM      2  C2  IND d   1      -1.543  -0.199  -3.107  0.00  0.00     0.054 A 
ATOM      3  C3  IND d   1      -2.678   0.270  -2.543  0.00  0.00    -0.031 A 
ATOM      4  C4  IND d   1      -4.976   0.713  -3.617  0.00  0.00     0.051 A 
ATOM      5  C5  IND d   1      -5.615   0.728  -4.824  0.00  0.00    -0.031 A 
ATOM      6  C6  IND d   1      -4.977   0.364  -5.992  0.00  0.00     0.015 A 
ATOM      7  C7  IND d   1      -3.672  -0.042  -5.994  0.00  0.00    -0.016 A 
ATOM      8  C8  IND d   1      -3.018  -0.052  -4.771  0.00  0.00    -0.047 A 
ATOM      9  C9  IND d   1      -3.648   0.358  -3.589  0.00  0.00    -0.096 A 
ATOM     10  HN1 IND d   1      -1.120  -0.658  -5.002  0.00  0.00     0.298 HD
ENDROOT
TORSDOF 0
ENDMDL
