MODEL 1
REMARK minimizedAffinity 4.93312359
REMARK minimizedRMSD -1
REMARK  0 active torsions:
REMARK  status: ('A' for Active; 'I' for Inactive)
ROOT
ATOM      1  N1  IND d   1      -3.548   1.799   1.068  0.00  0.00    -0.196 N 
ATOM      2  C2  IND d   1      -4.879   1.495   1.012  0.00  0.00     0.054 A 
ATOM      3  C3  IND d   1      -5.153   0.783  -0.104  0.00  0.00    -0.031 A 
ATOM      4  C4  IND d   1      -3.551  -0.083  -1.925  0.00  0.00     0.051 A 
ATOM      5  C5  IND d   1      -2.246  -0.028  -2.326  0.00  0.00    -0.031 A 
ATOM      6  C6  IND d   1      -1.288   0.651  -1.601  0.00  0.00     0.015 A 
ATOM      7  C7  IND d   1      -1.599   1.293  -0.436  0.00  0.00    -0.016 A 
ATOM      8  C8  IND d   1      -2.925   1.245  -0.028  0.00  0.00    -0.047 A 
ATOM      9  C9  IND d   1      -3.910   0.594  -0.783  0.00  0.00    -0.096 A 
ATOM     10  HN1 IND d   1      -3.164   2.260   1.684  0.00  0.00     0.298 HD
ENDROOT
TORSDOF 0
ENDMDL
