MODEL 1
REMARK minimizedAffinity 16.6128521
REMARK minimizedRMSD -1
REMARK  0 active torsions:
REMARK  status: ('A' for Active; 'I' for Inactive)
ROOT
ATOM      1  N1  IND d   1       0.551   4.601   5.757  0.00  0.00    -0.196 N 
ATOM      2  C2  IND d   1       0.465   3.258   5.996  0.00  0.00     0.054 A 
ATOM      3  C3  IND d   1       1.345   2.584   5.222  0.00  0.00    -0.031 A 
ATOM      4  C4  IND d   1       3.095   3.491   3.566  0.00  0.00     0.051 A 
ATOM      5  C5  IND d   1       3.527   4.649   2.982  0.00  0.00    -0.031 A 
ATOM      6  C6  IND d   1       2.980   5.875   3.302  0.00  0.00     0.015 A 
ATOM      7  C7  IND d   1       1.984   5.991   4.230  0.00  0.00    -0.016 A 
ATOM      8  C8  IND d   1       1.538   4.816   4.819  0.00  0.00    -0.047 A 
ATOM      9  C9  IND d   1       2.060   3.565   4.468  0.00  0.00    -0.096 A 
ATOM     10  HN1 IND d   1       0.070   5.209   6.128  0.00  0.00     0.298 HD
ENDROOT
TORSDOF 0
ENDMDL
