MODEL 1
REMARK minimizedAffinity 10.921937
REMARK minimizedRMSD -1
REMARK  0 active torsions:
REMARK  status: ('A' for Active; 'I' for Inactive)
ROOT
ATOM      1  C   UNL d   1      -1.582   0.367  -1.748  0.00  0.00     0.124 A 
ATOM      2  C1  UNL d   1      -2.577   0.689  -2.661  0.00  0.00     0.062 A 
ATOM      3  C2  UNL d   1      -3.615   1.541  -2.293  0.00  0.00     0.162 A 
ATOM      4  C3  UNL d   1      -3.663   2.077  -1.007  0.00  0.00    -0.034 A 
ATOM      5  C4  UNL d   1      -2.660   1.748  -0.094  0.00  0.00     0.162 A 
ATOM      6  C5  UNL d   1      -1.624   0.897  -0.466  0.00  0.00     0.062 A 
ATOM      7  F   UNL d   1      -0.664   0.587   0.417  0.00  0.00    -0.097 F 
ATOM      8  F1  UNL d   1      -2.675   2.247   1.151  0.00  0.00    -0.096 F 
ATOM      9  I   UNL d   1      -5.214   3.351  -0.453  0.00  0.00    -0.060 I 
ATOM     10  F2  UNL d   1      -4.563   1.835  -3.196  0.00  0.00    -0.096 F 
ATOM     11  F3  UNL d   1      -2.539   0.178  -3.900  0.00  0.00    -0.097 F 
ATOM     12  F4  UNL d   1      -0.585  -0.453  -2.104  0.00  0.00    -0.092 F 
ENDROOT
TORSDOF 0
ENDMDL
