MODEL 1
REMARK minimizedAffinity 8.13228035
REMARK minimizedRMSD -1
REMARK  0 active torsions:
REMARK  status: ('A' for Active; 'I' for Inactive)
ROOT
ATOM      1  C   UNL d   1       4.177  -2.407  -3.278  0.00  0.00     0.124 A 
ATOM      2  C1  UNL d   1       3.898  -2.123  -1.948  0.00  0.00     0.062 A 
ATOM      3  C2  UNL d   1       3.550  -3.147  -1.071  0.00  0.00     0.162 A 
ATOM      4  C3  UNL d   1       3.481  -4.466  -1.522  0.00  0.00    -0.034 A 
ATOM      5  C4  UNL d   1       3.762  -4.743  -2.861  0.00  0.00     0.162 A 
ATOM      6  C5  UNL d   1       4.109  -3.716  -3.733  0.00  0.00     0.062 A 
ATOM      7  F   UNL d   1       4.378  -3.993  -5.017  0.00  0.00    -0.097 F 
ATOM      8  F1  UNL d   1       3.705  -6.000  -3.327  0.00  0.00    -0.096 F 
ATOM      9  I   UNL d   1       2.962  -6.000  -0.214  0.00  0.00    -0.060 I 
ATOM     10  F2  UNL d   1       3.286  -2.844   0.208  0.00  0.00    -0.096 F 
ATOM     11  F3  UNL d   1       3.961  -0.859  -1.506  0.00  0.00    -0.097 F 
ATOM     12  F4  UNL d   1       4.510  -1.420  -4.119  0.00  0.00    -0.092 F 
ENDROOT
TORSDOF 0
ENDMDL
