MODEL 1
REMARK minimizedAffinity 18.3612747
REMARK minimizedRMSD -1
REMARK  0 active torsions:
REMARK  status: ('A' for Active; 'I' for Inactive)
ROOT
ATOM      1  C   UNL d   1      -3.333   2.962   0.380  0.00  0.00     0.124 A 
ATOM      2  C1  UNL d   1      -2.226   3.374   1.109  0.00  0.00     0.062 A 
ATOM      3  C2  UNL d   1      -2.384   4.215   2.206  0.00  0.00     0.162 A 
ATOM      4  C3  UNL d   1      -3.655   4.649   2.583  0.00  0.00    -0.034 A 
ATOM      5  C4  UNL d   1      -4.764   4.231   1.845  0.00  0.00     0.162 A 
ATOM      6  C5  UNL d   1      -4.600   3.391   0.749  0.00  0.00     0.062 A 
ATOM      7  F   UNL d   1      -5.671   2.994   0.046  0.00  0.00    -0.097 F 
ATOM      8  F1  UNL d   1      -6.000   4.630   2.180  0.00  0.00    -0.096 F 
ATOM      9  I   UNL d   1      -3.896   5.907   4.224  0.00  0.00    -0.060 I 
ATOM     10  F2  UNL d   1      -1.297   4.598   2.892  0.00  0.00    -0.096 F 
ATOM     11  F3  UNL d   1      -1.000   2.962   0.754  0.00  0.00    -0.097 F 
ATOM     12  F4  UNL d   1      -3.178   2.153  -0.676  0.00  0.00    -0.092 F 
ENDROOT
TORSDOF 0
ENDMDL
