MODEL 1
REMARK minimizedAffinity 10.3088121
REMARK minimizedRMSD -1
REMARK  0 active torsions:
REMARK  status: ('A' for Active; 'I' for Inactive)
ROOT
ATOM      1  C   UNL d   1       4.541  -0.514  -4.749  0.00  0.00     0.124 A 
ATOM      2  C1  UNL d   1       4.344   0.785  -4.302  0.00  0.00     0.062 A 
ATOM      3  C2  UNL d   1       3.894   1.017  -3.005  0.00  0.00     0.162 A 
ATOM      4  C3  UNL d   1       3.640  -0.051  -2.146  0.00  0.00    -0.034 A 
ATOM      5  C4  UNL d   1       3.840  -1.355  -2.604  0.00  0.00     0.162 A 
ATOM      6  C5  UNL d   1       4.289  -1.583  -3.900  0.00  0.00     0.062 A 
ATOM      7  F   UNL d   1       4.479  -2.838  -4.331  0.00  0.00    -0.097 F 
ATOM      8  F1  UNL d   1       3.605  -2.406  -1.804  0.00  0.00    -0.096 F 
ATOM      9  I   UNL d   1       2.968   0.292  -0.207  0.00  0.00    -0.060 I 
ATOM     10  F2  UNL d   1       3.712   2.283  -2.599  0.00  0.00    -0.096 F 
ATOM     11  F3  UNL d   1       4.586   1.819  -5.120  0.00  0.00    -0.097 F 
ATOM     12  F4  UNL d   1       4.973  -0.735  -5.998  0.00  0.00    -0.092 F 
ENDROOT
TORSDOF 0
ENDMDL
