MODEL 1
REMARK minimizedAffinity 10.3152561
REMARK minimizedRMSD -1
REMARK  0 active torsions:
REMARK  status: ('A' for Active; 'I' for Inactive)
ROOT
ATOM      1  C   UNL d   1       1.974  -5.994  -1.033  0.00  0.00     0.124 A 
ATOM      2  C1  UNL d   1       0.814  -5.995  -1.797  0.00  0.00     0.062 A 
ATOM      3  C2  UNL d   1       0.891  -5.996  -3.186  0.00  0.00     0.162 A 
ATOM      4  C3  UNL d   1       2.132  -5.998  -3.823  0.00  0.00    -0.034 A 
ATOM      5  C4  UNL d   1       3.294  -5.996  -3.048  0.00  0.00     0.162 A 
ATOM      6  C5  UNL d   1       3.212  -5.994  -1.660  0.00  0.00     0.062 A 
ATOM      7  F   UNL d   1       4.333  -5.994  -0.924  0.00  0.00    -0.097 F 
ATOM      8  F1  UNL d   1       4.504  -5.997  -3.628  0.00  0.00    -0.096 F 
ATOM      9  I   UNL d   1       2.251  -5.999  -5.900  0.00  0.00    -0.060 I 
ATOM     10  F2  UNL d   1      -0.246  -5.997  -3.899  0.00  0.00    -0.096 F 
ATOM     11  F3  UNL d   1      -0.383  -5.994  -1.194  0.00  0.00    -0.097 F 
ATOM     12  F4  UNL d   1       1.897  -5.992   0.304  0.00  0.00    -0.092 F 
ENDROOT
TORSDOF 0
ENDMDL
