MODEL 1
REMARK minimizedAffinity 6.68420696
REMARK minimizedRMSD -1
REMARK  0 active torsions:
REMARK  status: ('A' for Active; 'I' for Inactive)
ROOT
ATOM      1  C   UNL d   1       4.105   1.021  -2.341  0.00  0.00     0.124 A 
ATOM      2  C1  UNL d   1       4.761  -0.173  -2.077  0.00  0.00     0.062 A 
ATOM      3  C2  UNL d   1       5.302  -0.919  -3.120  0.00  0.00     0.162 A 
ATOM      4  C3  UNL d   1       5.191  -0.472  -4.437  0.00  0.00    -0.034 A 
ATOM      5  C4  UNL d   1       4.528   0.729  -4.694  0.00  0.00     0.162 A 
ATOM      6  C5  UNL d   1       3.989   1.471  -3.649  0.00  0.00     0.062 A 
ATOM      7  F   UNL d   1       3.355   2.625  -3.905  0.00  0.00    -0.097 F 
ATOM      8  F1  UNL d   1       4.403   1.188  -5.949  0.00  0.00    -0.096 F 
ATOM      9  I   UNL d   1       5.999  -1.585  -5.999  0.00  0.00    -0.060 I 
ATOM     10  F2  UNL d   1       5.931  -2.069  -2.836  0.00  0.00    -0.096 F 
ATOM     11  F3  UNL d   1       4.873  -0.610  -0.815  0.00  0.00    -0.097 F 
ATOM     12  F4  UNL d   1       3.584   1.737  -1.336  0.00  0.00    -0.092 F 
ENDROOT
TORSDOF 0
ENDMDL
