MODEL 1
REMARK minimizedAffinity 10.1981554
REMARK minimizedRMSD -1
REMARK  0 active torsions:
REMARK  status: ('A' for Active; 'I' for Inactive)
ROOT
ATOM      1  C   UNL d   1       0.936  -3.410   0.747  0.00  0.00     0.124 A 
ATOM      2  C1  UNL d   1       1.598  -4.585   1.076  0.00  0.00     0.062 A 
ATOM      3  C2  UNL d   1       2.249  -4.702   2.301  0.00  0.00     0.162 A 
ATOM      4  C3  UNL d   1       2.240  -3.642   3.207  0.00  0.00    -0.034 A 
ATOM      5  C4  UNL d   1       1.573  -2.463   2.869  0.00  0.00     0.162 A 
ATOM      6  C5  UNL d   1       0.924  -2.350   1.644  0.00  0.00     0.062 A 
ATOM      7  F   UNL d   1       0.286  -1.214   1.327  0.00  0.00    -0.097 F 
ATOM      8  F1  UNL d   1       1.545  -1.424   3.717  0.00  0.00    -0.096 F 
ATOM      9  I   UNL d   1       3.212  -3.813   5.040  0.00  0.00    -0.060 I 
ATOM     10  F2  UNL d   1       2.880  -5.849   2.593  0.00  0.00    -0.096 F 
ATOM     11  F3  UNL d   1       1.612  -5.609   0.212  0.00  0.00    -0.097 F 
ATOM     12  F4  UNL d   1       0.312  -3.299  -0.432  0.00  0.00    -0.092 F 
ENDROOT
TORSDOF 0
ENDMDL
