MODEL 1
REMARK minimizedAffinity 10.9350557
REMARK minimizedRMSD -1
REMARK  0 active torsions:
REMARK  status: ('A' for Active; 'I' for Inactive)
ROOT
ATOM      1  C   UNL d   1       1.862  -3.900   3.862  0.00  0.00     0.124 A 
ATOM      2  C1  UNL d   1       1.425  -2.934   4.758  0.00  0.00     0.062 A 
ATOM      3  C2  UNL d   1       1.384  -1.595   4.379  0.00  0.00     0.162 A 
ATOM      4  C3  UNL d   1       1.779  -1.214   3.097  0.00  0.00    -0.034 A 
ATOM      5  C4  UNL d   1       2.218  -2.192   2.201  0.00  0.00     0.162 A 
ATOM      6  C5  UNL d   1       2.257  -3.528   2.585  0.00  0.00     0.062 A 
ATOM      7  F   UNL d   1       2.679  -4.460   1.718  0.00  0.00    -0.097 F 
ATOM      8  F1  UNL d   1       2.605  -1.860   0.961  0.00  0.00    -0.096 F 
ATOM      9  I   UNL d   1       1.719   0.786   2.526  0.00  0.00    -0.060 I 
ATOM     10  F2  UNL d   1       0.958  -0.683   5.266  0.00  0.00    -0.096 F 
ATOM     11  F3  UNL d   1       1.044  -3.290   5.993  0.00  0.00    -0.097 F 
ATOM     12  F4  UNL d   1       1.902  -5.187   4.230  0.00  0.00    -0.092 F 
ENDROOT
TORSDOF 0
ENDMDL
