MODEL 1
REMARK minimizedAffinity 6.20011902
REMARK minimizedRMSD -1
REMARK  2 active torsions:
REMARK  status: ('A' for Active; 'I' for Inactive)
REMARK    1  A    between atoms: C1_2  and  C2_3 
REMARK    2  A    between atoms: C2_3  and  C3_4 
ROOT
ATOM      1  C3  UNL d   1       1.081   1.954   1.646  0.00  0.00    -0.075 A 
ATOM      2  C4  UNL d   1       0.830   1.330   2.877  0.00  0.00     0.002 A 
ATOM      3  C5  UNL d   1      -0.432   1.411   3.468  0.00  0.00     0.002 A 
ATOM      4  C6  UNL d   1      -1.452   2.124   2.842  0.00  0.00    -0.004 A 
ATOM      5  C7  UNL d   1      -1.209   2.762   1.628  0.00  0.00     0.002 A 
ATOM      6  C8  UNL d   1       0.051   2.679   1.032  0.00  0.00     0.002 A 
ENDROOT
BRANCH   1   7
ATOM      7  C2  UNL d   1       2.436   1.845   0.988  0.00  0.00     0.056 C 
BRANCH   7   8
ATOM      8  C1  UNL d   1       2.477   0.873  -0.196  0.00  0.00     0.007 C 
ATOM      9  C   UNL d   1       2.934  -0.527   0.194  0.00  0.00     0.009 C 
ENDBRANCH   7   8
ENDBRANCH   1   7
TORSDOF 2
ENDMDL
