MODEL 1
REMARK minimizedAffinity 5.13942051
REMARK minimizedRMSD -1
REMARK  2 active torsions:
REMARK  status: ('A' for Active; 'I' for Inactive)
REMARK    1  A    between atoms: C1_2  and  C2_3 
REMARK    2  A    between atoms: C2_3  and  C3_4 
ROOT
ATOM      1  C3  UNL d   1      -0.262   1.899   2.020  0.00  0.00    -0.075 A 
ATOM      2  C4  UNL d   1      -0.445   2.232   0.671  0.00  0.00     0.002 A 
ATOM      3  C5  UNL d   1       0.653   2.395  -0.174  0.00  0.00     0.002 A 
ATOM      4  C6  UNL d   1       1.946   2.238   0.321  0.00  0.00    -0.004 A 
ATOM      5  C7  UNL d   1       2.140   1.922   1.664  0.00  0.00     0.002 A 
ATOM      6  C8  UNL d   1       1.043   1.754   2.511  0.00  0.00     0.002 A 
ENDROOT
BRANCH   1   7
ATOM      7  C2  UNL d   1      -1.448   1.692   2.933  0.00  0.00     0.056 C 
BRANCH   7   8
ATOM      8  C1  UNL d   1      -2.791   2.083   2.308  0.00  0.00     0.007 C 
ATOM      9  C   UNL d   1      -3.291   3.447   2.764  0.00  0.00     0.009 C 
ENDBRANCH   7   8
ENDBRANCH   1   7
TORSDOF 2
ENDMDL
