MODEL 1
REMARK minimizedAffinity 1.40814412
REMARK minimizedRMSD -1
REMARK  2 active torsions:
REMARK  status: ('A' for Active; 'I' for Inactive)
REMARK    1  A    between atoms: C1_2  and  C2_3 
REMARK    2  A    between atoms: C2_3  and  C3_4 
ROOT
ATOM      1  C3  UNL d   1      -0.073  -0.069  -0.453  0.00  0.00    -0.075 A 
ATOM      2  C4  UNL d   1       0.808   0.929  -0.894  0.00  0.00     0.002 A 
ATOM      3  C5  UNL d   1       1.075   2.041  -0.094  0.00  0.00     0.002 A 
ATOM      4  C6  UNL d   1       0.458   2.174   1.148  0.00  0.00    -0.004 A 
ATOM      5  C7  UNL d   1      -0.432   1.197   1.588  0.00  0.00     0.002 A 
ATOM      6  C8  UNL d   1      -0.698   0.081   0.792  0.00  0.00     0.002 A 
ENDROOT
BRANCH   1   7
ATOM      7  C2  UNL d   1      -0.344  -1.289  -1.301  0.00  0.00     0.056 C 
BRANCH   7   8
ATOM      8  C1  UNL d   1       0.293  -2.575  -0.764  0.00  0.00     0.007 C 
ATOM      9  C   UNL d   1       1.759  -2.726  -1.149  0.00  0.00     0.009 C 
ENDBRANCH   7   8
ENDBRANCH   1   7
TORSDOF 2
ENDMDL
