MODEL 1
REMARK minimizedAffinity 2.44233704
REMARK minimizedRMSD -1
REMARK  0 active torsions:
REMARK  status: ('A' for Active; 'I' for Inactive)
ROOT
ATOM      1  C2' OXE d   1       2.162   4.004  -1.045  0.00  0.00     0.078 C 
ATOM      2  C1' OXE d   1      -0.050   4.521   0.605  0.00  0.00     0.078 C 
ATOM      3  C1  OXE d   1       0.333   3.081   0.372  0.00  0.00    -0.078 A 
ATOM      4  C2  OXE d   1       1.388   2.836  -0.474  0.00  0.00    -0.078 A 
ATOM      5  C3  OXE d   1       1.817   1.528  -0.679  0.00  0.00     0.003 A 
ATOM      6  C4  OXE d   1       1.090   0.452  -0.156  0.00  0.00    -0.002 A 
ATOM      7  C5  OXE d   1      -0.012   0.678   0.676  0.00  0.00    -0.002 A 
ATOM      8  C6  OXE d   1      -0.377   1.984   0.984  0.00  0.00     0.003 A 
ENDROOT
TORSDOF 0
ENDMDL
