MODEL 1
REMARK minimizedAffinity -5.35676765
REMARK minimizedRMSD -1
REMARK  0 active torsions:
REMARK  status: ('A' for Active; 'I' for Inactive)
ROOT
ATOM      1  C2' OXE d   1      -0.659  -1.102   1.163  0.00  0.00     0.078 C 
ATOM      2  C1' OXE d   1       0.692   1.245   0.425  0.00  0.00     0.078 C 
ATOM      3  C1  OXE d   1       1.523   0.033   0.764  0.00  0.00    -0.078 A 
ATOM      4  C2  OXE d   1       0.855  -1.098   1.169  0.00  0.00    -0.078 A 
ATOM      5  C3  OXE d   1       1.570  -2.260   1.442  0.00  0.00     0.003 A 
ATOM      6  C4  OXE d   1       2.970  -2.245   1.455  0.00  0.00    -0.002 A 
ATOM      7  C5  OXE d   1       3.671  -1.093   1.084  0.00  0.00    -0.002 A 
ATOM      8  C6  OXE d   1       2.963   0.040   0.696  0.00  0.00     0.003 A 
ENDROOT
TORSDOF 0
ENDMDL
