MODEL 1
REMARK minimizedAffinity -0.738371015
REMARK minimizedRMSD -1
REMARK  0 active torsions:
REMARK  status: ('A' for Active; 'I' for Inactive)
ROOT
ATOM      1  C2' OXE d   1      -2.703   1.215  -1.006  0.00  0.00     0.078 C 
ATOM      2  C1' OXE d   1      -0.562   2.709   0.024  0.00  0.00     0.078 C 
ATOM      3  C1  OXE d   1      -0.604   1.234   0.334  0.00  0.00    -0.078 A 
ATOM      4  C2  OXE d   1      -1.680   0.520  -0.134  0.00  0.00    -0.078 A 
ATOM      5  C3  OXE d   1      -1.740  -0.855   0.077  0.00  0.00     0.003 A 
ATOM      6  C4  OXE d   1      -0.795  -1.488   0.893  0.00  0.00    -0.002 A 
ATOM      7  C5  OXE d   1       0.288  -0.772   1.413  0.00  0.00    -0.002 A 
ATOM      8  C6  OXE d   1       0.421   0.579   1.109  0.00  0.00     0.003 A 
ENDROOT
TORSDOF 0
ENDMDL
