MODEL 1
REMARK minimizedAffinity -2.97953749
REMARK minimizedRMSD -1
REMARK  0 active torsions:
REMARK  status: ('A' for Active; 'I' for Inactive)
ROOT
ATOM      1  C2' OXE d   1      -2.200   0.033  -1.268  0.00  0.00     0.078 C 
ATOM      2  C1' OXE d   1      -1.494  -1.839   0.702  0.00  0.00     0.078 C 
ATOM      3  C1  OXE d   1      -0.517  -0.729   0.404  0.00  0.00    -0.078 A 
ATOM      4  C2  OXE d   1      -0.850   0.156  -0.594  0.00  0.00    -0.078 A 
ATOM      5  C3  OXE d   1      -0.010   1.230  -0.872  0.00  0.00     0.003 A 
ATOM      6  C4  OXE d   1       1.241   1.330  -0.251  0.00  0.00    -0.002 A 
ATOM      7  C5  OXE d   1       1.617   0.418   0.740  0.00  0.00    -0.002 A 
ATOM      8  C6  OXE d   1       0.733  -0.591   1.108  0.00  0.00     0.003 A 
ENDROOT
TORSDOF 0
ENDMDL
