MODEL 1
REMARK minimizedAffinity -5.93742704
REMARK minimizedRMSD -1
REMARK  0 active torsions:
REMARK  status: ('A' for Active; 'I' for Inactive)
ROOT
ATOM      1  C2' OXE d   1      -0.853   0.001  -1.168  0.00  0.00     0.078 C 
ATOM      2  C1' OXE d   1       0.124   2.239   0.216  0.00  0.00     0.078 C 
ATOM      3  C1  OXE d   1       1.003   1.016   0.148  0.00  0.00    -0.078 A 
ATOM      4  C2  OXE d   1       0.498  -0.091  -0.491  0.00  0.00    -0.078 A 
ATOM      5  C3  OXE d   1       1.289  -1.228  -0.630  0.00  0.00     0.003 A 
ATOM      6  C4  OXE d   1       2.533  -1.308   0.007  0.00  0.00    -0.002 A 
ATOM      7  C5  OXE d   1       3.049  -0.206   0.697  0.00  0.00    -0.002 A 
ATOM      8  C6  OXE d   1       2.317   0.975   0.741  0.00  0.00     0.003 A 
ENDROOT
TORSDOF 0
ENDMDL
