MODEL 1
REMARK minimizedAffinity 1.46775544
REMARK minimizedRMSD -1
REMARK  0 active torsions:
REMARK  status: ('A' for Active; 'I' for Inactive)
ROOT
ATOM      1  C   UNL d   1       3.561   0.360  -3.017  0.00  0.00     0.172 C 
ATOM      2  N   UNL d   1       2.863   0.301  -1.754  0.00  0.00    -0.070 N 
ATOM      3  C1  UNL d   1       3.431   0.467  -0.519  0.00  0.00    -0.004 A 
ATOM      4  C2  UNL d   1       2.435   0.338   0.424  0.00  0.00    -0.047 A 
ATOM      5  C3  UNL d   1       1.226   0.085  -0.267  0.00  0.00    -0.047 A 
ATOM      6  C4  UNL d   1       1.520   0.067  -1.614  0.00  0.00    -0.004 A 
ENDROOT
TORSDOF 0
ENDMDL
