MODEL 1
REMARK minimizedAffinity 1.93646312
REMARK minimizedRMSD -1
REMARK  0 active torsions:
REMARK  status: ('A' for Active; 'I' for Inactive)
ROOT
ATOM      1  C   UNL d   1      -0.419   3.935   0.427  0.00  0.00     0.172 C 
ATOM      2  N   UNL d   1      -0.295   2.648  -0.216  0.00  0.00    -0.070 N 
ATOM      3  C1  UNL d   1      -1.316   1.944  -0.797  0.00  0.00    -0.004 A 
ATOM      4  C2  UNL d   1      -0.790   0.772  -1.297  0.00  0.00    -0.047 A 
ATOM      5  C3  UNL d   1       0.595   0.772  -1.005  0.00  0.00    -0.047 A 
ATOM      6  C4  UNL d   1       0.874   1.944  -0.336  0.00  0.00    -0.004 A 
ENDROOT
TORSDOF 0
ENDMDL
