MODEL 1
REMARK minimizedAffinity 0.678569078
REMARK minimizedRMSD -1
REMARK  0 active torsions:
REMARK  status: ('A' for Active; 'I' for Inactive)
ROOT
ATOM      1  C   UNL d   1      -4.068   0.680   0.361  0.00  0.00     0.172 C 
ATOM      2  N   UNL d   1      -3.550   1.951   0.808  0.00  0.00    -0.070 N 
ATOM      3  C1  UNL d   1      -3.616   2.435   2.087  0.00  0.00    -0.004 A 
ATOM      4  C2  UNL d   1      -3.011   3.674   2.101  0.00  0.00    -0.047 A 
ATOM      5  C3  UNL d   1      -2.567   3.944   0.785  0.00  0.00    -0.047 A 
ATOM      6  C4  UNL d   1      -2.914   2.861   0.005  0.00  0.00    -0.004 A 
ENDROOT
TORSDOF 0
ENDMDL
