MODEL 1
REMARK minimizedAffinity 1.07842195
REMARK minimizedRMSD -1
REMARK  0 active torsions:
REMARK  status: ('A' for Active; 'I' for Inactive)
ROOT
ATOM      1  C   UNL d   1      -4.473   2.875   2.672  0.00  0.00     0.172 C 
ATOM      2  N   UNL d   1      -4.615   1.882   1.633  0.00  0.00    -0.070 N 
ATOM      3  C1  UNL d   1      -5.509   0.844   1.637  0.00  0.00    -0.004 A 
ATOM      4  C2  UNL d   1      -5.329   0.128   0.474  0.00  0.00    -0.047 A 
ATOM      5  C3  UNL d   1      -4.291   0.756  -0.254  0.00  0.00    -0.047 A 
ATOM      6  C4  UNL d   1      -3.867   1.839   0.486  0.00  0.00    -0.004 A 
ENDROOT
TORSDOF 0
ENDMDL
