MODEL 1
REMARK minimizedAffinity 5.15567541
REMARK minimizedRMSD -1
REMARK  0 active torsions:
REMARK  status: ('A' for Active; 'I' for Inactive)
ROOT
ATOM      1  C   UNL d   1       2.240   1.167   0.808  0.00  0.00     0.172 C 
ATOM      2  N   UNL d   1       1.175   1.182  -0.167  0.00  0.00    -0.070 N 
ATOM      3  C1  UNL d   1       0.382   2.258  -0.466  0.00  0.00    -0.004 A 
ATOM      4  C2  UNL d   1      -0.509   1.867  -1.443  0.00  0.00    -0.047 A 
ATOM      5  C3  UNL d   1      -0.243   0.509  -1.739  0.00  0.00    -0.047 A 
ATOM      6  C4  UNL d   1       0.803   0.110  -0.935  0.00  0.00    -0.004 A 
ENDROOT
TORSDOF 0
ENDMDL
