MODEL 1
REMARK minimizedAffinity 2.5492146
REMARK minimizedRMSD -1
REMARK  0 active torsions:
REMARK  status: ('A' for Active; 'I' for Inactive)
ROOT
ATOM      1  C   UNL d   1       5.529   2.761  -2.741  0.00  0.00     0.172 C 
ATOM      2  N   UNL d   1       4.776   1.927  -1.833  0.00  0.00    -0.070 N 
ATOM      3  C1  UNL d   1       3.754   1.087  -2.183  0.00  0.00    -0.004 A 
ATOM      4  C2  UNL d   1       3.301   0.473  -1.035  0.00  0.00    -0.047 A 
ATOM      5  C3  UNL d   1       4.078   0.962   0.042  0.00  0.00    -0.047 A 
ATOM      6  C4  UNL d   1       4.983   1.861  -0.480  0.00  0.00    -0.004 A 
ENDROOT
TORSDOF 0
ENDMDL
