MODEL 1
REMARK minimizedAffinity 2.43094277
REMARK minimizedRMSD -1
REMARK  0 active torsions:
REMARK  status: ('A' for Active; 'I' for Inactive)
ROOT
ATOM      1  C   UNL d   1       2.589  -0.716   2.150  0.00  0.00     0.172 C 
ATOM      2  N   UNL d   1       2.628  -0.241   0.787  0.00  0.00    -0.070 N 
ATOM      3  C1  UNL d   1       2.040  -0.851  -0.288  0.00  0.00    -0.004 A 
ATOM      4  C2  UNL d   1       2.306  -0.088  -1.404  0.00  0.00    -0.047 A 
ATOM      5  C3  UNL d   1       3.083   1.018  -0.985  0.00  0.00    -0.047 A 
ATOM      6  C4  UNL d   1       3.268   0.899   0.376  0.00  0.00    -0.004 A 
ENDROOT
TORSDOF 0
ENDMDL
