MODEL 1
REMARK minimizedAffinity -5.03300667
REMARK minimizedRMSD -1
REMARK  2 active torsions:
REMARK  status: ('A' for Active; 'I' for Inactive)
REMARK    1  A    between atoms: C1_2  and  C2_3 
REMARK    2  A    between atoms: C2_3  and  C3_4 
ROOT
ATOM      1  C3  UNL d   1       0.293   0.193   0.412  0.00  0.00    -0.075 A 
ATOM      2  C4  UNL d   1       1.524   0.637   0.917  0.00  0.00     0.002 A 
ATOM      3  C5  UNL d   1       2.000   0.164   2.140  0.00  0.00     0.002 A 
ATOM      4  C6  UNL d   1       1.249  -0.749   2.877  0.00  0.00    -0.004 A 
ATOM      5  C7  UNL d   1       0.017  -1.185   2.393  0.00  0.00     0.002 A 
ATOM      6  C8  UNL d   1      -0.460  -0.716   1.167  0.00  0.00     0.002 A 
ENDROOT
BRANCH   1   7
ATOM      7  C2  UNL d   1      -0.214   0.679  -0.925  0.00  0.00     0.056 C 
BRANCH   7   8
ATOM      8  C1  UNL d   1       0.253   2.091  -1.294  0.00  0.00     0.007 C 
ATOM      9  C   UNL d   1      -0.869   2.976  -1.820  0.00  0.00     0.009 C 
ENDBRANCH   7   8
ENDBRANCH   1   7
TORSDOF 2
ENDMDL
