MODEL 1
REMARK minimizedAffinity -3.22593069
REMARK minimizedRMSD -1
REMARK  2 active torsions:
REMARK  status: ('A' for Active; 'I' for Inactive)
REMARK    1  A    between atoms: C1_2  and  C2_3 
REMARK    2  A    between atoms: C2_3  and  C3_4 
ROOT
ATOM      1  C3  UNL d   1       1.011  -2.400   2.213  0.00  0.00    -0.075 A 
ATOM      2  C4  UNL d   1       1.543  -3.685   2.032  0.00  0.00     0.002 A 
ATOM      3  C5  UNL d   1       0.991  -4.781   2.696  0.00  0.00     0.002 A 
ATOM      4  C6  UNL d   1      -0.091  -4.605   3.556  0.00  0.00    -0.004 A 
ATOM      5  C7  UNL d   1      -0.617  -3.331   3.757  0.00  0.00     0.002 A 
ATOM      6  C8  UNL d   1      -0.069  -2.233   3.090  0.00  0.00     0.002 A 
ENDROOT
BRANCH   1   7
ATOM      7  C2  UNL d   1       1.585  -1.215   1.474  0.00  0.00     0.056 C 
BRANCH   7   8
ATOM      8  C1  UNL d   1       0.573  -0.485   0.584  0.00  0.00     0.007 C 
ATOM      9  C   UNL d   1       0.912  -0.563  -0.899  0.00  0.00     0.009 C 
ENDBRANCH   7   8
ENDBRANCH   1   7
TORSDOF 2
ENDMDL
