MODEL 1
REMARK minimizedAffinity -4.96289396
REMARK minimizedRMSD -1
REMARK  2 active torsions:
REMARK  status: ('A' for Active; 'I' for Inactive)
REMARK    1  A    between atoms: C1_2  and  C2_3 
REMARK    2  A    between atoms: C2_3  and  C3_4 
ROOT
ATOM      1  C3  UNL d   1      -1.217  -0.816  -0.351  0.00  0.00    -0.075 A 
ATOM      2  C4  UNL d   1      -1.304  -0.754   1.047  0.00  0.00     0.002 A 
ATOM      3  C5  UNL d   1      -0.147  -0.718   1.827  0.00  0.00     0.002 A 
ATOM      4  C6  UNL d   1       1.107  -0.752   1.221  0.00  0.00    -0.004 A 
ATOM      5  C7  UNL d   1       1.204  -0.830  -0.166  0.00  0.00     0.002 A 
ATOM      6  C8  UNL d   1       0.049  -0.862  -0.949  0.00  0.00     0.002 A 
ENDROOT
BRANCH   1   7
ATOM      7  C2  UNL d   1      -2.465  -0.826  -1.202  0.00  0.00     0.056 C 
BRANCH   7   8
ATOM      8  C1  UNL d   1      -3.267  -2.128  -1.118  0.00  0.00     0.007 C 
ATOM      9  C   UNL d   1      -4.374  -2.085  -0.073  0.00  0.00     0.009 C 
ENDBRANCH   7   8
ENDBRANCH   1   7
TORSDOF 2
ENDMDL
