MODEL 1
REMARK minimizedAffinity -2.09870696
REMARK minimizedRMSD -1
REMARK  2 active torsions:
REMARK  status: ('A' for Active; 'I' for Inactive)
REMARK    1  A    between atoms: C1_2  and  C2_3 
REMARK    2  A    between atoms: C2_3  and  C3_4 
ROOT
ATOM      1  C3  UNL d   1      -0.972  -0.273  -0.098  0.00  0.00    -0.075 A 
ATOM      2  C4  UNL d   1       0.315  -0.413  -0.636  0.00  0.00     0.002 A 
ATOM      3  C5  UNL d   1       1.426  -0.509   0.202  0.00  0.00     0.002 A 
ATOM      4  C6  UNL d   1       1.266  -0.456   1.585  0.00  0.00    -0.004 A 
ATOM      5  C7  UNL d   1      -0.006  -0.300   2.130  0.00  0.00     0.002 A 
ATOM      6  C8  UNL d   1      -1.121  -0.208   1.294  0.00  0.00     0.002 A 
ENDROOT
BRANCH   1   7
ATOM      7  C2  UNL d   1      -2.182  -0.199  -0.999  0.00  0.00     0.056 C 
BRANCH   7   8
ATOM      8  C1  UNL d   1      -2.968  -1.511  -1.098  0.00  0.00     0.007 C 
ATOM      9  C   UNL d   1      -4.130  -1.590  -0.117  0.00  0.00     0.009 C 
ENDBRANCH   7   8
ENDBRANCH   1   7
TORSDOF 2
ENDMDL
