MODEL 1
REMARK minimizedAffinity -4.44500637
REMARK minimizedRMSD -1
REMARK  2 active torsions:
REMARK  status: ('A' for Active; 'I' for Inactive)
REMARK    1  A    between atoms: C1_2  and  C2_3 
REMARK    2  A    between atoms: C2_3  and  C3_4 
ROOT
ATOM      1  C3  UNL d   1      -0.751  -0.327  -1.065  0.00  0.00    -0.075 A 
ATOM      2  C4  UNL d   1       0.395  -0.775  -1.737  0.00  0.00     0.002 A 
ATOM      3  C5  UNL d   1       1.577  -1.019  -1.038  0.00  0.00     0.002 A 
ATOM      4  C6  UNL d   1       1.632  -0.808   0.338  0.00  0.00    -0.004 A 
ATOM      5  C7  UNL d   1       0.504  -0.347   1.014  0.00  0.00     0.002 A 
ATOM      6  C8  UNL d   1      -0.681  -0.107   0.317  0.00  0.00     0.002 A 
ENDROOT
BRANCH   1   7
ATOM      7  C2  UNL d   1      -2.042  -0.090  -1.811  0.00  0.00     0.056 C 
BRANCH   7   8
ATOM      8  C1  UNL d   1      -2.923  -1.336  -1.946  0.00  0.00     0.007 C 
ATOM      9  C   UNL d   1      -3.864  -1.536  -0.766  0.00  0.00     0.009 C 
ENDBRANCH   7   8
ENDBRANCH   1   7
TORSDOF 2
ENDMDL
