MODEL 1
REMARK minimizedAffinity -1.52891767
REMARK minimizedRMSD -1
REMARK  0 active torsions:
REMARK  status: ('A' for Active; 'I' for Inactive)
ROOT
ATOM      1  C1  DEN d   1      -0.752  -0.366  -1.271  0.00  0.00     0.130 A 
ATOM      2  C2  DEN d   1      -0.777   0.189   0.080  0.00  0.00    -0.031 A 
ATOM      3  C3  DEN d   1       0.590   0.636   0.415  0.00  0.00     0.027 A 
ATOM      4  C4  DEN d   1       2.730   0.528  -1.021  0.00  0.00     0.027 A 
ATOM      5  C5  DEN d   1       3.250   0.131  -2.233  0.00  0.00    -0.003 A 
ATOM      6  C6  DEN d   1       2.486  -0.486  -3.188  0.00  0.00     0.001 A 
ATOM      7  C7  DEN d   1       1.149  -0.682  -2.965  0.00  0.00     0.017 A 
ATOM      8  C8  DEN d   1       0.619  -0.291  -1.743  0.00  0.00    -0.094 A 
ATOM      9  C9  DEN d   1       1.405   0.342  -0.795  0.00  0.00    -0.072 A 
ENDROOT
TORSDOF 0
ENDMDL
