MODEL 1
REMARK minimizedAffinity -0.828680456
REMARK minimizedRMSD -1
REMARK  0 active torsions:
REMARK  status: ('A' for Active; 'I' for Inactive)
ROOT
ATOM      1  C1  DEN d   1      -0.356  -1.431   0.268  0.00  0.00     0.130 A 
ATOM      2  C2  DEN d   1      -0.801  -0.433   1.237  0.00  0.00    -0.031 A 
ATOM      3  C3  DEN d   1      -0.339   0.891   0.774  0.00  0.00     0.027 A 
ATOM      4  C4  DEN d   1       1.011   1.490  -1.341  0.00  0.00     0.027 A 
ATOM      5  C5  DEN d   1       1.627   0.978  -2.462  0.00  0.00    -0.003 A 
ATOM      6  C6  DEN d   1       1.654  -0.364  -2.731  0.00  0.00     0.001 A 
ATOM      7  C7  DEN d   1       1.015  -1.238  -1.892  0.00  0.00     0.017 A 
ATOM      8  C8  DEN d   1       0.398  -0.731  -0.756  0.00  0.00    -0.094 A 
ATOM      9  C9  DEN d   1       0.371   0.631  -0.508  0.00  0.00    -0.072 A 
ENDROOT
TORSDOF 0
ENDMDL
