MODEL 1
REMARK minimizedAffinity -1.03634119
REMARK minimizedRMSD -1
REMARK  0 active torsions:
REMARK  status: ('A' for Active; 'I' for Inactive)
ROOT
ATOM      1  C1  DEN d   1       0.138  -1.033   1.156  0.00  0.00     0.130 A 
ATOM      2  C2  DEN d   1      -1.193  -0.512   1.455  0.00  0.00    -0.031 A 
ATOM      3  C3  DEN d   1      -1.454   0.622   0.546  0.00  0.00     0.027 A 
ATOM      4  C4  DEN d   1       0.062   1.611  -1.291  0.00  0.00     0.027 A 
ATOM      5  C5  DEN d   1       1.289   1.511  -1.909  0.00  0.00    -0.003 A 
ATOM      6  C6  DEN d   1       2.224   0.585  -1.528  0.00  0.00     0.001 A 
ATOM      7  C7  DEN d   1       1.930  -0.308  -0.532  0.00  0.00     0.017 A 
ATOM      8  C8  DEN d   1       0.697  -0.208   0.100  0.00  0.00    -0.094 A 
ATOM      9  C9  DEN d   1      -0.239   0.727  -0.307  0.00  0.00    -0.072 A 
ENDROOT
TORSDOF 0
ENDMDL
