MODEL 1
REMARK minimizedAffinity -3.53414583
REMARK minimizedRMSD -1
REMARK  0 active torsions:
REMARK  status: ('A' for Active; 'I' for Inactive)
ROOT
ATOM      1  C1  DEN d   1       0.501  -2.314   0.154  0.00  0.00     0.130 A 
ATOM      2  C2  DEN d   1       0.053  -1.717   1.409  0.00  0.00    -0.031 A 
ATOM      3  C3  DEN d   1       0.217  -0.254   1.302  0.00  0.00     0.027 A 
ATOM      4  C4  DEN d   1       1.110   1.139  -0.676  0.00  0.00     0.027 A 
ATOM      5  C5  DEN d   1       1.622   1.075  -1.953  0.00  0.00    -0.003 A 
ATOM      6  C6  DEN d   1       1.827  -0.115  -2.599  0.00  0.00     0.001 A 
ATOM      7  C7  DEN d   1       1.475  -1.289  -1.987  0.00  0.00     0.017 A 
ATOM      8  C8  DEN d   1       0.965  -1.233  -0.696  0.00  0.00    -0.094 A 
ATOM      9  C9  DEN d   1       0.754  -0.019  -0.065  0.00  0.00    -0.072 A 
ENDROOT
TORSDOF 0
ENDMDL
