MODEL 1
REMARK minimizedAffinity -4.647892
REMARK minimizedRMSD -1
REMARK  0 active torsions:
REMARK  status: ('A' for Active; 'I' for Inactive)
ROOT
ATOM      1  C1  DEN d   1       1.411  -1.554  -2.482  0.00  0.00     0.130 A 
ATOM      2  C2  DEN d   1       2.099  -0.462  -3.166  0.00  0.00    -0.031 A 
ATOM      3  C3  DEN d   1       2.062   0.723  -2.286  0.00  0.00     0.027 A 
ATOM      4  C4  DEN d   1       1.018   0.970   0.059  0.00  0.00     0.027 A 
ATOM      5  C5  DEN d   1       0.315   0.320   1.049  0.00  0.00    -0.003 A 
ATOM      6  C6  DEN d   1      -0.098  -0.979   0.919  0.00  0.00     0.001 A 
ATOM      7  C7  DEN d   1       0.228  -1.685  -0.209  0.00  0.00     0.017 A 
ATOM      8  C8  DEN d   1       0.930  -1.034  -1.215  0.00  0.00    -0.094 A 
ATOM      9  C9  DEN d   1       1.349   0.276  -1.059  0.00  0.00    -0.072 A 
ENDROOT
TORSDOF 0
ENDMDL
