MODEL 1
REMARK minimizedAffinity -4.50294018
REMARK minimizedRMSD -1
REMARK  0 active torsions:
REMARK  status: ('A' for Active; 'I' for Inactive)
ROOT
ATOM      1  C1  DEN d   1      -0.324   0.205  -2.260  0.00  0.00     0.130 A 
ATOM      2  C2  DEN d   1       1.080   0.390  -2.620  0.00  0.00    -0.031 A 
ATOM      3  C3  DEN d   1       1.863   0.479  -1.372  0.00  0.00     0.027 A 
ATOM      4  C4  DEN d   1       1.045   0.345   1.071  0.00  0.00     0.027 A 
ATOM      5  C5  DEN d   1      -0.063   0.205   1.877  0.00  0.00    -0.003 A 
ATOM      6  C6  DEN d   1      -1.329   0.090   1.366  0.00  0.00     0.001 A 
ATOM      7  C7  DEN d   1      -1.513   0.068   0.009  0.00  0.00     0.017 A 
ATOM      8  C8  DEN d   1      -0.402   0.216  -0.811  0.00  0.00    -0.094 A 
ATOM      9  C9  DEN d   1       0.871   0.319  -0.275  0.00  0.00    -0.072 A 
ENDROOT
TORSDOF 0
ENDMDL
