MODEL 1
REMARK minimizedAffinity -3.50185394
REMARK minimizedRMSD -1
REMARK  0 active torsions:
REMARK  status: ('A' for Active; 'I' for Inactive)
ROOT
ATOM      1  C1  DEN d   1       0.497  -0.681  -2.372  0.00  0.00     0.130 A 
ATOM      2  C2  DEN d   1       1.482   0.314  -2.786  0.00  0.00    -0.031 A 
ATOM      3  C3  DEN d   1       1.918   1.052  -1.584  0.00  0.00     0.027 A 
ATOM      4  C4  DEN d   1       1.171   0.749   0.866  0.00  0.00     0.027 A 
ATOM      5  C5  DEN d   1       0.346   0.038   1.708  0.00  0.00    -0.003 A 
ATOM      6  C6  DEN d   1      -0.505  -0.932   1.248  0.00  0.00     0.001 A 
ATOM      7  C7  DEN d   1      -0.517  -1.248  -0.084  0.00  0.00     0.017 A 
ATOM      8  C8  DEN d   1       0.307  -0.530  -0.941  0.00  0.00    -0.094 A 
ATOM      9  C9  DEN d   1       1.169   0.438  -0.455  0.00  0.00    -0.072 A 
ENDROOT
TORSDOF 0
ENDMDL
