MODEL 1
REMARK minimizedAffinity -4.11268473
REMARK minimizedRMSD -1
REMARK  0 active torsions:
REMARK  status: ('A' for Active; 'I' for Inactive)
ROOT
ATOM      1  C1  DEN d   1      -0.881  -1.214  -0.079  0.00  0.00     0.130 A 
ATOM      2  C2  DEN d   1      -1.049  -0.342   1.080  0.00  0.00    -0.031 A 
ATOM      3  C3  DEN d   1      -0.068   0.756   0.971  0.00  0.00     0.027 A 
ATOM      4  C4  DEN d   1       1.683   1.190  -0.873  0.00  0.00     0.027 A 
ATOM      5  C5  DEN d   1       2.211   0.717  -2.054  0.00  0.00    -0.003 A 
ATOM      6  C6  DEN d   1       1.772  -0.442  -2.637  0.00  0.00     0.001 A 
ATOM      7  C7  DEN d   1       0.744  -1.144  -2.063  0.00  0.00     0.017 A 
ATOM      8  C8  DEN d   1       0.212  -0.677  -0.868  0.00  0.00    -0.094 A 
ATOM      9  C9  DEN d   1       0.662   0.504  -0.301  0.00  0.00    -0.072 A 
ENDROOT
TORSDOF 0
ENDMDL
