MODEL 1
REMARK minimizedAffinity -3.54870558
REMARK minimizedRMSD -1
REMARK  0 active torsions:
REMARK  status: ('A' for Active; 'I' for Inactive)
ROOT
ATOM      1  C1  DEN d   1       0.268   0.393   0.182  0.00  0.00     0.130 A 
ATOM      2  C2  DEN d   1       1.123   1.575   0.117  0.00  0.00    -0.031 A 
ATOM      3  C3  DEN d   1       2.073   1.391  -0.998  0.00  0.00     0.027 A 
ATOM      4  C4  DEN d   1       2.299  -0.596  -2.627  0.00  0.00     0.027 A 
ATOM      5  C5  DEN d   1       1.803  -1.838  -2.958  0.00  0.00    -0.003 A 
ATOM      6  C6  DEN d   1       0.792  -2.433  -2.251  0.00  0.00     0.001 A 
ATOM      7  C7  DEN d   1       0.213  -1.766  -1.203  0.00  0.00     0.017 A 
ATOM      8  C8  DEN d   1       0.713  -0.518  -0.858  0.00  0.00    -0.094 A 
ATOM      9  C9  DEN d   1       1.727   0.072  -1.593  0.00  0.00    -0.072 A 
ENDROOT
TORSDOF 0
ENDMDL
