MODEL 1
REMARK minimizedAffinity -2.83285451
REMARK minimizedRMSD -1
REMARK  1 active torsions:
REMARK  status: ('A' for Active; 'I' for Inactive)
REMARK    1  A    between atoms: C1_2  and  C2_3 
ROOT
ATOM      1  C2  UNL d   1       0.374  -0.414   0.521  0.00  0.00    -0.076 A 
ATOM      2  C3  UNL d   1       1.481  -1.156   0.073  0.00  0.00     0.004 A 
ATOM      3  C4  UNL d   1       2.429  -1.641   0.972  0.00  0.00    -0.003 A 
ATOM      4  C5  UNL d   1       2.286  -1.393   2.333  0.00  0.00     0.000 A 
ATOM      5  C6  UNL d   1       1.185  -0.674   2.796  0.00  0.00     0.000 A 
ATOM      6  C7  UNL d   1       0.211  -0.191   1.905  0.00  0.00    -0.073 A 
ATOM      7  C8  UNL d   1      -0.954   0.584   2.458  0.00  0.00     0.078 C 
ENDROOT
BRANCH   1   8
ATOM      8  C1  UNL d   1      -0.608   0.110  -0.503  0.00  0.00     0.053 C 
ATOM      9  C   UNL d   1      -0.302  -0.382  -1.909  0.00  0.00     0.018 C 
ENDBRANCH   1   8
TORSDOF 1
ENDMDL
