MODEL 1
REMARK minimizedAffinity -4.91312361
REMARK minimizedRMSD -1
REMARK  1 active torsions:
REMARK  status: ('A' for Active; 'I' for Inactive)
REMARK    1  A    between atoms: C1_2  and  C2_3 
ROOT
ATOM      1  C2  UNL d   1       1.059  -0.682   0.111  0.00  0.00    -0.076 A 
ATOM      2  C3  UNL d   1       1.097   0.679   0.460  0.00  0.00     0.004 A 
ATOM      3  C4  UNL d   1       1.673   1.096   1.659  0.00  0.00    -0.003 A 
ATOM      4  C5  UNL d   1       2.222   0.159   2.527  0.00  0.00     0.000 A 
ATOM      5  C6  UNL d   1       2.208  -1.194   2.189  0.00  0.00     0.000 A 
ATOM      6  C7  UNL d   1       1.646  -1.629   0.977  0.00  0.00    -0.073 A 
ATOM      7  C8  UNL d   1       1.653  -3.101   0.665  0.00  0.00     0.078 C 
ENDROOT
BRANCH   1   8
ATOM      8  C1  UNL d   1       0.396  -1.077  -1.189  0.00  0.00     0.053 C 
ATOM      9  C   UNL d   1      -0.348   0.079  -1.840  0.00  0.00     0.018 C 
ENDBRANCH   1   8
TORSDOF 1
ENDMDL
