MODEL 1
REMARK minimizedAffinity -2.57331657
REMARK minimizedRMSD -1
REMARK  1 active torsions:
REMARK  status: ('A' for Active; 'I' for Inactive)
REMARK    1  A    between atoms: C1_2  and  C2_3 
ROOT
ATOM      1  C2  UNL d   1       0.910  -0.398   0.708  0.00  0.00    -0.076 A 
ATOM      2  C3  UNL d   1       0.049  -0.098   1.778  0.00  0.00     0.004 A 
ATOM      3  C4  UNL d   1       0.179  -0.742   3.007  0.00  0.00    -0.003 A 
ATOM      4  C5  UNL d   1       1.173  -1.698   3.187  0.00  0.00     0.000 A 
ATOM      5  C6  UNL d   1       2.047  -1.996   2.142  0.00  0.00     0.000 A 
ATOM      6  C7  UNL d   1       1.940  -1.343   0.902  0.00  0.00    -0.073 A 
ATOM      7  C8  UNL d   1       2.906  -1.708  -0.192  0.00  0.00     0.078 C 
ENDROOT
BRANCH   1   8
ATOM      8  C1  UNL d   1       0.704   0.314  -0.610  0.00  0.00     0.053 C 
ATOM      9  C   UNL d   1      -0.696   0.111  -1.169  0.00  0.00     0.018 C 
ENDBRANCH   1   8
TORSDOF 1
ENDMDL
