MODEL 1
REMARK minimizedAffinity -3.46561933
REMARK minimizedRMSD -1
REMARK  1 active torsions:
REMARK  status: ('A' for Active; 'I' for Inactive)
REMARK    1  A    between atoms: C1_2  and  C2_3 
ROOT
ATOM      1  C2  UNL d   1       1.429   0.051   1.290  0.00  0.00    -0.081 A 
ATOM      2  C3  UNL d   1       0.347  -0.832   1.388  0.00  0.00     0.006 A 
ATOM      3  C4  UNL d   1      -0.678  -0.803   0.439  0.00  0.00     0.002 A 
ATOM      4  C5  UNL d   1      -0.634   0.102  -0.627  0.00  0.00    -0.080 A 
ATOM      5  C6  UNL d   1      -1.712   0.122  -1.669  0.00  0.00     0.076 C 
ATOM      6  C7  UNL d   1       0.439   0.995  -0.715  0.00  0.00     0.002 A 
ATOM      7  C8  UNL d   1       1.464   0.968   0.234  0.00  0.00     0.006 A 
ENDROOT
BRANCH   1   8
ATOM      8  C1  UNL d   1       2.568  -0.021   2.275  0.00  0.00     0.054 C 
ATOM      9  C   UNL d   1       2.391  -1.183   3.242  0.00  0.00     0.018 C 
ENDBRANCH   1   8
TORSDOF 1
ENDMDL
