MODEL 1
REMARK minimizedAffinity -4.020679
REMARK minimizedRMSD -1
REMARK  1 active torsions:
REMARK  status: ('A' for Active; 'I' for Inactive)
REMARK    1  A    between atoms: C1_2  and  C2_3 
ROOT
ATOM      1  C2  UNL d   1      -1.210   0.326  -0.998  0.00  0.00    -0.081 A 
ATOM      2  C3  UNL d   1      -0.519   1.540  -0.904  0.00  0.00     0.006 A 
ATOM      3  C4  UNL d   1       0.662   1.627  -0.163  0.00  0.00     0.002 A 
ATOM      4  C5  UNL d   1       1.175   0.501   0.489  0.00  0.00    -0.080 A 
ATOM      5  C6  UNL d   1       2.459   0.574   1.262  0.00  0.00     0.076 C 
ATOM      6  C7  UNL d   1       0.476  -0.708   0.410  0.00  0.00     0.002 A 
ATOM      7  C8  UNL d   1      -0.705  -0.795  -0.330  0.00  0.00     0.006 A 
ENDROOT
BRANCH   1   8
ATOM      8  C1  UNL d   1      -2.450   0.213  -1.848  0.00  0.00     0.054 C 
ATOM      9  C   UNL d   1      -2.109  -0.223  -3.266  0.00  0.00     0.018 C 
ENDBRANCH   1   8
TORSDOF 1
ENDMDL
