MODEL 1
REMARK minimizedAffinity -4.86465645
REMARK minimizedRMSD -1
REMARK  1 active torsions:
REMARK  status: ('A' for Active; 'I' for Inactive)
REMARK    1  A    between atoms: C1_2  and  C2_3 
ROOT
ATOM      1  C2  UNL d   1      -0.934  -0.229   0.281  0.00  0.00    -0.081 A 
ATOM      2  C3  UNL d   1      -0.771  -1.352   1.103  0.00  0.00     0.006 A 
ATOM      3  C4  UNL d   1       0.433  -1.567   1.777  0.00  0.00     0.002 A 
ATOM      4  C5  UNL d   1       1.491  -0.661   1.647  0.00  0.00    -0.080 A 
ATOM      5  C6  UNL d   1       2.779  -0.865   2.389  0.00  0.00     0.076 C 
ATOM      6  C7  UNL d   1       1.335   0.451   0.813  0.00  0.00     0.002 A 
ATOM      7  C8  UNL d   1       0.131   0.666   0.138  0.00  0.00     0.006 A 
ENDROOT
BRANCH   1   8
ATOM      8  C1  UNL d   1      -2.253   0.040  -0.396  0.00  0.00     0.054 C 
ATOM      9  C   UNL d   1      -2.201  -0.323  -1.873  0.00  0.00     0.018 C 
ENDBRANCH   1   8
TORSDOF 1
ENDMDL
