MODEL 1
REMARK minimizedAffinity -1.33653212
REMARK minimizedRMSD -1
REMARK  1 active torsions:
REMARK  status: ('A' for Active; 'I' for Inactive)
REMARK    1  A    between atoms: C1_2  and  C2_3 
ROOT
ATOM      1  C2  UNL d   1      -1.132   0.601  -0.485  0.00  0.00    -0.081 A 
ATOM      2  C3  UNL d   1      -0.259   1.694  -0.422  0.00  0.00     0.006 A 
ATOM      3  C4  UNL d   1       0.936   1.604   0.294  0.00  0.00     0.002 A 
ATOM      4  C5  UNL d   1       1.283   0.420   0.953  0.00  0.00    -0.080 A 
ATOM      5  C6  UNL d   1       2.578   0.301   1.700  0.00  0.00     0.076 C 
ATOM      6  C7  UNL d   1       0.402  -0.667   0.904  0.00  0.00     0.002 A 
ATOM      7  C8  UNL d   1      -0.794  -0.578   0.189  0.00  0.00     0.006 A 
ENDROOT
BRANCH   1   8
ATOM      8  C1  UNL d   1      -2.392   0.672  -1.310  0.00  0.00     0.054 C 
ATOM      9  C   UNL d   1      -2.147   0.198  -2.736  0.00  0.00     0.018 C 
ENDBRANCH   1   8
TORSDOF 1
ENDMDL
