MODEL 1
REMARK minimizedAffinity -4.1930666
REMARK minimizedRMSD -1
REMARK  1 active torsions:
REMARK  status: ('A' for Active; 'I' for Inactive)
REMARK    1  A    between atoms: C1_2  and  C2_3 
ROOT
ATOM      1  C2  UNL d   1      -1.054   0.304  -0.226  0.00  0.00    -0.081 A 
ATOM      2  C3  UNL d   1      -0.723  -0.859   0.481  0.00  0.00     0.006 A 
ATOM      3  C4  UNL d   1       0.547  -1.007   1.045  0.00  0.00     0.002 A 
ATOM      4  C5  UNL d   1       1.503   0.007   0.917  0.00  0.00    -0.080 A 
ATOM      5  C6  UNL d   1       2.859  -0.126   1.543  0.00  0.00     0.076 C 
ATOM      6  C7  UNL d   1       1.177   1.161   0.196  0.00  0.00     0.002 A 
ATOM      7  C8  UNL d   1      -0.092   1.309  -0.369  0.00  0.00     0.006 A 
ENDROOT
BRANCH   1   8
ATOM      8  C1  UNL d   1      -2.443   0.494  -0.780  0.00  0.00     0.054 C 
ATOM      9  C   UNL d   1      -2.439   0.484  -2.302  0.00  0.00     0.018 C 
ENDBRANCH   1   8
TORSDOF 1
ENDMDL
