MODEL 1
REMARK minimizedAffinity -3.32737231
REMARK minimizedRMSD -1
REMARK  1 active torsions:
REMARK  status: ('A' for Active; 'I' for Inactive)
REMARK    1  A    between atoms: C1_2  and  C2_3 
ROOT
ATOM      1  C2  UNL d   1       1.307  -0.492   1.335  0.00  0.00    -0.081 A 
ATOM      2  C3  UNL d   1       0.205  -1.345   1.194  0.00  0.00     0.006 A 
ATOM      3  C4  UNL d   1      -0.747  -1.113   0.199  0.00  0.00     0.002 A 
ATOM      4  C5  UNL d   1      -0.610  -0.031  -0.677  0.00  0.00    -0.080 A 
ATOM      5  C6  UNL d   1      -1.609   0.211  -1.769  0.00  0.00     0.076 C 
ATOM      6  C7  UNL d   1       0.481   0.831  -0.526  0.00  0.00     0.002 A 
ATOM      7  C8  UNL d   1       1.433   0.601   0.470  0.00  0.00     0.006 A 
ENDROOT
BRANCH   1   8
ATOM      8  C1  UNL d   1       2.369  -0.776   2.365  0.00  0.00     0.054 C 
ATOM      9  C   UNL d   1       2.048  -2.034   3.158  0.00  0.00     0.018 C 
ENDBRANCH   1   8
TORSDOF 1
ENDMDL
