MODEL 1
REMARK minimizedAffinity -0.0686313808
REMARK minimizedRMSD -1
REMARK  1 active torsions:
REMARK  status: ('A' for Active; 'I' for Inactive)
REMARK    1  A    between atoms: C1_2  and  C2_3 
ROOT
ATOM      1  C2  UNL d   1       0.543  -1.270   1.363  0.00  0.00    -0.081 A 
ATOM      2  C3  UNL d   1       1.698  -0.530   1.644  0.00  0.00     0.006 A 
ATOM      3  C4  UNL d   1       1.810   0.797   1.220  0.00  0.00     0.002 A 
ATOM      4  C5  UNL d   1       0.766   1.407   0.516  0.00  0.00    -0.080 A 
ATOM      5  C6  UNL d   1       0.861   2.840   0.081  0.00  0.00     0.076 C 
ATOM      6  C7  UNL d   1      -0.380   0.663   0.220  0.00  0.00     0.002 A 
ATOM      7  C8  UNL d   1      -0.493  -0.664   0.643  0.00  0.00     0.006 A 
ENDROOT
BRANCH   1   8
ATOM      8  C1  UNL d   1       0.393  -2.679   1.875  0.00  0.00     0.054 C 
ATOM      9  C   UNL d   1      -1.013  -3.209   1.632  0.00  0.00     0.018 C 
ENDBRANCH   1   8
TORSDOF 1
ENDMDL
