MODEL 1
REMARK minimizedAffinity -3.84673452
REMARK minimizedRMSD -1
REMARK  1 active torsions:
REMARK  status: ('A' for Active; 'I' for Inactive)
REMARK    1  A    between atoms: C1_2  and  C2_3 
ROOT
ATOM      1  C2  UNL d   1       1.476   0.093   0.899  0.00  0.00    -0.081 A 
ATOM      2  C3  UNL d   1       1.373   1.095  -0.074  0.00  0.00     0.006 A 
ATOM      3  C4  UNL d   1       0.230   1.193  -0.871  0.00  0.00     0.002 A 
ATOM      4  C5  UNL d   1      -0.831   0.297  -0.704  0.00  0.00    -0.080 A 
ATOM      5  C6  UNL d   1      -2.076   0.411  -1.533  0.00  0.00     0.076 C 
ATOM      6  C7  UNL d   1      -0.721  -0.714   0.256  0.00  0.00     0.002 A 
ATOM      7  C8  UNL d   1       0.421  -0.814   1.053  0.00  0.00     0.006 A 
ENDROOT
BRANCH   1   8
ATOM      8  C1  UNL d   1       2.679   0.024   1.804  0.00  0.00     0.054 C 
ATOM      9  C   UNL d   1       2.534  -1.087   2.834  0.00  0.00     0.018 C 
ENDBRANCH   1   8
TORSDOF 1
ENDMDL
