MODEL 1
REMARK minimizedAffinity -2.13045001
REMARK minimizedRMSD -1
REMARK  1 active torsions:
REMARK  status: ('A' for Active; 'I' for Inactive)
REMARK    1  A    between atoms: C1_2  and  C2_3 
ROOT
ATOM      1  C2  UNL d   1      -0.887   0.055  -0.454  0.00  0.00    -0.081 A 
ATOM      2  C3  UNL d   1      -0.544  -0.861   0.548  0.00  0.00     0.006 A 
ATOM      3  C4  UNL d   1       0.708  -0.799   1.165  0.00  0.00     0.002 A 
ATOM      4  C5  UNL d   1       1.634   0.182   0.796  0.00  0.00    -0.080 A 
ATOM      5  C6  UNL d   1       2.970   0.278   1.471  0.00  0.00     0.076 C 
ATOM      6  C7  UNL d   1       1.298   1.085  -0.218  0.00  0.00     0.002 A 
ATOM      7  C8  UNL d   1       0.047   1.024  -0.836  0.00  0.00     0.006 A 
ENDROOT
BRANCH   1   8
ATOM      8  C1  UNL d   1      -2.260   0.032  -1.076  0.00  0.00     0.054 C 
ATOM      9  C   UNL d   1      -2.282   0.789  -2.396  0.00  0.00     0.018 C 
ENDBRANCH   1   8
TORSDOF 1
ENDMDL
