MODEL 1
REMARK minimizedAffinity -4.74364853
REMARK minimizedRMSD -1
REMARK  0 active torsions:
REMARK  status: ('A' for Active; 'I' for Inactive)
ROOT
ATOM      1  C   UNL d   1      -0.442  -1.021   1.771  0.00  0.00     0.020 A 
ATOM      2  C1  UNL d   1      -0.116   0.058   0.950  0.00  0.00     0.020 A 
ATOM      3  C2  UNL d   1       0.240  -0.162  -0.383  0.00  0.00     0.034 A 
ATOM      4  C3  UNL d   1       0.270  -1.463  -0.898  0.00  0.00     0.017 A 
ATOM      5  C4  UNL d   1      -0.058  -2.545  -0.073  0.00  0.00     0.017 A 
ATOM      6  C5  UNL d   1      -0.413  -2.319   1.260  0.00  0.00     0.034 A 
ATOM      7 Cl   UNL d   1      -0.043  -4.178  -0.637  0.00  0.00    -0.070 Cl
ATOM      8 Cl1  UNL d   1       0.719  -1.660  -2.555  0.00  0.00    -0.070 Cl
ENDROOT
TORSDOF 0
ENDMDL
