MODEL 1
REMARK minimizedAffinity -2.69603133
REMARK minimizedRMSD -1
REMARK  0 active torsions:
REMARK  status: ('A' for Active; 'I' for Inactive)
ROOT
ATOM      1  C   UNL d   1       0.073  -2.723   0.658  0.00  0.00     0.020 A 
ATOM      2  C1  UNL d   1      -0.230  -1.803   1.661  0.00  0.00     0.020 A 
ATOM      3  C2  UNL d   1      -0.243  -0.436   1.374  0.00  0.00     0.034 A 
ATOM      4  C3  UNL d   1       0.049   0.014   0.081  0.00  0.00     0.017 A 
ATOM      5  C4  UNL d   1       0.353  -0.910  -0.925  0.00  0.00     0.017 A 
ATOM      6  C5  UNL d   1       0.365  -2.278  -0.632  0.00  0.00     0.034 A 
ATOM      7 Cl   UNL d   1       0.724  -0.430  -2.543  0.00  0.00    -0.070 Cl
ATOM      8 Cl1  UNL d   1       0.014   1.718  -0.203  0.00  0.00    -0.070 Cl
ENDROOT
TORSDOF 0
ENDMDL
