MODEL 1
REMARK minimizedAffinity -3.51568913
REMARK minimizedRMSD -1
REMARK  0 active torsions:
REMARK  status: ('A' for Active; 'I' for Inactive)
ROOT
ATOM      1  C   UNL d   1      -0.073   0.986  -1.919  0.00  0.00     0.020 A 
ATOM      2  C1  UNL d   1       0.526  -0.154  -2.453  0.00  0.00     0.020 A 
ATOM      3  C2  UNL d   1       0.755  -1.267  -1.641  0.00  0.00     0.034 A 
ATOM      4  C3  UNL d   1       0.385  -1.242  -0.291  0.00  0.00     0.017 A 
ATOM      5  C4  UNL d   1      -0.217  -0.097   0.243  0.00  0.00     0.017 A 
ATOM      6  C5  UNL d   1      -0.444   1.015  -0.574  0.00  0.00     0.034 A 
ATOM      7 Cl   UNL d   1      -0.701   0.009   1.899  0.00  0.00    -0.070 Cl
ATOM      8 Cl1  UNL d   1       0.698  -2.654   0.654  0.00  0.00    -0.070 Cl
ENDROOT
TORSDOF 0
ENDMDL
