MODEL 1
REMARK minimizedAffinity -1.66913342
REMARK minimizedRMSD -1
REMARK  0 active torsions:
REMARK  status: ('A' for Active; 'I' for Inactive)
ROOT
ATOM      1  C   UNL d   1       0.074   1.202  -1.106  0.00  0.00     0.020 A 
ATOM      2  C1  UNL d   1       0.494  -0.009  -1.654  0.00  0.00     0.020 A 
ATOM      3  C2  UNL d   1       0.189  -1.210  -1.009  0.00  0.00     0.034 A 
ATOM      4  C3  UNL d   1      -0.537  -1.202   0.187  0.00  0.00     0.017 A 
ATOM      5  C4  UNL d   1      -0.958   0.014   0.736  0.00  0.00     0.017 A 
ATOM      6  C5  UNL d   1      -0.651   1.214   0.086  0.00  0.00     0.034 A 
ATOM      7 Cl   UNL d   1      -1.859   0.104   2.209  0.00  0.00    -0.070 Cl
ATOM      8 Cl1  UNL d   1      -0.878  -2.724   0.930  0.00  0.00    -0.070 Cl
ENDROOT
TORSDOF 0
ENDMDL
