MODEL 1
REMARK minimizedAffinity -4.05662346
REMARK minimizedRMSD -1
REMARK  0 active torsions:
REMARK  status: ('A' for Active; 'I' for Inactive)
ROOT
ATOM      1  C   UNL d   1       0.735  -2.307  -0.526  0.00  0.00     0.020 A 
ATOM      2  C1  UNL d   1      -0.012  -2.927   0.475  0.00  0.00     0.020 A 
ATOM      3  C2  UNL d   1      -0.773  -2.156   1.357  0.00  0.00     0.034 A 
ATOM      4  C3  UNL d   1      -0.787  -0.761   1.240  0.00  0.00     0.017 A 
ATOM      5  C4  UNL d   1      -0.036  -0.140   0.235  0.00  0.00     0.017 A 
ATOM      6  C5  UNL d   1       0.723  -0.917  -0.645  0.00  0.00     0.034 A 
ATOM      7 Cl   UNL d   1      -0.004   1.575   0.028  0.00  0.00    -0.070 Cl
ATOM      8 Cl1  UNL d   1      -1.750   0.130   2.365  0.00  0.00    -0.070 Cl
ENDROOT
TORSDOF 0
ENDMDL
