MODEL 1
REMARK minimizedAffinity -2.80121756
REMARK minimizedRMSD -1
REMARK  0 active torsions:
REMARK  status: ('A' for Active; 'I' for Inactive)
ROOT
ATOM      1  C   UNL d   1      -1.858  -0.987   2.012  0.00  0.00     0.020 A 
ATOM      2  C1  UNL d   1      -1.745   0.150   1.213  0.00  0.00     0.020 A 
ATOM      3  C2  UNL d   1      -1.083   0.078  -0.014  0.00  0.00     0.034 A 
ATOM      4  C3  UNL d   1      -0.530  -1.133  -0.446  0.00  0.00     0.017 A 
ATOM      5  C4  UNL d   1      -0.644  -2.274   0.356  0.00  0.00     0.017 A 
ATOM      6  C5  UNL d   1      -1.309  -2.197   1.584  0.00  0.00     0.034 A 
ATOM      7 Cl   UNL d   1       0.011  -3.804  -0.110  0.00  0.00    -0.070 Cl
ATOM      8 Cl1  UNL d   1       0.275  -1.149  -1.974  0.00  0.00    -0.070 Cl
ENDROOT
TORSDOF 0
ENDMDL
