MODEL 1
REMARK minimizedAffinity -3.20672178
REMARK minimizedRMSD -1
REMARK  0 active torsions:
REMARK  status: ('A' for Active; 'I' for Inactive)
ROOT
ATOM      1  C   UNL d   1      -1.332  -1.753   1.512  0.00  0.00     0.020 A 
ATOM      2  C1  UNL d   1      -1.292  -2.580   0.390  0.00  0.00     0.020 A 
ATOM      3  C2  UNL d   1      -0.840  -2.077  -0.832  0.00  0.00     0.034 A 
ATOM      4  C3  UNL d   1      -0.428  -0.744  -0.935  0.00  0.00     0.017 A 
ATOM      5  C4  UNL d   1      -0.470   0.086   0.191  0.00  0.00     0.017 A 
ATOM      6  C5  UNL d   1      -0.922  -0.423   1.413  0.00  0.00     0.034 A 
ATOM      7 Cl   UNL d   1       0.023   1.742   0.142  0.00  0.00    -0.070 Cl
ATOM      8 Cl1  UNL d   1       0.118  -0.189  -2.478  0.00  0.00    -0.070 Cl
ENDROOT
TORSDOF 0
ENDMDL
