MODEL 1
REMARK minimizedAffinity -2.96936607
REMARK minimizedRMSD -1
REMARK  0 active torsions:
REMARK  status: ('A' for Active; 'I' for Inactive)
ROOT
ATOM      1  C   UNL d   1      -0.568  -1.899   1.790  0.00  0.00     0.020 A 
ATOM      2  C1  UNL d   1      -0.308  -2.851   0.805  0.00  0.00     0.020 A 
ATOM      3  C2  UNL d   1       0.067  -2.445  -0.478  0.00  0.00     0.034 A 
ATOM      4  C3  UNL d   1       0.182  -1.083  -0.779  0.00  0.00     0.017 A 
ATOM      5  C4  UNL d   1      -0.080  -0.128   0.210  0.00  0.00     0.017 A 
ATOM      6  C5  UNL d   1      -0.454  -0.541   1.493  0.00  0.00     0.034 A 
ATOM      7 Cl   UNL d   1       0.041   1.570  -0.086  0.00  0.00    -0.070 Cl
ATOM      8 Cl1  UNL d   1       0.649  -0.653  -2.386  0.00  0.00    -0.070 Cl
ENDROOT
TORSDOF 0
ENDMDL
