MODEL 1
REMARK minimizedAffinity -4.51432514
REMARK minimizedRMSD -1
REMARK  0 active torsions:
REMARK  status: ('A' for Active; 'I' for Inactive)
ROOT
ATOM      1  C   UNL d   1       0.222  -3.217  -0.136  0.00  0.00     0.020 A 
ATOM      2  C1  UNL d   1       0.459  -2.436  -1.267  0.00  0.00     0.020 A 
ATOM      3  C2  UNL d   1       0.311  -1.049  -1.202  0.00  0.00     0.034 A 
ATOM      4  C3  UNL d   1      -0.075  -0.438  -0.003  0.00  0.00     0.017 A 
ATOM      5  C4  UNL d   1      -0.312  -1.222   1.131  0.00  0.00     0.017 A 
ATOM      6  C5  UNL d   1      -0.162  -2.611   1.060  0.00  0.00     0.034 A 
ATOM      7 Cl   UNL d   1      -0.791  -0.540   2.646  0.00  0.00    -0.070 Cl
ATOM      8 Cl1  UNL d   1      -0.239   1.282   0.005  0.00  0.00    -0.070 Cl
ENDROOT
TORSDOF 0
ENDMDL
