MODEL 1
REMARK minimizedAffinity -5.04660368
REMARK minimizedRMSD -1
REMARK  0 active torsions:
REMARK  status: ('A' for Active; 'I' for Inactive)
ROOT
ATOM      1  C   UNL d   1      -0.135  -3.240  -0.379  0.00  0.00     0.020 A 
ATOM      2  C1  UNL d   1       0.407  -2.583  -1.484  0.00  0.00     0.020 A 
ATOM      3  C2  UNL d   1       0.495  -1.189  -1.494  0.00  0.00     0.034 A 
ATOM      4  C3  UNL d   1       0.041  -0.448  -0.397  0.00  0.00     0.017 A 
ATOM      5  C4  UNL d   1      -0.503  -1.108   0.711  0.00  0.00     0.017 A 
ATOM      6  C5  UNL d   1      -0.589  -2.503   0.716  0.00  0.00     0.034 A 
ATOM      7 Cl   UNL d   1      -1.084  -0.261   2.101  0.00  0.00    -0.070 Cl
ATOM      8 Cl1  UNL d   1       0.181   1.273  -0.477  0.00  0.00    -0.070 Cl
ENDROOT
TORSDOF 0
ENDMDL
