MODEL 1
REMARK minimizedAffinity -3.94941831
REMARK minimizedRMSD -1
REMARK  0 active torsions:
REMARK  status: ('A' for Active; 'I' for Inactive)
ROOT
ATOM      1  C   UNL d   1      -0.193   0.285   0.604  0.00  0.00     0.020 A 
ATOM      2  C1  UNL d   1      -0.704  -0.735   1.405  0.00  0.00     0.020 A 
ATOM      3  C2  UNL d   1      -0.846  -2.024   0.887  0.00  0.00     0.034 A 
ATOM      4  C3  UNL d   1      -0.477  -2.296  -0.435  0.00  0.00     0.017 A 
ATOM      5  C4  UNL d   1       0.036  -1.271  -1.238  0.00  0.00     0.017 A 
ATOM      6  C5  UNL d   1       0.176   0.018  -0.714  0.00  0.00     0.034 A 
ATOM      7 Cl   UNL d   1       0.513  -1.529  -2.879  0.00  0.00    -0.070 Cl
ATOM      8 Cl1  UNL d   1      -0.680  -3.913  -1.010  0.00  0.00    -0.070 Cl
ENDROOT
TORSDOF 0
ENDMDL
