MODEL 1
REMARK minimizedAffinity 0.933267772
REMARK minimizedRMSD -1
REMARK  0 active torsions:
REMARK  status: ('A' for Active; 'I' for Inactive)
ROOT
ATOM      1  C   UNL d   1      -0.811  -1.720   0.528  0.00  0.00     0.020 A 
ATOM      2  C1  UNL d   1      -0.139  -1.105   1.583  0.00  0.00     0.020 A 
ATOM      3  C2  UNL d   1       0.393   0.176   1.420  0.00  0.00     0.034 A 
ATOM      4  C3  UNL d   1       0.253   0.846   0.200  0.00  0.00     0.017 A 
ATOM      5  C4  UNL d   1      -0.423   0.228  -0.859  0.00  0.00     0.017 A 
ATOM      6  C5  UNL d   1      -0.953  -1.055  -0.690  0.00  0.00     0.034 A 
ATOM      7 Cl   UNL d   1      -0.636   0.992  -2.395  0.00  0.00    -0.070 Cl
ATOM      8 Cl1  UNL d   1       0.934   2.428   0.069  0.00  0.00    -0.070 Cl
ENDROOT
TORSDOF 0
ENDMDL
