MODEL 1
REMARK minimizedAffinity -3.94917011
REMARK minimizedRMSD -1
REMARK  0 active torsions:
REMARK  status: ('A' for Active; 'I' for Inactive)
ROOT
ATOM      1  C   UNL d   1      -0.525   0.347   0.964  0.00  0.00     0.020 A 
ATOM      2  C1  UNL d   1       0.051   1.076  -0.076  0.00  0.00     0.020 A 
ATOM      3  C2  UNL d   1       0.377   0.442  -1.276  0.00  0.00     0.034 A 
ATOM      4  C3  UNL d   1       0.127  -0.926  -1.440  0.00  0.00     0.017 A 
ATOM      5  C4  UNL d   1      -0.450  -1.657  -0.396  0.00  0.00     0.017 A 
ATOM      6  C5  UNL d   1      -0.775  -1.016   0.804  0.00  0.00     0.034 A 
ATOM      7 Cl   UNL d   1      -0.788  -3.347  -0.523  0.00  0.00    -0.070 Cl
ATOM      8 Cl1  UNL d   1       0.555  -1.645  -2.952  0.00  0.00    -0.070 Cl
ENDROOT
TORSDOF 0
ENDMDL
