MODEL 1
REMARK minimizedAffinity -5.52443743
REMARK minimizedRMSD -1
REMARK  0 active torsions:
REMARK  status: ('A' for Active; 'I' for Inactive)
ROOT
ATOM      1  C   UNL d   1      -0.599  -2.693   1.171  0.00  0.00     0.020 A 
ATOM      2  C1  UNL d   1      -0.884  -1.397   1.600  0.00  0.00     0.020 A 
ATOM      3  C2  UNL d   1      -0.763  -0.326   0.713  0.00  0.00     0.034 A 
ATOM      4  C3  UNL d   1      -0.355  -0.548  -0.607  0.00  0.00     0.017 A 
ATOM      5  C4  UNL d   1      -0.069  -1.849  -1.037  0.00  0.00     0.017 A 
ATOM      6  C5  UNL d   1      -0.193  -2.918  -0.145  0.00  0.00     0.034 A 
ATOM      7 Cl   UNL d   1       0.439  -2.201  -2.651  0.00  0.00    -0.070 Cl
ATOM      8 Cl1  UNL d   1      -0.227   0.824  -1.650  0.00  0.00    -0.070 Cl
ENDROOT
TORSDOF 0
ENDMDL
