MODEL 1
REMARK minimizedAffinity -4.67009878
REMARK minimizedRMSD -1
REMARK  0 active torsions:
REMARK  status: ('A' for Active; 'I' for Inactive)
ROOT
ATOM      1  C   UNL d   1      -0.268  -3.103  -1.113  0.00  0.00     0.020 A 
ATOM      2  C1  UNL d   1       0.157  -2.242  -2.123  0.00  0.00     0.020 A 
ATOM      3  C2  UNL d   1       0.298  -0.877  -1.863  0.00  0.00     0.034 A 
ATOM      4  C3  UNL d   1       0.014  -0.369  -0.590  0.00  0.00     0.017 A 
ATOM      5  C4  UNL d   1      -0.413  -1.235   0.423  0.00  0.00     0.017 A 
ATOM      6  C5  UNL d   1      -0.553  -2.601   0.158  0.00  0.00     0.034 A 
ATOM      7 Cl   UNL d   1      -0.782  -0.683   2.019  0.00  0.00    -0.070 Cl
ATOM      8 Cl1  UNL d   1       0.211   1.329  -0.340  0.00  0.00    -0.070 Cl
ENDROOT
TORSDOF 0
ENDMDL
