MODEL 1
REMARK minimizedAffinity -4.52173281
REMARK minimizedRMSD -1
REMARK  0 active torsions:
REMARK  status: ('A' for Active; 'I' for Inactive)
ROOT
ATOM      1  C   UNL d   1       0.603  -2.947  -0.943  0.00  0.00     0.020 A 
ATOM      2  C1  UNL d   1      -0.392  -3.462  -0.114  0.00  0.00     0.020 A 
ATOM      3  C2  UNL d   1      -1.250  -2.597   0.569  0.00  0.00     0.034 A 
ATOM      4  C3  UNL d   1      -1.114  -1.212   0.424  0.00  0.00     0.017 A 
ATOM      5  C4  UNL d   1      -0.115  -0.695  -0.408  0.00  0.00     0.017 A 
ATOM      6  C5  UNL d   1       0.741  -1.566  -1.090  0.00  0.00     0.034 A 
ATOM      7 Cl   UNL d   1       0.115   1.003  -0.638  0.00  0.00    -0.070 Cl
ATOM      8 Cl1  UNL d   1      -2.209  -0.201   1.299  0.00  0.00    -0.070 Cl
ENDROOT
TORSDOF 0
ENDMDL
