MODEL 1
REMARK minimizedAffinity -4.07318163
REMARK minimizedRMSD -1
REMARK  0 active torsions:
REMARK  status: ('A' for Active; 'I' for Inactive)
ROOT
ATOM      1  C   UNL d   1      -0.260  -2.518   1.097  0.00  0.00     0.020 A 
ATOM      2  C1  UNL d   1       0.050  -3.254  -0.046  0.00  0.00     0.020 A 
ATOM      3  C2  UNL d   1       0.307  -2.597  -1.251  0.00  0.00     0.034 A 
ATOM      4  C3  UNL d   1       0.254  -1.200  -1.317  0.00  0.00     0.017 A 
ATOM      5  C4  UNL d   1      -0.059  -0.462  -0.170  0.00  0.00     0.017 A 
ATOM      6  C5  UNL d   1      -0.315  -1.125   1.035  0.00  0.00     0.034 A 
ATOM      7 Cl   UNL d   1      -0.144   1.264  -0.173  0.00  0.00    -0.070 Cl
ATOM      8 Cl1  UNL d   1       0.583  -0.454  -2.840  0.00  0.00    -0.070 Cl
ENDROOT
TORSDOF 0
ENDMDL
