MODEL 1
REMARK minimizedAffinity -6.01385975
REMARK minimizedRMSD -1
REMARK  0 active torsions:
REMARK  status: ('A' for Active; 'I' for Inactive)
ROOT
ATOM      1  C   UNL d   1       0.176  -3.657  -1.372  0.00  0.00     0.020 A 
ATOM      2  C1  UNL d   1      -0.135  -3.550  -0.017  0.00  0.00     0.020 A 
ATOM      3  C2  UNL d   1      -0.275  -2.291   0.569  0.00  0.00     0.034 A 
ATOM      4  C3  UNL d   1      -0.104  -1.133  -0.199  0.00  0.00     0.017 A 
ATOM      5  C4  UNL d   1       0.208  -1.242  -1.559  0.00  0.00     0.017 A 
ATOM      6  C5  UNL d   1       0.348  -2.505  -2.141  0.00  0.00     0.034 A 
ATOM      7 Cl   UNL d   1       0.434   0.141  -2.571  0.00  0.00    -0.070 Cl
ATOM      8 Cl1  UNL d   1      -0.293   0.391   0.592  0.00  0.00    -0.070 Cl
ENDROOT
TORSDOF 0
ENDMDL
