MODEL 1
REMARK minimizedAffinity -2.47248244
REMARK minimizedRMSD -1
REMARK  0 active torsions:
REMARK  status: ('A' for Active; 'I' for Inactive)
ROOT
ATOM      1  C   UNL d   1      -1.163  -1.761   0.618  0.00  0.00     0.020 A 
ATOM      2  C1  UNL d   1      -0.793  -0.982   1.714  0.00  0.00     0.020 A 
ATOM      3  C2  UNL d   1      -0.260   0.293   1.516  0.00  0.00     0.034 A 
ATOM      4  C3  UNL d   1      -0.095   0.794   0.220  0.00  0.00     0.017 A 
ATOM      5  C4  UNL d   1      -0.467   0.012  -0.880  0.00  0.00     0.017 A 
ATOM      6  C5  UNL d   1      -1.000  -1.265  -0.676  0.00  0.00     0.034 A 
ATOM      7 Cl   UNL d   1      -0.294   0.562  -2.509  0.00  0.00    -0.070 Cl
ATOM      8 Cl1  UNL d   1       0.569   2.380   0.049  0.00  0.00    -0.070 Cl
ENDROOT
TORSDOF 0
ENDMDL
