MODEL 1
REMARK minimizedAffinity -1.70533347
REMARK minimizedRMSD -1
REMARK  2 active torsions:
REMARK  status: ('A' for Active; 'I' for Inactive)
REMARK    1  A    between atoms: C2'_3  and  C1'_4 
REMARK    2  A    between atoms: C1'_4  and  C1_5 
ROOT
ATOM      1  C1  I4B d   1      -0.113   0.091   0.205  0.00  0.00    -0.075 A 
ATOM      2  C2  I4B d   1      -1.294   0.719  -0.101  0.00  0.00     0.003 A 
ATOM      3  C3  I4B d   1      -2.143   1.185   0.933  0.00  0.00     0.002 A 
ATOM      4  C4  I4B d   1      -1.797   0.958   2.249  0.00  0.00    -0.004 A 
ATOM      5  C5  I4B d   1      -0.588   0.341   2.558  0.00  0.00     0.002 A 
ATOM      6  C6  I4B d   1       0.266  -0.084   1.529  0.00  0.00     0.003 A 
ENDROOT
BRANCH   1   7
ATOM      7  C1' I4B d   1       0.743  -0.417  -0.912  0.00  0.00     0.060 C 
BRANCH   7   8
ATOM      8  C2' I4B d   1       0.127   0.041  -2.218  0.00  0.00    -0.013 C 
ATOM      9  C4' I4B d   1       1.128   0.786  -3.061  0.00  0.00     0.013 C 
ATOM     10  C3' I4B d   1      -0.391  -1.171  -2.935  0.00  0.00     0.013 C 
ENDBRANCH   7   8
ENDBRANCH   1   7
TORSDOF 2
ENDMDL
