MODEL 1
REMARK minimizedAffinity -4.37009764
REMARK minimizedRMSD -1
REMARK  2 active torsions:
REMARK  status: ('A' for Active; 'I' for Inactive)
REMARK    1  A    between atoms: C2'_3  and  C1'_4 
REMARK    2  A    between atoms: C1'_4  and  C1_5 
ROOT
ATOM      1  C1  I4B d   1       0.138  -0.403   0.110  0.00  0.00    -0.075 A 
ATOM      2  C2  I4B d   1      -0.897   0.478  -0.086  0.00  0.00     0.003 A 
ATOM      3  C3  I4B d   1      -1.535   1.086   1.022  0.00  0.00     0.002 A 
ATOM      4  C4  I4B d   1      -1.143   0.749   2.301  0.00  0.00    -0.004 A 
ATOM      5  C5  I4B d   1      -0.079  -0.127   2.498  0.00  0.00     0.002 A 
ATOM      6  C6  I4B d   1       0.574  -0.697   1.395  0.00  0.00     0.003 A 
ENDROOT
BRANCH   1   7
ATOM      7  C1' I4B d   1       0.768  -1.052  -1.081  0.00  0.00     0.060 C 
BRANCH   7   8
ATOM      8  C2' I4B d   1       0.308  -0.305  -2.317  0.00  0.00    -0.013 C 
ATOM      9  C4' I4B d   1       1.440   0.471  -2.938  0.00  0.00     0.013 C 
ATOM     10  C3' I4B d   1      -0.255  -1.307  -3.281  0.00  0.00     0.013 C 
ENDBRANCH   7   8
ENDBRANCH   1   7
TORSDOF 2
ENDMDL
