MODEL 1
REMARK minimizedAffinity -2.42935538
REMARK minimizedRMSD -1
REMARK  2 active torsions:
REMARK  status: ('A' for Active; 'I' for Inactive)
REMARK    1  A    between atoms: C2'_3  and  C1'_4 
REMARK    2  A    between atoms: C1'_4  and  C1_5 
ROOT
ATOM      1  C1  I4B d   1       0.023  -0.255  -0.565  0.00  0.00    -0.075 A 
ATOM      2  C2  I4B d   1       0.805   0.080   0.512  0.00  0.00     0.003 A 
ATOM      3  C3  I4B d   1       0.206   0.450   1.740  0.00  0.00     0.002 A 
ATOM      4  C4  I4B d   1      -1.170   0.520   1.832  0.00  0.00    -0.004 A 
ATOM      5  C5  I4B d   1      -1.961   0.158   0.746  0.00  0.00     0.002 A 
ATOM      6  C6  I4B d   1      -1.362  -0.244  -0.457  0.00  0.00     0.003 A 
ENDROOT
BRANCH   1   7
ATOM      7  C1' I4B d   1       0.688  -0.609  -1.857  0.00  0.00     0.060 C 
BRANCH   7   8
ATOM      8  C2' I4B d   1       1.038   0.680  -2.571  0.00  0.00    -0.013 C 
ATOM      9  C4' I4B d   1       2.503   1.000  -2.433  0.00  0.00     0.013 C 
ATOM     10  C3' I4B d   1       0.650   0.532  -4.012  0.00  0.00     0.013 C 
ENDBRANCH   7   8
ENDBRANCH   1   7
TORSDOF 2
ENDMDL
