MODEL 1
REMARK minimizedAffinity 6.04452991
REMARK minimizedRMSD -1
REMARK  2 active torsions:
REMARK  status: ('A' for Active; 'I' for Inactive)
REMARK    1  A    between atoms: C2'_3  and  C1'_4 
REMARK    2  A    between atoms: C1'_4  and  C1_5 
ROOT
ATOM      1  C1  I4B d   1      -3.212   1.181   0.851  0.00  0.00    -0.075 A 
ATOM      2  C2  I4B d   1      -2.718  -0.015   1.309  0.00  0.00     0.003 A 
ATOM      3  C3  I4B d   1      -1.576  -0.042   2.145  0.00  0.00     0.002 A 
ATOM      4  C4  I4B d   1      -0.933   1.139   2.455  0.00  0.00    -0.004 A 
ATOM      5  C5  I4B d   1      -1.448   2.353   2.009  0.00  0.00     0.002 A 
ATOM      6  C6  I4B d   1      -2.602   2.375   1.212  0.00  0.00     0.003 A 
ENDROOT
BRANCH   1   7
ATOM      7  C1' I4B d   1      -4.400   1.170  -0.057  0.00  0.00     0.060 C 
BRANCH   7   8
ATOM      8  C2' I4B d   1      -4.383  -0.131  -0.833  0.00  0.00    -0.013 C 
ATOM      9  C4' I4B d   1      -5.780  -0.601  -1.141  0.00  0.00     0.013 C 
ATOM     10  C3' I4B d   1      -3.597   0.091  -2.091  0.00  0.00     0.013 C 
ENDBRANCH   7   8
ENDBRANCH   1   7
TORSDOF 2
ENDMDL
