MODEL 1
REMARK minimizedAffinity -6.45450449
REMARK minimizedRMSD -1
REMARK  0 active torsions:
REMARK  status: ('A' for Active; 'I' for Inactive)
ROOT
ATOM      1  C2' OXE d   1      -1.425   0.475  -1.556  0.00  0.00     0.078 C 
ATOM      2  C1' OXE d   1       0.835   0.126   0.073  0.00  0.00     0.078 C 
ATOM      3  C1  OXE d   1      -0.351  -0.776   0.311  0.00  0.00    -0.078 A 
ATOM      4  C2  OXE d   1      -1.469  -0.567  -0.459  0.00  0.00    -0.078 A 
ATOM      5  C3  OXE d   1      -2.570  -1.407  -0.318  0.00  0.00     0.003 A 
ATOM      6  C4  OXE d   1      -2.607  -2.362   0.706  0.00  0.00    -0.002 A 
ATOM      7  C5  OXE d   1      -1.493  -2.564   1.528  0.00  0.00    -0.002 A 
ATOM      8  C6  OXE d   1      -0.344  -1.810   1.316  0.00  0.00     0.003 A 
ENDROOT
TORSDOF 0
ENDMDL
