MODEL 1
REMARK minimizedAffinity -5.15160513
REMARK minimizedRMSD -1
REMARK  0 active torsions:
REMARK  status: ('A' for Active; 'I' for Inactive)
ROOT
ATOM      1  C2' OXE d   1      -3.125  -2.033   0.074  0.00  0.00     0.078 C 
ATOM      2  C1' OXE d   1      -1.081  -2.456   1.951  0.00  0.00     0.078 C 
ATOM      3  C1  OXE d   1      -0.844  -1.430   0.871  0.00  0.00    -0.078 A 
ATOM      4  C2  OXE d   1      -1.830  -1.262  -0.070  0.00  0.00    -0.078 A 
ATOM      5  C3  OXE d   1      -1.686  -0.290  -1.056  0.00  0.00     0.003 A 
ATOM      6  C4  OXE d   1      -0.481   0.411  -1.188  0.00  0.00    -0.002 A 
ATOM      7  C5  OXE d   1       0.553   0.227  -0.263  0.00  0.00    -0.002 A 
ATOM      8  C6  OXE d   1       0.371  -0.656   0.795  0.00  0.00     0.003 A 
ENDROOT
TORSDOF 0
ENDMDL
