MODEL 1
REMARK minimizedAffinity -2.99755597
REMARK minimizedRMSD -1
REMARK  0 active torsions:
REMARK  status: ('A' for Active; 'I' for Inactive)
ROOT
ATOM      1  C2' OXE d   1      -2.400  -1.506  -2.256  0.00  0.00     0.078 C 
ATOM      2  C1' OXE d   1      -3.438  -1.004   0.303  0.00  0.00     0.078 C 
ATOM      3  C1  OXE d   1      -2.049  -0.503  -0.003  0.00  0.00    -0.078 A 
ATOM      4  C2  OXE d   1      -1.531  -0.794  -1.242  0.00  0.00    -0.078 A 
ATOM      5  C3  OXE d   1      -0.275  -0.308  -1.595  0.00  0.00     0.003 A 
ATOM      6  C4  OXE d   1       0.526   0.341  -0.648  0.00  0.00    -0.002 A 
ATOM      7  C5  OXE d   1       0.033   0.613   0.632  0.00  0.00    -0.002 A 
ATOM      8  C6  OXE d   1      -1.266   0.236   0.957  0.00  0.00     0.003 A 
ENDROOT
TORSDOF 0
ENDMDL
