MODEL 1
REMARK minimizedAffinity -2.65643334
REMARK minimizedRMSD -1
REMARK  0 active torsions:
REMARK  status: ('A' for Active; 'I' for Inactive)
ROOT
ATOM      1  C2' OXE d   1      -0.728  -1.086   1.970  0.00  0.00     0.078 C 
ATOM      2  C1' OXE d   1       1.281   0.271   0.555  0.00  0.00     0.078 C 
ATOM      3  C1  OXE d   1       0.001  -0.050  -0.175  0.00  0.00    -0.078 A 
ATOM      4  C2  OXE d   1      -0.958  -0.755   0.511  0.00  0.00    -0.078 A 
ATOM      5  C3  OXE d   1      -2.180  -1.029  -0.097  0.00  0.00     0.003 A 
ATOM      6  C4  OXE d   1      -2.381  -0.728  -1.450  0.00  0.00    -0.002 A 
ATOM      7  C5  OXE d   1      -1.402  -0.045  -2.179  0.00  0.00    -0.002 A 
ATOM      8  C6  OXE d   1      -0.225   0.338  -1.545  0.00  0.00     0.003 A 
ENDROOT
TORSDOF 0
ENDMDL
