MODEL 1
REMARK minimizedAffinity 1.88603604
REMARK minimizedRMSD -1
REMARK  0 active torsions:
REMARK  status: ('A' for Active; 'I' for Inactive)
ROOT
ATOM      1  C2' OXE d   1      -2.738   0.129  -1.153  0.00  0.00     0.078 C 
ATOM      2  C1' OXE d   1      -0.737  -0.845   0.558  0.00  0.00     0.078 C 
ATOM      3  C1  OXE d   1      -0.320  -0.360  -0.808  0.00  0.00    -0.078 A 
ATOM      4  C2  OXE d   1      -1.312   0.072  -1.656  0.00  0.00    -0.078 A 
ATOM      5  C3  OXE d   1      -0.976   0.581  -2.907  0.00  0.00     0.003 A 
ATOM      6  C4  OXE d   1       0.345   0.514  -3.368  0.00  0.00    -0.002 A 
ATOM      7  C5  OXE d   1       1.364   0.042  -2.535  0.00  0.00    -0.002 A 
ATOM      8  C6  OXE d   1       1.056  -0.358  -1.240  0.00  0.00     0.003 A 
ENDROOT
TORSDOF 0
ENDMDL
