MODEL 1
REMARK minimizedAffinity 2.80360866
REMARK minimizedRMSD -1
REMARK  0 active torsions:
REMARK  status: ('A' for Active; 'I' for Inactive)
ROOT
ATOM      1  C2' OXE d   1      -3.001  -2.796   4.914  0.00  0.00     0.078 C 
ATOM      2  C1' OXE d   1      -1.871  -1.284   2.836  0.00  0.00     0.078 C 
ATOM      3  C1  OXE d   1      -2.583  -0.542   3.939  0.00  0.00    -0.078 A 
ATOM      4  C2  OXE d   1      -3.173  -1.293   4.928  0.00  0.00    -0.078 A 
ATOM      5  C3  OXE d   1      -3.795  -0.656   5.998  0.00  0.00     0.003 A 
ATOM      6  C4  OXE d   1      -3.959   0.734   5.997  0.00  0.00    -0.002 A 
ATOM      7  C5  OXE d   1      -3.400   1.515   4.980  0.00  0.00    -0.002 A 
ATOM      8  C6  OXE d   1      -2.674   0.897   3.968  0.00  0.00     0.003 A 
ENDROOT
TORSDOF 0
ENDMDL
