MODEL 1
REMARK minimizedAffinity -1.12928939
REMARK minimizedRMSD -1
REMARK  0 active torsions:
REMARK  status: ('A' for Active; 'I' for Inactive)
ROOT
ATOM      1  C2' OXE d   1       2.613   3.759   1.320  0.00  0.00     0.078 C 
ATOM      2  C1' OXE d   1       3.852   1.399   2.199  0.00  0.00     0.078 C 
ATOM      3  C1  OXE d   1       2.818   1.286   1.107  0.00  0.00    -0.078 A 
ATOM      4  C2  OXE d   1       2.183   2.440   0.716  0.00  0.00    -0.078 A 
ATOM      5  C3  OXE d   1       1.261   2.400  -0.326  0.00  0.00     0.003 A 
ATOM      6  C4  OXE d   1       0.862   1.175  -0.873  0.00  0.00    -0.002 A 
ATOM      7  C5  OXE d   1       1.467  -0.017  -0.461  0.00  0.00    -0.002 A 
ATOM      8  C6  OXE d   1       2.475   0.026   0.496  0.00  0.00     0.003 A 
ENDROOT
TORSDOF 0
ENDMDL
