MODEL 1
REMARK minimizedAffinity -4.75377321
REMARK minimizedRMSD -1
REMARK  0 active torsions:
REMARK  status: ('A' for Active; 'I' for Inactive)
ROOT
ATOM      1  C2' OXE d   1      -1.332   0.503  -1.693  0.00  0.00     0.078 C 
ATOM      2  C1' OXE d   1       0.936   0.282  -0.054  0.00  0.00     0.078 C 
ATOM      3  C1  OXE d   1      -0.163  -0.734   0.126  0.00  0.00    -0.078 A 
ATOM      4  C2  OXE d   1      -1.290  -0.591  -0.647  0.00  0.00    -0.078 A 
ATOM      5  C3  OXE d   1      -2.311  -1.533  -0.560  0.00  0.00     0.003 A 
ATOM      6  C4  OXE d   1      -2.269  -2.535   0.417  0.00  0.00    -0.002 A 
ATOM      7  C5  OXE d   1      -1.148  -2.675   1.242  0.00  0.00    -0.002 A 
ATOM      8  C6  OXE d   1      -0.071  -1.811   1.081  0.00  0.00     0.003 A 
ENDROOT
TORSDOF 0
ENDMDL
