MODEL 1
REMARK minimizedAffinity -5.4276433
REMARK minimizedRMSD -1
REMARK  0 active torsions:
REMARK  status: ('A' for Active; 'I' for Inactive)
ROOT
ATOM      1  C2' OXE d   1      -0.878   0.332  -1.552  0.00  0.00     0.078 C 
ATOM      2  C1' OXE d   1       1.291  -0.131   0.169  0.00  0.00     0.078 C 
ATOM      3  C1  OXE d   1       0.073  -1.008   0.320  0.00  0.00    -0.078 A 
ATOM      4  C2  OXE d   1      -1.001  -0.744  -0.495  0.00  0.00    -0.078 A 
ATOM      5  C3  OXE d   1      -2.129  -1.558  -0.434  0.00  0.00     0.003 A 
ATOM      6  C4  OXE d   1      -2.238  -2.545   0.553  0.00  0.00    -0.002 A 
ATOM      7  C5  OXE d   1      -1.171  -2.804   1.419  0.00  0.00    -0.002 A 
ATOM      8  C6  OXE d   1       0.006  -2.075   1.288  0.00  0.00     0.003 A 
ENDROOT
TORSDOF 0
ENDMDL
