MODEL 1
REMARK minimizedAffinity -3.51959205
REMARK minimizedRMSD -1
REMARK  0 active torsions:
REMARK  status: ('A' for Active; 'I' for Inactive)
ROOT
ATOM      1  C2' OXE d   1      -0.759   1.442  -2.028  0.00  0.00     0.078 C 
ATOM      2  C1' OXE d   1       0.987   0.307  -0.146  0.00  0.00     0.078 C 
ATOM      3  C1  OXE d   1      -0.450  -0.153  -0.140  0.00  0.00    -0.078 A 
ATOM      4  C2  OXE d   1      -1.308   0.442  -1.033  0.00  0.00    -0.078 A 
ATOM      5  C3  OXE d   1      -2.631   0.015  -1.107  0.00  0.00     0.003 A 
ATOM      6  C4  OXE d   1      -3.132  -0.904  -0.177  0.00  0.00    -0.002 A 
ATOM      7  C5  OXE d   1      -2.284  -1.492   0.767  0.00  0.00    -0.002 A 
ATOM      8  C6  OXE d   1      -0.934  -1.160   0.771  0.00  0.00     0.003 A 
ENDROOT
TORSDOF 0
ENDMDL
