MODEL 1
REMARK minimizedAffinity -6.35142422
REMARK minimizedRMSD -1
REMARK  0 active torsions:
REMARK  status: ('A' for Active; 'I' for Inactive)
ROOT
ATOM      1  C2' OXE d   1       0.788  -0.008   0.365  0.00  0.00     0.078 C 
ATOM      2  C1' OXE d   1       0.093  -2.250   1.905  0.00  0.00     0.078 C 
ATOM      3  C1  OXE d   1      -0.953  -1.681   0.978  0.00  0.00    -0.078 A 
ATOM      4  C2  OXE d   1      -0.619  -0.556   0.263  0.00  0.00    -0.078 A 
ATOM      5  C3  OXE d   1      -1.528  -0.023  -0.647  0.00  0.00     0.003 A 
ATOM      6  C4  OXE d   1      -2.831  -0.530  -0.727  0.00  0.00    -0.002 A 
ATOM      7  C5  OXE d   1      -3.204  -1.652   0.021  0.00  0.00    -0.002 A 
ATOM      8  C6  OXE d   1      -2.265  -2.264   0.845  0.00  0.00     0.003 A 
ENDROOT
TORSDOF 0
ENDMDL
