MODEL 1
REMARK minimizedAffinity -4.97302914
REMARK minimizedRMSD -1
REMARK  0 active torsions:
REMARK  status: ('A' for Active; 'I' for Inactive)
ROOT
ATOM      1  C2' OXE d   1      -0.725   0.357  -1.502  0.00  0.00     0.078 C 
ATOM      2  C1' OXE d   1       0.704  -0.148   0.861  0.00  0.00     0.078 C 
ATOM      3  C1  OXE d   1      -0.556  -0.941   0.618  0.00  0.00    -0.078 A 
ATOM      4  C2  OXE d   1      -1.274  -0.654  -0.518  0.00  0.00    -0.078 A 
ATOM      5  C3  OXE d   1      -2.414  -1.394  -0.817  0.00  0.00     0.003 A 
ATOM      6  C4  OXE d   1      -2.921  -2.320   0.103  0.00  0.00    -0.002 A 
ATOM      7  C5  OXE d   1      -2.226  -2.598   1.285  0.00  0.00    -0.002 A 
ATOM      8  C6  OXE d   1      -1.022  -1.950   1.537  0.00  0.00     0.003 A 
ENDROOT
TORSDOF 0
ENDMDL
