MODEL 1
REMARK minimizedAffinity -3.41398191
REMARK minimizedRMSD -1
REMARK  0 active torsions:
REMARK  status: ('A' for Active; 'I' for Inactive)
ROOT
ATOM      1  C2' OXE d   1      -2.970  -0.487   0.015  0.00  0.00     0.078 C 
ATOM      2  C1' OXE d   1      -1.740   0.537  -2.291  0.00  0.00     0.078 C 
ATOM      3  C1  OXE d   1      -0.849   0.057  -1.172  0.00  0.00    -0.078 A 
ATOM      4  C2  OXE d   1      -1.460  -0.400  -0.029  0.00  0.00    -0.078 A 
ATOM      5  C3  OXE d   1      -0.685  -0.905   1.011  0.00  0.00     0.003 A 
ATOM      6  C4  OXE d   1       0.711  -0.812   0.966  0.00  0.00    -0.002 A 
ATOM      7  C5  OXE d   1       1.352  -0.314  -0.173  0.00  0.00    -0.002 A 
ATOM      8  C6  OXE d   1       0.590   0.084  -1.266  0.00  0.00     0.003 A 
ENDROOT
TORSDOF 0
ENDMDL
