MODEL 1
REMARK minimizedAffinity -4.40061951
REMARK minimizedRMSD -1
REMARK  0 active torsions:
REMARK  status: ('A' for Active; 'I' for Inactive)
ROOT
ATOM      1  C2' OXE d   1      -2.918  -1.311  -0.003  0.00  0.00     0.078 C 
ATOM      2  C1' OXE d   1      -0.911  -2.024   1.825  0.00  0.00     0.078 C 
ATOM      3  C1  OXE d   1      -0.531  -1.115   0.683  0.00  0.00    -0.078 A 
ATOM      4  C2  OXE d   1      -1.509  -0.809  -0.233  0.00  0.00    -0.078 A 
ATOM      5  C3  OXE d   1      -1.226   0.069  -1.275  0.00  0.00     0.003 A 
ATOM      6  C4  OXE d   1       0.083   0.521  -1.486  0.00  0.00    -0.002 A 
ATOM      7  C5  OXE d   1       1.102   0.188  -0.588  0.00  0.00    -0.002 A 
ATOM      8  C6  OXE d   1       0.803  -0.592   0.524  0.00  0.00     0.003 A 
ENDROOT
TORSDOF 0
ENDMDL
