MODEL 1
REMARK minimizedAffinity -4.5111866
REMARK minimizedRMSD -1
REMARK  0 active torsions:
REMARK  status: ('A' for Active; 'I' for Inactive)
ROOT
ATOM      1  C2' OXE d   1      -0.164   0.721  -2.530  0.00  0.00     0.078 C 
ATOM      2  C1' OXE d   1       1.304   0.423  -0.156  0.00  0.00     0.078 C 
ATOM      3  C1  OXE d   1      -0.157   0.051  -0.131  0.00  0.00    -0.078 A 
ATOM      4  C2  OXE d   1      -0.879   0.244  -1.284  0.00  0.00    -0.078 A 
ATOM      5  C3  OXE d   1      -2.217  -0.135  -1.331  0.00  0.00     0.003 A 
ATOM      6  C4  OXE d   1      -2.873  -0.566  -0.172  0.00  0.00    -0.002 A 
ATOM      7  C5  OXE d   1      -2.166  -0.731   1.024  0.00  0.00    -0.002 A 
ATOM      8  C6  OXE d   1      -0.801  -0.469   1.050  0.00  0.00     0.003 A 
ENDROOT
TORSDOF 0
ENDMDL
