MODEL 1
REMARK minimizedAffinity -1.85376883
REMARK minimizedRMSD -1
REMARK  0 active torsions:
REMARK  status: ('A' for Active; 'I' for Inactive)
ROOT
ATOM      1  C4' PXY d   1      -2.602   0.918   0.212  0.00  0.00     0.077 C 
ATOM      2  C1' PXY d   1       2.602  -1.387  -0.796  0.00  0.00     0.077 C 
ATOM      3  C1  PXY d   1       1.243  -0.770  -0.531  0.00  0.00    -0.082 A 
ATOM      4  C2  PXY d   1       0.269  -1.521  -0.042  0.00  0.00     0.003 A 
ATOM      5  C3  PXY d   1      -0.976  -0.987   0.173  0.00  0.00     0.003 A 
ATOM      6  C4  PXY d   1      -1.211   0.341  -0.063  0.00  0.00    -0.082 A 
ATOM      7  C5  PXY d   1      -0.219   1.115  -0.552  0.00  0.00     0.003 A 
ATOM      8  C6  PXY d   1       1.026   0.545  -0.803  0.00  0.00     0.003 A 
ENDROOT
TORSDOF 0
ENDMDL
