MODEL 1
REMARK minimizedAffinity -5.20774746
REMARK minimizedRMSD -1
REMARK  0 active torsions:
REMARK  status: ('A' for Active; 'I' for Inactive)
ROOT
ATOM      1  C4' PXY d   1      -2.061   1.134  -0.158  0.00  0.00     0.077 C 
ATOM      2  C1' PXY d   1       3.258  -1.130  -0.167  0.00  0.00     0.077 C 
ATOM      3  C1  PXY d   1       1.867  -0.526  -0.159  0.00  0.00    -0.082 A 
ATOM      4  C2  PXY d   1       0.809  -1.320  -0.156  0.00  0.00     0.003 A 
ATOM      5  C3  PXY d   1      -0.456  -0.790  -0.182  0.00  0.00     0.003 A 
ATOM      6  C4  PXY d   1      -0.639   0.567  -0.156  0.00  0.00    -0.082 A 
ATOM      7  C5  PXY d   1       0.436   1.384  -0.148  0.00  0.00     0.003 A 
ATOM      8  C6  PXY d   1       1.711   0.826  -0.164  0.00  0.00     0.003 A 
ENDROOT
TORSDOF 0
ENDMDL
