MODEL 1
REMARK minimizedAffinity -1.66037881
REMARK minimizedRMSD -1
REMARK  0 active torsions:
REMARK  status: ('A' for Active; 'I' for Inactive)
ROOT
ATOM      1  C4' PXY d   1       3.697   1.207  -0.455  0.00  0.00     0.077 C 
ATOM      2  C1' PXY d   1      -0.989  -2.165  -0.756  0.00  0.00     0.077 C 
ATOM      3  C1  PXY d   1       0.233  -1.271  -0.683  0.00  0.00    -0.082 A 
ATOM      4  C2  PXY d   1       1.437  -1.814  -0.602  0.00  0.00     0.003 A 
ATOM      5  C3  PXY d   1       2.551  -1.021  -0.502  0.00  0.00     0.003 A 
ATOM      6  C4  PXY d   1       2.435   0.343  -0.540  0.00  0.00    -0.082 A 
ATOM      7  C5  PXY d   1       1.211   0.905  -0.634  0.00  0.00     0.003 A 
ATOM      8  C6  PXY d   1       0.090   0.082  -0.692  0.00  0.00     0.003 A 
ENDROOT
TORSDOF 0
ENDMDL
