MODEL 1
REMARK minimizedAffinity -4.75174379
REMARK minimizedRMSD -1
REMARK  0 active torsions:
REMARK  status: ('A' for Active; 'I' for Inactive)
ROOT
ATOM      1  C4' PXY d   1      -1.712   0.807  -0.495  0.00  0.00     0.077 C 
ATOM      2  C1' PXY d   1       3.786  -0.901   0.022  0.00  0.00     0.077 C 
ATOM      3  C1  PXY d   1       2.346  -0.443  -0.106  0.00  0.00    -0.082 A 
ATOM      4  C2  PXY d   1       1.395  -1.331  -0.343  0.00  0.00     0.003 A 
ATOM      5  C3  PXY d   1       0.093  -0.930  -0.494  0.00  0.00     0.003 A 
ATOM      6  C4  PXY d   1      -0.247   0.388  -0.348  0.00  0.00    -0.082 A 
ATOM      7  C5  PXY d   1       0.716   1.300  -0.097  0.00  0.00     0.003 A 
ATOM      8  C6  PXY d   1       2.038   0.877   0.012  0.00  0.00     0.003 A 
ENDROOT
TORSDOF 0
ENDMDL
