MODEL 1
REMARK minimizedAffinity -4.43490076
REMARK minimizedRMSD -1
REMARK  0 active torsions:
REMARK  status: ('A' for Active; 'I' for Inactive)
ROOT
ATOM      1  C4' PXY d   1      -2.104   0.436  -1.023  0.00  0.00     0.077 C 
ATOM      2  C1' PXY d   1       2.948  -1.394   1.109  0.00  0.00     0.077 C 
ATOM      3  C1  PXY d   1       1.622  -0.906   0.560  0.00  0.00    -0.082 A 
ATOM      4  C2  PXY d   1       0.936  -1.674  -0.272  0.00  0.00     0.003 A 
ATOM      5  C3  PXY d   1      -0.250  -1.235  -0.803  0.00  0.00     0.003 A 
ATOM      6  C4  PXY d   1      -0.765  -0.020  -0.437  0.00  0.00    -0.082 A 
ATOM      7  C5  PXY d   1      -0.076   0.764   0.419  0.00  0.00     0.003 A 
ATOM      8  C6  PXY d   1       1.145   0.318   0.915  0.00  0.00     0.003 A 
ENDROOT
TORSDOF 0
ENDMDL
