MODEL 1
REMARK minimizedAffinity -3.52844858
REMARK minimizedRMSD -1
REMARK  0 active torsions:
REMARK  status: ('A' for Active; 'I' for Inactive)
ROOT
ATOM      1  C4' PXY d   1       2.783  -1.374   0.058  0.00  0.00     0.077 C 
ATOM      2  C1' PXY d   1      -2.349   1.229  -0.490  0.00  0.00     0.077 C 
ATOM      3  C1  PXY d   1      -0.997   0.558  -0.344  0.00  0.00    -0.082 A 
ATOM      4  C2  PXY d   1      -0.788  -0.621  -0.907  0.00  0.00     0.003 A 
ATOM      5  C3  PXY d   1       0.418  -1.257  -0.758  0.00  0.00     0.003 A 
ATOM      6  C4  PXY d   1       1.438  -0.656  -0.071  0.00  0.00    -0.082 A 
ATOM      7  C5  PXY d   1       1.236   0.552   0.498  0.00  0.00     0.003 A 
ATOM      8  C6  PXY d   1      -0.009   1.162   0.370  0.00  0.00     0.003 A 
ENDROOT
TORSDOF 0
ENDMDL
