MODEL 1
REMARK minimizedAffinity -3.70202923
REMARK minimizedRMSD -1
REMARK  0 active torsions:
REMARK  status: ('A' for Active; 'I' for Inactive)
ROOT
ATOM      1  C4' PXY d   1       3.337  -1.496   1.235  0.00  0.00     0.077 C 
ATOM      2  C1' PXY d   1      -1.530   0.552  -1.116  0.00  0.00     0.077 C 
ATOM      3  C1  PXY d   1      -0.259   0.003  -0.500  0.00  0.00    -0.082 A 
ATOM      4  C2  PXY d   1       0.513   0.797   0.223  0.00  0.00     0.003 A 
ATOM      5  C3  PXY d   1       1.683   0.325   0.761  0.00  0.00     0.003 A 
ATOM      6  C4  PXY d   1       2.039  -0.987   0.602  0.00  0.00    -0.082 A 
ATOM      7  C5  PXY d   1       1.251  -1.807  -0.126  0.00  0.00     0.003 A 
ATOM      8  C6  PXY d   1       0.089  -1.298  -0.698  0.00  0.00     0.003 A 
ENDROOT
TORSDOF 0
ENDMDL
