MODEL 1
REMARK minimizedAffinity -2.82076836
REMARK minimizedRMSD -1
REMARK  0 active torsions:
REMARK  status: ('A' for Active; 'I' for Inactive)
ROOT
ATOM      1  C4' PXY d   1       3.438   2.109   0.093  0.00  0.00     0.077 C 
ATOM      2  C1' PXY d   1      -0.035  -2.485  -0.403  0.00  0.00     0.077 C 
ATOM      3  C1  PXY d   1       0.885  -1.288  -0.268  0.00  0.00    -0.082 A 
ATOM      4  C2  PXY d   1       0.369  -0.075  -0.161  0.00  0.00     0.003 A 
ATOM      5  C3  PXY d   1       1.187   1.022  -0.071  0.00  0.00     0.003 A 
ATOM      6  C4  PXY d   1       2.547   0.870  -0.035  0.00  0.00    -0.082 A 
ATOM      7  C5  PXY d   1       3.082  -0.366  -0.133  0.00  0.00     0.003 A 
ATOM      8  C6  PXY d   1       2.235  -1.462  -0.266  0.00  0.00     0.003 A 
ENDROOT
TORSDOF 0
ENDMDL
