MODEL 1
REMARK minimizedAffinity -2.70614958
REMARK minimizedRMSD -1
REMARK  0 active torsions:
REMARK  status: ('A' for Active; 'I' for Inactive)
ROOT
ATOM      1  C4' PXY d   1       3.265   1.871   1.139  0.00  0.00     0.077 C 
ATOM      2  C1' PXY d   1      -0.360  -2.115  -0.955  0.00  0.00     0.077 C 
ATOM      3  C1  PXY d   1       0.598  -1.079  -0.401  0.00  0.00    -0.082 A 
ATOM      4  C2  PXY d   1       0.165   0.146  -0.152  0.00  0.00     0.003 A 
ATOM      5  C3  PXY d   1       1.025   1.104   0.319  0.00  0.00     0.003 A 
ATOM      6  C4  PXY d   1       2.331   0.791   0.588  0.00  0.00    -0.082 A 
ATOM      7  C5  PXY d   1       2.778  -0.460   0.346  0.00  0.00     0.003 A 
ATOM      8  C6  PXY d   1       1.898  -1.407  -0.171  0.00  0.00     0.003 A 
ENDROOT
TORSDOF 0
ENDMDL
