MODEL 1
REMARK minimizedAffinity -4.05912447
REMARK minimizedRMSD -1
REMARK  0 active torsions:
REMARK  status: ('A' for Active; 'I' for Inactive)
ROOT
ATOM      1  O1  BZF d   1       1.862   2.826  -2.547  0.00  0.00    -0.204 OA
ATOM      2  C2  BZF d   1       1.917   3.994  -1.811  0.00  0.00     0.174 A 
ATOM      3  C3  BZF d   1       1.584   3.764  -0.524  0.00  0.00    -0.012 A 
ATOM      4  C3A BZF d   1       1.393   2.349  -0.432  0.00  0.00    -0.107 A 
ATOM      5  C4  BZF d   1       1.065   1.511   0.595  0.00  0.00     0.055 A 
ATOM      6  C5  BZF d   1       0.886   0.188   0.337  0.00  0.00    -0.016 A 
ATOM      7  C6  BZF d   1       1.022  -0.328  -0.935  0.00  0.00     0.022 A 
ATOM      8  C7  BZF d   1       1.352   0.463  -1.985  0.00  0.00     0.029 A 
ATOM      9  C7A BZF d   1       1.565   1.794  -1.721  0.00  0.00     0.058 A 
ENDROOT
TORSDOF 0
ENDMDL
