MODEL 1
REMARK minimizedAffinity 1.01066113
REMARK minimizedRMSD -1
REMARK  0 active torsions:
REMARK  status: ('A' for Active; 'I' for Inactive)
ROOT
ATOM      1  O1  BZF d   1       0.857   3.811   0.558  0.00  0.00    -0.204 OA
ATOM      2  C2  BZF d   1       1.129   4.854  -0.306  0.00  0.00     0.174 A 
ATOM      3  C3  BZF d   1       1.427   4.390  -1.537  0.00  0.00    -0.012 A 
ATOM      4  C3A BZF d   1       1.247   2.973  -1.459  0.00  0.00    -0.107 A 
ATOM      5  C4  BZF d   1       1.376   1.959  -2.364  0.00  0.00     0.055 A 
ATOM      6  C5  BZF d   1       1.198   0.677  -1.949  0.00  0.00    -0.016 A 
ATOM      7  C6  BZF d   1       0.896   0.373  -0.638  0.00  0.00     0.022 A 
ATOM      8  C7  BZF d   1       0.752   1.345   0.295  0.00  0.00     0.029 A 
ATOM      9  C7A BZF d   1       0.899   2.644  -0.128  0.00  0.00     0.058 A 
ENDROOT
TORSDOF 0
ENDMDL
