MODEL 1
REMARK minimizedAffinity -5.30065918
REMARK minimizedRMSD -1
REMARK  0 active torsions:
REMARK  status: ('A' for Active; 'I' for Inactive)
ROOT
ATOM      1  O1  BZF d   1       1.007  -0.658   0.334  0.00  0.00    -0.204 OA
ATOM      2  C2  BZF d   1       0.988  -1.460  -0.791  0.00  0.00     0.174 A 
ATOM      3  C3  BZF d   1       1.062  -0.713  -1.912  0.00  0.00    -0.012 A 
ATOM      4  C3A BZF d   1       1.224   0.634  -1.457  0.00  0.00    -0.107 A 
ATOM      5  C4  BZF d   1       1.371   1.830  -2.099  0.00  0.00     0.055 A 
ATOM      6  C5  BZF d   1       1.433   2.971  -1.363  0.00  0.00    -0.016 A 
ATOM      7  C6  BZF d   1       1.346   2.953   0.013  0.00  0.00     0.022 A 
ATOM      8  C7  BZF d   1       1.205   1.790   0.695  0.00  0.00     0.029 A 
ATOM      9  C7A BZF d   1       1.175   0.632  -0.044  0.00  0.00     0.058 A 
ENDROOT
TORSDOF 0
ENDMDL
