MODEL 1
REMARK minimizedAffinity -0.621119797
REMARK minimizedRMSD -1
REMARK  0 active torsions:
REMARK  status: ('A' for Active; 'I' for Inactive)
ROOT
ATOM      1  O1  BZF d   1       0.699   2.073   1.270  0.00  0.00    -0.204 OA
ATOM      2  C2  BZF d   1       0.618   3.370   0.799  0.00  0.00     0.174 A 
ATOM      3  C3  BZF d   1       1.147   3.462  -0.439  0.00  0.00    -0.012 A 
ATOM      4  C3A BZF d   1       1.501   2.124  -0.798  0.00  0.00    -0.107 A 
ATOM      5  C4  BZF d   1       2.056   1.567  -1.915  0.00  0.00     0.055 A 
ATOM      6  C5  BZF d   1       2.341   0.238  -1.918  0.00  0.00    -0.016 A 
ATOM      7  C6  BZF d   1       2.090  -0.561  -0.822  0.00  0.00     0.022 A 
ATOM      8  C7  BZF d   1       1.536  -0.055   0.306  0.00  0.00     0.029 A 
ATOM      9  C7A BZF d   1       1.216   1.281   0.301  0.00  0.00     0.058 A 
ENDROOT
TORSDOF 0
ENDMDL
