MODEL 1
REMARK minimizedAffinity 0.303029448
REMARK minimizedRMSD -1
REMARK  0 active torsions:
REMARK  status: ('A' for Active; 'I' for Inactive)
ROOT
ATOM      1  O1  BZF d   1       1.803   3.873   0.681  0.00  0.00    -0.204 OA
ATOM      2  C2  BZF d   1       2.291   4.686  -0.323  0.00  0.00     0.174 A 
ATOM      3  C3  BZF d   1       2.360   4.015  -1.491  0.00  0.00    -0.012 A 
ATOM      4  C3A BZF d   1       1.798   2.727  -1.219  0.00  0.00    -0.107 A 
ATOM      5  C4  BZF d   1       1.575   1.619  -1.986  0.00  0.00     0.055 A 
ATOM      6  C5  BZF d   1       1.078   0.499  -1.399  0.00  0.00    -0.016 A 
ATOM      7  C6  BZF d   1       0.798   0.450  -0.049  0.00  0.00     0.022 A 
ATOM      8  C7  BZF d   1       0.998   1.526   0.751  0.00  0.00     0.029 A 
ATOM      9  C7A BZF d   1       1.469   2.670   0.155  0.00  0.00     0.058 A 
ENDROOT
TORSDOF 0
ENDMDL
