MODEL 1
REMARK minimizedAffinity -3.92915869
REMARK minimizedRMSD -1
REMARK  0 active torsions:
REMARK  status: ('A' for Active; 'I' for Inactive)
ROOT
ATOM      1  O1  BZF d   1       1.091   3.795   0.192  0.00  0.00    -0.204 OA
ATOM      2  C2  BZF d   1       1.467   4.510  -0.929  0.00  0.00     0.174 A 
ATOM      3  C3  BZF d   1       1.732   3.680  -1.958  0.00  0.00    -0.012 A 
ATOM      4  C3A BZF d   1       1.419   2.370  -1.476  0.00  0.00    -0.107 A 
ATOM      5  C4  BZF d   1       1.461   1.127  -2.040  0.00  0.00     0.055 A 
ATOM      6  C5  BZF d   1       1.161   0.044  -1.276  0.00  0.00    -0.016 A 
ATOM      7  C6  BZF d   1       0.820   0.167   0.055  0.00  0.00     0.022 A 
ATOM      8  C7  BZF d   1       0.759   1.380   0.657  0.00  0.00     0.029 A 
ATOM      9  C7A BZF d   1       1.030   2.479  -0.121  0.00  0.00     0.058 A 
ENDROOT
TORSDOF 0
ENDMDL
