MODEL 1
REMARK minimizedAffinity 1.8545773
REMARK minimizedRMSD -1
REMARK  0 active torsions:
REMARK  status: ('A' for Active; 'I' for Inactive)
ROOT
ATOM      1  O1  BZF d   1       1.141   1.429  -3.235  0.00  0.00    -0.204 OA
ATOM      2  C2  BZF d   1       1.580   2.735  -3.131  0.00  0.00     0.174 A 
ATOM      3  C3  BZF d   1       1.898   3.032  -1.855  0.00  0.00    -0.012 A 
ATOM      4  C3A BZF d   1       1.730   1.810  -1.130  0.00  0.00    -0.107 A 
ATOM      5  C4  BZF d   1       1.908   1.462   0.178  0.00  0.00     0.055 A 
ATOM      6  C5  BZF d   1       1.585   0.204   0.577  0.00  0.00    -0.016 A 
ATOM      7  C6  BZF d   1       1.078  -0.729  -0.303  0.00  0.00     0.022 A 
ATOM      8  C7  BZF d   1       0.888  -0.432  -1.612  0.00  0.00     0.029 A 
ATOM      9  C7A BZF d   1       1.245   0.828  -2.025  0.00  0.00     0.058 A 
ENDROOT
TORSDOF 0
ENDMDL
