MODEL 1
REMARK minimizedAffinity -1.04501009
REMARK minimizedRMSD -1
REMARK  0 active torsions:
REMARK  status: ('A' for Active; 'I' for Inactive)
ROOT
ATOM      1  O1  BZF d   1       1.704   3.890  -0.590  0.00  0.00    -0.204 OA
ATOM      2  C2  BZF d   1       1.671   4.164  -1.943  0.00  0.00     0.174 A 
ATOM      3  C3  BZF d   1       1.484   3.035  -2.656  0.00  0.00    -0.012 A 
ATOM      4  C3A BZF d   1       1.302   2.002  -1.683  0.00  0.00    -0.107 A 
ATOM      5  C4  BZF d   1       1.060   0.660  -1.771  0.00  0.00     0.055 A 
ATOM      6  C5  BZF d   1       1.007  -0.078  -0.632  0.00  0.00    -0.016 A 
ATOM      7  C6  BZF d   1       1.197   0.490   0.611  0.00  0.00     0.022 A 
ATOM      8  C7  BZF d   1       1.435   1.817   0.749  0.00  0.00     0.029 A 
ATOM      9  C7A BZF d   1       1.456   2.572  -0.398  0.00  0.00     0.058 A 
ENDROOT
TORSDOF 0
ENDMDL
