MODEL 1
REMARK minimizedAffinity -2.11993098
REMARK minimizedRMSD -1
REMARK  0 active torsions:
REMARK  status: ('A' for Active; 'I' for Inactive)
ROOT
ATOM      1  O1  BZF d   1       1.492   3.574  -0.637  0.00  0.00    -0.204 OA
ATOM      2  C2  BZF d   1       1.515   3.637  -2.017  0.00  0.00     0.174 A 
ATOM      3  C3  BZF d   1       1.476   2.400  -2.552  0.00  0.00    -0.012 A 
ATOM      4  C3A BZF d   1       1.334   1.512  -1.440  0.00  0.00    -0.107 A 
ATOM      5  C4  BZF d   1       1.223   0.156  -1.329  0.00  0.00     0.055 A 
ATOM      6  C5  BZF d   1       1.172  -0.405  -0.092  0.00  0.00    -0.016 A 
ATOM      7  C6  BZF d   1       1.234   0.360   1.054  0.00  0.00     0.022 A 
ATOM      8  C7  BZF d   1       1.339   1.710   0.995  0.00  0.00     0.029 A 
ATOM      9  C7A BZF d   1       1.358   2.282  -0.254  0.00  0.00     0.058 A 
ENDROOT
TORSDOF 0
ENDMDL
