MODEL 1
REMARK minimizedAffinity 4.91839123
REMARK minimizedRMSD -1
REMARK  0 active torsions:
REMARK  status: ('A' for Active; 'I' for Inactive)
ROOT
ATOM      1  O1  BZF d   1       0.370  -2.284   4.364  0.00  0.00    -0.204 OA
ATOM      2  C2  BZF d   1       0.020  -1.130   5.038  0.00  0.00     0.174 A 
ATOM      3  C3  BZF d   1      -1.321  -1.010   5.117  0.00  0.00    -0.012 A 
ATOM      4  C3A BZF d   1      -1.841  -2.207   4.532  0.00  0.00    -0.107 A 
ATOM      5  C4  BZF d   1      -3.106  -2.682   4.332  0.00  0.00     0.055 A 
ATOM      6  C5  BZF d   1      -3.274  -3.854   3.666  0.00  0.00    -0.016 A 
ATOM      7  C6  BZF d   1      -2.202  -4.575   3.182  0.00  0.00     0.022 A 
ATOM      8  C7  BZF d   1      -0.928  -4.147   3.360  0.00  0.00     0.029 A 
ATOM      9  C7A BZF d   1      -0.754  -2.979   4.062  0.00  0.00     0.058 A 
ENDROOT
TORSDOF 0
ENDMDL
