MODEL 1
REMARK minimizedAffinity -0.998938441
REMARK minimizedRMSD -1
REMARK  0 active torsions:
REMARK  status: ('A' for Active; 'I' for Inactive)
ROOT
ATOM      1  O1  BZF d   1       1.828   2.301   1.402  0.00  0.00    -0.204 OA
ATOM      2  C2  BZF d   1       1.294   3.557   1.194  0.00  0.00     0.174 A 
ATOM      3  C3  BZF d   1       0.949   3.721  -0.100  0.00  0.00    -0.012 A 
ATOM      4  C3A BZF d   1       1.203   2.458  -0.720  0.00  0.00    -0.107 A 
ATOM      5  C4  BZF d   1       1.044   1.988  -1.993  0.00  0.00     0.055 A 
ATOM      6  C5  BZF d   1       1.457   0.727  -2.287  0.00  0.00    -0.016 A 
ATOM      7  C6  BZF d   1       2.036  -0.088  -1.337  0.00  0.00     0.022 A 
ATOM      8  C7  BZF d   1       2.210   0.332  -0.060  0.00  0.00     0.029 A 
ATOM      9  C7A BZF d   1       1.763   1.594   0.249  0.00  0.00     0.058 A 
ENDROOT
TORSDOF 0
ENDMDL
