MODEL 1
REMARK minimizedAffinity -1.78427374
REMARK minimizedRMSD -1
REMARK  0 active torsions:
REMARK  status: ('A' for Active; 'I' for Inactive)
ROOT
ATOM      1  O1  BZF d   1       1.536  -1.617   0.349  0.00  0.00    -0.204 OA
ATOM      2  C2  BZF d   1       1.381  -2.314  -0.833  0.00  0.00     0.174 A 
ATOM      3  C3  BZF d   1       1.101  -1.475  -1.851  0.00  0.00    -0.012 A 
ATOM      4  C3A BZF d   1       1.172  -0.162  -1.286  0.00  0.00    -0.107 A 
ATOM      5  C4  BZF d   1       1.006   1.092  -1.801  0.00  0.00     0.055 A 
ATOM      6  C5  BZF d   1       1.070   2.162  -0.966  0.00  0.00    -0.016 A 
ATOM      7  C6  BZF d   1       1.292   2.016   0.387  0.00  0.00     0.022 A 
ATOM      8  C7  BZF d   1       1.468   0.792   0.943  0.00  0.00     0.029 A 
ATOM      9  C7A BZF d   1       1.437  -0.289   0.097  0.00  0.00     0.058 A 
ENDROOT
TORSDOF 0
ENDMDL
