MODEL 1
REMARK minimizedAffinity -1.65444517
REMARK minimizedRMSD -1
REMARK  0 active torsions:
REMARK  status: ('A' for Active; 'I' for Inactive)
ROOT
ATOM      1  O1  BZF d   1       0.997   3.495  -0.153  0.00  0.00    -0.204 OA
ATOM      2  C2  BZF d   1       0.637   3.183   1.144  0.00  0.00     0.174 A 
ATOM      3  C3  BZF d   1       0.490   1.850   1.292  0.00  0.00    -0.012 A 
ATOM      4  C3A BZF d   1       0.866   1.288   0.031  0.00  0.00    -0.107 A 
ATOM      5  C4  BZF d   1       0.943   0.009  -0.440  0.00  0.00     0.055 A 
ATOM      6  C5  BZF d   1       1.275  -0.196  -1.742  0.00  0.00    -0.016 A 
ATOM      7  C6  BZF d   1       1.530   0.853  -2.600  0.00  0.00     0.022 A 
ATOM      8  C7  BZF d   1       1.471   2.139  -2.177  0.00  0.00     0.029 A 
ATOM      9  C7A BZF d   1       1.168   2.348  -0.854  0.00  0.00     0.058 A 
ENDROOT
TORSDOF 0
ENDMDL
