MODEL 1
REMARK minimizedAffinity -0.820061564
REMARK minimizedRMSD -1
REMARK  0 active torsions:
REMARK  status: ('A' for Active; 'I' for Inactive)
ROOT
ATOM      1  O1  BZF d   1       1.145  -0.160  -2.167  0.00  0.00    -0.204 OA
ATOM      2  C2  BZF d   1       1.100  -1.034  -1.098  0.00  0.00     0.174 A 
ATOM      3  C3  BZF d   1       1.194  -0.367   0.070  0.00  0.00    -0.012 A 
ATOM      4  C3A BZF d   1       1.212   1.018  -0.288  0.00  0.00    -0.107 A 
ATOM      5  C4  BZF d   1       1.277   2.174   0.436  0.00  0.00     0.055 A 
ATOM      6  C5  BZF d   1       1.349   3.362  -0.221  0.00  0.00    -0.016 A 
ATOM      7  C6  BZF d   1       1.364   3.429  -1.599  0.00  0.00     0.022 A 
ATOM      8  C7  BZF d   1       1.296   2.310  -2.360  0.00  0.00     0.029 A 
ATOM      9  C7A BZF d   1       1.189   1.110  -1.699  0.00  0.00     0.058 A 
ENDROOT
TORSDOF 0
ENDMDL
