MODEL 1
REMARK minimizedAffinity 3.09055519
REMARK minimizedRMSD -1
REMARK  0 active torsions:
REMARK  status: ('A' for Active; 'I' for Inactive)
ROOT
ATOM      1  O1  BZF d   1      -0.336  -5.256  -1.931  0.00  0.00    -0.204 OA
ATOM      2  C2  BZF d   1      -0.448  -4.915  -0.597  0.00  0.00     0.174 A 
ATOM      3  C3  BZF d   1      -1.345  -3.921  -0.431  0.00  0.00    -0.012 A 
ATOM      4  C3A BZF d   1      -1.891  -3.687  -1.732  0.00  0.00    -0.107 A 
ATOM      5  C4  BZF d   1      -2.841  -2.830  -2.211  0.00  0.00     0.055 A 
ATOM      6  C5  BZF d   1      -3.091  -2.801  -3.547  0.00  0.00    -0.016 A 
ATOM      7  C6  BZF d   1      -2.407  -3.609  -4.431  0.00  0.00     0.022 A 
ATOM      8  C7  BZF d   1      -1.460  -4.479  -4.003  0.00  0.00     0.029 A 
ATOM      9  C7A BZF d   1      -1.229  -4.534  -2.650  0.00  0.00     0.058 A 
ENDROOT
TORSDOF 0
ENDMDL
