MODEL 1
REMARK minimizedAffinity 3.89128304
REMARK minimizedRMSD -1
REMARK  0 active torsions:
REMARK  status: ('A' for Active; 'I' for Inactive)
ROOT
ATOM      1  O1  BZF d   1      -4.022   1.494   2.424  0.00  0.00    -0.204 OA
ATOM      2  C2  BZF d   1      -4.074   2.054   1.162  0.00  0.00     0.174 A 
ATOM      3  C3  BZF d   1      -3.495   3.272   1.156  0.00  0.00    -0.012 A 
ATOM      4  C3A BZF d   1      -2.973   3.448   2.476  0.00  0.00    -0.107 A 
ATOM      5  C4  BZF d   1      -2.275   4.452   3.084  0.00  0.00     0.055 A 
ATOM      6  C5  BZF d   1      -1.979   4.345   4.406  0.00  0.00    -0.016 A 
ATOM      7  C6  BZF d   1      -2.369   3.251   5.150  0.00  0.00     0.022 A 
ATOM      8  C7  BZF d   1      -3.059   2.227   4.590  0.00  0.00     0.029 A 
ATOM      9  C7A BZF d   1      -3.331   2.318   3.247  0.00  0.00     0.058 A 
ENDROOT
TORSDOF 0
ENDMDL
