MODEL 1
REMARK minimizedAffinity 2.53848982
REMARK minimizedRMSD -1
REMARK  0 active torsions:
REMARK  status: ('A' for Active; 'I' for Inactive)
ROOT
ATOM      1  O1  BZF d   1       1.529   1.690  -0.598  0.00  0.00    -0.204 OA
ATOM      2  C2  BZF d   1       1.387   2.182  -1.881  0.00  0.00     0.174 A 
ATOM      3  C3  BZF d   1       1.235   1.175  -2.765  0.00  0.00    -0.012 A 
ATOM      4  C3A BZF d   1       1.192  -0.017  -1.975  0.00  0.00    -0.107 A 
ATOM      5  C4  BZF d   1       1.041  -1.340  -2.278  0.00  0.00     0.055 A 
ATOM      6  C5  BZF d   1       1.117  -2.259  -1.280  0.00  0.00    -0.016 A 
ATOM      7  C6  BZF d   1       1.347  -1.891   0.029  0.00  0.00     0.022 A 
ATOM      8  C7  BZF d   1       1.498  -0.591   0.380  0.00  0.00     0.029 A 
ATOM      9  C7A BZF d   1       1.389   0.343  -0.622  0.00  0.00     0.058 A 
ENDROOT
TORSDOF 0
ENDMDL
