MODEL 1
REMARK minimizedAffinity 3.42057419
REMARK minimizedRMSD -1
REMARK  0 active torsions:
REMARK  status: ('A' for Active; 'I' for Inactive)
ROOT
ATOM      1  O1  BZF d   1       1.720   2.807  -2.858  0.00  0.00    -0.204 OA
ATOM      2  C2  BZF d   1       1.552   1.539  -2.338  0.00  0.00     0.174 A 
ATOM      3  C3  BZF d   1       1.351   1.591  -1.005  0.00  0.00    -0.012 A 
ATOM      4  C3A BZF d   1       1.304   2.985  -0.687  0.00  0.00    -0.107 A 
ATOM      5  C4  BZF d   1       1.114   3.677   0.476  0.00  0.00     0.055 A 
ATOM      6  C5  BZF d   1       1.198   5.033   0.459  0.00  0.00    -0.016 A 
ATOM      7  C6  BZF d   1       1.475   5.729  -0.700  0.00  0.00     0.022 A 
ATOM      8  C7  BZF d   1       1.666   5.087  -1.878  0.00  0.00     0.029 A 
ATOM      9  C7A BZF d   1       1.549   3.718  -1.871  0.00  0.00     0.058 A 
ENDROOT
TORSDOF 0
ENDMDL
