MODEL 1
REMARK minimizedAffinity -4.52106094
REMARK minimizedRMSD -1
REMARK  0 active torsions:
REMARK  status: ('A' for Active; 'I' for Inactive)
ROOT
ATOM      1  O1  BZF d   1       1.492   4.281   0.648  0.00  0.00    -0.204 OA
ATOM      2  C2  BZF d   1       1.689   5.086  -0.457  0.00  0.00     0.174 A 
ATOM      3  C3  BZF d   1       1.653   4.357  -1.592  0.00  0.00    -0.012 A 
ATOM      4  C3A BZF d   1       1.328   3.028  -1.176  0.00  0.00    -0.107 A 
ATOM      5  C4  BZF d   1       1.135   1.855  -1.847  0.00  0.00     0.055 A 
ATOM      6  C5  BZF d   1       0.902   0.719  -1.139  0.00  0.00    -0.016 A 
ATOM      7  C6  BZF d   1       0.861   0.718   0.240  0.00  0.00     0.022 A 
ATOM      8  C7  BZF d   1       1.042   1.859   0.950  0.00  0.00     0.029 A 
ATOM      9  C7A BZF d   1       1.244   3.014   0.236  0.00  0.00     0.058 A 
ENDROOT
TORSDOF 0
ENDMDL
