MODEL 1
REMARK minimizedAffinity 0.500085473
REMARK minimizedRMSD -1
REMARK  2 active torsions:
REMARK  status: ('A' for Active; 'I' for Inactive)
REMARK    1  A    between atoms: C2'_3  and  C1'_4 
REMARK    2  A    between atoms: C1'_4  and  C1_5 
ROOT
ATOM      1  C1  I4B d   1       2.316  -0.421  -0.064  0.00  0.00    -0.075 A 
ATOM      2  C2  I4B d   1       1.961  -0.786  -1.338  0.00  0.00     0.003 A 
ATOM      3  C3  I4B d   1       1.858   0.191  -2.358  0.00  0.00     0.002 A 
ATOM      4  C4  I4B d   1       2.067   1.520  -2.049  0.00  0.00    -0.004 A 
ATOM      5  C5  I4B d   1       2.449   1.886  -0.762  0.00  0.00     0.002 A 
ATOM      6  C6  I4B d   1       2.587   0.908   0.235  0.00  0.00     0.003 A 
ENDROOT
BRANCH   1   7
ATOM      7  C1' I4B d   1       2.385  -1.474   0.996  0.00  0.00     0.060 C 
BRANCH   7   8
ATOM      8  C2' I4B d   1       1.496  -1.040   2.144  0.00  0.00    -0.013 C 
ATOM      9  C4' I4B d   1       0.293  -1.937   2.272  0.00  0.00     0.013 C 
ATOM     10  C3' I4B d   1       2.319  -1.056   3.397  0.00  0.00     0.013 C 
ENDBRANCH   7   8
ENDBRANCH   1   7
TORSDOF 2
ENDMDL
