MODEL 1
REMARK minimizedAffinity 6.99684286
REMARK minimizedRMSD -1
REMARK  2 active torsions:
REMARK  status: ('A' for Active; 'I' for Inactive)
REMARK    1  A    between atoms: C2'_3  and  C1'_4 
REMARK    2  A    between atoms: C1'_4  and  C1_5 
ROOT
ATOM      1  C1  I4B d   1       0.848  -0.829   0.550  0.00  0.00    -0.075 A 
ATOM      2  C2  I4B d   1       1.165  -0.685  -0.778  0.00  0.00     0.003 A 
ATOM      3  C3  I4B d   1       0.140  -0.527  -1.743  0.00  0.00     0.002 A 
ATOM      4  C4  I4B d   1      -1.180  -0.571  -1.345  0.00  0.00    -0.004 A 
ATOM      5  C5  I4B d   1      -1.499  -0.695   0.004  0.00  0.00     0.002 A 
ATOM      6  C6  I4B d   1      -0.479  -0.812   0.959  0.00  0.00     0.003 A 
ENDROOT
BRANCH   1   7
ATOM      7  C1' I4B d   1       1.954  -1.026   1.537  0.00  0.00     0.060 C 
BRANCH   7   8
ATOM      8  C2' I4B d   1       1.328  -1.247   2.900  0.00  0.00    -0.013 C 
ATOM      9  C4' I4B d   1       0.469  -0.078   3.302  0.00  0.00     0.013 C 
ATOM     10  C3' I4B d   1       0.526  -2.513   2.842  0.00  0.00     0.013 C 
ENDBRANCH   7   8
ENDBRANCH   1   7
TORSDOF 2
ENDMDL
