MODEL 1
REMARK minimizedAffinity 10.9820223
REMARK minimizedRMSD -1
REMARK  2 active torsions:
REMARK  status: ('A' for Active; 'I' for Inactive)
REMARK    1  A    between atoms: C2'_3  and  C1'_4 
REMARK    2  A    between atoms: C1'_4  and  C1_5 
ROOT
ATOM      1  C1  I4B d   1      -0.244  -1.053   1.565  0.00  0.00    -0.075 A 
ATOM      2  C2  I4B d   1      -0.742  -0.168   2.488  0.00  0.00     0.003 A 
ATOM      3  C3  I4B d   1       0.094   0.338   3.513  0.00  0.00     0.002 A 
ATOM      4  C4  I4B d   1       1.398  -0.103   3.606  0.00  0.00    -0.004 A 
ATOM      5  C5  I4B d   1       1.908  -0.982   2.655  0.00  0.00     0.002 A 
ATOM      6  C6  I4B d   1       1.085  -1.452   1.621  0.00  0.00     0.003 A 
ENDROOT
BRANCH   1   7
ATOM      7  C1' I4B d   1      -1.163  -1.594   0.516  0.00  0.00     0.060 C 
BRANCH   7   8
ATOM      8  C2' I4B d   1      -0.992  -0.753  -0.733  0.00  0.00    -0.013 C 
ATOM      9  C4' I4B d   1       0.387  -0.917  -1.316  0.00  0.00     0.013 C 
ATOM     10  C3' I4B d   1      -2.047  -1.164  -1.716  0.00  0.00     0.013 C 
ENDBRANCH   7   8
ENDBRANCH   1   7
TORSDOF 2
ENDMDL
