MODEL 1
REMARK minimizedAffinity 3.84724212
REMARK minimizedRMSD -1
REMARK  2 active torsions:
REMARK  status: ('A' for Active; 'I' for Inactive)
REMARK    1  A    between atoms: C2'_3  and  C1'_4 
REMARK    2  A    between atoms: C1'_4  and  C1_5 
ROOT
ATOM      1  C1  I4B d   1       1.579  -1.456   1.919  0.00  0.00    -0.075 A 
ATOM      2  C2  I4B d   1       1.212  -0.750   0.801  0.00  0.00     0.003 A 
ATOM      3  C3  I4B d   1       1.869  -0.976  -0.433  0.00  0.00     0.002 A 
ATOM      4  C4  I4B d   1       2.914  -1.874  -0.491  0.00  0.00    -0.004 A 
ATOM      5  C5  I4B d   1       3.270  -2.606   0.638  0.00  0.00     0.002 A 
ATOM      6  C6  I4B d   1       2.591  -2.405   1.848  0.00  0.00     0.003 A 
ENDROOT
BRANCH   1   7
ATOM      7  C1' I4B d   1       0.886  -1.168   3.213  0.00  0.00     0.060 C 
BRANCH   7   8
ATOM      8  C2' I4B d   1      -0.523  -1.717   3.121  0.00  0.00    -0.013 C 
ATOM      9  C4' I4B d   1      -1.250  -1.155   1.928  0.00  0.00     0.013 C 
ATOM     10  C3' I4B d   1      -0.433  -3.212   3.045  0.00  0.00     0.013 C 
ENDBRANCH   7   8
ENDBRANCH   1   7
TORSDOF 2
ENDMDL
