MODEL 1
REMARK minimizedAffinity 2.27358055
REMARK minimizedRMSD -1
REMARK  2 active torsions:
REMARK  status: ('A' for Active; 'I' for Inactive)
REMARK    1  A    between atoms: C2'_3  and  C1'_4 
REMARK    2  A    between atoms: C1'_4  and  C1_5 
ROOT
ATOM      1  C1  I4B d   1       1.480  -1.410   1.917  0.00  0.00    -0.075 A 
ATOM      2  C2  I4B d   1       2.335  -2.446   2.200  0.00  0.00     0.003 A 
ATOM      3  C3  I4B d   1       3.241  -2.912   1.217  0.00  0.00     0.002 A 
ATOM      4  C4  I4B d   1       3.224  -2.350  -0.043  0.00  0.00    -0.004 A 
ATOM      5  C5  I4B d   1       2.372  -1.285  -0.322  0.00  0.00     0.002 A 
ATOM      6  C6  I4B d   1       1.503  -0.803   0.668  0.00  0.00     0.003 A 
ENDROOT
BRANCH   1   7
ATOM      7  C1' I4B d   1       0.514  -0.966   2.969  0.00  0.00     0.060 C 
BRANCH   7   8
ATOM      8  C2' I4B d   1      -0.651  -0.289   2.276  0.00  0.00    -0.013 C 
ATOM      9  C4' I4B d   1      -1.434  -1.269   1.442  0.00  0.00     0.013 C 
ATOM     10  C3' I4B d   1      -1.516   0.339   3.329  0.00  0.00     0.013 C 
ENDBRANCH   7   8
ENDBRANCH   1   7
TORSDOF 2
ENDMDL
