MODEL 1
REMARK minimizedAffinity 7.0858078
REMARK minimizedRMSD -1
REMARK  2 active torsions:
REMARK  status: ('A' for Active; 'I' for Inactive)
REMARK    1  A    between atoms: C2'_3  and  C1'_4 
REMARK    2  A    between atoms: C1'_4  and  C1_5 
ROOT
ATOM      1  C1  I4B d   1      -0.196  -0.938   1.192  0.00  0.00    -0.075 A 
ATOM      2  C2  I4B d   1       0.670  -1.289   2.198  0.00  0.00     0.003 A 
ATOM      3  C3  I4B d   1       0.388  -0.930   3.538  0.00  0.00     0.002 A 
ATOM      4  C4  I4B d   1      -0.736  -0.182   3.820  0.00  0.00    -0.004 A 
ATOM      5  C5  I4B d   1      -1.624   0.154   2.802  0.00  0.00     0.002 A 
ATOM      6  C6  I4B d   1      -1.360  -0.236   1.482  0.00  0.00     0.003 A 
ENDROOT
BRANCH   1   7
ATOM      7  C1' I4B d   1       0.148  -1.304  -0.217  0.00  0.00     0.060 C 
BRANCH   7   8
ATOM      8  C2' I4B d   1       1.465  -0.640  -0.563  0.00  0.00    -0.013 C 
ATOM      9  C4' I4B d   1       2.605  -1.622  -0.501  0.00  0.00     0.013 C 
ATOM     10  C3' I4B d   1       1.337  -0.046  -1.934  0.00  0.00     0.013 C 
ENDBRANCH   7   8
ENDBRANCH   1   7
TORSDOF 2
ENDMDL
