MODEL 1
REMARK minimizedAffinity -4.42117786
REMARK minimizedRMSD -1
REMARK  1 active torsions:
REMARK  status: ('A' for Active; 'I' for Inactive)
REMARK    1  A    between atoms: C3_4  and  O_7 
ROOT
ATOM      1  C   UNL d   1      -3.843  -0.835  -5.687  0.00  0.00    -0.033 A 
ATOM      2  C1  UNL d   1      -2.606  -1.478  -5.757  0.00  0.00     0.039 A 
ATOM      3  C2  UNL d   1      -2.542  -2.873  -5.776  0.00  0.00    -0.080 A 
ATOM      4  C3  UNL d   1      -3.721  -3.611  -5.726  0.00  0.00     0.150 A 
ATOM      5  C4  UNL d   1      -4.957  -2.977  -5.660  0.00  0.00    -0.007 A 
ATOM      6  C5  UNL d   1      -5.019  -1.584  -5.640  0.00  0.00     0.039 A 
ENDROOT
BRANCH   4   7
ATOM      7  O   UNL d   1      -3.709  -4.975  -5.737  0.00  0.00    -0.526 OA
ATOM      8  H5  UNL d   1      -2.785  -5.274  -5.756  0.00  0.00     0.418 HD
ENDBRANCH   4   7
TORSDOF 1
ENDMDL
