MODEL 1
REMARK minimizedAffinity 0.200412437
REMARK minimizedRMSD -1
REMARK  1 active torsions:
REMARK  status: ('A' for Active; 'I' for Inactive)
REMARK    1  A    between atoms: C3_4  and  O_7 
ROOT
ATOM      1  C   UNL d   1       0.556   0.802  -0.314  0.00  0.00    -0.033 A 
ATOM      2  C1  UNL d   1       1.498   1.570  -1.000  0.00  0.00     0.039 A 
ATOM      3  C2  UNL d   1       2.588   0.953  -1.618  0.00  0.00    -0.080 A 
ATOM      4  C3  UNL d   1       2.723  -0.430  -1.543  0.00  0.00     0.150 A 
ATOM      5  C4  UNL d   1       1.786  -1.202  -0.864  0.00  0.00    -0.007 A 
ATOM      6  C5  UNL d   1       0.699  -0.584  -0.247  0.00  0.00     0.039 A 
ENDROOT
BRANCH   4   7
ATOM      7  O   UNL d   1       3.773  -1.076  -2.125  0.00  0.00    -0.526 OA
ATOM      8  H5  UNL d   1       4.354  -0.413  -2.534  0.00  0.00     0.418 HD
ENDBRANCH   4   7
TORSDOF 1
ENDMDL
