MODEL 1
REMARK minimizedAffinity 0.35903281
REMARK minimizedRMSD -1
REMARK  1 active torsions:
REMARK  status: ('A' for Active; 'I' for Inactive)
REMARK    1  A    between atoms: C3_4  and  O_7 
ROOT
ATOM      1  C   UNL d   1      -5.971   3.519  -5.998  0.00  0.00    -0.033 A 
ATOM      2  C1  UNL d   1      -4.815   2.736  -5.998  0.00  0.00     0.039 A 
ATOM      3  C2  UNL d   1      -3.559   3.344  -5.935  0.00  0.00    -0.080 A 
ATOM      4  C3  UNL d   1      -3.474   4.732  -5.872  0.00  0.00     0.150 A 
ATOM      5  C4  UNL d   1      -4.622   5.517  -5.867  0.00  0.00    -0.007 A 
ATOM      6  C5  UNL d   1      -5.875   4.909  -5.931  0.00  0.00     0.039 A 
ENDROOT
BRANCH   4   7
ATOM      7  O   UNL d   1      -2.270   5.370  -5.814  0.00  0.00    -0.526 OA
ATOM      8  H5  UNL d   1      -1.566   4.702  -5.853  0.00  0.00     0.418 HD
ENDBRANCH   4   7
TORSDOF 1
ENDMDL
