MODEL 1
REMARK minimizedAffinity -3.26053572
REMARK minimizedRMSD -1
REMARK  1 active torsions:
REMARK  status: ('A' for Active; 'I' for Inactive)
REMARK    1  A    between atoms: C3_4  and  O_7 
ROOT
ATOM      1  C   UNL d   1      -3.990   5.998  -5.859  0.00  0.00    -0.033 A 
ATOM      2  C1  UNL d   1      -5.356   5.711  -5.914  0.00  0.00     0.039 A 
ATOM      3  C2  UNL d   1      -5.792   4.385  -5.930  0.00  0.00    -0.080 A 
ATOM      4  C3  UNL d   1      -4.855   3.356  -5.890  0.00  0.00     0.150 A 
ATOM      5  C4  UNL d   1      -3.493   3.635  -5.831  0.00  0.00    -0.007 A 
ATOM      6  C5  UNL d   1      -3.059   4.960  -5.816  0.00  0.00     0.039 A 
ENDROOT
BRANCH   4   7
ATOM      7  O   UNL d   1      -5.233   2.047  -5.909  0.00  0.00    -0.526 OA
ATOM      8  H5  UNL d   1      -6.201   2.007  -5.980  0.00  0.00     0.418 HD
ENDBRANCH   4   7
TORSDOF 1
ENDMDL
