MODEL 1
REMARK minimizedAffinity -1.85298872
REMARK minimizedRMSD -1
REMARK  1 active torsions:
REMARK  status: ('A' for Active; 'I' for Inactive)
REMARK    1  A    between atoms: C3_4  and  O_7 
ROOT
ATOM      1  C   UNL d   1       3.375   4.405   3.497  0.00  0.00    -0.033 A 
ATOM      2  C1  UNL d   1       3.947   3.131   3.521  0.00  0.00     0.039 A 
ATOM      3  C2  UNL d   1       3.370   2.091   2.789  0.00  0.00    -0.080 A 
ATOM      4  C3  UNL d   1       2.224   2.338   2.038  0.00  0.00     0.150 A 
ATOM      5  C4  UNL d   1       1.652   3.605   2.006  0.00  0.00    -0.007 A 
ATOM      6  C5  UNL d   1       2.228   4.642   2.738  0.00  0.00     0.039 A 
ENDROOT
BRANCH   4   7
ATOM      7  O   UNL d   1       1.623   1.353   1.312  0.00  0.00    -0.526 OA
ATOM      8  H5  UNL d   1       2.111   0.525   1.452  0.00  0.00     0.418 HD
ENDBRANCH   4   7
TORSDOF 1
ENDMDL
