MODEL 1
REMARK minimizedAffinity 1.58749616
REMARK minimizedRMSD -1
REMARK  1 active torsions:
REMARK  status: ('A' for Active; 'I' for Inactive)
REMARK    1  A    between atoms: C3_4  and  O_7 
ROOT
ATOM      1  C   UNL d   1       0.563   1.616  -0.717  0.00  0.00    -0.033 A 
ATOM      2  C1  UNL d   1       0.264   0.647  -1.677  0.00  0.00     0.039 A 
ATOM      3  C2  UNL d   1      -0.024  -0.661  -1.284  0.00  0.00    -0.080 A 
ATOM      4  C3  UNL d   1      -0.012  -0.987   0.070  0.00  0.00     0.150 A 
ATOM      5  C4  UNL d   1       0.281  -0.025   1.031  0.00  0.00    -0.007 A 
ATOM      6  C5  UNL d   1       0.570   1.280   0.637  0.00  0.00     0.039 A 
ENDROOT
BRANCH   4   7
ATOM      7  O   UNL d   1      -0.283  -2.251   0.501  0.00  0.00    -0.526 OA
ATOM      8  H5  UNL d   1      -0.439  -2.814  -0.275  0.00  0.00     0.418 HD
ENDBRANCH   4   7
TORSDOF 1
ENDMDL
