MODEL 1
REMARK minimizedAffinity 3.61843181
REMARK minimizedRMSD -1
REMARK  1 active torsions:
REMARK  status: ('A' for Active; 'I' for Inactive)
REMARK    1  A    between atoms: C3_4  and  O_7 
ROOT
ATOM      1  C   UNL d   1       1.959   2.174   0.589  0.00  0.00    -0.033 A 
ATOM      2  C1  UNL d   1       1.839   2.321  -0.794  0.00  0.00     0.039 A 
ATOM      3  C2  UNL d   1       1.120   1.384  -1.538  0.00  0.00    -0.080 A 
ATOM      4  C3  UNL d   1       0.525   0.307  -0.888  0.00  0.00     0.150 A 
ATOM      5  C4  UNL d   1       0.636   0.156   0.490  0.00  0.00    -0.007 A 
ATOM      6  C5  UNL d   1       1.356   1.092   1.231  0.00  0.00     0.039 A 
ENDROOT
BRANCH   4   7
ATOM      7  O   UNL d   1      -0.184  -0.636  -1.573  0.00  0.00    -0.526 OA
ATOM      8  H5  UNL d   1      -0.152  -0.418  -2.519  0.00  0.00     0.418 HD
ENDBRANCH   4   7
TORSDOF 1
ENDMDL
