MODEL 1
REMARK minimizedAffinity -3.36697721
REMARK minimizedRMSD -1
REMARK  1 active torsions:
REMARK  status: ('A' for Active; 'I' for Inactive)
REMARK    1  A    between atoms: C3_4  and  O_7 
ROOT
ATOM      1  C   UNL d   1      -3.321  -2.192  -4.043  0.00  0.00    -0.033 A 
ATOM      2  C1  UNL d   1      -2.345  -3.166  -3.822  0.00  0.00     0.039 A 
ATOM      3  C2  UNL d   1      -2.426  -4.398  -4.474  0.00  0.00    -0.080 A 
ATOM      4  C3  UNL d   1      -3.485  -4.643  -5.343  0.00  0.00     0.150 A 
ATOM      5  C4  UNL d   1      -4.459  -3.676  -5.570  0.00  0.00    -0.007 A 
ATOM      6  C5  UNL d   1      -4.377  -2.447  -4.918  0.00  0.00     0.039 A 
ENDROOT
BRANCH   4   7
ATOM      7  O   UNL d   1      -3.609  -5.832  -5.998  0.00  0.00    -0.526 OA
ATOM      8  H5  UNL d   1      -2.881  -6.413  -5.721  0.00  0.00     0.418 HD
ENDBRANCH   4   7
TORSDOF 1
ENDMDL
