MODEL 1
REMARK minimizedAffinity -1.38722539
REMARK minimizedRMSD -1
REMARK  1 active torsions:
REMARK  status: ('A' for Active; 'I' for Inactive)
REMARK    1  A    between atoms: C3_4  and  O_7 
ROOT
ATOM      1  C   UNL d   1      -5.326   2.366  -5.985  0.00  0.00    -0.033 A 
ATOM      2  C1  UNL d   1      -5.918   3.630  -5.988  0.00  0.00     0.039 A 
ATOM      3  C2  UNL d   1      -5.120   4.776  -5.994  0.00  0.00    -0.080 A 
ATOM      4  C3  UNL d   1      -3.734   4.643  -5.998  0.00  0.00     0.150 A 
ATOM      5  C4  UNL d   1      -3.138   3.386  -5.999  0.00  0.00    -0.007 A 
ATOM      6  C5  UNL d   1      -3.937   2.244  -5.992  0.00  0.00     0.039 A 
ENDROOT
BRANCH   4   7
ATOM      7  O   UNL d   1      -2.914   5.732  -5.999  0.00  0.00    -0.526 OA
ATOM      8  H5  UNL d   1      -3.465   6.533  -5.969  0.00  0.00     0.418 HD
ENDBRANCH   4   7
TORSDOF 1
ENDMDL
