MODEL 1
REMARK minimizedAffinity -2.74690676
REMARK minimizedRMSD -1
REMARK  1 active torsions:
REMARK  status: ('A' for Active; 'I' for Inactive)
REMARK    1  A    between atoms: C3_4  and  O_7 
ROOT
ATOM      1  C   UNL d   1      -3.164   5.683  -5.931  0.00  0.00    -0.033 A 
ATOM      2  C1  UNL d   1      -4.533   5.956  -5.979  0.00  0.00     0.039 A 
ATOM      3  C2  UNL d   1      -5.456   4.909  -6.000  0.00  0.00    -0.080 A 
ATOM      4  C3  UNL d   1      -4.998   3.594  -5.972  0.00  0.00     0.150 A 
ATOM      5  C4  UNL d   1      -3.636   3.314  -5.920  0.00  0.00    -0.007 A 
ATOM      6  C5  UNL d   1      -2.716   4.362  -5.900  0.00  0.00     0.039 A 
ENDROOT
BRANCH   4   7
ATOM      7  O   UNL d   1      -5.860   2.539  -5.996  0.00  0.00    -0.526 OA
ATOM      8  H5  UNL d   1      -6.767   2.883  -6.060  0.00  0.00     0.418 HD
ENDBRANCH   4   7
TORSDOF 1
ENDMDL
