MODEL 1
REMARK minimizedAffinity 1.3249898
REMARK minimizedRMSD -1
REMARK  1 active torsions:
REMARK  status: ('A' for Active; 'I' for Inactive)
REMARK    1  A    between atoms: C3_4  and  O_7 
ROOT
ATOM      1  C   UNL d   1      -2.097   3.195  -5.898  0.00  0.00    -0.033 A 
ATOM      2  C1  UNL d   1      -2.335   4.566  -5.787  0.00  0.00     0.039 A 
ATOM      3  C2  UNL d   1      -3.644   5.052  -5.783  0.00  0.00    -0.080 A 
ATOM      4  C3  UNL d   1      -4.705   4.157  -5.888  0.00  0.00     0.150 A 
ATOM      5  C4  UNL d   1      -4.476   2.789  -5.994  0.00  0.00    -0.007 A 
ATOM      6  C5  UNL d   1      -3.168   2.306  -6.000  0.00  0.00     0.039 A 
ENDROOT
BRANCH   4   7
ATOM      7  O   UNL d   1      -6.000   4.583  -5.893  0.00  0.00    -0.526 OA
ATOM      8  H5  UNL d   1      -6.004   5.554  -5.842  0.00  0.00     0.418 HD
ENDBRANCH   4   7
TORSDOF 1
ENDMDL
