MODEL 1
REMARK minimizedAffinity -2.29722142
REMARK minimizedRMSD -1
REMARK  1 active torsions:
REMARK  status: ('A' for Active; 'I' for Inactive)
REMARK    1  A    between atoms: C3_4  and  O_7 
ROOT
ATOM      1  C   UNL d   1      -5.833   3.664  -5.991  0.00  0.00    -0.033 A 
ATOM      2  C1  UNL d   1      -5.488   5.017  -5.998  0.00  0.00     0.039 A 
ATOM      3  C2  UNL d   1      -4.145   5.398  -5.999  0.00  0.00    -0.080 A 
ATOM      4  C3  UNL d   1      -3.157   4.417  -5.996  0.00  0.00     0.150 A 
ATOM      5  C4  UNL d   1      -3.493   3.067  -5.993  0.00  0.00    -0.007 A 
ATOM      6  C5  UNL d   1      -4.835   2.689  -5.990  0.00  0.00     0.039 A 
ENDROOT
BRANCH   4   7
ATOM      7  O   UNL d   1      -1.832   4.739  -5.992  0.00  0.00    -0.526 OA
ATOM      8  H5  UNL d   1      -1.751   5.707  -5.966  0.00  0.00     0.418 HD
ENDBRANCH   4   7
TORSDOF 1
ENDMDL
