MODEL 1
REMARK minimizedAffinity -2.57500005
REMARK minimizedRMSD -1
REMARK  1 active torsions:
REMARK  status: ('A' for Active; 'I' for Inactive)
REMARK    1  A    between atoms: C3_4  and  O_7 
ROOT
ATOM      1  C   UNL d   1      -5.660  -3.223  -5.999  0.00  0.00    -0.033 A 
ATOM      2  C1  UNL d   1      -4.721  -2.266  -5.612  0.00  0.00     0.039 A 
ATOM      3  C2  UNL d   1      -3.440  -2.660  -5.219  0.00  0.00    -0.080 A 
ATOM      4  C3  UNL d   1      -3.112  -4.013  -5.220  0.00  0.00     0.150 A 
ATOM      5  C4  UNL d   1      -4.041  -4.972  -5.608  0.00  0.00    -0.007 A 
ATOM      6  C5  UNL d   1      -5.320  -4.576  -5.999  0.00  0.00     0.039 A 
ENDROOT
BRANCH   4   7
ATOM      7  O   UNL d   1      -1.876  -4.446  -4.840  0.00  0.00    -0.526 OA
ATOM      8  H5  UNL d   1      -1.349  -3.676  -4.571  0.00  0.00     0.418 HD
ENDBRANCH   4   7
TORSDOF 1
ENDMDL
