MODEL 1
REMARK minimizedAffinity -1.90028024
REMARK minimizedRMSD -1
REMARK  1 active torsions:
REMARK  status: ('A' for Active; 'I' for Inactive)
REMARK    1  A    between atoms: C3_4  and  O_7 
ROOT
ATOM      1  C   UNL d   1      -5.454   3.914  -6.000  0.00  0.00    -0.033 A 
ATOM      2  C1  UNL d   1      -4.485   2.908  -5.991  0.00  0.00     0.039 A 
ATOM      3  C2  UNL d   1      -3.129   3.243  -5.981  0.00  0.00    -0.080 A 
ATOM      4  C3  UNL d   1      -2.757   4.584  -5.979  0.00  0.00     0.150 A 
ATOM      5  C4  UNL d   1      -3.717   5.591  -5.984  0.00  0.00    -0.007 A 
ATOM      6  C5  UNL d   1      -5.070   5.255  -5.995  0.00  0.00     0.039 A 
ENDROOT
BRANCH   4   7
ATOM      7  O   UNL d   1      -1.446   4.960  -5.975  0.00  0.00    -0.526 OA
ATOM      8  H5  UNL d   1      -0.896   4.159  -6.001  0.00  0.00     0.418 HD
ENDBRANCH   4   7
TORSDOF 1
ENDMDL
