MODEL 1
REMARK minimizedAffinity 5.44034529
REMARK minimizedRMSD -1
REMARK  1 active torsions:
REMARK  status: ('A' for Active; 'I' for Inactive)
REMARK    1  A    between atoms: C1_2  and  C2_3 
ROOT
ATOM      1  C2  UNL d   1      -0.103  -1.894   2.728  0.00  0.00    -0.076 A 
ATOM      2  C3  UNL d   1      -0.909  -1.421   1.679  0.00  0.00     0.004 A 
ATOM      3  C4  UNL d   1      -0.479  -0.381   0.856  0.00  0.00    -0.003 A 
ATOM      4  C5  UNL d   1       0.765   0.202   1.070  0.00  0.00     0.000 A 
ATOM      5  C6  UNL d   1       1.586  -0.267   2.095  0.00  0.00     0.000 A 
ATOM      6  C7  UNL d   1       1.174  -1.326   2.923  0.00  0.00    -0.073 A 
ATOM      7  C8  UNL d   1       2.097  -1.787   4.017  0.00  0.00     0.078 C 
ENDROOT
BRANCH   1   8
ATOM      8  C1  UNL d   1      -0.634  -3.006   3.605  0.00  0.00     0.053 C 
ATOM      9  C   UNL d   1      -0.326  -4.387   3.045  0.00  0.00     0.018 C 
ENDBRANCH   1   8
TORSDOF 1
ENDMDL
