MODEL 1
REMARK minimizedAffinity -0.359228104
REMARK minimizedRMSD -1
REMARK  1 active torsions:
REMARK  status: ('A' for Active; 'I' for Inactive)
REMARK    1  A    between atoms: C1_2  and  C2_3 
ROOT
ATOM      1  C2  UNL d   1      -0.421  -1.020   1.457  0.00  0.00    -0.076 A 
ATOM      2  C3  UNL d   1      -1.574  -0.275   1.759  0.00  0.00     0.004 A 
ATOM      3  C4  UNL d   1      -2.000   0.758   0.926  0.00  0.00    -0.003 A 
ATOM      4  C5  UNL d   1      -1.280   1.062  -0.224  0.00  0.00     0.000 A 
ATOM      5  C6  UNL d   1      -0.144   0.322  -0.549  0.00  0.00     0.000 A 
ATOM      6  C7  UNL d   1       0.290  -0.733   0.272  0.00  0.00    -0.073 A 
ATOM      7  C8  UNL d   1       1.526  -1.494  -0.123  0.00  0.00     0.078 C 
ENDROOT
BRANCH   1   8
ATOM      8  C1  UNL d   1       0.008  -2.110   2.413  0.00  0.00     0.053 C 
ATOM      9  C   UNL d   1      -1.167  -2.922   2.935  0.00  0.00     0.018 C 
ENDBRANCH   1   8
TORSDOF 1
ENDMDL
