MODEL 1
REMARK minimizedAffinity -4.85822678
REMARK minimizedRMSD -1
REMARK  1 active torsions:
REMARK  status: ('A' for Active; 'I' for Inactive)
REMARK    1  A    between atoms: C1_2  and  C2_3 
ROOT
ATOM      1  C2  UNL d   1      -1.346   1.347  -2.007  0.00  0.00    -0.076 A 
ATOM      2  C3  UNL d   1      -2.745   1.442  -1.898  0.00  0.00     0.004 A 
ATOM      3  C4  UNL d   1      -3.461   2.375  -2.646  0.00  0.00    -0.003 A 
ATOM      4  C5  UNL d   1      -2.791   3.228  -3.515  0.00  0.00     0.000 A 
ATOM      5  C6  UNL d   1      -1.406   3.136  -3.650  0.00  0.00     0.000 A 
ATOM      6  C7  UNL d   1      -0.670   2.190  -2.915  0.00  0.00    -0.073 A 
ATOM      7  C8  UNL d   1       0.822   2.139  -3.095  0.00  0.00     0.078 C 
ENDROOT
BRANCH   1   8
ATOM      8  C1  UNL d   1      -0.620   0.335  -1.151  0.00  0.00     0.053 C 
ATOM      9  C   UNL d   1      -1.538  -0.346  -0.148  0.00  0.00     0.018 C 
ENDBRANCH   1   8
TORSDOF 1
ENDMDL
