MODEL 1
REMARK minimizedAffinity -5.06278181
REMARK minimizedRMSD -1
REMARK  1 active torsions:
REMARK  status: ('A' for Active; 'I' for Inactive)
REMARK    1  A    between atoms: C1_2  and  C2_3 
ROOT
ATOM      1  C2  UNL d   1      -0.537  -0.290   0.932  0.00  0.00    -0.076 A 
ATOM      2  C3  UNL d   1       0.033  -0.766   2.125  0.00  0.00     0.004 A 
ATOM      3  C4  UNL d   1       1.327  -1.285   2.144  0.00  0.00    -0.003 A 
ATOM      4  C5  UNL d   1       2.071  -1.336   0.970  0.00  0.00     0.000 A 
ATOM      5  C6  UNL d   1       1.527  -0.852  -0.219  0.00  0.00     0.000 A 
ATOM      6  C7  UNL d   1       0.230  -0.310  -0.252  0.00  0.00    -0.073 A 
ATOM      7  C8  UNL d   1      -0.309   0.192  -1.564  0.00  0.00     0.078 C 
ENDROOT
BRANCH   1   8
ATOM      8  C1  UNL d   1      -1.954   0.238   0.967  0.00  0.00     0.053 C 
ATOM      9  C   UNL d   1      -2.400   0.618   2.370  0.00  0.00     0.018 C 
ENDBRANCH   1   8
TORSDOF 1
ENDMDL
