MODEL 1
REMARK minimizedAffinity -1.75414181
REMARK minimizedRMSD -1
REMARK  1 active torsions:
REMARK  status: ('A' for Active; 'I' for Inactive)
REMARK    1  A    between atoms: C1_2  and  C2_3 
ROOT
ATOM      1  C2  UNL d   1       0.196  -0.349  -0.367  0.00  0.00    -0.076 A 
ATOM      2  C3  UNL d   1      -0.929   0.094   0.350  0.00  0.00     0.004 A 
ATOM      3  C4  UNL d   1      -1.101  -0.240   1.692  0.00  0.00    -0.003 A 
ATOM      4  C5  UNL d   1      -0.150  -1.022   2.339  0.00  0.00     0.000 A 
ATOM      5  C6  UNL d   1       0.981  -1.455   1.648  0.00  0.00     0.000 A 
ATOM      6  C7  UNL d   1       1.178  -1.113   0.299  0.00  0.00    -0.073 A 
ATOM      7  C8  UNL d   1       2.413  -1.613  -0.399  0.00  0.00     0.078 C 
ENDROOT
BRANCH   1   8
ATOM      8  C1  UNL d   1       0.316   0.022  -1.828  0.00  0.00     0.053 C 
ATOM      9  C   UNL d   1      -0.376   1.337  -2.154  0.00  0.00     0.018 C 
ENDBRANCH   1   8
TORSDOF 1
ENDMDL
