MODEL 1
REMARK minimizedAffinity -2.94173694
REMARK minimizedRMSD -1
REMARK  1 active torsions:
REMARK  status: ('A' for Active; 'I' for Inactive)
REMARK    1  A    between atoms: C1_2  and  C2_3 
ROOT
ATOM      1  C2  UNL d   1       0.282  -0.938   0.782  0.00  0.00    -0.076 A 
ATOM      2  C3  UNL d   1       0.207  -1.249   2.150  0.00  0.00     0.004 A 
ATOM      3  C4  UNL d   1       1.136  -2.103   2.744  0.00  0.00    -0.003 A 
ATOM      4  C5  UNL d   1       2.155  -2.658   1.978  0.00  0.00     0.000 A 
ATOM      5  C6  UNL d   1       2.255  -2.346   0.623  0.00  0.00     0.000 A 
ATOM      6  C7  UNL d   1       1.337  -1.475   0.013  0.00  0.00    -0.073 A 
ATOM      7  C8  UNL d   1       1.489  -1.178  -1.454  0.00  0.00     0.078 C 
ENDROOT
BRANCH   1   8
ATOM      8  C1  UNL d   1      -0.769  -0.028   0.187  0.00  0.00     0.053 C 
ATOM      9  C   UNL d   1      -2.076  -0.063   0.963  0.00  0.00     0.018 C 
ENDBRANCH   1   8
TORSDOF 1
ENDMDL
