MODEL 1
REMARK minimizedAffinity 1.95375454
REMARK minimizedRMSD -1
REMARK  2 active torsions:
REMARK  status: ('A' for Active; 'I' for Inactive)
REMARK    1  A    between atoms: C2'_3  and  C1'_4 
REMARK    2  A    between atoms: C1'_4  and  C1_5 
ROOT
ATOM      1  C1  I4B d   1      -0.761   1.911   2.078  0.00  0.00    -0.075 A 
ATOM      2  C2  I4B d   1      -2.095   2.111   2.332  0.00  0.00     0.003 A 
ATOM      3  C3  I4B d   1      -2.922   1.022   2.700  0.00  0.00     0.002 A 
ATOM      4  C4  I4B d   1      -2.388  -0.249   2.751  0.00  0.00    -0.004 A 
ATOM      5  C5  I4B d   1      -1.031  -0.447   2.515  0.00  0.00     0.002 A 
ATOM      6  C6  I4B d   1      -0.209   0.641   2.188  0.00  0.00     0.003 A 
ENDROOT
BRANCH   1   7
ATOM      7  C1' I4B d   1       0.076   3.078   1.660  0.00  0.00     0.060 C 
BRANCH   7   8
ATOM      8  C2' I4B d   1       1.213   2.555   0.807  0.00  0.00    -0.013 C 
ATOM      9  C4' I4B d   1       0.701   1.949  -0.473  0.00  0.00     0.013 C 
ATOM     10  C3' I4B d   1       2.147   3.696   0.530  0.00  0.00     0.013 C 
ENDBRANCH   7   8
ENDBRANCH   1   7
TORSDOF 2
ENDMDL
