MODEL 1
REMARK minimizedAffinity 7.48761463
REMARK minimizedRMSD -1
REMARK  2 active torsions:
REMARK  status: ('A' for Active; 'I' for Inactive)
REMARK    1  A    between atoms: C2'_3  and  C1'_4 
REMARK    2  A    between atoms: C1'_4  and  C1_5 
ROOT
ATOM      1  C1  I4B d   1      -2.025   1.961   3.103  0.00  0.00    -0.075 A 
ATOM      2  C2  I4B d   1      -1.691   2.780   2.053  0.00  0.00     0.003 A 
ATOM      3  C3  I4B d   1      -1.115   2.235   0.880  0.00  0.00     0.002 A 
ATOM      4  C4  I4B d   1      -0.847   0.882   0.819  0.00  0.00    -0.004 A 
ATOM      5  C5  I4B d   1      -1.208   0.051   1.875  0.00  0.00     0.002 A 
ATOM      6  C6  I4B d   1      -1.812   0.591   3.020  0.00  0.00     0.003 A 
ENDROOT
BRANCH   1   7
ATOM      7  C1' I4B d   1      -2.601   2.574   4.340  0.00  0.00     0.060 C 
BRANCH   7   8
ATOM      8  C2' I4B d   1      -4.106   2.412   4.285  0.00  0.00    -0.013 C 
ATOM      9  C4' I4B d   1      -4.544   1.149   4.978  0.00  0.00     0.013 C 
ATOM     10  C3' I4B d   1      -4.726   3.621   4.920  0.00  0.00     0.013 C 
ENDBRANCH   7   8
ENDBRANCH   1   7
TORSDOF 2
ENDMDL
