MODEL 1
REMARK minimizedAffinity -2.52160025
REMARK minimizedRMSD -1
REMARK  2 active torsions:
REMARK  status: ('A' for Active; 'I' for Inactive)
REMARK    1  A    between atoms: C2'_3  and  C1'_4 
REMARK    2  A    between atoms: C1'_4  and  C1_5 
ROOT
ATOM      1  C1  I4B d   1      -1.396   1.121   2.397  0.00  0.00    -0.075 A 
ATOM      2  C2  I4B d   1      -1.741  -0.181   2.663  0.00  0.00     0.003 A 
ATOM      3  C3  I4B d   1      -3.047  -0.494   3.111  0.00  0.00     0.002 A 
ATOM      4  C4  I4B d   1      -3.954   0.523   3.327  0.00  0.00    -0.004 A 
ATOM      5  C5  I4B d   1      -3.610   1.840   3.034  0.00  0.00     0.002 A 
ATOM      6  C6  I4B d   1      -2.326   2.139   2.554  0.00  0.00     0.003 A 
ENDROOT
BRANCH   1   7
ATOM      7  C1' I4B d   1       0.002   1.420   1.956  0.00  0.00     0.060 C 
BRANCH   7   8
ATOM      8  C2' I4B d   1      -0.073   2.359   0.770  0.00  0.00    -0.013 C 
ATOM      9  C4' I4B d   1      -0.763   3.647   1.137  0.00  0.00     0.013 C 
ATOM     10  C3' I4B d   1       1.325   2.612   0.290  0.00  0.00     0.013 C 
ENDBRANCH   7   8
ENDBRANCH   1   7
TORSDOF 2
ENDMDL
