MODEL 1
REMARK minimizedAffinity 5.97866058
REMARK minimizedRMSD -1
REMARK  2 active torsions:
REMARK  status: ('A' for Active; 'I' for Inactive)
REMARK    1  A    between atoms: C2'_3  and  C1'_4 
REMARK    2  A    between atoms: C1'_4  and  C1_5 
ROOT
ATOM      1  C1  I4B d   1      -2.472   1.627   2.604  0.00  0.00    -0.075 A 
ATOM      2  C2  I4B d   1      -1.644   2.475   1.912  0.00  0.00     0.003 A 
ATOM      3  C3  I4B d   1      -0.376   2.029   1.469  0.00  0.00     0.002 A 
ATOM      4  C4  I4B d   1       0.043   0.752   1.782  0.00  0.00    -0.004 A 
ATOM      5  C5  I4B d   1      -0.807  -0.114   2.464  0.00  0.00     0.002 A 
ATOM      6  C6  I4B d   1      -2.077   0.322   2.867  0.00  0.00     0.003 A 
ENDROOT
BRANCH   1   7
ATOM      7  C1' I4B d   1      -3.792   2.141   3.086  0.00  0.00     0.060 C 
BRANCH   7   8
ATOM      8  C2' I4B d   1      -4.147   1.397   4.357  0.00  0.00    -0.013 C 
ATOM      9  C4' I4B d   1      -5.037   2.227   5.244  0.00  0.00     0.013 C 
ATOM     10  C3' I4B d   1      -4.815   0.112   3.970  0.00  0.00     0.013 C 
ENDBRANCH   7   8
ENDBRANCH   1   7
TORSDOF 2
ENDMDL
