MODEL 1
REMARK minimizedAffinity 8.99462605
REMARK minimizedRMSD -1
REMARK  2 active torsions:
REMARK  status: ('A' for Active; 'I' for Inactive)
REMARK    1  A    between atoms: C2'_3  and  C1'_4 
REMARK    2  A    between atoms: C1'_4  and  C1_5 
ROOT
ATOM      1  C1  I4B d   1      -4.150   2.064   3.418  0.00  0.00    -0.075 A 
ATOM      2  C2  I4B d   1      -4.078   0.701   3.567  0.00  0.00     0.003 A 
ATOM      3  C3  I4B d   1      -2.966  -0.014   3.060  0.00  0.00     0.002 A 
ATOM      4  C4  I4B d   1      -1.980   0.662   2.371  0.00  0.00    -0.004 A 
ATOM      5  C5  I4B d   1      -2.043   2.047   2.240  0.00  0.00     0.002 A 
ATOM      6  C6  I4B d   1      -3.129   2.754   2.778  0.00  0.00     0.003 A 
ENDROOT
BRANCH   1   7
ATOM      7  C1' I4B d   1      -5.355   2.783   3.936  0.00  0.00     0.060 C 
BRANCH   7   8
ATOM      8  C2' I4B d   1      -5.249   2.842   5.447  0.00  0.00    -0.013 C 
ATOM      9  C4' I4B d   1      -5.994   4.028   5.999  0.00  0.00     0.013 C 
ATOM     10  C3' I4B d   1      -5.790   1.557   5.999  0.00  0.00     0.013 C 
ENDBRANCH   7   8
ENDBRANCH   1   7
TORSDOF 2
ENDMDL
