MODEL 1
REMARK minimizedAffinity 1.49392414
REMARK minimizedRMSD -1
REMARK  2 active torsions:
REMARK  status: ('A' for Active; 'I' for Inactive)
REMARK    1  A    between atoms: C2'_3  and  C1'_4 
REMARK    2  A    between atoms: C1'_4  and  C1_5 
ROOT
ATOM      1  C1  I4B d   1      -1.363   1.450   1.970  0.00  0.00    -0.075 A 
ATOM      2  C2  I4B d   1      -1.794   0.147   1.953  0.00  0.00     0.003 A 
ATOM      3  C3  I4B d   1      -3.064  -0.190   2.480  0.00  0.00     0.002 A 
ATOM      4  C4  I4B d   1      -3.844   0.792   3.056  0.00  0.00    -0.004 A 
ATOM      5  C5  I4B d   1      -3.415   2.116   3.052  0.00  0.00     0.002 A 
ATOM      6  C6  I4B d   1      -2.172   2.450   2.494  0.00  0.00     0.003 A 
ENDROOT
BRANCH   1   7
ATOM      7  C1' I4B d   1      -0.003   1.766   1.434  0.00  0.00     0.060 C 
BRANCH   7   8
ATOM      8  C2' I4B d   1       0.766   0.465   1.315  0.00  0.00    -0.013 C 
ATOM      9  C4' I4B d   1       1.496   0.382   0.000  0.00  0.00     0.013 C 
ATOM     10  C3' I4B d   1       1.718   0.383   2.470  0.00  0.00     0.013 C 
ENDBRANCH   7   8
ENDBRANCH   1   7
TORSDOF 2
ENDMDL
