MODEL 1
REMARK minimizedAffinity -2.46130037
REMARK minimizedRMSD -1
REMARK  2 active torsions:
REMARK  status: ('A' for Active; 'I' for Inactive)
REMARK    1  A    between atoms: C2'_3  and  C1'_4 
REMARK    2  A    between atoms: C1'_4  and  C1_5 
ROOT
ATOM      1  C1  I4B d   1      -2.765   1.068   2.988  0.00  0.00    -0.075 A 
ATOM      2  C2  I4B d   1      -2.313  -0.155   2.556  0.00  0.00     0.003 A 
ATOM      3  C3  I4B d   1      -1.046  -0.268   1.934  0.00  0.00     0.002 A 
ATOM      4  C4  I4B d   1      -0.291   0.867   1.720  0.00  0.00    -0.004 A 
ATOM      5  C5  I4B d   1      -0.740   2.102   2.179  0.00  0.00     0.002 A 
ATOM      6  C6  I4B d   1      -1.979   2.202   2.828  0.00  0.00     0.003 A 
ENDROOT
BRANCH   1   7
ATOM      7  C1' I4B d   1      -4.122   1.156   3.611  0.00  0.00     0.060 C 
BRANCH   7   8
ATOM      8  C2' I4B d   1      -3.998   1.963   4.887  0.00  0.00    -0.013 C 
ATOM      9  C4' I4B d   1      -4.655   3.311   4.746  0.00  0.00     0.013 C 
ATOM     10  C3' I4B d   1      -4.620   1.171   5.998  0.00  0.00     0.013 C 
ENDBRANCH   7   8
ENDBRANCH   1   7
TORSDOF 2
ENDMDL
