MODEL 1
REMARK minimizedAffinity 5.60837221
REMARK minimizedRMSD -1
REMARK  2 active torsions:
REMARK  status: ('A' for Active; 'I' for Inactive)
REMARK    1  A    between atoms: C2'_3  and  C1'_4 
REMARK    2  A    between atoms: C1'_4  and  C1_5 
ROOT
ATOM      1  C1  I4B d   1       0.466   0.446   1.305  0.00  0.00    -0.075 A 
ATOM      2  C2  I4B d   1      -0.706  -0.256   1.181  0.00  0.00     0.003 A 
ATOM      3  C3  I4B d   1      -1.948   0.424   1.182  0.00  0.00     0.002 A 
ATOM      4  C4  I4B d   1      -1.974   1.792   1.358  0.00  0.00    -0.004 A 
ATOM      5  C5  I4B d   1      -0.783   2.505   1.460  0.00  0.00     0.002 A 
ATOM      6  C6  I4B d   1       0.446   1.830   1.421  0.00  0.00     0.003 A 
ENDROOT
BRANCH   1   7
ATOM      7  C1' I4B d   1       1.758  -0.307   1.334  0.00  0.00     0.060 C 
BRANCH   7   8
ATOM      8  C2' I4B d   1       2.348  -0.170   2.723  0.00  0.00    -0.013 C 
ATOM      9  C4' I4B d   1       1.441  -0.774   3.762  0.00  0.00     0.013 C 
ATOM     10  C3' I4B d   1       3.691  -0.836   2.724  0.00  0.00     0.013 C 
ENDBRANCH   7   8
ENDBRANCH   1   7
TORSDOF 2
ENDMDL
