MODEL 1
REMARK minimizedAffinity 9.7173872
REMARK minimizedRMSD -1
REMARK  2 active torsions:
REMARK  status: ('A' for Active; 'I' for Inactive)
REMARK    1  A    between atoms: C2'_3  and  C1'_4 
REMARK    2  A    between atoms: C1'_4  and  C1_5 
ROOT
ATOM      1  C1  I4B d   1       3.659   3.437  -3.685  0.00  0.00    -0.075 A 
ATOM      2  C2  I4B d   1       4.570   2.428  -3.496  0.00  0.00     0.003 A 
ATOM      3  C3  I4B d   1       4.131   1.133  -3.125  0.00  0.00     0.002 A 
ATOM      4  C4  I4B d   1       2.787   0.907  -2.907  0.00  0.00    -0.004 A 
ATOM      5  C5  I4B d   1       1.864   1.926  -3.122  0.00  0.00     0.002 A 
ATOM      6  C6  I4B d   1       2.301   3.196  -3.525  0.00  0.00     0.003 A 
ENDROOT
BRANCH   1   7
ATOM      7  C1' I4B d   1       4.160   4.801  -4.044  0.00  0.00     0.060 C 
BRANCH   7   8
ATOM      8  C2' I4B d   1       4.121   4.930  -5.553  0.00  0.00    -0.013 C 
ATOM      9  C4' I4B d   1       2.956   5.774  -5.998  0.00  0.00     0.013 C 
ATOM     10  C3' I4B d   1       5.423   5.525  -6.000  0.00  0.00     0.013 C 
ENDBRANCH   7   8
ENDBRANCH   1   7
TORSDOF 2
ENDMDL
