MODEL 1
REMARK minimizedAffinity 1.01207173
REMARK minimizedRMSD -1
REMARK  2 active torsions:
REMARK  status: ('A' for Active; 'I' for Inactive)
REMARK    1  A    between atoms: C2'_3  and  C1'_4 
REMARK    2  A    between atoms: C1'_4  and  C1_5 
ROOT
ATOM      1  C1  I4B d   1       0.960   0.727   1.315  0.00  0.00    -0.075 A 
ATOM      2  C2  I4B d   1       0.101  -0.316   1.073  0.00  0.00     0.003 A 
ATOM      3  C3  I4B d   1      -1.296  -0.092   1.024  0.00  0.00     0.002 A 
ATOM      4  C4  I4B d   1      -1.791   1.172   1.271  0.00  0.00    -0.004 A 
ATOM      5  C5  I4B d   1      -0.918   2.233   1.494  0.00  0.00     0.002 A 
ATOM      6  C6  I4B d   1       0.467   2.012   1.504  0.00  0.00     0.003 A 
ENDROOT
BRANCH   1   7
ATOM      7  C1' I4B d   1       2.428   0.449   1.393  0.00  0.00     0.060 C 
BRANCH   7   8
ATOM      8  C2' I4B d   1       2.677  -0.402   2.621  0.00  0.00    -0.013 C 
ATOM      9  C4' I4B d   1       4.147  -0.675   2.806  0.00  0.00     0.013 C 
ATOM     10  C3' I4B d   1       2.107   0.318   3.807  0.00  0.00     0.013 C 
ENDBRANCH   7   8
ENDBRANCH   1   7
TORSDOF 2
ENDMDL
