MODEL 1
REMARK minimizedAffinity 9.23162746
REMARK minimizedRMSD -1
REMARK  2 active torsions:
REMARK  status: ('A' for Active; 'I' for Inactive)
REMARK    1  A    between atoms: C2'_3  and  C1'_4 
REMARK    2  A    between atoms: C1'_4  and  C1_5 
ROOT
ATOM      1  C1  I4B d   1      -0.715   0.923   1.587  0.00  0.00    -0.075 A 
ATOM      2  C2  I4B d   1      -0.035  -0.223   1.913  0.00  0.00     0.003 A 
ATOM      3  C3  I4B d   1       1.345  -0.342   1.619  0.00  0.00     0.002 A 
ATOM      4  C4  I4B d   1       1.989   0.683   0.957  0.00  0.00    -0.004 A 
ATOM      5  C5  I4B d   1       1.303   1.854   0.647  0.00  0.00     0.002 A 
ATOM      6  C6  I4B d   1      -0.055   1.981   0.975  0.00  0.00     0.003 A 
ENDROOT
BRANCH   1   7
ATOM      7  C1' I4B d   1      -2.180   1.002   1.883  0.00  0.00     0.060 C 
BRANCH   7   8
ATOM      8  C2' I4B d   1      -2.477   2.394   2.401  0.00  0.00    -0.013 C 
ATOM      9  C4' I4B d   1      -2.827   3.331   1.275  0.00  0.00     0.013 C 
ATOM     10  C3' I4B d   1      -3.601   2.290   3.388  0.00  0.00     0.013 C 
ENDBRANCH   7   8
ENDBRANCH   1   7
TORSDOF 2
ENDMDL
