MODEL 1
REMARK minimizedAffinity 9.41973686
REMARK minimizedRMSD -1
REMARK  2 active torsions:
REMARK  status: ('A' for Active; 'I' for Inactive)
REMARK    1  A    between atoms: C2'_3  and  C1'_4 
REMARK    2  A    between atoms: C1'_4  and  C1_5 
ROOT
ATOM      1  C1  I4B d   1      -0.552  -0.161   2.470  0.00  0.00    -0.075 A 
ATOM      2  C2  I4B d   1       0.785  -0.323   2.207  0.00  0.00     0.003 A 
ATOM      3  C3  I4B d   1       1.521   0.718   1.591  0.00  0.00     0.002 A 
ATOM      4  C4  I4B d   1       0.874   1.877   1.212  0.00  0.00    -0.004 A 
ATOM      5  C5  I4B d   1      -0.477   2.048   1.500  0.00  0.00     0.002 A 
ATOM      6  C6  I4B d   1      -1.192   1.028   2.144  0.00  0.00     0.003 A 
ENDROOT
BRANCH   1   7
ATOM      7  C1' I4B d   1      -1.307  -1.293   3.091  0.00  0.00     0.060 C 
BRANCH   7   8
ATOM      8  C2' I4B d   1      -2.779  -1.091   2.795  0.00  0.00    -0.013 C 
ATOM      9  C4' I4B d   1      -3.136  -1.605   1.425  0.00  0.00     0.013 C 
ATOM     10  C3' I4B d   1      -3.566  -1.797   3.859  0.00  0.00     0.013 C 
ENDBRANCH   7   8
ENDBRANCH   1   7
TORSDOF 2
ENDMDL
