MODEL 1
REMARK minimizedAffinity -1.51843023
REMARK minimizedRMSD -1
REMARK  2 active torsions:
REMARK  status: ('A' for Active; 'I' for Inactive)
REMARK    1  A    between atoms: C2'_3  and  C1'_4 
REMARK    2  A    between atoms: C1'_4  and  C1_5 
ROOT
ATOM      1  C1  I4B d   1      -4.318   1.694   3.789  0.00  0.00    -0.075 A 
ATOM      2  C2  I4B d   1      -5.573   2.250   3.803  0.00  0.00     0.003 A 
ATOM      3  C3  I4B d   1      -5.999   3.020   4.912  0.00  0.00     0.002 A 
ATOM      4  C4  I4B d   1      -5.163   3.167   6.000  0.00  0.00    -0.004 A 
ATOM      5  C5  I4B d   1      -3.882   2.622   5.974  0.00  0.00     0.002 A 
ATOM      6  C6  I4B d   1      -3.452   1.892   4.857  0.00  0.00     0.003 A 
ENDROOT
BRANCH   1   7
ATOM      7  C1' I4B d   1      -3.912   0.859   2.617  0.00  0.00     0.060 C 
BRANCH   7   8
ATOM      8  C2' I4B d   1      -2.398   0.800   2.587  0.00  0.00    -0.013 C 
ATOM      9  C4' I4B d   1      -1.908  -0.624   2.621  0.00  0.00     0.013 C 
ATOM     10  C3' I4B d   1      -1.932   1.504   1.348  0.00  0.00     0.013 C 
ENDBRANCH   7   8
ENDBRANCH   1   7
TORSDOF 2
ENDMDL
