MODEL 1
REMARK minimizedAffinity -6.0504632
REMARK minimizedRMSD -1
REMARK  1 active torsions:
REMARK  status: ('A' for Active; 'I' for Inactive)
REMARK    1  A    between atoms: C1_2  and  C2_3 
ROOT
ATOM      1  C2  UNL d   1       0.101   0.538  -1.208  0.00  0.00    -0.076 A 
ATOM      2  C3  UNL d   1       0.732   1.611  -1.862  0.00  0.00     0.004 A 
ATOM      3  C4  UNL d   1       2.010   1.471  -2.399  0.00  0.00    -0.003 A 
ATOM      4  C5  UNL d   1       2.678   0.256  -2.293  0.00  0.00     0.000 A 
ATOM      5  C6  UNL d   1       2.060  -0.824  -1.663  0.00  0.00     0.000 A 
ATOM      6  C7  UNL d   1       0.765  -0.705  -1.131  0.00  0.00    -0.073 A 
ATOM      7  C8  UNL d   1       0.149  -1.900  -0.457  0.00  0.00     0.078 C 
ENDROOT
BRANCH   1   8
ATOM      8  C1  UNL d   1      -1.275   0.757  -0.621  0.00  0.00     0.053 C 
ATOM      9  C   UNL d   1      -1.253   0.848   0.897  0.00  0.00     0.018 C 
ENDBRANCH   1   8
TORSDOF 1
ENDMDL
