MODEL 1
REMARK minimizedAffinity -5.05644321
REMARK minimizedRMSD -1
REMARK  1 active torsions:
REMARK  status: ('A' for Active; 'I' for Inactive)
REMARK    1  A    between atoms: C1_2  and  C2_3 
ROOT
ATOM      1  C2  UNL d   1       0.473   0.333  -0.701  0.00  0.00    -0.076 A 
ATOM      2  C3  UNL d   1       0.777  -1.011  -0.418  0.00  0.00     0.004 A 
ATOM      3  C4  UNL d   1       1.932  -1.606  -0.920  0.00  0.00    -0.003 A 
ATOM      4  C5  UNL d   1       2.804  -0.868  -1.714  0.00  0.00     0.000 A 
ATOM      5  C6  UNL d   1       2.527   0.471  -1.990  0.00  0.00     0.000 A 
ATOM      6  C7  UNL d   1       1.375   1.091  -1.478  0.00  0.00    -0.073 A 
ATOM      7  C8  UNL d   1       1.123   2.536  -1.812  0.00  0.00     0.078 C 
ENDROOT
BRANCH   1   8
ATOM      8  C1  UNL d   1      -0.809   0.917  -0.151  0.00  0.00     0.053 C 
ATOM      9  C   UNL d   1      -0.926   0.748   1.356  0.00  0.00     0.018 C 
ENDBRANCH   1   8
TORSDOF 1
ENDMDL
