MODEL 1
REMARK minimizedAffinity -1.52692628
REMARK minimizedRMSD -1
REMARK  1 active torsions:
REMARK  status: ('A' for Active; 'I' for Inactive)
REMARK    1  A    between atoms: C1_2  and  C2_3 
ROOT
ATOM      1  C2  UNL d   1       0.722  -0.371  -0.345  0.00  0.00    -0.076 A 
ATOM      2  C3  UNL d   1       0.472   0.712  -1.205  0.00  0.00     0.004 A 
ATOM      3  C4  UNL d   1      -0.120   1.882  -0.732  0.00  0.00    -0.003 A 
ATOM      4  C5  UNL d   1      -0.472   1.987   0.609  0.00  0.00     0.000 A 
ATOM      5  C6  UNL d   1      -0.215   0.929   1.480  0.00  0.00     0.000 A 
ATOM      6  C7  UNL d   1       0.396  -0.251   1.023  0.00  0.00    -0.073 A 
ATOM      7  C8  UNL d   1       0.644  -1.363   2.005  0.00  0.00     0.078 C 
ENDROOT
BRANCH   1   8
ATOM      8  C1  UNL d   1       1.342  -1.625  -0.920  0.00  0.00     0.053 C 
ATOM      9  C   UNL d   1       2.515  -1.325  -1.840  0.00  0.00     0.018 C 
ENDBRANCH   1   8
TORSDOF 1
ENDMDL
