MODEL 1
REMARK minimizedAffinity -0.475886017
REMARK minimizedRMSD -1
REMARK  1 active torsions:
REMARK  status: ('A' for Active; 'I' for Inactive)
REMARK    1  A    between atoms: C1_2  and  C2_3 
ROOT
ATOM      1  C2  UNL d   1      -0.037  -0.831  -0.486  0.00  0.00    -0.076 A 
ATOM      2  C3  UNL d   1      -0.905   0.098   0.112  0.00  0.00     0.004 A 
ATOM      3  C4  UNL d   1      -0.917   1.432  -0.291  0.00  0.00    -0.003 A 
ATOM      4  C5  UNL d   1      -0.061   1.859  -1.300  0.00  0.00     0.000 A 
ATOM      5  C6  UNL d   1       0.795   0.947  -1.917  0.00  0.00     0.000 A 
ATOM      6  C7  UNL d   1       0.808  -0.405  -1.534  0.00  0.00    -0.073 A 
ATOM      7  C8  UNL d   1       1.755  -1.344  -2.229  0.00  0.00     0.078 C 
ENDROOT
BRANCH   1   8
ATOM      8  C1  UNL d   1      -0.049  -2.259   0.011  0.00  0.00     0.053 C 
ATOM      9  C   UNL d   1      -1.139  -3.094  -0.643  0.00  0.00     0.018 C 
ENDBRANCH   1   8
TORSDOF 1
ENDMDL
