MODEL 1
REMARK minimizedAffinity -3.0565784
REMARK minimizedRMSD -1
REMARK  1 active torsions:
REMARK  status: ('A' for Active; 'I' for Inactive)
REMARK    1  A    between atoms: C1_2  and  C2_3 
ROOT
ATOM      1  C2  UNL d   1      -0.292   0.047  -0.270  0.00  0.00    -0.076 A 
ATOM      2  C3  UNL d   1      -0.179  -1.240   0.284  0.00  0.00     0.004 A 
ATOM      3  C4  UNL d   1       0.851  -2.097  -0.098  0.00  0.00    -0.003 A 
ATOM      4  C5  UNL d   1       1.787  -1.681  -1.039  0.00  0.00     0.000 A 
ATOM      5  C6  UNL d   1       1.701  -0.401  -1.585  0.00  0.00     0.000 A 
ATOM      6  C7  UNL d   1       0.677   0.482  -1.199  0.00  0.00    -0.073 A 
ATOM      7  C8  UNL d   1       0.629   1.849  -1.825  0.00  0.00     0.078 C 
ENDROOT
BRANCH   1   8
ATOM      8  C1  UNL d   1      -1.446   0.923   0.162  0.00  0.00     0.053 C 
ATOM      9  C   UNL d   1      -2.190   0.356   1.362  0.00  0.00     0.018 C 
ENDBRANCH   1   8
TORSDOF 1
ENDMDL
