MODEL 1
REMARK minimizedAffinity -0.824640691
REMARK minimizedRMSD -1
REMARK  1 active torsions:
REMARK  status: ('A' for Active; 'I' for Inactive)
REMARK    1  A    between atoms: C1_2  and  C2_3 
ROOT
ATOM      1  C2  UNL d   1      -1.056   0.342   1.299  0.00  0.00    -0.076 A 
ATOM      2  C3  UNL d   1      -0.100  -0.574   1.771  0.00  0.00     0.004 A 
ATOM      3  C4  UNL d   1       0.510  -1.483   0.909  0.00  0.00    -0.003 A 
ATOM      4  C5  UNL d   1       0.175  -1.491  -0.440  0.00  0.00     0.000 A 
ATOM      5  C6  UNL d   1      -0.758  -0.578  -0.930  0.00  0.00     0.000 A 
ATOM      6  C7  UNL d   1      -1.371   0.356  -0.077  0.00  0.00    -0.073 A 
ATOM      7  C8  UNL d   1      -2.375   1.314  -0.658  0.00  0.00     0.078 C 
ENDROOT
BRANCH   1   8
ATOM      8  C1  UNL d   1      -1.704   1.287   2.285  0.00  0.00     0.053 C 
ATOM      9  C   UNL d   1      -1.935   0.642   3.644  0.00  0.00     0.018 C 
ENDBRANCH   1   8
TORSDOF 1
ENDMDL
