MODEL 1
REMARK minimizedAffinity -4.00991583
REMARK minimizedRMSD -1
REMARK  1 active torsions:
REMARK  status: ('A' for Active; 'I' for Inactive)
REMARK    1  A    between atoms: C1_2  and  C2_3 
ROOT
ATOM      1  C2  UNL d   1      -0.364   0.324   1.573  0.00  0.00    -0.076 A 
ATOM      2  C3  UNL d   1       0.717  -0.422   2.072  0.00  0.00     0.004 A 
ATOM      3  C4  UNL d   1       1.415  -1.309   1.255  0.00  0.00    -0.003 A 
ATOM      4  C5  UNL d   1       1.043  -1.464  -0.076  0.00  0.00     0.000 A 
ATOM      5  C6  UNL d   1      -0.016  -0.719  -0.593  0.00  0.00     0.000 A 
ATOM      6  C7  UNL d   1      -0.720   0.192   0.214  0.00  0.00    -0.073 A 
ATOM      7  C8  UNL d   1      -1.858   0.965  -0.394  0.00  0.00     0.078 C 
ENDROOT
BRANCH   1   8
ATOM      8  C1  UNL d   1      -1.101   1.250   2.514  0.00  0.00     0.053 C 
ATOM      9  C   UNL d   1      -1.638   0.529   3.740  0.00  0.00     0.018 C 
ENDBRANCH   1   8
TORSDOF 1
ENDMDL
