MODEL 1
REMARK minimizedAffinity -4.05274487
REMARK minimizedRMSD -1
REMARK  1 active torsions:
REMARK  status: ('A' for Active; 'I' for Inactive)
REMARK    1  A    between atoms: C1_2  and  C2_3 
ROOT
ATOM      1  C2  UNL d   1      -0.222   0.617   1.643  0.00  0.00    -0.076 A 
ATOM      2  C3  UNL d   1       0.642  -0.285   2.290  0.00  0.00     0.004 A 
ATOM      3  C4  UNL d   1       1.160  -1.390   1.617  0.00  0.00    -0.003 A 
ATOM      4  C5  UNL d   1       0.823  -1.611   0.286  0.00  0.00     0.000 A 
ATOM      5  C6  UNL d   1      -0.018  -0.718  -0.376  0.00  0.00     0.000 A 
ATOM      6  C7  UNL d   1      -0.536   0.410   0.283  0.00  0.00    -0.073 A 
ATOM      7  C8  UNL d   1      -1.444   1.337  -0.478  0.00  0.00     0.078 C 
ENDROOT
BRANCH   1   8
ATOM      8  C1  UNL d   1      -0.774   1.782   2.432  0.00  0.00     0.053 C 
ATOM      9  C   UNL d   1      -2.004   1.406   3.244  0.00  0.00     0.018 C 
ENDBRANCH   1   8
TORSDOF 1
ENDMDL
