MODEL 1
REMARK minimizedAffinity 0.360850513
REMARK minimizedRMSD -1
REMARK  1 active torsions:
REMARK  status: ('A' for Active; 'I' for Inactive)
REMARK    1  A    between atoms: C1_2  and  C2_3 
ROOT
ATOM      1  C2  UNL d   1      -0.163   0.640   2.197  0.00  0.00    -0.076 A 
ATOM      2  C3  UNL d   1      -1.515   1.025   2.204  0.00  0.00     0.004 A 
ATOM      3  C4  UNL d   1      -2.093   1.597   3.336  0.00  0.00    -0.003 A 
ATOM      4  C5  UNL d   1      -1.328   1.793   4.481  0.00  0.00     0.000 A 
ATOM      5  C6  UNL d   1       0.020   1.432   4.486  0.00  0.00     0.000 A 
ATOM      6  C7  UNL d   1       0.621   0.870   3.347  0.00  0.00    -0.073 A 
ATOM      7  C8  UNL d   1       2.077   0.495   3.410  0.00  0.00     0.078 C 
ENDROOT
BRANCH   1   8
ATOM      8  C1  UNL d   1       0.401   0.000   0.948  0.00  0.00     0.053 C 
ATOM      9  C   UNL d   1      -0.490  -1.107   0.407  0.00  0.00     0.018 C 
ENDBRANCH   1   8
TORSDOF 1
ENDMDL
