MODEL 1
REMARK minimizedAffinity -2.91345668
REMARK minimizedRMSD -1
REMARK  1 active torsions:
REMARK  status: ('A' for Active; 'I' for Inactive)
REMARK    1  A    between atoms: C1_2  and  C2_3 
ROOT
ATOM      1  C2  UNL d   1      -0.196   0.541   1.238  0.00  0.00    -0.076 A 
ATOM      2  C3  UNL d   1       0.658  -0.427   1.794  0.00  0.00     0.004 A 
ATOM      3  C4  UNL d   1       1.258  -1.399   0.995  0.00  0.00    -0.003 A 
ATOM      4  C5  UNL d   1       1.014  -1.418  -0.374  0.00  0.00     0.000 A 
ATOM      5  C6  UNL d   1       0.183  -0.454  -0.945  0.00  0.00     0.000 A 
ATOM      6  C7  UNL d   1      -0.417   0.542  -0.156  0.00  0.00    -0.073 A 
ATOM      7  C8  UNL d   1      -1.309   1.552  -0.823  0.00  0.00     0.078 C 
ENDROOT
BRANCH   1   8
ATOM      8  C1  UNL d   1      -0.840   1.553   2.159  0.00  0.00     0.053 C 
ATOM      9  C   UNL d   1      -1.622   0.900   3.288  0.00  0.00     0.018 C 
ENDBRANCH   1   8
TORSDOF 1
ENDMDL
