MODEL 1
REMARK minimizedAffinity 17.1122761
REMARK minimizedRMSD -1
REMARK  0 active torsions:
REMARK  status: ('A' for Active; 'I' for Inactive)
ROOT
ATOM      1  C1  DEN d   1      -4.418   4.252   3.785  0.00  0.00     0.130 A 
ATOM      2  C2  DEN d   1      -5.752   3.887   4.255  0.00  0.00    -0.031 A 
ATOM      3  C3  DEN d   1      -5.887   2.420   4.152  0.00  0.00     0.027 A 
ATOM      4  C4  DEN d   1      -4.168   0.687   3.320  0.00  0.00     0.027 A 
ATOM      5  C5  DEN d   1      -2.900   0.519   2.808  0.00  0.00    -0.003 A 
ATOM      6  C6  DEN d   1      -2.069   1.578   2.555  0.00  0.00     0.001 A 
ATOM      7  C7  DEN d   1      -2.479   2.850   2.857  0.00  0.00     0.017 A 
ATOM      8  C8  DEN d   1      -3.759   3.027   3.367  0.00  0.00    -0.094 A 
ATOM      9  C9  DEN d   1      -4.579   1.943   3.627  0.00  0.00    -0.072 A 
ENDROOT
TORSDOF 0
ENDMDL
