MODEL 1
REMARK minimizedAffinity -4.03324223
REMARK minimizedRMSD -1
REMARK  0 active torsions:
REMARK  status: ('A' for Active; 'I' for Inactive)
ROOT
ATOM      1  C1  DEN d   1       4.043  -3.910  -3.413  0.00  0.00     0.130 A 
ATOM      2  C2  DEN d   1       2.597  -3.875  -3.616  0.00  0.00    -0.031 A 
ATOM      3  C3  DEN d   1       1.947  -4.047  -2.301  0.00  0.00     0.027 A 
ATOM      4  C4  DEN d   1       3.033  -4.355   0.018  0.00  0.00     0.027 A 
ATOM      5  C5  DEN d   1       4.230  -4.461   0.692  0.00  0.00    -0.003 A 
ATOM      6  C6  DEN d   1       5.437  -4.426   0.046  0.00  0.00     0.001 A 
ATOM      7  C7  DEN d   1       5.476  -4.235  -1.310  0.00  0.00     0.017 A 
ATOM      8  C8  DEN d   1       4.274  -4.134  -1.997  0.00  0.00    -0.094 A 
ATOM      9  C9  DEN d   1       3.064  -4.160  -1.325  0.00  0.00    -0.072 A 
ENDROOT
TORSDOF 0
ENDMDL
