MODEL 1
REMARK minimizedAffinity -0.894371152
REMARK minimizedRMSD -1
REMARK  0 active torsions:
REMARK  status: ('A' for Active; 'I' for Inactive)
ROOT
ATOM      1  C1  DEN d   1       0.977   1.861  -0.414  0.00  0.00     0.130 A 
ATOM      2  C2  DEN d   1       2.226   1.642  -1.139  0.00  0.00    -0.031 A 
ATOM      3  C3  DEN d   1       2.765   2.961  -1.528  0.00  0.00     0.027 A 
ATOM      4  C4  DEN d   1       1.797   5.308  -1.074  0.00  0.00     0.027 A 
ATOM      5  C5  DEN d   1       0.750   6.000  -0.506  0.00  0.00    -0.003 A 
ATOM      6  C6  DEN d   1      -0.302   5.365   0.098  0.00  0.00     0.001 A 
ATOM      7  C7  DEN d   1      -0.310   3.998   0.188  0.00  0.00     0.017 A 
ATOM      8  C8  DEN d   1       0.738   3.293  -0.390  0.00  0.00    -0.094 A 
ATOM      9  C9  DEN d   1       1.800   3.954  -0.985  0.00  0.00    -0.072 A 
ENDROOT
TORSDOF 0
ENDMDL
