MODEL 1
REMARK minimizedAffinity 4.53390884
REMARK minimizedRMSD -1
REMARK  0 active torsions:
REMARK  status: ('A' for Active; 'I' for Inactive)
ROOT
ATOM      1  C1  DEN d   1       1.644  -3.036  -0.354  0.00  0.00     0.130 A 
ATOM      2  C2  DEN d   1       0.426  -2.880  -1.144  0.00  0.00    -0.031 A 
ATOM      3  C3  DEN d   1       0.527  -1.611  -1.893  0.00  0.00     0.027 A 
ATOM      4  C4  DEN d   1       2.444   0.115  -1.910  0.00  0.00     0.027 A 
ATOM      5  C5  DEN d   1       3.682   0.423  -1.389  0.00  0.00    -0.003 A 
ATOM      6  C6  DEN d   1       4.307  -0.376  -0.469  0.00  0.00     0.001 A 
ATOM      7  C7  DEN d   1       3.716  -1.548  -0.075  0.00  0.00     0.017 A 
ATOM      8  C8  DEN d   1       2.464  -1.861  -0.590  0.00  0.00    -0.094 A 
ATOM      9  C9  DEN d   1       1.854  -1.046  -1.528  0.00  0.00    -0.072 A 
ENDROOT
TORSDOF 0
ENDMDL
