MODEL 1
REMARK minimizedAffinity 10.083499
REMARK minimizedRMSD -1
REMARK  0 active torsions:
REMARK  status: ('A' for Active; 'I' for Inactive)
ROOT
ATOM      1  C1  DEN d   1       2.778  -1.040  -1.290  0.00  0.00     0.130 A 
ATOM      2  C2  DEN d   1       3.601  -0.574  -0.177  0.00  0.00    -0.031 A 
ATOM      3  C3  DEN d   1       3.652   0.901  -0.232  0.00  0.00     0.027 A 
ATOM      4  C4  DEN d   1       2.538   2.500  -1.921  0.00  0.00     0.027 A 
ATOM      5  C5  DEN d   1       1.750   2.571  -3.049  0.00  0.00    -0.003 A 
ATOM      6  C6  DEN d   1       1.282   1.451  -3.685  0.00  0.00     0.001 A 
ATOM      7  C7  DEN d   1       1.560   0.213  -3.170  0.00  0.00     0.017 A 
ATOM      8  C8  DEN d   1       2.360   0.133  -2.037  0.00  0.00    -0.094 A 
ATOM      9  C9  DEN d   1       2.813   1.277  -1.402  0.00  0.00    -0.072 A 
ENDROOT
TORSDOF 0
ENDMDL
