MODEL 1
REMARK minimizedAffinity -0.124887832
REMARK minimizedRMSD -1
REMARK  0 active torsions:
REMARK  status: ('A' for Active; 'I' for Inactive)
ROOT
ATOM      1  C1  DEN d   1       1.449  -0.420  -0.593  0.00  0.00     0.130 A 
ATOM      2  C2  DEN d   1       2.311  -1.081  -1.568  0.00  0.00    -0.031 A 
ATOM      3  C3  DEN d   1       2.899  -0.041  -2.437  0.00  0.00     0.027 A 
ATOM      4  C4  DEN d   1       2.563   2.515  -2.362  0.00  0.00     0.027 A 
ATOM      5  C5  DEN d   1       1.913   3.544  -1.717  0.00  0.00    -0.003 A 
ATOM      6  C6  DEN d   1       1.044   3.322  -0.681  0.00  0.00     0.001 A 
ATOM      7  C7  DEN d   1       0.835   2.045  -0.231  0.00  0.00     0.017 A 
ATOM      8  C8  DEN d   1       1.481   1.003  -0.882  0.00  0.00    -0.094 A 
ATOM      9  C9  DEN d   1       2.366   1.248  -1.919  0.00  0.00    -0.072 A 
ENDROOT
TORSDOF 0
ENDMDL
