MODEL 1
REMARK minimizedAffinity 8.34802914
REMARK minimizedRMSD -1
REMARK  0 active torsions:
REMARK  status: ('A' for Active; 'I' for Inactive)
ROOT
ATOM      1  C1  DEN d   1      -0.020  -2.086  -2.628  0.00  0.00     0.130 A 
ATOM      2  C2  DEN d   1      -0.043  -3.016  -1.502  0.00  0.00    -0.031 A 
ATOM      3  C3  DEN d   1       0.953  -2.559  -0.512  0.00  0.00     0.027 A 
ATOM      4  C4  DEN d   1       2.516  -0.510  -0.610  0.00  0.00     0.027 A 
ATOM      5  C5  DEN d   1       2.906   0.570  -1.372  0.00  0.00    -0.003 A 
ATOM      6  C6  DEN d   1       2.376   0.818  -2.611  0.00  0.00     0.001 A 
ATOM      7  C7  DEN d   1       1.394   0.002  -3.105  0.00  0.00     0.017 A 
ATOM      8  C8  DEN d   1       1.001  -1.093  -2.346  0.00  0.00    -0.094 A 
ATOM      9  C9  DEN d   1       1.540  -1.320  -1.091  0.00  0.00    -0.072 A 
ENDROOT
TORSDOF 0
ENDMDL
