MODEL 1
REMARK minimizedAffinity 18.3032761
REMARK minimizedRMSD -1
REMARK  0 active torsions:
REMARK  status: ('A' for Active; 'I' for Inactive)
ROOT
ATOM      1  C1  DEN d   1      -0.456   0.883   2.245  0.00  0.00     0.130 A 
ATOM      2  C2  DEN d   1      -0.139   1.424   3.564  0.00  0.00    -0.031 A 
ATOM      3  C3  DEN d   1       1.318   1.660   3.622  0.00  0.00     0.027 A 
ATOM      4  C4  DEN d   1       3.103   1.245   1.807  0.00  0.00     0.027 A 
ATOM      5  C5  DEN d   1       3.316   0.784   0.526  0.00  0.00    -0.003 A 
ATOM      6  C6  DEN d   1       2.300   0.296  -0.252  0.00  0.00     0.001 A 
ATOM      7  C7  DEN d   1       1.016   0.299   0.226  0.00  0.00     0.017 A 
ATOM      8  C8  DEN d   1       0.795   0.756   1.519  0.00  0.00    -0.094 A 
ATOM      9  C9  DEN d   1       1.833   1.257   2.286  0.00  0.00    -0.072 A 
ENDROOT
TORSDOF 0
ENDMDL
