MODEL 1
REMARK minimizedAffinity 2.93136811
REMARK minimizedRMSD -1
REMARK  0 active torsions:
REMARK  status: ('A' for Active; 'I' for Inactive)
ROOT
ATOM      1  C1  DEN d   1       2.386   2.778  -1.385  0.00  0.00     0.130 A 
ATOM      2  C2  DEN d   1       1.491   1.649  -1.622  0.00  0.00    -0.031 A 
ATOM      3  C3  DEN d   1       0.123   2.065  -1.253  0.00  0.00     0.027 A 
ATOM      4  C4  DEN d   1      -0.692   4.339  -0.347  0.00  0.00     0.027 A 
ATOM      5  C5  DEN d   1      -0.297   5.603   0.031  0.00  0.00    -0.003 A 
ATOM      6  C6  DEN d   1       1.013   6.000  -0.004  0.00  0.00     0.001 A 
ATOM      7  C7  DEN d   1       1.971   5.138  -0.469  0.00  0.00     0.017 A 
ATOM      8  C8  DEN d   1       1.582   3.859  -0.845  0.00  0.00    -0.094 A 
ATOM      9  C9  DEN d   1       0.251   3.481  -0.813  0.00  0.00    -0.072 A 
ENDROOT
TORSDOF 0
ENDMDL
