MODEL 1
REMARK minimizedAffinity 8.00911903
REMARK minimizedRMSD -1
REMARK  0 active torsions:
REMARK  status: ('A' for Active; 'I' for Inactive)
ROOT
ATOM      1  C1  DEN d   1      -2.506  -4.436   2.619  0.00  0.00     0.130 A 
ATOM      2  C2  DEN d   1      -3.000  -5.647   1.970  0.00  0.00    -0.031 A 
ATOM      3  C3  DEN d   1      -4.448  -5.481   1.735  0.00  0.00     0.027 A 
ATOM      4  C4  DEN d   1      -5.964  -3.474   2.306  0.00  0.00     0.027 A 
ATOM      5  C5  DEN d   1      -6.000  -2.219   2.874  0.00  0.00    -0.003 A 
ATOM      6  C6  DEN d   1      -4.890  -1.635   3.423  0.00  0.00     0.001 A 
ATOM      7  C7  DEN d   1      -3.686  -2.287   3.375  0.00  0.00     0.017 A 
ATOM      8  C8  DEN d   1      -3.643  -3.555   2.811  0.00  0.00    -0.094 A 
ATOM      9  C9  DEN d   1      -4.774  -4.124   2.250  0.00  0.00    -0.072 A 
ENDROOT
TORSDOF 0
ENDMDL
