MODEL 1
REMARK minimizedAffinity -2.16855383
REMARK minimizedRMSD -1
REMARK  0 active torsions:
REMARK  status: ('A' for Active; 'I' for Inactive)
ROOT
ATOM      1  C1  DEN d   1      -5.730   4.451  -5.923  0.00  0.00     0.130 A 
ATOM      2  C2  DEN d   1      -5.401   5.872  -5.998  0.00  0.00    -0.031 A 
ATOM      3  C3  DEN d   1      -3.929   6.000  -5.999  0.00  0.00     0.027 A 
ATOM      4  C4  DEN d   1      -2.139   4.146  -5.896  0.00  0.00     0.027 A 
ATOM      5  C5  DEN d   1      -1.935   2.787  -5.811  0.00  0.00    -0.003 A 
ATOM      6  C6  DEN d   1      -2.972   1.896  -5.724  0.00  0.00     0.001 A 
ATOM      7  C7  DEN d   1      -4.263   2.352  -5.765  0.00  0.00     0.017 A 
ATOM      8  C8  DEN d   1      -4.477   3.722  -5.843  0.00  0.00    -0.094 A 
ATOM      9  C9  DEN d   1      -3.415   4.605  -5.943  0.00  0.00    -0.072 A 
ENDROOT
TORSDOF 0
ENDMDL
