MODEL 1
REMARK minimizedAffinity 22.2031422
REMARK minimizedRMSD -1
REMARK  0 active torsions:
REMARK  status: ('A' for Active; 'I' for Inactive)
ROOT
ATOM      1  C1  DEN d   1       1.911   1.599   0.268  0.00  0.00     0.130 A 
ATOM      2  C2  DEN d   1       2.802   1.296   1.385  0.00  0.00    -0.031 A 
ATOM      3  C3  DEN d   1       3.260  -0.100   1.236  0.00  0.00     0.027 A 
ATOM      4  C4  DEN d   1       2.685  -1.810  -0.607  0.00  0.00     0.027 A 
ATOM      5  C5  DEN d   1       1.961  -2.016  -1.760  0.00  0.00    -0.003 A 
ATOM      6  C6  DEN d   1       1.149  -1.052  -2.295  0.00  0.00     0.001 A 
ATOM      7  C7  DEN d   1       1.077   0.181  -1.701  0.00  0.00     0.017 A 
ATOM      8  C8  DEN d   1       1.799   0.394  -0.534  0.00  0.00    -0.094 A 
ATOM      9  C9  DEN d   1       2.623  -0.590  -0.015  0.00  0.00    -0.072 A 
ENDROOT
TORSDOF 0
ENDMDL
