MODEL 1
REMARK minimizedAffinity 12.4863482
REMARK minimizedRMSD -1
REMARK  0 active torsions:
REMARK  status: ('A' for Active; 'I' for Inactive)
ROOT
ATOM      1  C1  DEN d   1      -1.428  -5.891  -2.071  0.00  0.00     0.130 A 
ATOM      2  C2  DEN d   1      -1.351  -5.326  -0.727  0.00  0.00    -0.031 A 
ATOM      3  C3  DEN d   1      -1.595  -3.873  -0.828  0.00  0.00     0.027 A 
ATOM      4  C4  DEN d   1      -2.088  -2.453  -2.924  0.00  0.00     0.027 A 
ATOM      5  C5  DEN d   1      -2.242  -2.487  -4.293  0.00  0.00    -0.003 A 
ATOM      6  C6  DEN d   1      -2.104  -3.643  -5.014  0.00  0.00     0.001 A 
ATOM      7  C7  DEN d   1      -1.846  -4.821  -4.366  0.00  0.00     0.017 A 
ATOM      8  C8  DEN d   1      -1.682  -4.794  -2.987  0.00  0.00    -0.094 A 
ATOM      9  C9  DEN d   1      -1.838  -3.617  -2.274  0.00  0.00    -0.072 A 
ENDROOT
TORSDOF 0
ENDMDL
