MODEL 1
REMARK minimizedAffinity 9.15170383
REMARK minimizedRMSD -1
REMARK  0 active torsions:
REMARK  status: ('A' for Active; 'I' for Inactive)
ROOT
ATOM      1  C1  DEN d   1       0.956   2.343  -2.890  0.00  0.00     0.130 A 
ATOM      2  C2  DEN d   1       1.326   3.512  -2.097  0.00  0.00    -0.031 A 
ATOM      3  C3  DEN d   1       2.222   3.062  -1.013  0.00  0.00     0.027 A 
ATOM      4  C4  DEN d   1       3.071   0.683  -0.490  0.00  0.00     0.027 A 
ATOM      5  C5  DEN d   1       3.018  -0.638  -0.878  0.00  0.00    -0.003 A 
ATOM      6  C6  DEN d   1       2.254  -1.059  -1.933  0.00  0.00     0.001 A 
ATOM      7  C7  DEN d   1       1.546  -0.144  -2.667  0.00  0.00     0.017 A 
ATOM      8  C8  DEN d   1       1.588   1.188  -2.278  0.00  0.00    -0.094 A 
ATOM      9  C9  DEN d   1       2.377   1.596  -1.215  0.00  0.00    -0.072 A 
ENDROOT
TORSDOF 0
ENDMDL
