MODEL 1
REMARK minimizedAffinity 7.07771587
REMARK minimizedRMSD -1
REMARK  0 active torsions:
REMARK  status: ('A' for Active; 'I' for Inactive)
ROOT
ATOM      1  C1  DEN d   1      -2.144  -5.259  -2.482  0.00  0.00     0.130 A 
ATOM      2  C2  DEN d   1      -1.055  -4.529  -1.838  0.00  0.00    -0.031 A 
ATOM      3  C3  DEN d   1      -0.686  -3.396  -2.711  0.00  0.00     0.027 A 
ATOM      4  C4  DEN d   1      -1.693  -2.703  -4.982  0.00  0.00     0.027 A 
ATOM      5  C5  DEN d   1      -2.631  -3.023  -5.939  0.00  0.00    -0.003 A 
ATOM      6  C6  DEN d   1      -3.442  -4.121  -5.828  0.00  0.00     0.001 A 
ATOM      7  C7  DEN d   1      -3.362  -4.914  -4.713  0.00  0.00     0.017 A 
ATOM      8  C8  DEN d   1      -2.414  -4.602  -3.748  0.00  0.00    -0.094 A 
ATOM      9  C9  DEN d   1      -1.612  -3.480  -3.873  0.00  0.00    -0.072 A 
ENDROOT
TORSDOF 0
ENDMDL
