MODEL 1
REMARK minimizedAffinity 13.2030745
REMARK minimizedRMSD -1
REMARK  0 active torsions:
REMARK  status: ('A' for Active; 'I' for Inactive)
ROOT
ATOM      1  C1  DEN d   1      -1.594  -0.974   4.774  0.00  0.00     0.130 A 
ATOM      2  C2  DEN d   1      -0.154  -0.731   4.762  0.00  0.00    -0.031 A 
ATOM      3  C3  DEN d   1       0.469  -1.728   3.869  0.00  0.00     0.027 A 
ATOM      4  C4  DEN d   1      -0.650  -3.611   2.508  0.00  0.00     0.027 A 
ATOM      5  C5  DEN d   1      -1.849  -4.218   2.206  0.00  0.00    -0.003 A 
ATOM      6  C6  DEN d   1      -3.033  -3.811   2.761  0.00  0.00     0.001 A 
ATOM      7  C7  DEN d   1      -3.050  -2.738   3.613  0.00  0.00     0.017 A 
ATOM      8  C8  DEN d   1      -1.844  -2.126   3.927  0.00  0.00    -0.094 A 
ATOM      9  C9  DEN d   1      -0.659  -2.545   3.346  0.00  0.00    -0.072 A 
ENDROOT
TORSDOF 0
ENDMDL
