MODEL 1
REMARK minimizedAffinity 8.23165894
REMARK minimizedRMSD -1
REMARK  0 active torsions:
REMARK  status: ('A' for Active; 'I' for Inactive)
ROOT
ATOM      1  C1  DEN d   1       1.632   2.941  -2.772  0.00  0.00     0.130 A 
ATOM      2  C2  DEN d   1       1.568   1.614  -2.167  0.00  0.00    -0.031 A 
ATOM      3  C3  DEN d   1       1.528   1.782  -0.700  0.00  0.00     0.027 A 
ATOM      4  C4  DEN d   1       1.555   3.958   0.684  0.00  0.00     0.027 A 
ATOM      5  C5  DEN d   1       1.616   5.332   0.614  0.00  0.00    -0.003 A 
ATOM      6  C6  DEN d   1       1.720   5.999  -0.578  0.00  0.00     0.001 A 
ATOM      7  C7  DEN d   1       1.720   5.293  -1.752  0.00  0.00     0.017 A 
ATOM      8  C8  DEN d   1       1.667   3.907  -1.689  0.00  0.00    -0.094 A 
ATOM      9  C9  DEN d   1       1.550   3.252  -0.475  0.00  0.00    -0.072 A 
ENDROOT
TORSDOF 0
ENDMDL
