MODEL 1
REMARK minimizedAffinity 6.0230608
REMARK minimizedRMSD -1
REMARK  0 active torsions:
REMARK  status: ('A' for Active; 'I' for Inactive)
ROOT
ATOM      1  C1  DEN d   1      -2.919  -3.554   2.042  0.00  0.00     0.130 A 
ATOM      2  C2  DEN d   1      -2.382  -3.061   3.307  0.00  0.00    -0.031 A 
ATOM      3  C3  DEN d   1      -0.963  -2.711   3.095  0.00  0.00     0.027 A 
ATOM      4  C4  DEN d   1       0.445  -2.880   0.940  0.00  0.00     0.027 A 
ATOM      5  C5  DEN d   1       0.427  -3.252  -0.386  0.00  0.00    -0.003 A 
ATOM      6  C6  DEN d   1      -0.689  -3.778  -0.982  0.00  0.00     0.001 A 
ATOM      7  C7  DEN d   1      -1.847  -3.905  -0.262  0.00  0.00     0.017 A 
ATOM      8  C8  DEN d   1      -1.835  -3.539   1.078  0.00  0.00    -0.094 A 
ATOM      9  C9  DEN d   1      -0.701  -2.998   1.658  0.00  0.00    -0.072 A 
ENDROOT
TORSDOF 0
ENDMDL
