MODEL 1
REMARK minimizedAffinity -1.06570208
REMARK minimizedRMSD -1
REMARK  0 active torsions:
REMARK  status: ('A' for Active; 'I' for Inactive)
ROOT
ATOM      1  C1  BNZ d   1      -0.739   0.263  -0.640  0.00  0.00     0.000 A 
ATOM      2  C2  BNZ d   1       0.297  -0.446  -0.091  0.00  0.00     0.000 A 
ATOM      3  C3  BNZ d   1       1.255   0.180   0.656  0.00  0.00     0.000 A 
ATOM      4  C4  BNZ d   1       1.200   1.517   0.820  0.00  0.00     0.000 A 
ATOM      5  C5  BNZ d   1       0.168   2.247   0.265  0.00  0.00     0.000 A 
ATOM      6  C6  BNZ d   1      -0.817   1.609  -0.453  0.00  0.00     0.000 A 
ENDROOT
TORSDOF 0
ENDMDL
