MODEL 1
REMARK minimizedAffinity -0.158589765
REMARK minimizedRMSD -1
REMARK  0 active torsions:
REMARK  status: ('A' for Active; 'I' for Inactive)
ROOT
ATOM      1  C1  BNZ d   1      -4.864   4.291  -4.693  0.00  0.00     0.000 A 
ATOM      2  C2  BNZ d   1      -4.143   3.130  -4.780  0.00  0.00     0.000 A 
ATOM      3  C3  BNZ d   1      -4.277   2.151  -3.835  0.00  0.00     0.000 A 
ATOM      4  C4  BNZ d   1      -5.099   2.351  -2.785  0.00  0.00     0.000 A 
ATOM      5  C5  BNZ d   1      -5.825   3.520  -2.678  0.00  0.00     0.000 A 
ATOM      6  C6  BNZ d   1      -5.718   4.487  -3.651  0.00  0.00     0.000 A 
ENDROOT
TORSDOF 0
ENDMDL
