MODEL 1
REMARK minimizedAffinity 0.515326083
REMARK minimizedRMSD -1
REMARK  0 active torsions:
REMARK  status: ('A' for Active; 'I' for Inactive)
ROOT
ATOM      1  C1  BNZ d   1      -2.062   2.569   1.156  0.00  0.00     0.000 A 
ATOM      2  C2  BNZ d   1      -2.229   1.514   0.300  0.00  0.00     0.000 A 
ATOM      3  C3  BNZ d   1      -3.429   0.864   0.215  0.00  0.00     0.000 A 
ATOM      4  C4  BNZ d   1      -4.447   1.245   1.013  0.00  0.00     0.000 A 
ATOM      5  C5  BNZ d   1      -4.292   2.302   1.888  0.00  0.00     0.000 A 
ATOM      6  C6  BNZ d   1      -3.094   2.978   1.943  0.00  0.00     0.000 A 
ENDROOT
TORSDOF 0
ENDMDL
