MODEL 1
REMARK minimizedAffinity 4.1325407
REMARK minimizedRMSD -1
REMARK  0 active torsions:
REMARK  status: ('A' for Active; 'I' for Inactive)
ROOT
ATOM      1  C1  BNZ d   1       3.490  -1.501   1.041  0.00  0.00     0.000 A 
ATOM      2  C2  BNZ d   1       3.328  -0.312   1.700  0.00  0.00     0.000 A 
ATOM      3  C3  BNZ d   1       2.621   0.711   1.133  0.00  0.00     0.000 A 
ATOM      4  C4  BNZ d   1       2.111   0.558  -0.106  0.00  0.00     0.000 A 
ATOM      5  C5  BNZ d   1       2.273  -0.632  -0.787  0.00  0.00     0.000 A 
ATOM      6  C6  BNZ d   1       2.953  -1.673  -0.197  0.00  0.00     0.000 A 
ENDROOT
TORSDOF 0
ENDMDL
