MODEL 1
REMARK minimizedAffinity -0.55022949
REMARK minimizedRMSD -1
REMARK  0 active torsions:
REMARK  status: ('A' for Active; 'I' for Inactive)
ROOT
ATOM      1  C1  BNZ d   1      -3.182   1.496   1.732  0.00  0.00     0.000 A 
ATOM      2  C2  BNZ d   1      -4.525   1.245   1.635  0.00  0.00     0.000 A 
ATOM      3  C3  BNZ d   1      -5.039   0.597   0.547  0.00  0.00     0.000 A 
ATOM      4  C4  BNZ d   1      -4.218   0.236  -0.460  0.00  0.00     0.000 A 
ATOM      5  C5  BNZ d   1      -2.863   0.491  -0.382  0.00  0.00     0.000 A 
ATOM      6  C6  BNZ d   1      -2.343   1.109   0.733  0.00  0.00     0.000 A 
ENDROOT
TORSDOF 0
ENDMDL
