MODEL 1
REMARK minimizedAffinity 1.81723905
REMARK minimizedRMSD -1
REMARK  0 active torsions:
REMARK  status: ('A' for Active; 'I' for Inactive)
ROOT
ATOM      1  C1  BNZ d   1       3.716  -1.109   0.866  0.00  0.00     0.000 A 
ATOM      2  C2  BNZ d   1       3.591   0.200   1.251  0.00  0.00     0.000 A 
ATOM      3  C3  BNZ d   1       2.642   1.007   0.688  0.00  0.00     0.000 A 
ATOM      4  C4  BNZ d   1       1.847   0.517  -0.286  0.00  0.00     0.000 A 
ATOM      5  C5  BNZ d   1       1.968  -0.797  -0.691  0.00  0.00     0.000 A 
ATOM      6  C6  BNZ d   1       2.897  -1.618  -0.095  0.00  0.00     0.000 A 
ENDROOT
TORSDOF 0
ENDMDL
