MODEL 1
REMARK minimizedAffinity 2.1896987
REMARK minimizedRMSD -1
REMARK  0 active torsions:
REMARK  status: ('A' for Active; 'I' for Inactive)
ROOT
ATOM      1  C1  BNZ d   1      -4.713   2.761  -4.227  0.00  0.00     0.000 A 
ATOM      2  C2  BNZ d   1      -4.555   2.096  -5.414  0.00  0.00     0.000 A 
ATOM      3  C3  BNZ d   1      -4.513   0.730  -5.450  0.00  0.00     0.000 A 
ATOM      4  C4  BNZ d   1      -4.589   0.033  -4.298  0.00  0.00     0.000 A 
ATOM      5  C5  BNZ d   1      -4.739   0.690  -3.093  0.00  0.00     0.000 A 
ATOM      6  C6  BNZ d   1      -4.820   2.063  -3.064  0.00  0.00     0.000 A 
ENDROOT
TORSDOF 0
ENDMDL
