MODEL 1
REMARK minimizedAffinity 0.00174052769
REMARK minimizedRMSD -1
REMARK  0 active torsions:
REMARK  status: ('A' for Active; 'I' for Inactive)
ROOT
ATOM      1  C1  BNZ d   1       1.860  -2.146  -0.068  0.00  0.00     0.000 A 
ATOM      2  C2  BNZ d   1       1.038  -3.161   0.342  0.00  0.00     0.000 A 
ATOM      3  C3  BNZ d   1      -0.047  -3.529  -0.405  0.00  0.00     0.000 A 
ATOM      4  C4  BNZ d   1      -0.330  -2.855  -1.538  0.00  0.00     0.000 A 
ATOM      5  C5  BNZ d   1       0.484  -1.823  -1.960  0.00  0.00     0.000 A 
ATOM      6  C6  BNZ d   1       1.597  -1.481  -1.226  0.00  0.00     0.000 A 
ENDROOT
TORSDOF 0
ENDMDL
