MODEL 1
REMARK minimizedAffinity 1.06781542
REMARK minimizedRMSD -1
REMARK  0 active torsions:
REMARK  status: ('A' for Active; 'I' for Inactive)
ROOT
ATOM      1  C1  BNZ d   1       1.190  -2.328  -0.752  0.00  0.00     0.000 A 
ATOM      2  C2  BNZ d   1       1.848  -1.157  -1.021  0.00  0.00     0.000 A 
ATOM      3  C3  BNZ d   1       2.811  -0.685  -0.174  0.00  0.00     0.000 A 
ATOM      4  C4  BNZ d   1       3.087  -1.362   0.960  0.00  0.00     0.000 A 
ATOM      5  C5  BNZ d   1       2.426  -2.539   1.249  0.00  0.00     0.000 A 
ATOM      6  C6  BNZ d   1       1.485  -3.032   0.375  0.00  0.00     0.000 A 
ENDROOT
TORSDOF 0
ENDMDL
