MODEL 1
REMARK minimizedAffinity 9.68167114
REMARK minimizedRMSD -1
REMARK  0 active torsions:
REMARK  status: ('A' for Active; 'I' for Inactive)
ROOT
ATOM      1  C1  BNZ d   1      -5.894   2.347  -1.974  0.00  0.00     0.000 A 
ATOM      2  C2  BNZ d   1      -5.493   1.158  -2.522  0.00  0.00     0.000 A 
ATOM      3  C3  BNZ d   1      -4.830   1.126  -3.717  0.00  0.00     0.000 A 
ATOM      4  C4  BNZ d   1      -4.605   2.277  -4.381  0.00  0.00     0.000 A 
ATOM      5  C5  BNZ d   1      -5.012   3.484  -3.847  0.00  0.00     0.000 A 
ATOM      6  C6  BNZ d   1      -5.644   3.516  -2.625  0.00  0.00     0.000 A 
ENDROOT
TORSDOF 0
ENDMDL
