MODEL 1
REMARK minimizedAffinity 6.83482361
REMARK minimizedRMSD -1
REMARK  0 active torsions:
REMARK  status: ('A' for Active; 'I' for Inactive)
ROOT
ATOM      1  C   UNL d   1       1.513   0.467  -4.742  0.00  0.00     0.124 A 
ATOM      2  C1  UNL d   1       1.959   1.176  -3.635  0.00  0.00     0.062 A 
ATOM      3  C2  UNL d   1       1.391   0.953  -2.384  0.00  0.00     0.162 A 
ATOM      4  C3  UNL d   1       0.370   0.014  -2.233  0.00  0.00    -0.034 A 
ATOM      5  C4  UNL d   1      -0.073  -0.696  -3.350  0.00  0.00     0.162 A 
ATOM      6  C5  UNL d   1       0.498  -0.469  -4.598  0.00  0.00     0.062 A 
ATOM      7  F   UNL d   1       0.066  -1.155  -5.666  0.00  0.00    -0.097 F 
ATOM      8  F1  UNL d   1      -1.052  -1.606  -3.240  0.00  0.00    -0.096 F 
ATOM      9  I   UNL d   1      -0.482  -0.324  -0.365  0.00  0.00    -0.060 I 
ATOM     10  F2  UNL d   1       1.841   1.653  -1.333  0.00  0.00    -0.096 F 
ATOM     11  F3  UNL d   1       2.939   2.081  -3.771  0.00  0.00    -0.097 F 
ATOM     12  F4  UNL d   1       2.061   0.684  -5.944  0.00  0.00    -0.092 F 
ENDROOT
TORSDOF 0
ENDMDL
