MODEL 1
REMARK minimizedAffinity 4.76554394
REMARK minimizedRMSD -1
REMARK  0 active torsions:
REMARK  status: ('A' for Active; 'I' for Inactive)
ROOT
ATOM      1  C   UNL d   1       0.301   1.142   2.571  0.00  0.00     0.124 A 
ATOM      2  C1  UNL d   1      -0.541   1.814   1.695  0.00  0.00     0.062 A 
ATOM      3  C2  UNL d   1      -0.590   1.450   0.353  0.00  0.00     0.162 A 
ATOM      4  C3  UNL d   1       0.206   0.408  -0.123  0.00  0.00    -0.034 A 
ATOM      5  C4  UNL d   1       1.052  -0.262   0.763  0.00  0.00     0.162 A 
ATOM      6  C5  UNL d   1       1.097   0.105   2.104  0.00  0.00     0.062 A 
ATOM      7  F   UNL d   1       1.911  -0.544   2.949  0.00  0.00    -0.097 F 
ATOM      8  F1  UNL d   1       1.831  -1.269   0.340  0.00  0.00    -0.096 F 
ATOM      9  I   UNL d   1       0.137  -0.140  -2.130  0.00  0.00    -0.060 I 
ATOM     10  F2  UNL d   1      -1.413   2.116  -0.471  0.00  0.00    -0.096 F 
ATOM     11  F3  UNL d   1      -1.310   2.817   2.143  0.00  0.00    -0.097 F 
ATOM     12  F4  UNL d   1       0.346   1.496   3.862  0.00  0.00    -0.092 F 
ENDROOT
TORSDOF 0
ENDMDL
