MODEL 1
REMARK minimizedAffinity 2.66504645
REMARK minimizedRMSD -1
REMARK  0 active torsions:
REMARK  status: ('A' for Active; 'I' for Inactive)
ROOT
ATOM      1  C   UNL d   1      -1.462  -1.166  -0.550  0.00  0.00     0.124 A 
ATOM      2  C1  UNL d   1      -0.583  -0.178  -0.127  0.00  0.00     0.062 A 
ATOM      3  C2  UNL d   1       0.433   0.262  -0.970  0.00  0.00     0.162 A 
ATOM      4  C3  UNL d   1       0.576  -0.284  -2.245  0.00  0.00    -0.034 A 
ATOM      5  C4  UNL d   1      -0.310  -1.278  -2.664  0.00  0.00     0.162 A 
ATOM      6  C5  UNL d   1      -1.325  -1.715  -1.818  0.00  0.00     0.062 A 
ATOM      7  F   UNL d   1      -2.172  -2.669  -2.228  0.00  0.00    -0.097 F 
ATOM      8  F1  UNL d   1      -0.202  -1.824  -3.883  0.00  0.00    -0.096 F 
ATOM      9  I   UNL d   1       2.095   0.372  -3.508  0.00  0.00    -0.060 I 
ATOM     10  F2  UNL d   1       1.268   1.218  -0.535  0.00  0.00    -0.096 F 
ATOM     11  F3  UNL d   1      -0.713   0.352   1.097  0.00  0.00    -0.097 F 
ATOM     12  F4  UNL d   1      -2.438  -1.589   0.263  0.00  0.00    -0.092 F 
ENDROOT
TORSDOF 0
ENDMDL
