MODEL 1
REMARK minimizedAffinity -1.70475066
REMARK minimizedRMSD -1
REMARK  0 active torsions:
REMARK  status: ('A' for Active; 'I' for Inactive)
ROOT
ATOM      1  C   UNL d   1      -0.574   0.913   2.278  0.00  0.00     0.124 A 
ATOM      2  C1  UNL d   1      -1.784   0.440   1.789  0.00  0.00     0.062 A 
ATOM      3  C2  UNL d   1      -1.816  -0.345   0.641  0.00  0.00     0.162 A 
ATOM      4  C3  UNL d   1      -0.633  -0.664  -0.027  0.00  0.00    -0.034 A 
ATOM      5  C4  UNL d   1       0.579  -0.184   0.470  0.00  0.00     0.162 A 
ATOM      6  C5  UNL d   1       0.606   0.601   1.619  0.00  0.00     0.062 A 
ATOM      7  F   UNL d   1       1.776   1.057   2.090  0.00  0.00    -0.097 F 
ATOM      8  F1  UNL d   1       1.735  -0.472  -0.147  0.00  0.00    -0.096 F 
ATOM      9  I   UNL d   1      -0.677  -1.839  -1.744  0.00  0.00    -0.060 I 
ATOM     10  F2  UNL d   1      -2.999  -0.789   0.191  0.00  0.00    -0.096 F 
ATOM     11  F3  UNL d   1      -2.926   0.742   2.424  0.00  0.00    -0.097 F 
ATOM     12  F4  UNL d   1      -0.547   1.670   3.383  0.00  0.00    -0.092 F 
ENDROOT
TORSDOF 0
ENDMDL
