MODEL 1
REMARK minimizedAffinity -3.45113325
REMARK minimizedRMSD -1
REMARK  0 active torsions:
REMARK  status: ('A' for Active; 'I' for Inactive)
ROOT
ATOM      1  C   UNL d   1       0.777   0.867   3.053  0.00  0.00     0.124 A 
ATOM      2  C1  UNL d   1       1.599   0.026   2.316  0.00  0.00     0.062 A 
ATOM      3  C2  UNL d   1       1.127  -0.567   1.149  0.00  0.00     0.162 A 
ATOM      4  C3  UNL d   1      -0.174  -0.321   0.710  0.00  0.00    -0.034 A 
ATOM      5  C4  UNL d   1      -0.995   0.525   1.457  0.00  0.00     0.162 A 
ATOM      6  C5  UNL d   1      -0.519   1.115   2.624  0.00  0.00     0.062 A 
ATOM      7  F   UNL d   1      -1.315   1.927   3.335  0.00  0.00    -0.097 F 
ATOM      8  F1  UNL d   1      -2.251   0.783   1.065  0.00  0.00    -0.096 F 
ATOM      9  I   UNL d   1      -0.883  -1.206  -1.035  0.00  0.00    -0.060 I 
ATOM     10  F2  UNL d   1       1.944  -1.375   0.456  0.00  0.00    -0.096 F 
ATOM     11  F3  UNL d   1       2.851  -0.217   2.730  0.00  0.00    -0.097 F 
ATOM     12  F4  UNL d   1       1.233   1.435   4.177  0.00  0.00    -0.092 F 
ENDROOT
TORSDOF 0
ENDMDL
