MODEL 1
REMARK minimizedAffinity -1.20506084
REMARK minimizedRMSD -1
REMARK  0 active torsions:
REMARK  status: ('A' for Active; 'I' for Inactive)
ROOT
ATOM      1  C   UNL d   1      -0.845  -1.973  -2.351  0.00  0.00     0.124 A 
ATOM      2  C1  UNL d   1       0.183  -1.041  -2.347  0.00  0.00     0.062 A 
ATOM      3  C2  UNL d   1       0.367  -0.206  -1.249  0.00  0.00     0.162 A 
ATOM      4  C3  UNL d   1      -0.478  -0.301  -0.143  0.00  0.00    -0.034 A 
ATOM      5  C4  UNL d   1      -1.511  -1.241  -0.155  0.00  0.00     0.162 A 
ATOM      6  C5  UNL d   1      -1.690  -2.073  -1.256  0.00  0.00     0.062 A 
ATOM      7  F   UNL d   1      -2.684  -2.973  -1.258  0.00  0.00    -0.097 F 
ATOM      8  F1  UNL d   1      -2.342  -1.359   0.891  0.00  0.00    -0.096 F 
ATOM      9  I   UNL d   1      -0.206   0.944   1.501  0.00  0.00    -0.060 I 
ATOM     10  F2  UNL d   1       1.369   0.685  -1.272  0.00  0.00    -0.096 F 
ATOM     11  F3  UNL d   1       1.001  -0.942  -3.405  0.00  0.00    -0.097 F 
ATOM     12  F4  UNL d   1      -1.020  -2.774  -3.410  0.00  0.00    -0.092 F 
ENDROOT
TORSDOF 0
ENDMDL
