MODEL 1
REMARK minimizedAffinity -0.0635102019
REMARK minimizedRMSD -1
REMARK  0 active torsions:
REMARK  status: ('A' for Active; 'I' for Inactive)
ROOT
ATOM      1  C   UNL d   1       0.150   0.681   0.806  0.00  0.00     0.124 A 
ATOM      2  C1  UNL d   1       0.486   0.041  -0.379  0.00  0.00     0.062 A 
ATOM      3  C2  UNL d   1      -0.391  -0.874  -0.954  0.00  0.00     0.162 A 
ATOM      4  C3  UNL d   1      -1.615  -1.154  -0.344  0.00  0.00    -0.034 A 
ATOM      5  C4  UNL d   1      -1.945  -0.507   0.848  0.00  0.00     0.162 A 
ATOM      6  C5  UNL d   1      -1.064   0.407   1.418  0.00  0.00     0.062 A 
ATOM      7  F   UNL d   1      -1.391   1.024   2.563  0.00  0.00    -0.097 F 
ATOM      8  F1  UNL d   1      -3.113  -0.752   1.460  0.00  0.00    -0.096 F 
ATOM      9  I   UNL d   1      -2.930  -2.521  -1.200  0.00  0.00    -0.060 I 
ATOM     10  F2  UNL d   1      -0.041  -1.478  -2.099  0.00  0.00    -0.096 F 
ATOM     11  F3  UNL d   1       1.660   0.303  -0.972  0.00  0.00    -0.097 F 
ATOM     12  F4  UNL d   1       0.997   1.560   1.357  0.00  0.00    -0.092 F 
ENDROOT
TORSDOF 0
ENDMDL
