MODEL 1
REMARK minimizedAffinity 5.04160213
REMARK minimizedRMSD -1
REMARK  0 active torsions:
REMARK  status: ('A' for Active; 'I' for Inactive)
ROOT
ATOM      1  C   UNL d   1      -0.595  -0.922  -4.002  0.00  0.00     0.124 A 
ATOM      2  C1  UNL d   1      -1.104  -1.725  -2.990  0.00  0.00     0.062 A 
ATOM      3  C2  UNL d   1      -0.658  -1.568  -1.681  0.00  0.00     0.162 A 
ATOM      4  C3  UNL d   1       0.301  -0.603  -1.375  0.00  0.00    -0.034 A 
ATOM      5  C4  UNL d   1       0.809   0.201  -2.397  0.00  0.00     0.162 A 
ATOM      6  C5  UNL d   1       0.361   0.040  -3.704  0.00  0.00     0.062 A 
ATOM      7  F   UNL d   1       0.853   0.817  -4.680  0.00  0.00    -0.097 F 
ATOM      8  F1  UNL d   1       1.732   1.138  -2.138  0.00  0.00    -0.096 F 
ATOM      9  I   UNL d   1       0.969  -0.365   0.582  0.00  0.00    -0.060 I 
ATOM     10  F2  UNL d   1      -1.168  -2.358  -0.724  0.00  0.00    -0.096 F 
ATOM     11  F3  UNL d   1      -2.026  -2.655  -3.275  0.00  0.00    -0.097 F 
ATOM     12  F4  UNL d   1      -1.024  -1.075  -5.261  0.00  0.00    -0.092 F 
ENDROOT
TORSDOF 0
ENDMDL
