MODEL 1
REMARK minimizedAffinity -0.333947062
REMARK minimizedRMSD -1
REMARK  0 active torsions:
REMARK  status: ('A' for Active; 'I' for Inactive)
ROOT
ATOM      1  C   UNL d   1       0.377   0.068   0.767  0.00  0.00     0.124 A 
ATOM      2  C1  UNL d   1       0.365  -0.816  -0.302  0.00  0.00     0.062 A 
ATOM      3  C2  UNL d   1      -0.819  -1.445  -0.677  0.00  0.00     0.162 A 
ATOM      4  C3  UNL d   1      -2.002  -1.190   0.017  0.00  0.00    -0.034 A 
ATOM      5  C4  UNL d   1      -1.981  -0.300   1.093  0.00  0.00     0.162 A 
ATOM      6  C5  UNL d   1      -0.795   0.325   1.464  0.00  0.00     0.062 A 
ATOM      7  F   UNL d   1      -0.785   1.179   2.497  0.00  0.00    -0.097 F 
ATOM      8  F1  UNL d   1      -3.100  -0.033   1.782  0.00  0.00    -0.096 F 
ATOM      9  I   UNL d   1      -3.774  -2.128  -0.540  0.00  0.00    -0.060 I 
ATOM     10  F2  UNL d   1      -0.802  -2.295  -1.715  0.00  0.00    -0.096 F 
ATOM     11  F3  UNL d   1       1.497  -1.067  -0.976  0.00  0.00    -0.097 F 
ATOM     12  F4  UNL d   1       1.518   0.671   1.127  0.00  0.00    -0.092 F 
ENDROOT
TORSDOF 0
ENDMDL
