MODEL 1
REMARK minimizedAffinity 1.5298121
REMARK minimizedRMSD -1
REMARK  0 active torsions:
REMARK  status: ('A' for Active; 'I' for Inactive)
ROOT
ATOM      1  C   UNL d   1      -0.459  -1.619  -2.721  0.00  0.00     0.124 A 
ATOM      2  C1  UNL d   1      -1.438  -2.004  -1.815  0.00  0.00     0.062 A 
ATOM      3  C2  UNL d   1      -1.332  -1.643  -0.475  0.00  0.00     0.162 A 
ATOM      4  C3  UNL d   1      -0.242  -0.893  -0.032  0.00  0.00    -0.034 A 
ATOM      5  C4  UNL d   1       0.738  -0.511  -0.949  0.00  0.00     0.162 A 
ATOM      6  C5  UNL d   1       0.628  -0.874  -2.287  0.00  0.00     0.062 A 
ATOM      7  F   UNL d   1       1.574  -0.501  -3.161  0.00  0.00    -0.097 F 
ATOM      8  F1  UNL d   1       1.799   0.211  -0.557  0.00  0.00    -0.096 F 
ATOM      9  I   UNL d   1      -0.080  -0.352   1.971  0.00  0.00    -0.060 I 
ATOM     10  F2  UNL d   1      -2.292  -2.029   0.378  0.00  0.00    -0.096 F 
ATOM     11  F3  UNL d   1      -2.489  -2.725  -2.231  0.00  0.00    -0.097 F 
ATOM     12  F4  UNL d   1      -0.564  -1.969  -4.010  0.00  0.00    -0.092 F 
ENDROOT
TORSDOF 0
ENDMDL
