MODEL 1
REMARK minimizedAffinity -0.750636637
REMARK minimizedRMSD -1
REMARK  0 active torsions:
REMARK  status: ('A' for Active; 'I' for Inactive)
ROOT
ATOM      1  O1  BZF d   1       2.403  -3.069  -5.626  0.00  0.00    -0.204 OA
ATOM      2  C2  BZF d   1       3.731  -2.981  -5.997  0.00  0.00     0.174 A 
ATOM      3  C3  BZF d   1       4.537  -3.348  -4.979  0.00  0.00    -0.012 A 
ATOM      4  C3A BZF d   1       3.655  -3.773  -3.936  0.00  0.00    -0.107 A 
ATOM      5  C4  BZF d   1       3.857  -4.265  -2.678  0.00  0.00     0.055 A 
ATOM      6  C5  BZF d   1       2.781  -4.515  -1.886  0.00  0.00    -0.016 A 
ATOM      7  C6  BZF d   1       1.492  -4.280  -2.316  0.00  0.00     0.022 A 
ATOM      8  C7  BZF d   1       1.241  -3.797  -3.558  0.00  0.00     0.029 A 
ATOM      9  C7A BZF d   1       2.325  -3.575  -4.372  0.00  0.00     0.058 A 
ENDROOT
TORSDOF 0
ENDMDL
