MODEL 1
REMARK minimizedAffinity -2.16161895
REMARK minimizedRMSD -1
REMARK  0 active torsions:
REMARK  status: ('A' for Active; 'I' for Inactive)
ROOT
ATOM      1  O1  BZF d   1      -1.870   0.800  -3.434  0.00  0.00    -0.204 OA
ATOM      2  C2  BZF d   1      -0.778   1.637  -3.562  0.00  0.00     0.174 A 
ATOM      3  C3  BZF d   1      -1.171   2.923  -3.658  0.00  0.00    -0.012 A 
ATOM      4  C3A BZF d   1      -2.592   2.897  -3.494  0.00  0.00    -0.107 A 
ATOM      5  C4  BZF d   1      -3.553   3.867  -3.475  0.00  0.00     0.055 A 
ATOM      6  C5  BZF d   1      -4.857   3.502  -3.367  0.00  0.00    -0.016 A 
ATOM      7  C6  BZF d   1      -5.236   2.178  -3.281  0.00  0.00     0.022 A 
ATOM      8  C7  BZF d   1      -4.318   1.181  -3.289  0.00  0.00     0.029 A 
ATOM      9  C7A BZF d   1      -2.997   1.548  -3.365  0.00  0.00     0.058 A 
ENDROOT
TORSDOF 0
ENDMDL
