MODEL 1
REMARK minimizedAffinity 2.75999451
REMARK minimizedRMSD -1
REMARK  0 active torsions:
REMARK  status: ('A' for Active; 'I' for Inactive)
ROOT
ATOM      1  O1  BZF d   1       3.579  -5.033   1.417  0.00  0.00    -0.204 OA
ATOM      2  C2  BZF d   1       4.058  -3.755   1.632  0.00  0.00     0.174 A 
ATOM      3  C3  BZF d   1       3.500  -2.883   0.768  0.00  0.00    -0.012 A 
ATOM      4  C3A BZF d   1       2.548  -3.648   0.023  0.00  0.00    -0.107 A 
ATOM      5  C4  BZF d   1       1.667  -3.337  -0.973  0.00  0.00     0.055 A 
ATOM      6  C5  BZF d   1       0.931  -4.331  -1.537  0.00  0.00    -0.016 A 
ATOM      7  C6  BZF d   1       1.053  -5.644  -1.133  0.00  0.00     0.022 A 
ATOM      8  C7  BZF d   1       1.910  -6.000  -0.144  0.00  0.00     0.029 A 
ATOM      9  C7A BZF d   1       2.631  -4.994   0.450  0.00  0.00     0.058 A 
ENDROOT
TORSDOF 0
ENDMDL
