MODEL 1
REMARK minimizedAffinity 9.55791187
REMARK minimizedRMSD -1
REMARK  0 active torsions:
REMARK  status: ('A' for Active; 'I' for Inactive)
ROOT
ATOM      1  O1  BZF d   1       4.463  -5.272  -4.332  0.00  0.00    -0.204 OA
ATOM      2  C2  BZF d   1       5.299  -5.996  -5.160  0.00  0.00     0.174 A 
ATOM      3  C3  BZF d   1       5.992  -5.175  -5.975  0.00  0.00    -0.012 A 
ATOM      4  C3A BZF d   1       5.630  -3.851  -5.572  0.00  0.00    -0.107 A 
ATOM      5  C4  BZF d   1       6.000  -2.606  -5.996  0.00  0.00     0.055 A 
ATOM      6  C5  BZF d   1       5.406  -1.516  -5.442  0.00  0.00    -0.016 A 
ATOM      7  C6  BZF d   1       4.436  -1.634  -4.468  0.00  0.00     0.022 A 
ATOM      8  C7  BZF d   1       4.040  -2.847  -4.012  0.00  0.00     0.029 A 
ATOM      9  C7A BZF d   1       4.662  -3.949  -4.546  0.00  0.00     0.058 A 
ENDROOT
TORSDOF 0
ENDMDL
