MODEL 1
REMARK minimizedAffinity 8.40785408
REMARK minimizedRMSD -1
REMARK  0 active torsions:
REMARK  status: ('A' for Active; 'I' for Inactive)
ROOT
ATOM      1  O1  BZF d   1       2.725  -3.564  -4.212  0.00  0.00    -0.204 OA
ATOM      2  C2  BZF d   1       2.910  -2.217  -4.456  0.00  0.00     0.174 A 
ATOM      3  C3  BZF d   1       4.072  -2.003  -5.105  0.00  0.00    -0.012 A 
ATOM      4  C3A BZF d   1       4.606  -3.306  -5.359  0.00  0.00    -0.107 A 
ATOM      5  C4  BZF d   1       5.735  -3.752  -5.986  0.00  0.00     0.055 A 
ATOM      6  C5  BZF d   1       6.000  -5.085  -5.999  0.00  0.00    -0.016 A 
ATOM      7  C6  BZF d   1       5.162  -5.998  -5.392  0.00  0.00     0.022 A 
ATOM      8  C7  BZF d   1       4.028  -5.603  -4.763  0.00  0.00     0.029 A 
ATOM      9  C7A BZF d   1       3.741  -4.260  -4.777  0.00  0.00     0.058 A 
ENDROOT
TORSDOF 0
ENDMDL
