MODEL 1
REMARK minimizedAffinity 8.05915165
REMARK minimizedRMSD -1
REMARK  0 active torsions:
REMARK  status: ('A' for Active; 'I' for Inactive)
ROOT
ATOM      1  O1  BZF d   1       4.322  -4.113   3.188  0.00  0.00    -0.204 OA
ATOM      2  C2  BZF d   1       4.662  -3.921   1.863  0.00  0.00     0.174 A 
ATOM      3  C3  BZF d   1       3.967  -2.894   1.335  0.00  0.00    -0.012 A 
ATOM      4  C3A BZF d   1       3.209  -2.354   2.422  0.00  0.00    -0.107 A 
ATOM      5  C4  BZF d   1       2.335  -1.310   2.530  0.00  0.00     0.055 A 
ATOM      6  C5  BZF d   1       1.709  -1.093   3.717  0.00  0.00    -0.016 A 
ATOM      7  C6  BZF d   1       1.928  -1.903   4.812  0.00  0.00     0.022 A 
ATOM      8  C7  BZF d   1       2.789  -2.948   4.754  0.00  0.00     0.029 A 
ATOM      9  C7A BZF d   1       3.448  -3.150   3.566  0.00  0.00     0.058 A 
ENDROOT
TORSDOF 0
ENDMDL
