MODEL 1
REMARK minimizedAffinity 12.5246048
REMARK minimizedRMSD -1
REMARK  0 active torsions:
REMARK  status: ('A' for Active; 'I' for Inactive)
ROOT
ATOM      1  O1  BZF d   1       5.712   4.875  -2.643  0.00  0.00    -0.204 OA
ATOM      2  C2  BZF d   1       5.583   3.865  -3.577  0.00  0.00     0.174 A 
ATOM      3  C3  BZF d   1       4.321   3.392  -3.599  0.00  0.00    -0.012 A 
ATOM      4  C3A BZF d   1       3.594   4.217  -2.682  0.00  0.00    -0.107 A 
ATOM      5  C4  BZF d   1       2.289   4.251  -2.282  0.00  0.00     0.055 A 
ATOM      6  C5  BZF d   1       1.917   5.132  -1.316  0.00  0.00    -0.016 A 
ATOM      7  C6  BZF d   1       2.824   5.989  -0.727  0.00  0.00     0.022 A 
ATOM      8  C7  BZF d   1       4.128   5.996  -1.095  0.00  0.00     0.029 A 
ATOM      9  C7A BZF d   1       4.500   5.129  -2.094  0.00  0.00     0.058 A 
ENDROOT
TORSDOF 0
ENDMDL
