MODEL 1
REMARK minimizedAffinity 1.8322736
REMARK minimizedRMSD -1
REMARK  0 active torsions:
REMARK  status: ('A' for Active; 'I' for Inactive)
ROOT
ATOM      1  O1  BZF d   1       6.000   4.892  -3.321  0.00  0.00    -0.204 OA
ATOM      2  C2  BZF d   1       5.893   3.777  -4.129  0.00  0.00     0.174 A 
ATOM      3  C3  BZF d   1       4.735   3.126  -3.895  0.00  0.00    -0.012 A 
ATOM      4  C3A BZF d   1       4.035   3.933  -2.943  0.00  0.00    -0.107 A 
ATOM      5  C4  BZF d   1       2.820   3.822  -2.331  0.00  0.00     0.055 A 
ATOM      6  C5  BZF d   1       2.464   4.742  -1.396  0.00  0.00    -0.016 A 
ATOM      7  C6  BZF d   1       3.301   5.781  -1.045  0.00  0.00     0.022 A 
ATOM      8  C7  BZF d   1       4.514   5.936  -1.629  0.00  0.00     0.029 A 
ATOM      9  C7A BZF d   1       4.863   5.027  -2.598  0.00  0.00     0.058 A 
ENDROOT
TORSDOF 0
ENDMDL
