MODEL 1
REMARK minimizedAffinity -5.57679701
REMARK minimizedRMSD -1
REMARK  0 active torsions:
REMARK  status: ('A' for Active; 'I' for Inactive)
ROOT
ATOM      1  O1  BZF d   1       1.946   1.497   3.616  0.00  0.00    -0.204 OA
ATOM      2  C2  BZF d   1       2.031   0.603   4.666  0.00  0.00     0.174 A 
ATOM      3  C3  BZF d   1       2.089  -0.666   4.211  0.00  0.00    -0.012 A 
ATOM      4  C3A BZF d   1       2.130  -0.552   2.786  0.00  0.00    -0.107 A 
ATOM      5  C4  BZF d   1       2.208  -1.465   1.773  0.00  0.00     0.055 A 
ATOM      6  C5  BZF d   1       2.154  -1.031   0.487  0.00  0.00    -0.016 A 
ATOM      7  C6  BZF d   1       2.017   0.306   0.177  0.00  0.00     0.022 A 
ATOM      8  C7  BZF d   1       1.941   1.249   1.147  0.00  0.00     0.029 A 
ATOM      9  C7A BZF d   1       2.028   0.817   2.447  0.00  0.00     0.058 A 
ENDROOT
TORSDOF 0
ENDMDL
