MODEL 1
REMARK minimizedAffinity 0.690590858
REMARK minimizedRMSD -1
REMARK  0 active torsions:
REMARK  status: ('A' for Active; 'I' for Inactive)
ROOT
ATOM      1  O1  BZF d   1      -0.384  -2.107   3.430  0.00  0.00    -0.204 OA
ATOM      2  C2  BZF d   1      -0.383  -0.967   2.650  0.00  0.00     0.174 A 
ATOM      3  C3  BZF d   1       0.736  -0.244   2.862  0.00  0.00    -0.012 A 
ATOM      4  C3A BZF d   1       1.523  -1.025   3.766  0.00  0.00    -0.107 A 
ATOM      5  C4  BZF d   1       2.750  -0.846   4.338  0.00  0.00     0.055 A 
ATOM      6  C5  BZF d   1       3.201  -1.763   5.234  0.00  0.00    -0.016 A 
ATOM      7  C6  BZF d   1       2.451  -2.866   5.584  0.00  0.00     0.022 A 
ATOM      8  C7  BZF d   1       1.230  -3.089   5.039  0.00  0.00     0.029 A 
ATOM      9  C7A BZF d   1       0.786  -2.182   4.109  0.00  0.00     0.058 A 
ENDROOT
TORSDOF 0
ENDMDL
