MODEL 1
REMARK minimizedAffinity 5.46521759
REMARK minimizedRMSD -1
REMARK  0 active torsions:
REMARK  status: ('A' for Active; 'I' for Inactive)
ROOT
ATOM      1  O1  BZF d   1      -2.007  -0.656   1.321  0.00  0.00    -0.204 OA
ATOM      2  C2  BZF d   1      -1.478   0.399   0.603  0.00  0.00     0.174 A 
ATOM      3  C3  BZF d   1      -0.222   0.673   1.010  0.00  0.00    -0.012 A 
ATOM      4  C3A BZF d   1       0.085  -0.329   1.983  0.00  0.00    -0.107 A 
ATOM      5  C4  BZF d   1       1.192  -0.598   2.738  0.00  0.00     0.055 A 
ATOM      6  C5  BZF d   1       1.142  -1.606   3.647  0.00  0.00    -0.016 A 
ATOM      7  C6  BZF d   1       0.003  -2.362   3.832  0.00  0.00     0.022 A 
ATOM      8  C7  BZF d   1      -1.117  -2.137   3.104  0.00  0.00     0.029 A 
ATOM      9  C7A BZF d   1      -1.060  -1.140   2.161  0.00  0.00     0.058 A 
ENDROOT
TORSDOF 0
ENDMDL
