MODEL 1
REMARK minimizedAffinity 6.83703947
REMARK minimizedRMSD -1
REMARK  0 active torsions:
REMARK  status: ('A' for Active; 'I' for Inactive)
ROOT
ATOM      1  O1  BZF d   1       0.415  -2.786   4.187  0.00  0.00    -0.204 OA
ATOM      2  C2  BZF d   1       1.614  -2.745   4.873  0.00  0.00     0.174 A 
ATOM      3  C3  BZF d   1       2.379  -1.723   4.438  0.00  0.00    -0.012 A 
ATOM      4  C3A BZF d   1       1.572  -1.030   3.481  0.00  0.00    -0.107 A 
ATOM      5  C4  BZF d   1       1.773   0.082   2.713  0.00  0.00     0.055 A 
ATOM      6  C5  BZF d   1       0.812   0.454   1.826  0.00  0.00    -0.016 A 
ATOM      7  C6  BZF d   1      -0.357  -0.264   1.678  0.00  0.00     0.022 A 
ATOM      8  C7  BZF d   1      -0.603  -1.370   2.421  0.00  0.00     0.029 A 
ATOM      9  C7A BZF d   1       0.352  -1.730   3.341  0.00  0.00     0.058 A 
ENDROOT
TORSDOF 0
ENDMDL
