MODEL 1
REMARK minimizedAffinity -0.209123522
REMARK minimizedRMSD -1
REMARK  0 active torsions:
REMARK  status: ('A' for Active; 'I' for Inactive)
ROOT
ATOM      1  O1  BZF d   1       0.233  -2.234   3.478  0.00  0.00    -0.204 OA
ATOM      2  C2  BZF d   1       1.451  -1.826   3.986  0.00  0.00     0.174 A 
ATOM      3  C3  BZF d   1       1.757  -0.584   3.557  0.00  0.00    -0.012 A 
ATOM      4  C3A BZF d   1       0.618  -0.156   2.803  0.00  0.00    -0.107 A 
ATOM      5  C4  BZF d   1       0.313   0.995   2.136  0.00  0.00     0.055 A 
ATOM      6  C5  BZF d   1      -0.852   1.067   1.439  0.00  0.00    -0.016 A 
ATOM      7  C6  BZF d   1      -1.731   0.005   1.384  0.00  0.00     0.022 A 
ATOM      8  C7  BZF d   1      -1.474  -1.156   2.034  0.00  0.00     0.029 A 
ATOM      9  C7A BZF d   1      -0.313  -1.220   2.766  0.00  0.00     0.058 A 
ENDROOT
TORSDOF 0
ENDMDL
