MODEL 1
REMARK minimizedAffinity 0.822839677
REMARK minimizedRMSD -1
REMARK  0 active torsions:
REMARK  status: ('A' for Active; 'I' for Inactive)
ROOT
ATOM      1  O1  BZF d   1      -1.526  -0.232   2.387  0.00  0.00    -0.204 OA
ATOM      2  C2  BZF d   1      -1.222   0.623   1.346  0.00  0.00     0.174 A 
ATOM      3  C3  BZF d   1       0.113   0.721   1.180  0.00  0.00    -0.012 A 
ATOM      4  C3A BZF d   1       0.677  -0.198   2.121  0.00  0.00    -0.107 A 
ATOM      5  C4  BZF d   1       1.957  -0.563   2.425  0.00  0.00     0.055 A 
ATOM      6  C5  BZF d   1       2.171  -1.434   3.446  0.00  0.00    -0.016 A 
ATOM      7  C6  BZF d   1       1.130  -1.953   4.187  0.00  0.00     0.022 A 
ATOM      8  C7  BZF d   1      -0.157  -1.624   3.921  0.00  0.00     0.029 A 
ATOM      9  C7A BZF d   1      -0.379  -0.770   2.868  0.00  0.00     0.058 A 
ENDROOT
TORSDOF 0
ENDMDL
