MODEL 1
REMARK minimizedAffinity 1.93447769
REMARK minimizedRMSD -1
REMARK  0 active torsions:
REMARK  status: ('A' for Active; 'I' for Inactive)
ROOT
ATOM      1  C1  BNZ d   1       0.783   4.092  -1.030  0.00  0.00     0.000 A 
ATOM      2  C2  BNZ d   1       1.238   3.251  -0.050  0.00  0.00     0.000 A 
ATOM      3  C3  BNZ d   1       0.410   2.833   0.954  0.00  0.00     0.000 A 
ATOM      4  C4  BNZ d   1      -0.859   3.288   1.000  0.00  0.00     0.000 A 
ATOM      5  C5  BNZ d   1      -1.330   4.145   0.025  0.00  0.00     0.000 A 
ATOM      6  C6  BNZ d   1      -0.505   4.532  -1.006  0.00  0.00     0.000 A 
ENDROOT
TORSDOF 0
ENDMDL
