MODEL 1
REMARK minimizedAffinity -0.221103281
REMARK minimizedRMSD -1
REMARK  0 active torsions:
REMARK  status: ('A' for Active; 'I' for Inactive)
ROOT
ATOM      1  C1  BNZ d   1      -5.992   4.335  -4.182  0.00  0.00     0.000 A 
ATOM      2  C2  BNZ d   1      -5.995   5.429  -5.005  0.00  0.00     0.000 A 
ATOM      3  C3  BNZ d   1      -4.822   6.000  -5.415  0.00  0.00     0.000 A 
ATOM      4  C4  BNZ d   1      -3.651   5.500  -4.970  0.00  0.00     0.000 A 
ATOM      5  C5  BNZ d   1      -3.632   4.403  -4.132  0.00  0.00     0.000 A 
ATOM      6  C6  BNZ d   1      -4.814   3.808  -3.753  0.00  0.00     0.000 A 
ENDROOT
TORSDOF 0
ENDMDL
