MODEL 1
REMARK minimizedAffinity 6.68881607
REMARK minimizedRMSD -1
REMARK  0 active torsions:
REMARK  status: ('A' for Active; 'I' for Inactive)
ROOT
ATOM      1  C1  BNZ d   1      -0.321  -1.996  -1.871  0.00  0.00     0.000 A 
ATOM      2  C2  BNZ d   1       0.665  -1.081  -1.614  0.00  0.00     0.000 A 
ATOM      3  C3  BNZ d   1       1.826  -1.456  -1.000  0.00  0.00     0.000 A 
ATOM      4  C4  BNZ d   1       1.985  -2.737  -0.608  0.00  0.00     0.000 A 
ATOM      5  C5  BNZ d   1       0.997  -3.670  -0.852  0.00  0.00     0.000 A 
ATOM      6  C6  BNZ d   1      -0.155  -3.296  -1.505  0.00  0.00     0.000 A 
ENDROOT
TORSDOF 0
ENDMDL
