MODEL 1
REMARK minimizedAffinity 1.33639884
REMARK minimizedRMSD -1
REMARK  0 active torsions:
REMARK  status: ('A' for Active; 'I' for Inactive)
ROOT
ATOM      1  C1  BNZ d   1      -5.960   1.129  -5.634  0.00  0.00     0.000 A 
ATOM      2  C2  BNZ d   1      -6.000   0.699  -4.335  0.00  0.00     0.000 A 
ATOM      3  C3  BNZ d   1      -5.999   1.593  -3.301  0.00  0.00     0.000 A 
ATOM      4  C4  BNZ d   1      -5.919   2.913  -3.566  0.00  0.00     0.000 A 
ATOM      5  C5  BNZ d   1      -5.869   3.362  -4.871  0.00  0.00     0.000 A 
ATOM      6  C6  BNZ d   1      -5.909   2.461  -5.910  0.00  0.00     0.000 A 
ENDROOT
TORSDOF 0
ENDMDL
