MODEL 1
REMARK minimizedAffinity -0.530552685
REMARK minimizedRMSD -1
REMARK  0 active torsions:
REMARK  status: ('A' for Active; 'I' for Inactive)
ROOT
ATOM      1  C1  BNZ d   1       0.225   4.954  -1.763  0.00  0.00     0.000 A 
ATOM      2  C2  BNZ d   1       0.968   4.261  -0.845  0.00  0.00     0.000 A 
ATOM      3  C3  BNZ d   1       0.374   3.384   0.018  0.00  0.00     0.000 A 
ATOM      4  C4  BNZ d   1      -0.966   3.231  -0.010  0.00  0.00     0.000 A 
ATOM      5  C5  BNZ d   1      -1.730   3.930  -0.923  0.00  0.00     0.000 A 
ATOM      6  C6  BNZ d   1      -1.124   4.783  -1.816  0.00  0.00     0.000 A 
ENDROOT
TORSDOF 0
ENDMDL
