MODEL 1
REMARK minimizedAffinity -5.37633944
REMARK minimizedRMSD -1
REMARK  0 active torsions:
REMARK  status: ('A' for Active; 'I' for Inactive)
ROOT
ATOM      1  C   UNL d   1       1.043   0.256  -0.239  0.00  0.00     0.078 C 
ATOM      2  C1  UNL d   1      -0.443   0.086  -0.344  0.00  0.00    -0.077 A 
ATOM      3  C2  UNL d   1      -1.130  -0.793   0.503  0.00  0.00    -0.001 A 
ATOM      4  C3  UNL d   1      -2.512  -0.949   0.388  0.00  0.00     0.003 A 
ATOM      5  C4  UNL d   1      -3.220  -0.230  -0.573  0.00  0.00    -0.005 A 
ATOM      6  C5  UNL d   1      -2.545   0.645  -1.422  0.00  0.00     0.003 A 
ATOM      7  C6  UNL d   1      -1.163   0.802  -1.308  0.00  0.00    -0.001 A 
ENDROOT
TORSDOF 0
ENDMDL
