MODEL 1
REMARK minimizedAffinity -4.2142005
REMARK minimizedRMSD -1
REMARK  0 active torsions:
REMARK  status: ('A' for Active; 'I' for Inactive)
ROOT
ATOM      1  C   UNL d   1      -3.630  -0.593  -0.038  0.00  0.00     0.078 C 
ATOM      2  C1  UNL d   1      -2.167  -0.301  -0.187  0.00  0.00    -0.077 A 
ATOM      3  C2  UNL d   1      -1.653   0.217  -1.382  0.00  0.00    -0.001 A 
ATOM      4  C3  UNL d   1      -0.287   0.475  -1.510  0.00  0.00     0.003 A 
ATOM      5  C4  UNL d   1       0.576   0.217  -0.447  0.00  0.00    -0.005 A 
ATOM      6  C5  UNL d   1       0.075  -0.301   0.745  0.00  0.00     0.003 A 
ATOM      7  C6  UNL d   1      -1.291  -0.559   0.875  0.00  0.00    -0.001 A 
ENDROOT
TORSDOF 0
ENDMDL
