MODEL 1
REMARK minimizedAffinity -3.15832186
REMARK minimizedRMSD -1
REMARK  0 active torsions:
REMARK  status: ('A' for Active; 'I' for Inactive)
ROOT
ATOM      1  C   UNL d   1       0.234  -0.637   0.885  0.00  0.00     0.078 C 
ATOM      2  C1  UNL d   1       1.124   0.550   1.100  0.00  0.00    -0.077 A 
ATOM      3  C2  UNL d   1       1.704   1.223   0.017  0.00  0.00    -0.001 A 
ATOM      4  C3  UNL d   1       2.538   2.321   0.232  0.00  0.00     0.003 A 
ATOM      5  C4  UNL d   1       2.801   2.756   1.530  0.00  0.00    -0.005 A 
ATOM      6  C5  UNL d   1       2.230   2.092   2.614  0.00  0.00     0.003 A 
ATOM      7  C6  UNL d   1       1.396   0.993   2.400  0.00  0.00    -0.001 A 
ENDROOT
TORSDOF 0
ENDMDL
