MODEL 1
REMARK minimizedAffinity -3.98619699
REMARK minimizedRMSD -1
REMARK  0 active torsions:
REMARK  status: ('A' for Active; 'I' for Inactive)
ROOT
ATOM      1  C   UNL d   1       1.401   0.396   0.132  0.00  0.00     0.078 C 
ATOM      2  C1  UNL d   1      -0.018   0.038  -0.194  0.00  0.00    -0.077 A 
ATOM      3  C2  UNL d   1      -0.640   0.533  -1.347  0.00  0.00    -0.001 A 
ATOM      4  C3  UNL d   1      -1.965   0.199  -1.634  0.00  0.00     0.003 A 
ATOM      5  C4  UNL d   1      -2.679  -0.630  -0.772  0.00  0.00    -0.005 A 
ATOM      6  C5  UNL d   1      -2.070  -1.125   0.379  0.00  0.00     0.003 A 
ATOM      7  C6  UNL d   1      -0.745  -0.793   0.667  0.00  0.00    -0.001 A 
ENDROOT
TORSDOF 0
ENDMDL
