MODEL 1
REMARK minimizedAffinity -2.92873096
REMARK minimizedRMSD -1
REMARK  0 active torsions:
REMARK  status: ('A' for Active; 'I' for Inactive)
ROOT
ATOM      1  C   UNL d   1       1.278   0.399   0.217  0.00  0.00     0.078 C 
ATOM      2  C1  UNL d   1      -0.099  -0.096  -0.109  0.00  0.00    -0.077 A 
ATOM      3  C2  UNL d   1      -0.900  -0.697   0.870  0.00  0.00    -0.001 A 
ATOM      4  C3  UNL d   1      -2.176  -1.162   0.550  0.00  0.00     0.003 A 
ATOM      5  C4  UNL d   1      -2.663  -1.032  -0.749  0.00  0.00    -0.005 A 
ATOM      6  C5  UNL d   1      -1.873  -0.437  -1.730  0.00  0.00     0.003 A 
ATOM      7  C6  UNL d   1      -0.596   0.028  -1.412  0.00  0.00    -0.001 A 
ENDROOT
TORSDOF 0
ENDMDL
