MODEL 1
REMARK minimizedAffinity -4.7924695
REMARK minimizedRMSD -1
REMARK  0 active torsions:
REMARK  status: ('A' for Active; 'I' for Inactive)
ROOT
ATOM      1  C   UNL d   1      -2.913  -0.890   0.095  0.00  0.00     0.078 C 
ATOM      2  C1  UNL d   1      -1.449  -0.607   0.250  0.00  0.00    -0.077 A 
ATOM      3  C2  UNL d   1      -0.668  -1.326   1.163  0.00  0.00    -0.001 A 
ATOM      4  C3  UNL d   1       0.692  -1.045   1.304  0.00  0.00     0.003 A 
ATOM      5  C4  UNL d   1       1.283  -0.044   0.535  0.00  0.00    -0.005 A 
ATOM      6  C5  UNL d   1       0.514   0.678  -0.375  0.00  0.00     0.003 A 
ATOM      7  C6  UNL d   1      -0.847   0.399  -0.517  0.00  0.00    -0.001 A 
ENDROOT
TORSDOF 0
ENDMDL
