MODEL 1
REMARK minimizedAffinity -0.99805516
REMARK minimizedRMSD -1
REMARK  0 active torsions:
REMARK  status: ('A' for Active; 'I' for Inactive)
ROOT
ATOM      1  C   UNL d   1      -1.811   0.350  -1.860  0.00  0.00     0.078 C 
ATOM      2  C1  UNL d   1      -0.965  -0.270  -0.788  0.00  0.00    -0.077 A 
ATOM      3  C2  UNL d   1      -1.379  -1.431  -0.123  0.00  0.00    -0.001 A 
ATOM      4  C3  UNL d   1      -0.586  -1.991   0.879  0.00  0.00     0.003 A 
ATOM      5  C4  UNL d   1       0.625  -1.397   1.227  0.00  0.00    -0.005 A 
ATOM      6  C5  UNL d   1       1.045  -0.241   0.573  0.00  0.00     0.003 A 
ATOM      7  C6  UNL d   1       0.253   0.321  -0.430  0.00  0.00    -0.001 A 
ENDROOT
TORSDOF 0
ENDMDL
