MODEL 1
REMARK minimizedAffinity -5.47308874
REMARK minimizedRMSD -1
REMARK  0 active torsions:
REMARK  status: ('A' for Active; 'I' for Inactive)
ROOT
ATOM      1  C   UNL d   1       1.829  -0.314   0.602  0.00  0.00     0.078 C 
ATOM      2  C1  UNL d   1       0.467  -0.211  -0.016  0.00  0.00    -0.077 A 
ATOM      3  C2  UNL d   1      -0.645  -0.813   0.585  0.00  0.00    -0.001 A 
ATOM      4  C3  UNL d   1      -1.906  -0.717  -0.006  0.00  0.00     0.003 A 
ATOM      5  C4  UNL d   1      -2.066  -0.021  -1.203  0.00  0.00    -0.005 A 
ATOM      6  C5  UNL d   1      -0.965   0.579  -1.810  0.00  0.00     0.003 A 
ATOM      7  C6  UNL d   1       0.296   0.484  -1.219  0.00  0.00    -0.001 A 
ENDROOT
TORSDOF 0
ENDMDL
