MODEL 1
REMARK minimizedAffinity -5.72845078
REMARK minimizedRMSD -1
REMARK  0 active torsions:
REMARK  status: ('A' for Active; 'I' for Inactive)
ROOT
ATOM      1  C   UNL d   1      -3.078  -0.788  -0.055  0.00  0.00     0.078 C 
ATOM      2  C1  UNL d   1      -1.621  -0.467  -0.205  0.00  0.00    -0.077 A 
ATOM      3  C2  UNL d   1      -1.143   0.199  -1.340  0.00  0.00    -0.001 A 
ATOM      4  C3  UNL d   1       0.217   0.483  -1.472  0.00  0.00     0.003 A 
ATOM      5  C4  UNL d   1       1.111   0.102  -0.473  0.00  0.00    -0.005 A 
ATOM      6  C5  UNL d   1       0.645  -0.563   0.659  0.00  0.00     0.003 A 
ATOM      7  C6  UNL d   1      -0.715  -0.847   0.792  0.00  0.00    -0.001 A 
ENDROOT
TORSDOF 0
ENDMDL
