MODEL 1
REMARK minimizedAffinity -4.47535276
REMARK minimizedRMSD -1
REMARK  0 active torsions:
REMARK  status: ('A' for Active; 'I' for Inactive)
ROOT
ATOM      1  C   UNL d   1       1.594   0.380   0.313  0.00  0.00     0.078 C 
ATOM      2  C1  UNL d   1       0.137   0.091   0.109  0.00  0.00    -0.077 A 
ATOM      3  C2  UNL d   1      -0.479   0.324  -1.127  0.00  0.00    -0.001 A 
ATOM      4  C3  UNL d   1      -1.839   0.059  -1.299  0.00  0.00     0.003 A 
ATOM      5  C4  UNL d   1      -2.594  -0.439  -0.239  0.00  0.00    -0.005 A 
ATOM      6  C5  UNL d   1      -1.991  -0.672   0.995  0.00  0.00     0.003 A 
ATOM      7  C6  UNL d   1      -0.631  -0.408   1.169  0.00  0.00    -0.001 A 
ENDROOT
TORSDOF 0
ENDMDL
