MODEL 1
REMARK minimizedAffinity -5.07551241
REMARK minimizedRMSD -1
REMARK  0 active torsions:
REMARK  status: ('A' for Active; 'I' for Inactive)
ROOT
ATOM      1  C   UNL d   1       1.066   0.594   0.071  0.00  0.00     0.078 C 
ATOM      2  C1  UNL d   1      -0.302   0.020  -0.148  0.00  0.00    -0.077 A 
ATOM      3  C2  UNL d   1      -1.019  -0.559   0.906  0.00  0.00    -0.001 A 
ATOM      4  C3  UNL d   1      -2.288  -1.097   0.686  0.00  0.00     0.003 A 
ATOM      5  C4  UNL d   1      -2.850  -1.063  -0.589  0.00  0.00    -0.005 A 
ATOM      6  C5  UNL d   1      -2.144  -0.491  -1.645  0.00  0.00     0.003 A 
ATOM      7  C6  UNL d   1      -0.875   0.048  -1.426  0.00  0.00    -0.001 A 
ENDROOT
TORSDOF 0
ENDMDL
