MODEL 1
REMARK minimizedAffinity -4.88879728
REMARK minimizedRMSD -1
REMARK  0 active torsions:
REMARK  status: ('A' for Active; 'I' for Inactive)
ROOT
ATOM      1  C   UNL d   1       1.361   0.481   0.355  0.00  0.00     0.078 C 
ATOM      2  C1  UNL d   1      -0.037   0.175  -0.094  0.00  0.00    -0.077 A 
ATOM      3  C2  UNL d   1      -0.918  -0.537   0.729  0.00  0.00    -0.001 A 
ATOM      4  C3  UNL d   1      -2.213  -0.824   0.294  0.00  0.00     0.003 A 
ATOM      5  C4  UNL d   1      -2.638  -0.404  -0.965  0.00  0.00    -0.005 A 
ATOM      6  C5  UNL d   1      -1.767   0.303  -1.791  0.00  0.00     0.003 A 
ATOM      7  C6  UNL d   1      -0.471   0.591  -1.358  0.00  0.00    -0.001 A 
ENDROOT
TORSDOF 0
ENDMDL
