MODEL 1
REMARK minimizedAffinity -4.295506
REMARK minimizedRMSD -1
REMARK  0 active torsions:
REMARK  status: ('A' for Active; 'I' for Inactive)
ROOT
ATOM      1  C   UNL d   1       1.493   0.690   0.408  0.00  0.00     0.078 C 
ATOM      2  C1  UNL d   1       0.185   0.302  -0.213  0.00  0.00    -0.077 A 
ATOM      3  C2  UNL d   1      -0.108   0.632  -1.542  0.00  0.00    -0.001 A 
ATOM      4  C3  UNL d   1      -1.334   0.273  -2.105  0.00  0.00     0.003 A 
ATOM      5  C4  UNL d   1      -2.277  -0.417  -1.346  0.00  0.00    -0.005 A 
ATOM      6  C5  UNL d   1      -1.995  -0.748  -0.022  0.00  0.00     0.003 A 
ATOM      7  C6  UNL d   1      -0.770  -0.390   0.542  0.00  0.00    -0.001 A 
ENDROOT
TORSDOF 0
ENDMDL
