MODEL 1
REMARK minimizedAffinity -1.55311966
REMARK minimizedRMSD -1
REMARK  0 active torsions:
REMARK  status: ('A' for Active; 'I' for Inactive)
ROOT
ATOM      1  C   UNL d   1       0.656   0.904  -1.237  0.00  0.00     0.078 C 
ATOM      2  C1  UNL d   1       0.007   0.106  -0.145  0.00  0.00    -0.077 A 
ATOM      3  C2  UNL d   1       0.778  -0.589   0.795  0.00  0.00    -0.001 A 
ATOM      4  C3  UNL d   1       0.161  -1.335   1.800  0.00  0.00     0.003 A 
ATOM      5  C4  UNL d   1      -1.229  -1.394   1.875  0.00  0.00    -0.005 A 
ATOM      6  C5  UNL d   1      -2.004  -0.706   0.943  0.00  0.00     0.003 A 
ATOM      7  C6  UNL d   1      -1.389   0.040  -0.063  0.00  0.00    -0.001 A 
ENDROOT
TORSDOF 0
ENDMDL
