MODEL 1
REMARK minimizedAffinity -5.46754169
REMARK minimizedRMSD -1
REMARK  0 active torsions:
REMARK  status: ('A' for Active; 'I' for Inactive)
ROOT
ATOM      1  C   UNL d   1       1.320   0.022   0.263  0.00  0.00     0.078 C 
ATOM      2  C1  UNL d   1      -0.090  -0.420   0.003  0.00  0.00    -0.077 A 
ATOM      3  C2  UNL d   1      -0.719  -0.140  -1.216  0.00  0.00    -0.001 A 
ATOM      4  C3  UNL d   1      -2.035  -0.548  -1.441  0.00  0.00     0.003 A 
ATOM      5  C4  UNL d   1      -2.733  -1.237  -0.451  0.00  0.00    -0.005 A 
ATOM      6  C5  UNL d   1      -2.115  -1.518   0.766  0.00  0.00     0.003 A 
ATOM      7  C6  UNL d   1      -0.799  -1.111   0.993  0.00  0.00    -0.001 A 
ENDROOT
TORSDOF 0
ENDMDL
