MODEL 1
REMARK minimizedAffinity -5.31179142
REMARK minimizedRMSD -1
REMARK  0 active torsions:
REMARK  status: ('A' for Active; 'I' for Inactive)
ROOT
ATOM      1  C   UNL d   1      -3.259  -1.032  -0.351  0.00  0.00     0.078 C 
ATOM      2  C1  UNL d   1      -1.874  -0.830   0.186  0.00  0.00    -0.077 A 
ATOM      3  C2  UNL d   1      -0.995   0.082  -0.412  0.00  0.00    -0.001 A 
ATOM      4  C3  UNL d   1       0.296   0.253   0.092  0.00  0.00     0.003 A 
ATOM      5  C4  UNL d   1       0.719  -0.486   1.195  0.00  0.00    -0.005 A 
ATOM      6  C5  UNL d   1      -0.147  -1.398   1.795  0.00  0.00     0.003 A 
ATOM      7  C6  UNL d   1      -1.438  -1.570   1.292  0.00  0.00    -0.001 A 
ENDROOT
TORSDOF 0
ENDMDL
