MODEL 1
REMARK minimizedAffinity -5.14964437
REMARK minimizedRMSD -1
REMARK  0 active torsions:
REMARK  status: ('A' for Active; 'I' for Inactive)
ROOT
ATOM      1  C2' OXE d   1       5.770   5.267  -2.560  0.00  0.00     0.078 C 
ATOM      2  C1' OXE d   1       2.998   5.359  -2.995  0.00  0.00     0.078 C 
ATOM      3  C1  OXE d   1       3.827   4.499  -3.916  0.00  0.00    -0.078 A 
ATOM      4  C2  OXE d   1       5.188   4.497  -3.725  0.00  0.00    -0.078 A 
ATOM      5  C3  OXE d   1       5.993   3.679  -4.513  0.00  0.00     0.003 A 
ATOM      6  C4  OXE d   1       5.448   2.978  -5.595  0.00  0.00    -0.002 A 
ATOM      7  C5  OXE d   1       4.069   2.998  -5.832  0.00  0.00    -0.002 A 
ATOM      8  C6  OXE d   1       3.242   3.718  -4.978  0.00  0.00     0.003 A 
ENDROOT
TORSDOF 0
ENDMDL
