MODEL 1
REMARK minimizedAffinity -2.96425033
REMARK minimizedRMSD -1
REMARK  0 active torsions:
REMARK  status: ('A' for Active; 'I' for Inactive)
ROOT
ATOM      1  C2' OXE d   1       3.392   4.941  -1.812  0.00  0.00     0.078 C 
ATOM      2  C1' OXE d   1       5.991   5.998  -1.892  0.00  0.00     0.078 C 
ATOM      3  C1  OXE d   1       5.342   5.625  -3.201  0.00  0.00    -0.078 A 
ATOM      4  C2  OXE d   1       4.089   5.065  -3.149  0.00  0.00    -0.078 A 
ATOM      5  C3  OXE d   1       3.423   4.752  -4.331  0.00  0.00     0.003 A 
ATOM      6  C4  OXE d   1       4.079   4.861  -5.564  0.00  0.00    -0.002 A 
ATOM      7  C5  OXE d   1       5.371   5.392  -5.636  0.00  0.00    -0.002 A 
ATOM      8  C6  OXE d   1       5.999   5.817  -4.471  0.00  0.00     0.003 A 
ENDROOT
TORSDOF 0
ENDMDL
