MODEL 1
REMARK minimizedAffinity 1.96921444
REMARK minimizedRMSD -1
REMARK  0 active torsions:
REMARK  status: ('A' for Active; 'I' for Inactive)
ROOT
ATOM      1  C2' OXE d   1       0.362  -1.091  -1.423  0.00  0.00     0.078 C 
ATOM      2  C1' OXE d   1      -0.202  -3.241   0.292  0.00  0.00     0.078 C 
ATOM      3  C1  OXE d   1      -0.441  -3.437  -1.184  0.00  0.00    -0.078 A 
ATOM      4  C2  OXE d   1      -0.206  -2.364  -2.011  0.00  0.00    -0.078 A 
ATOM      5  C3  OXE d   1      -0.358  -2.508  -3.387  0.00  0.00     0.003 A 
ATOM      6  C4  OXE d   1      -0.894  -3.686  -3.922  0.00  0.00    -0.002 A 
ATOM      7  C5  OXE d   1      -1.177  -4.777  -3.093  0.00  0.00    -0.002 A 
ATOM      8  C6  OXE d   1      -0.917  -4.684  -1.730  0.00  0.00     0.003 A 
ENDROOT
TORSDOF 0
ENDMDL
