MODEL 1
REMARK minimizedAffinity 8.99292278
REMARK minimizedRMSD -1
REMARK  0 active torsions:
REMARK  status: ('A' for Active; 'I' for Inactive)
ROOT
ATOM      1  C2' OXE d   1      -1.598  -3.371  -4.335  0.00  0.00     0.078 C 
ATOM      2  C1' OXE d   1       0.237  -2.618  -2.349  0.00  0.00     0.078 C 
ATOM      3  C1  OXE d   1       0.784  -3.206  -3.626  0.00  0.00    -0.078 A 
ATOM      4  C2  OXE d   1      -0.124  -3.615  -4.573  0.00  0.00    -0.078 A 
ATOM      5  C3  OXE d   1       0.329  -4.113  -5.792  0.00  0.00     0.003 A 
ATOM      6  C4  OXE d   1       1.694  -4.345  -6.000  0.00  0.00    -0.002 A 
ATOM      7  C5  OXE d   1       2.633  -3.972  -5.032  0.00  0.00    -0.002 A 
ATOM      8  C6  OXE d   1       2.198  -3.364  -3.860  0.00  0.00     0.003 A 
ENDROOT
TORSDOF 0
ENDMDL
