MODEL 1
REMARK minimizedAffinity 9.36624718
REMARK minimizedRMSD -1
REMARK  0 active torsions:
REMARK  status: ('A' for Active; 'I' for Inactive)
ROOT
ATOM      1  C2' OXE d   1      -0.200  -4.137  -6.000  0.00  0.00     0.078 C 
ATOM      2  C1' OXE d   1       2.228  -4.139  -4.591  0.00  0.00     0.078 C 
ATOM      3  C1  OXE d   1       1.028  -3.515  -3.924  0.00  0.00    -0.078 A 
ATOM      4  C2  OXE d   1      -0.144  -3.477  -4.639  0.00  0.00    -0.078 A 
ATOM      5  C3  OXE d   1      -1.295  -2.962  -4.050  0.00  0.00     0.003 A 
ATOM      6  C4  OXE d   1      -1.233  -2.344  -2.795  0.00  0.00    -0.002 A 
ATOM      7  C5  OXE d   1      -0.040  -2.337  -2.065  0.00  0.00    -0.002 A 
ATOM      8  C6  OXE d   1       1.087  -2.954  -2.597  0.00  0.00     0.003 A 
ENDROOT
TORSDOF 0
ENDMDL
