MODEL 1
REMARK minimizedAffinity 0.238504007
REMARK minimizedRMSD -1
REMARK  0 active torsions:
REMARK  status: ('A' for Active; 'I' for Inactive)
ROOT
ATOM      1  C2' OXE d   1       3.371  -2.994  -5.123  0.00  0.00     0.078 C 
ATOM      2  C1' OXE d   1       2.522  -1.619  -2.827  0.00  0.00     0.078 C 
ATOM      3  C1  OXE d   1       3.757  -2.478  -2.717  0.00  0.00    -0.078 A 
ATOM      4  C2  OXE d   1       4.138  -3.184  -3.832  0.00  0.00    -0.078 A 
ATOM      5  C3  OXE d   1       5.301  -3.949  -3.801  0.00  0.00     0.003 A 
ATOM      6  C4  OXE d   1       6.000  -4.127  -2.600  0.00  0.00    -0.002 A 
ATOM      7  C5  OXE d   1       5.606  -3.449  -1.442  0.00  0.00    -0.002 A 
ATOM      8  C6  OXE d   1       4.514  -2.589  -1.494  0.00  0.00     0.003 A 
ENDROOT
TORSDOF 0
ENDMDL
