MODEL 1
REMARK minimizedAffinity 5.91375828
REMARK minimizedRMSD -1
REMARK  0 active torsions:
REMARK  status: ('A' for Active; 'I' for Inactive)
ROOT
ATOM      1  C2' OXE d   1       2.628   2.861  -3.751  0.00  0.00     0.078 C 
ATOM      2  C1' OXE d   1       2.068   5.587  -3.379  0.00  0.00     0.078 C 
ATOM      3  C1  OXE d   1       3.464   5.107  -3.070  0.00  0.00    -0.078 A 
ATOM      4  C2  OXE d   1       3.716   3.763  -3.210  0.00  0.00    -0.078 A 
ATOM      5  C3  OXE d   1       5.001   3.277  -2.991  0.00  0.00     0.003 A 
ATOM      6  C4  OXE d   1       6.000   4.116  -2.481  0.00  0.00    -0.002 A 
ATOM      7  C5  OXE d   1       5.753   5.480  -2.294  0.00  0.00    -0.002 A 
ATOM      8  C6  OXE d   1       4.505   5.999  -2.623  0.00  0.00     0.003 A 
ENDROOT
TORSDOF 0
ENDMDL
