MODEL 1
REMARK minimizedAffinity -1.50776076
REMARK minimizedRMSD -1
REMARK  0 active torsions:
REMARK  status: ('A' for Active; 'I' for Inactive)
ROOT
ATOM      1  C2' OXE d   1       5.590   5.954  -1.887  0.00  0.00     0.078 C 
ATOM      2  C1' OXE d   1       2.995   4.882  -1.893  0.00  0.00     0.078 C 
ATOM      3  C1  OXE d   1       3.876   4.600  -3.085  0.00  0.00    -0.078 A 
ATOM      4  C2  OXE d   1       5.127   5.168  -3.095  0.00  0.00    -0.078 A 
ATOM      5  C3  OXE d   1       5.999   4.895  -4.145  0.00  0.00     0.003 A 
ATOM      6  C4  OXE d   1       5.560   4.176  -5.263  0.00  0.00    -0.002 A 
ATOM      7  C5  OXE d   1       4.276   3.622  -5.291  0.00  0.00    -0.002 A 
ATOM      8  C6  OXE d   1       3.437   3.789  -4.194  0.00  0.00     0.003 A 
ENDROOT
TORSDOF 0
ENDMDL
