MODEL 1
REMARK minimizedAffinity 1.95074856
REMARK minimizedRMSD -1
REMARK  0 active torsions:
REMARK  status: ('A' for Active; 'I' for Inactive)
ROOT
ATOM      1  C2' OXE d   1       5.958  -4.600  -4.128  0.00  0.00     0.078 C 
ATOM      2  C1' OXE d   1       3.699  -3.012  -4.634  0.00  0.00     0.078 C 
ATOM      3  C1  OXE d   1       4.295  -2.967  -3.249  0.00  0.00    -0.078 A 
ATOM      4  C2  OXE d   1       5.372  -3.783  -2.997  0.00  0.00    -0.078 A 
ATOM      5  C3  OXE d   1       5.994  -3.740  -1.753  0.00  0.00     0.003 A 
ATOM      6  C4  OXE d   1       5.439  -2.989  -0.709  0.00  0.00    -0.002 A 
ATOM      7  C5  OXE d   1       4.319  -2.181  -0.933  0.00  0.00    -0.002 A 
ATOM      8  C6  OXE d   1       3.762  -2.126  -2.206  0.00  0.00     0.003 A 
ENDROOT
TORSDOF 0
ENDMDL
