MODEL 1
REMARK minimizedAffinity 8.40395641
REMARK minimizedRMSD -1
REMARK  0 active torsions:
REMARK  status: ('A' for Active; 'I' for Inactive)
ROOT
ATOM      1  C2' OXE d   1       5.623  -2.621  -2.094  0.00  0.00     0.078 C 
ATOM      2  C1' OXE d   1       6.000  -2.676  -4.875  0.00  0.00     0.078 C 
ATOM      3  C1  OXE d   1       4.584  -2.706  -4.357  0.00  0.00    -0.078 A 
ATOM      4  C2  OXE d   1       4.410  -2.726  -2.994  0.00  0.00    -0.078 A 
ATOM      5  C3  OXE d   1       3.124  -2.699  -2.462  0.00  0.00     0.003 A 
ATOM      6  C4  OXE d   1       2.008  -2.807  -3.301  0.00  0.00    -0.002 A 
ATOM      7  C5  OXE d   1       2.164  -2.828  -4.691  0.00  0.00    -0.002 A 
ATOM      8  C6  OXE d   1       3.441  -2.736  -5.235  0.00  0.00     0.003 A 
ENDROOT
TORSDOF 0
ENDMDL
