MODEL 1
REMARK minimizedAffinity 10.5303936
REMARK minimizedRMSD -1
REMARK  0 active torsions:
REMARK  status: ('A' for Active; 'I' for Inactive)
ROOT
ATOM      1  C2' OXE d   1       5.999  -2.245  -1.392  0.00  0.00     0.078 C 
ATOM      2  C1' OXE d   1       5.999  -4.255  -3.351  0.00  0.00     0.078 C 
ATOM      3  C1  OXE d   1       5.421  -2.912  -3.721  0.00  0.00    -0.078 A 
ATOM      4  C2  OXE d   1       5.382  -1.949  -2.742  0.00  0.00    -0.078 A 
ATOM      5  C3  OXE d   1       4.909  -0.675  -3.046  0.00  0.00     0.003 A 
ATOM      6  C4  OXE d   1       4.331  -0.413  -4.294  0.00  0.00    -0.002 A 
ATOM      7  C5  OXE d   1       4.324  -1.392  -5.293  0.00  0.00    -0.002 A 
ATOM      8  C6  OXE d   1       4.902  -2.631  -5.037  0.00  0.00     0.003 A 
ENDROOT
TORSDOF 0
ENDMDL
