MODEL 1
REMARK minimizedAffinity 4.295084
REMARK minimizedRMSD -1
REMARK  0 active torsions:
REMARK  status: ('A' for Active; 'I' for Inactive)
ROOT
ATOM      1  C2' OXE d   1       2.282  -2.252  -4.423  0.00  0.00     0.078 C 
ATOM      2  C1' OXE d   1       4.558  -0.651  -4.788  0.00  0.00     0.078 C 
ATOM      3  C1  OXE d   1       4.696  -1.884  -3.931  0.00  0.00    -0.078 A 
ATOM      4  C2  OXE d   1       3.565  -2.636  -3.720  0.00  0.00    -0.078 A 
ATOM      5  C3  OXE d   1       3.649  -3.814  -2.982  0.00  0.00     0.003 A 
ATOM      6  C4  OXE d   1       4.838  -4.157  -2.326  0.00  0.00    -0.002 A 
ATOM      7  C5  OXE d   1       5.991  -3.383  -2.496  0.00  0.00    -0.002 A 
ATOM      8  C6  OXE d   1       5.947  -2.269  -3.328  0.00  0.00     0.003 A 
ENDROOT
TORSDOF 0
ENDMDL
