MODEL 1
REMARK minimizedAffinity 7.78168392
REMARK minimizedRMSD -1
REMARK  0 active torsions:
REMARK  status: ('A' for Active; 'I' for Inactive)
ROOT
ATOM      1  C2' OXE d   1      -3.342  -2.202  -2.228  0.00  0.00     0.078 C 
ATOM      2  C1' OXE d   1      -0.747  -2.243  -1.158  0.00  0.00     0.078 C 
ATOM      3  C1  OXE d   1      -1.897  -2.529  -0.225  0.00  0.00    -0.078 A 
ATOM      4  C2  OXE d   1      -3.166  -2.461  -0.747  0.00  0.00    -0.078 A 
ATOM      5  C3  OXE d   1      -4.260  -2.770   0.056  0.00  0.00     0.003 A 
ATOM      6  C4  OXE d   1      -4.090  -2.999   1.427  0.00  0.00    -0.002 A 
ATOM      7  C5  OXE d   1      -2.809  -3.034   1.988  0.00  0.00    -0.002 A 
ATOM      8  C6  OXE d   1      -1.701  -2.843   1.169  0.00  0.00     0.003 A 
ENDROOT
TORSDOF 0
ENDMDL
