MODEL 1
REMARK minimizedAffinity 16.1699963
REMARK minimizedRMSD -1
REMARK  0 active torsions:
REMARK  status: ('A' for Active; 'I' for Inactive)
ROOT
ATOM      1  C2' OXE d   1      -2.840   0.768   5.501  0.00  0.00     0.078 C 
ATOM      2  C1' OXE d   1      -1.245  -1.488   5.999  0.00  0.00     0.078 C 
ATOM      3  C1  OXE d   1      -1.626  -1.197   4.569  0.00  0.00    -0.078 A 
ATOM      4  C2  OXE d   1      -2.445  -0.118   4.340  0.00  0.00    -0.078 A 
ATOM      5  C3  OXE d   1      -2.782   0.226   3.034  0.00  0.00     0.003 A 
ATOM      6  C4  OXE d   1      -2.421  -0.605   1.966  0.00  0.00    -0.002 A 
ATOM      7  C5  OXE d   1      -1.620  -1.731   2.182  0.00  0.00    -0.002 A 
ATOM      8  C6  OXE d   1      -1.179  -2.017   3.470  0.00  0.00     0.003 A 
ENDROOT
TORSDOF 0
ENDMDL
