MODEL 1
REMARK minimizedAffinity 14.9595842
REMARK minimizedRMSD -1
REMARK  0 active torsions:
REMARK  status: ('A' for Active; 'I' for Inactive)
ROOT
ATOM      1  C2' OXE d   1       5.997  -4.217   3.209  0.00  0.00     0.078 C 
ATOM      2  C1' OXE d   1       5.713  -4.533   5.984  0.00  0.00     0.078 C 
ATOM      3  C1  OXE d   1       4.806  -3.547   5.291  0.00  0.00    -0.078 A 
ATOM      4  C2  OXE d   1       4.983  -3.364   3.941  0.00  0.00    -0.078 A 
ATOM      5  C3  OXE d   1       4.137  -2.507   3.244  0.00  0.00     0.003 A 
ATOM      6  C4  OXE d   1       3.209  -1.714   3.930  0.00  0.00    -0.002 A 
ATOM      7  C5  OXE d   1       3.039  -1.855   5.312  0.00  0.00    -0.002 A 
ATOM      8  C6  OXE d   1       3.798  -2.796   5.999  0.00  0.00     0.003 A 
ENDROOT
TORSDOF 0
ENDMDL
