MODEL 1
REMARK minimizedAffinity 9.54860306
REMARK minimizedRMSD -1
REMARK  0 active torsions:
REMARK  status: ('A' for Active; 'I' for Inactive)
ROOT
ATOM      1  C2' OXE d   1       4.931   5.159  -2.139  0.00  0.00     0.078 C 
ATOM      2  C1' OXE d   1       2.578   5.518  -3.628  0.00  0.00     0.078 C 
ATOM      3  C1  OXE d   1       2.443   5.060  -2.197  0.00  0.00    -0.078 A 
ATOM      4  C2  OXE d   1       3.601   4.842  -1.491  0.00  0.00    -0.078 A 
ATOM      5  C3  OXE d   1       3.532   4.471  -0.151  0.00  0.00     0.003 A 
ATOM      6  C4  OXE d   1       2.298   4.170   0.438  0.00  0.00    -0.002 A 
ATOM      7  C5  OXE d   1       1.108   4.347  -0.275  0.00  0.00    -0.002 A 
ATOM      8  C6  OXE d   1       1.161   4.831  -1.578  0.00  0.00     0.003 A 
ENDROOT
TORSDOF 0
ENDMDL
