MODEL 1
REMARK minimizedAffinity 7.16000652
REMARK minimizedRMSD -1
REMARK  0 active torsions:
REMARK  status: ('A' for Active; 'I' for Inactive)
ROOT
ATOM      1  C2' OXE d   1       5.740   1.610  -4.876  0.00  0.00     0.078 C 
ATOM      2  C1' OXE d   1       2.976   1.262  -5.214  0.00  0.00     0.078 C 
ATOM      3  C1  OXE d   1       3.761   0.119  -4.621  0.00  0.00    -0.078 A 
ATOM      4  C2  OXE d   1       5.121   0.281  -4.503  0.00  0.00    -0.078 A 
ATOM      5  C3  OXE d   1       5.885  -0.721  -3.911  0.00  0.00     0.003 A 
ATOM      6  C4  OXE d   1       5.306  -1.951  -3.578  0.00  0.00    -0.002 A 
ATOM      7  C5  OXE d   1       3.929  -2.151  -3.727  0.00  0.00    -0.002 A 
ATOM      8  C6  OXE d   1       3.138  -1.113  -4.206  0.00  0.00     0.003 A 
ENDROOT
TORSDOF 0
ENDMDL
