MODEL 1
REMARK minimizedAffinity 5.53105927
REMARK minimizedRMSD -1
REMARK  0 active torsions:
REMARK  status: ('A' for Active; 'I' for Inactive)
ROOT
ATOM      1  C2' OXE d   1       2.746   4.174  -0.467  0.00  0.00     0.078 C 
ATOM      2  C1' OXE d   1       2.687   4.124  -3.273  0.00  0.00     0.078 C 
ATOM      3  C1  OXE d   1       3.873   4.775  -2.606  0.00  0.00    -0.078 A 
ATOM      4  C2  OXE d   1       3.871   4.836  -1.233  0.00  0.00    -0.078 A 
ATOM      5  C3  OXE d   1       4.966   5.377  -0.566  0.00  0.00     0.003 A 
ATOM      6  C4  OXE d   1       5.997   5.997  -1.282  0.00  0.00    -0.002 A 
ATOM      7  C5  OXE d   1       6.000   5.980  -2.680  0.00  0.00    -0.002 A 
ATOM      8  C6  OXE d   1       4.968   5.337  -3.356  0.00  0.00     0.003 A 
ENDROOT
TORSDOF 0
ENDMDL
