MODEL 1
REMARK minimizedAffinity 10.0639925
REMARK minimizedRMSD -1
REMARK  0 active torsions:
REMARK  status: ('A' for Active; 'I' for Inactive)
ROOT
ATOM      1  C2' OXE d   1       5.993   2.846  -4.182  0.00  0.00     0.078 C 
ATOM      2  C1' OXE d   1       3.189   2.800  -4.066  0.00  0.00     0.078 C 
ATOM      3  C1  OXE d   1       3.911   3.818  -3.219  0.00  0.00    -0.078 A 
ATOM      4  C2  OXE d   1       5.285   3.802  -3.247  0.00  0.00    -0.078 A 
ATOM      5  C3  OXE d   1       6.000   4.756  -2.528  0.00  0.00     0.003 A 
ATOM      6  C4  OXE d   1       5.338   5.630  -1.657  0.00  0.00    -0.002 A 
ATOM      7  C5  OXE d   1       3.941   5.636  -1.584  0.00  0.00    -0.002 A 
ATOM      8  C6  OXE d   1       3.213   4.767  -2.388  0.00  0.00     0.003 A 
ENDROOT
TORSDOF 0
ENDMDL
