MODEL 1
REMARK minimizedAffinity 0.811539233
REMARK minimizedRMSD -1
REMARK  1 active torsions:
REMARK  status: ('A' for Active; 'I' for Inactive)
REMARK    1  A    between atoms: C3_4  and  O_7 
ROOT
ATOM      1  C   UNL d   1       5.957   3.738   5.912  0.00  0.00    -0.033 A 
ATOM      2  C1  UNL d   1       6.000   5.132   5.965  0.00  0.00     0.039 A 
ATOM      3  C2  UNL d   1       4.814   5.868   5.996  0.00  0.00    -0.080 A 
ATOM      4  C3  UNL d   1       3.593   5.199   5.974  0.00  0.00     0.150 A 
ATOM      5  C4  UNL d   1       3.543   3.809   5.924  0.00  0.00    -0.007 A 
ATOM      6  C5  UNL d   1       4.729   3.076   5.893  0.00  0.00     0.039 A 
ENDROOT
BRANCH   4   7
ATOM      7  O   UNL d   1       2.409   5.874   5.997  0.00  0.00    -0.526 OA
ATOM      8  H5  UNL d   1       2.599   6.827   6.002  0.00  0.00     0.418 HD
ENDBRANCH   4   7
TORSDOF 1
ENDMDL
