MODEL 1
REMARK minimizedAffinity -0.372036815
REMARK minimizedRMSD -1
REMARK  1 active torsions:
REMARK  status: ('A' for Active; 'I' for Inactive)
REMARK    1  A    between atoms: C3_4  and  O_7 
ROOT
ATOM      1  C   UNL d   1       5.976   3.907   5.969  0.00  0.00    -0.033 A 
ATOM      2  C1  UNL d   1       4.771   3.202   5.950  0.00  0.00     0.039 A 
ATOM      3  C2  UNL d   1       3.557   3.891   5.959  0.00  0.00    -0.080 A 
ATOM      4  C3  UNL d   1       3.562   5.283   5.985  0.00  0.00     0.150 A 
ATOM      5  C4  UNL d   1       4.758   5.992   5.999  0.00  0.00    -0.007 A 
ATOM      6  C5  UNL d   1       5.970   5.302   5.992  0.00  0.00     0.039 A 
ENDROOT
BRANCH   4   7
ATOM      7  O   UNL d   1       2.402   5.999   5.999  0.00  0.00    -0.526 OA
ATOM      8  H5  UNL d   1       1.656   5.377   6.016  0.00  0.00     0.418 HD
ENDBRANCH   4   7
TORSDOF 1
ENDMDL
