MODEL 1
REMARK minimizedAffinity 3.34115672
REMARK minimizedRMSD -1
REMARK  1 active torsions:
REMARK  status: ('A' for Active; 'I' for Inactive)
REMARK    1  A    between atoms: C3_4  and  O_7 
ROOT
ATOM      1  C   UNL d   1       4.132   5.753   6.000  0.00  0.00    -0.033 A 
ATOM      2  C1  UNL d   1       3.514   4.500   5.999  0.00  0.00     0.039 A 
ATOM      3  C2  UNL d   1       4.043   3.460   5.231  0.00  0.00    -0.080 A 
ATOM      4  C3  UNL d   1       5.187   3.685   4.471  0.00  0.00     0.150 A 
ATOM      5  C4  UNL d   1       5.809   4.930   4.470  0.00  0.00    -0.007 A 
ATOM      6  C5  UNL d   1       5.280   5.967   5.237  0.00  0.00     0.039 A 
ENDROOT
BRANCH   4   7
ATOM      7  O   UNL d   1       5.737   2.703   3.702  0.00  0.00    -0.526 OA
ATOM      8  H5  UNL d   1       5.184   1.907   3.779  0.00  0.00     0.418 HD
ENDBRANCH   4   7
TORSDOF 1
ENDMDL
