MODEL 1
REMARK minimizedAffinity 8.61076832
REMARK minimizedRMSD -1
REMARK  1 active torsions:
REMARK  status: ('A' for Active; 'I' for Inactive)
REMARK    1  A    between atoms: C3_4  and  O_7 
ROOT
ATOM      1  C   UNL d   1       5.944   4.321   5.976  0.00  0.00    -0.033 A 
ATOM      2  C1  UNL d   1       4.976   3.315   5.981  0.00  0.00     0.039 A 
ATOM      3  C2  UNL d   1       3.620   3.649   5.972  0.00  0.00    -0.080 A 
ATOM      4  C3  UNL d   1       3.247   4.990   5.958  0.00  0.00     0.150 A 
ATOM      5  C4  UNL d   1       4.206   5.997   5.949  0.00  0.00    -0.007 A 
ATOM      6  C5  UNL d   1       5.559   5.662   5.958  0.00  0.00     0.039 A 
ENDROOT
BRANCH   4   7
ATOM      7  O   UNL d   1       1.936   5.365   5.954  0.00  0.00    -0.526 OA
ATOM      8  H5  UNL d   1       1.387   4.564   5.990  0.00  0.00     0.418 HD
ENDBRANCH   4   7
TORSDOF 1
ENDMDL
