MODEL 1
REMARK minimizedAffinity 1.17459774
REMARK minimizedRMSD -1
REMARK  1 active torsions:
REMARK  status: ('A' for Active; 'I' for Inactive)
REMARK    1  A    between atoms: C3_4  and  O_7 
ROOT
ATOM      1  C   UNL d   1       5.857   3.892   5.881  0.00  0.00    -0.033 A 
ATOM      2  C1  UNL d   1       4.649   3.194   5.832  0.00  0.00     0.039 A 
ATOM      3  C2  UNL d   1       3.438   3.889   5.868  0.00  0.00    -0.080 A 
ATOM      4  C3  UNL d   1       3.450   5.278   5.953  0.00  0.00     0.150 A 
ATOM      5  C4  UNL d   1       4.650   5.980   5.999  0.00  0.00    -0.007 A 
ATOM      6  C5  UNL d   1       5.858   5.285   5.963  0.00  0.00     0.039 A 
ENDROOT
BRANCH   4   7
ATOM      7  O   UNL d   1       2.293   5.999   5.996  0.00  0.00    -0.526 OA
ATOM      8  H5  UNL d   1       1.544   5.380   5.985  0.00  0.00     0.418 HD
ENDBRANCH   4   7
TORSDOF 1
ENDMDL
