MODEL 1
REMARK minimizedAffinity 5.69830275
REMARK minimizedRMSD -1
REMARK  1 active torsions:
REMARK  status: ('A' for Active; 'I' for Inactive)
REMARK    1  A    between atoms: C3_4  and  O_7 
ROOT
ATOM      1  C   UNL d   1      -1.843  -1.221   1.775  0.00  0.00    -0.033 A 
ATOM      2  C1  UNL d   1      -0.930  -2.152   2.276  0.00  0.00     0.039 A 
ATOM      3  C2  UNL d   1      -0.587  -3.274   1.519  0.00  0.00    -0.080 A 
ATOM      4  C3  UNL d   1      -1.163  -3.453   0.264  0.00  0.00     0.150 A 
ATOM      5  C4  UNL d   1      -2.070  -2.528  -0.243  0.00  0.00    -0.007 A 
ATOM      6  C5  UNL d   1      -2.411  -1.409   0.515  0.00  0.00     0.039 A 
ENDROOT
BRANCH   4   7
ATOM      7  O   UNL d   1      -0.863  -4.535  -0.509  0.00  0.00    -0.526 OA
ATOM      8  H5  UNL d   1      -0.245  -5.102  -0.019  0.00  0.00     0.418 HD
ENDBRANCH   4   7
TORSDOF 1
ENDMDL
