MODEL 1
REMARK minimizedAffinity 1.42158151
REMARK minimizedRMSD -1
REMARK  1 active torsions:
REMARK  status: ('A' for Active; 'I' for Inactive)
REMARK    1  A    between atoms: C3_4  and  O_7 
ROOT
ATOM      1  C   UNL d   1       5.963   3.875   5.890  0.00  0.00    -0.033 A 
ATOM      2  C1  UNL d   1       5.998   5.269   5.961  0.00  0.00     0.039 A 
ATOM      3  C2  UNL d   1       4.808   5.998   6.000  0.00  0.00    -0.080 A 
ATOM      4  C3  UNL d   1       3.591   5.322   5.968  0.00  0.00     0.150 A 
ATOM      5  C4  UNL d   1       3.549   3.933   5.902  0.00  0.00    -0.007 A 
ATOM      6  C5  UNL d   1       4.739   3.207   5.862  0.00  0.00     0.039 A 
ENDROOT
BRANCH   4   7
ATOM      7  O   UNL d   1       2.404   5.991   5.999  0.00  0.00    -0.526 OA
ATOM      8  H5  UNL d   1       2.588   6.945   6.016  0.00  0.00     0.418 HD
ENDBRANCH   4   7
TORSDOF 1
ENDMDL
