MODEL 1
REMARK minimizedAffinity 12.5287361
REMARK minimizedRMSD -1
REMARK  1 active torsions:
REMARK  status: ('A' for Active; 'I' for Inactive)
REMARK    1  A    between atoms: C3_4  and  O_7 
ROOT
ATOM      1  C   UNL d   1      -5.445   5.998   0.736  0.00  0.00    -0.033 A 
ATOM      2  C1  UNL d   1      -4.163   5.919   0.188  0.00  0.00     0.039 A 
ATOM      3  C2  UNL d   1      -3.429   4.735   0.291  0.00  0.00    -0.080 A 
ATOM      4  C3  UNL d   1      -3.988   3.639   0.942  0.00  0.00     0.150 A 
ATOM      5  C4  UNL d   1      -5.266   3.710   1.488  0.00  0.00    -0.007 A 
ATOM      6  C5  UNL d   1      -5.997   4.893   1.385  0.00  0.00     0.039 A 
ENDROOT
BRANCH   4   7
ATOM      7  O   UNL d   1      -3.309   2.465   1.072  0.00  0.00    -0.526 OA
ATOM      8  H5  UNL d   1      -2.429   2.572   0.672  0.00  0.00     0.418 HD
ENDBRANCH   4   7
TORSDOF 1
ENDMDL
