MODEL 1
REMARK minimizedAffinity 1.20619094
REMARK minimizedRMSD -1
REMARK  1 active torsions:
REMARK  status: ('A' for Active; 'I' for Inactive)
REMARK    1  A    between atoms: C3_4  and  O_7 
ROOT
ATOM      1  C   UNL d   1       5.989   3.903   5.885  0.00  0.00    -0.033 A 
ATOM      2  C1  UNL d   1       4.785   3.206   5.996  0.00  0.00     0.039 A 
ATOM      3  C2  UNL d   1       3.571   3.896   5.957  0.00  0.00    -0.080 A 
ATOM      4  C3  UNL d   1       3.576   5.280   5.807  0.00  0.00     0.150 A 
ATOM      5  C4  UNL d   1       4.773   5.980   5.692  0.00  0.00    -0.007 A 
ATOM      6  C5  UNL d   1       5.984   5.290   5.731  0.00  0.00     0.039 A 
ENDROOT
BRANCH   4   7
ATOM      7  O   UNL d   1       2.418   5.997   5.768  0.00  0.00    -0.526 OA
ATOM      8  H5  UNL d   1       1.673   5.385   5.888  0.00  0.00     0.418 HD
ENDBRANCH   4   7
TORSDOF 1
ENDMDL
