MODEL 1
REMARK minimizedAffinity 4.49939537
REMARK minimizedRMSD -1
REMARK  1 active torsions:
REMARK  status: ('A' for Active; 'I' for Inactive)
REMARK    1  A    between atoms: C3_4  and  O_7 
ROOT
ATOM      1  C   UNL d   1      -0.762  -4.039   0.361  0.00  0.00    -0.033 A 
ATOM      2  C1  UNL d   1      -0.193  -3.375   1.450  0.00  0.00     0.039 A 
ATOM      3  C2  UNL d   1      -0.084  -4.020   2.684  0.00  0.00    -0.080 A 
ATOM      4  C3  UNL d   1      -0.545  -5.327   2.814  0.00  0.00     0.150 A 
ATOM      5  C4  UNL d   1      -1.108  -5.996   1.733  0.00  0.00    -0.007 A 
ATOM      6  C5  UNL d   1      -1.218  -5.350   0.502  0.00  0.00     0.039 A 
ENDROOT
BRANCH   4   7
ATOM      7  O   UNL d   1      -0.464  -5.996   4.000  0.00  0.00    -0.526 OA
ATOM      8  H5  UNL d   1      -0.079  -5.400   4.664  0.00  0.00     0.418 HD
ENDBRANCH   4   7
TORSDOF 1
ENDMDL
