MODEL 1
REMARK minimizedAffinity 16.1778049
REMARK minimizedRMSD -1
REMARK  1 active torsions:
REMARK  status: ('A' for Active; 'I' for Inactive)
REMARK    1  A    between atoms: C3_4  and  O_7 
ROOT
ATOM      1  C   UNL d   1       4.751   3.923   5.779  0.00  0.00    -0.033 A 
ATOM      2  C1  UNL d   1       5.386   5.159   5.915  0.00  0.00     0.039 A 
ATOM      3  C2  UNL d   1       5.811   5.855   4.782  0.00  0.00    -0.080 A 
ATOM      4  C3  UNL d   1       5.596   5.305   3.521  0.00  0.00     0.150 A 
ATOM      5  C4  UNL d   1       4.961   4.076   3.379  0.00  0.00    -0.007 A 
ATOM      6  C5  UNL d   1       4.537   3.382   4.511  0.00  0.00     0.039 A 
ENDROOT
BRANCH   4   7
ATOM      7  O   UNL d   1       5.998   5.945   2.387  0.00  0.00    -0.526 OA
ATOM      8  H5  UNL d   1       6.447   6.769   2.640  0.00  0.00     0.418 HD
ENDBRANCH   4   7
TORSDOF 1
ENDMDL
