MODEL 1
REMARK minimizedAffinity 1.52991307
REMARK minimizedRMSD -1
REMARK  1 active torsions:
REMARK  status: ('A' for Active; 'I' for Inactive)
REMARK    1  A    between atoms: C3_4  and  O_7 
ROOT
ATOM      1  C   UNL d   1       5.883   3.900   5.981  0.00  0.00    -0.033 A 
ATOM      2  C1  UNL d   1       5.887   5.296   5.990  0.00  0.00     0.039 A 
ATOM      3  C2  UNL d   1       4.682   6.000   5.997  0.00  0.00    -0.080 A 
ATOM      4  C3  UNL d   1       3.480   5.297   5.995  0.00  0.00     0.150 A 
ATOM      5  C4  UNL d   1       3.468   3.906   5.989  0.00  0.00    -0.007 A 
ATOM      6  C5  UNL d   1       4.673   3.205   5.982  0.00  0.00     0.039 A 
ENDROOT
BRANCH   4   7
ATOM      7  O   UNL d   1       2.278   5.940   5.996  0.00  0.00    -0.526 OA
ATOM      8  H5  UNL d   1       2.441   6.897   5.971  0.00  0.00     0.418 HD
ENDBRANCH   4   7
TORSDOF 1
ENDMDL
