MODEL 1
REMARK minimizedAffinity 9.11361408
REMARK minimizedRMSD -1
REMARK  1 active torsions:
REMARK  status: ('A' for Active; 'I' for Inactive)
REMARK    1  A    between atoms: C3_4  and  O_7 
ROOT
ATOM      1  C   UNL d   1       0.070   2.403  -4.867  0.00  0.00    -0.033 A 
ATOM      2  C1  UNL d   1      -0.492   1.453  -4.013  0.00  0.00     0.039 A 
ATOM      3  C2  UNL d   1      -1.836   1.099  -4.147  0.00  0.00    -0.080 A 
ATOM      4  C3  UNL d   1      -2.605   1.701  -5.139  0.00  0.00     0.150 A 
ATOM      5  C4  UNL d   1      -2.050   2.646  -5.996  0.00  0.00    -0.007 A 
ATOM      6  C5  UNL d   1      -0.708   2.999  -5.860  0.00  0.00     0.039 A 
ENDROOT
BRANCH   4   7
ATOM      7  O   UNL d   1      -3.922   1.392  -5.305  0.00  0.00    -0.526 OA
ATOM      8  H5  UNL d   1      -4.175   0.746  -4.624  0.00  0.00     0.418 HD
ENDBRANCH   4   7
TORSDOF 1
ENDMDL
