MODEL 1
REMARK minimizedAffinity 9.20106125
REMARK minimizedRMSD -1
REMARK  1 active torsions:
REMARK  status: ('A' for Active; 'I' for Inactive)
REMARK    1  A    between atoms: C3_4  and  O_7 
ROOT
ATOM      1  C   UNL d   1      -2.400  -1.111  -1.961  0.00  0.00    -0.033 A 
ATOM      2  C1  UNL d   1      -2.674  -1.671  -0.711  0.00  0.00     0.039 A 
ATOM      3  C2  UNL d   1      -2.207  -2.950  -0.400  0.00  0.00    -0.080 A 
ATOM      4  C3  UNL d   1      -1.467  -3.655  -1.345  0.00  0.00     0.150 A 
ATOM      5  C4  UNL d   1      -1.187  -3.101  -2.590  0.00  0.00    -0.007 A 
ATOM      6  C5  UNL d   1      -1.656  -1.825  -2.899  0.00  0.00     0.039 A 
ENDROOT
BRANCH   4   7
ATOM      7  O   UNL d   1      -0.994  -4.908  -1.089  0.00  0.00    -0.526 OA
ATOM      8  H5  UNL d   1      -1.289  -5.173  -0.202  0.00  0.00     0.418 HD
ENDBRANCH   4   7
TORSDOF 1
ENDMDL
