MODEL 1
REMARK minimizedAffinity 0.134966359
REMARK minimizedRMSD -1
REMARK  1 active torsions:
REMARK  status: ('A' for Active; 'I' for Inactive)
REMARK    1  A    between atoms: C3_4  and  O_7 
ROOT
ATOM      1  C   UNL d   1       5.976   3.921   5.993  0.00  0.00    -0.033 A 
ATOM      2  C1  UNL d   1       4.775   3.210   5.995  0.00  0.00     0.039 A 
ATOM      3  C2  UNL d   1       3.557   3.893   5.961  0.00  0.00    -0.080 A 
ATOM      4  C3  UNL d   1       3.555   5.285   5.924  0.00  0.00     0.150 A 
ATOM      5  C4  UNL d   1       4.749   5.999   5.918  0.00  0.00    -0.007 A 
ATOM      6  C5  UNL d   1       5.963   5.315   5.953  0.00  0.00     0.039 A 
ENDROOT
BRANCH   4   7
ATOM      7  O   UNL d   1       2.392   5.995   5.894  0.00  0.00    -0.526 OA
ATOM      8  H5  UNL d   1       1.649   5.370   5.932  0.00  0.00     0.418 HD
ENDBRANCH   4   7
TORSDOF 1
ENDMDL
