MODEL 1
REMARK minimizedAffinity 9.4902029
REMARK minimizedRMSD -1
REMARK  1 active torsions:
REMARK  status: ('A' for Active; 'I' for Inactive)
REMARK    1  A    between atoms: C3_4  and  O_7 
ROOT
ATOM      1  C   UNL d   1      -1.941  -1.813   2.321  0.00  0.00    -0.033 A 
ATOM      2  C1  UNL d   1      -0.737  -1.903   1.619  0.00  0.00     0.039 A 
ATOM      3  C2  UNL d   1      -0.705  -1.640   0.249  0.00  0.00    -0.080 A 
ATOM      4  C3  UNL d   1      -1.881  -1.287  -0.407  0.00  0.00     0.150 A 
ATOM      5  C4  UNL d   1      -3.083  -1.191   0.286  0.00  0.00    -0.007 A 
ATOM      6  C5  UNL d   1      -3.114  -1.456   1.655  0.00  0.00     0.039 A 
ENDROOT
BRANCH   4   7
ATOM      7  O   UNL d   1      -1.900  -1.025  -1.745  0.00  0.00    -0.526 OA
ATOM      8  H5  UNL d   1      -1.004  -1.158  -2.097  0.00  0.00     0.418 HD
ENDBRANCH   4   7
TORSDOF 1
ENDMDL
