MODEL 1
REMARK minimizedAffinity 4.01361465
REMARK minimizedRMSD -1
REMARK  0 active torsions:
REMARK  status: ('A' for Active; 'I' for Inactive)
ROOT
ATOM      1  C   UNL d   1       1.800  -5.066  -4.884  0.00  0.00     0.077 C 
ATOM      2  C1  UNL d   1       3.262  -5.398  -4.829  0.00  0.00    -0.074 A 
ATOM      3  C2  UNL d   1       3.990  -5.635  -6.000  0.00  0.00    -0.005 A 
ATOM      4  C3  UNL d   1       5.351  -5.933  -5.934  0.00  0.00     0.006 A 
ATOM      5  C4  UNL d   1       5.996  -5.998  -4.699  0.00  0.00    -0.005 A 
ATOM      6  C5  UNL d   1       5.285  -5.764  -3.517  0.00  0.00    -0.074 A 
ATOM      7  C6  UNL d   1       5.966  -5.820  -2.182  0.00  0.00     0.077 C 
ATOM      8  C7  UNL d   1       3.920  -5.458  -3.593  0.00  0.00    -0.001 A 
ENDROOT
TORSDOF 0
ENDMDL
