MODEL 1
REMARK minimizedAffinity -1.97559166
REMARK minimizedRMSD -1
REMARK  0 active torsions:
REMARK  status: ('A' for Active; 'I' for Inactive)
ROOT
ATOM      1  C   UNL d   1       3.366  -4.765  -1.836  0.00  0.00     0.077 C 
ATOM      2  C1  UNL d   1       3.395  -5.147  -3.286  0.00  0.00    -0.074 A 
ATOM      3  C2  UNL d   1       2.212  -5.250  -4.026  0.00  0.00    -0.005 A 
ATOM      4  C3  UNL d   1       2.255  -5.596  -5.377  0.00  0.00     0.006 A 
ATOM      5  C4  UNL d   1       3.479  -5.843  -6.000  0.00  0.00    -0.005 A 
ATOM      6  C5  UNL d   1       4.672  -5.744  -5.277  0.00  0.00    -0.074 A 
ATOM      7  C6  UNL d   1       5.996  -5.997  -5.934  0.00  0.00     0.077 C 
ATOM      8  C7  UNL d   1       4.621  -5.389  -3.922  0.00  0.00    -0.001 A 
ENDROOT
TORSDOF 0
ENDMDL
