MODEL 1
REMARK minimizedAffinity 2.03874445
REMARK minimizedRMSD -1
REMARK  0 active torsions:
REMARK  status: ('A' for Active; 'I' for Inactive)
ROOT
ATOM      1  C   UNL d   1       4.893   1.481  -1.885  0.00  0.00     0.077 C 
ATOM      2  C1  UNL d   1       4.166   1.913  -0.646  0.00  0.00    -0.074 A 
ATOM      3  C2  UNL d   1       4.858   2.470   0.434  0.00  0.00    -0.005 A 
ATOM      4  C3  UNL d   1       4.167   2.877   1.576  0.00  0.00     0.006 A 
ATOM      5  C4  UNL d   1       2.781   2.731   1.649  0.00  0.00    -0.005 A 
ATOM      6  C5  UNL d   1       2.073   2.178   0.577  0.00  0.00    -0.074 A 
ATOM      7  C6  UNL d   1       0.583   2.023   0.635  0.00  0.00     0.077 C 
ATOM      8  C7  UNL d   1       2.773   1.778  -0.569  0.00  0.00    -0.001 A 
ENDROOT
TORSDOF 0
ENDMDL
