MODEL 1
REMARK minimizedAffinity 4.09910202
REMARK minimizedRMSD -1
REMARK  0 active torsions:
REMARK  status: ('A' for Active; 'I' for Inactive)
ROOT
ATOM      1  C   UNL d   1       2.697  -5.883  -1.085  0.00  0.00     0.077 C 
ATOM      2  C1  UNL d   1       3.340  -5.687  -2.426  0.00  0.00    -0.074 A 
ATOM      3  C2  UNL d   1       4.725  -5.805  -2.583  0.00  0.00    -0.005 A 
ATOM      4  C3  UNL d   1       5.307  -5.629  -3.838  0.00  0.00     0.006 A 
ATOM      5  C4  UNL d   1       4.513  -5.333  -4.947  0.00  0.00    -0.005 A 
ATOM      6  C5  UNL d   1       3.126  -5.212  -4.808  0.00  0.00    -0.074 A 
ATOM      7  C6  UNL d   1       2.257  -4.904  -5.991  0.00  0.00     0.077 C 
ATOM      8  C7  UNL d   1       2.548  -5.397  -3.545  0.00  0.00    -0.001 A 
ENDROOT
TORSDOF 0
ENDMDL
