MODEL 1
REMARK minimizedAffinity -1.7287873
REMARK minimizedRMSD -1
REMARK  0 active torsions:
REMARK  status: ('A' for Active; 'I' for Inactive)
ROOT
ATOM      1  C   UNL d   1       1.028  -5.790  -5.889  0.00  0.00     0.077 C 
ATOM      2  C1  UNL d   1       2.318  -5.571  -5.156  0.00  0.00    -0.074 A 
ATOM      3  C2  UNL d   1       2.351  -5.519  -3.759  0.00  0.00    -0.005 A 
ATOM      4  C3  UNL d   1       3.560  -5.325  -3.091  0.00  0.00     0.006 A 
ATOM      5  C4  UNL d   1       4.746  -5.181  -3.812  0.00  0.00    -0.005 A 
ATOM      6  C5  UNL d   1       4.733  -5.232  -5.210  0.00  0.00    -0.074 A 
ATOM      7  C6  UNL d   1       6.000  -5.089  -6.000  0.00  0.00     0.077 C 
ATOM      8  C7  UNL d   1       3.515  -5.434  -5.873  0.00  0.00    -0.001 A 
ENDROOT
TORSDOF 0
ENDMDL
