MODEL 1
REMARK minimizedAffinity -2.32457471
REMARK minimizedRMSD -1
REMARK  0 active torsions:
REMARK  status: ('A' for Active; 'I' for Inactive)
ROOT
ATOM      1  C   UNL d   1       1.848  -5.968  -6.000  0.00  0.00     0.077 C 
ATOM      2  C1  UNL d   1       3.132  -5.858  -5.232  0.00  0.00    -0.074 A 
ATOM      3  C2  UNL d   1       4.344  -5.622  -5.888  0.00  0.00    -0.005 A 
ATOM      4  C3  UNL d   1       5.529  -5.513  -5.160  0.00  0.00     0.006 A 
ATOM      5  C4  UNL d   1       5.513  -5.638  -3.770  0.00  0.00    -0.005 A 
ATOM      6  C5  UNL d   1       4.310  -5.873  -3.097  0.00  0.00    -0.074 A 
ATOM      7  C6  UNL d   1       4.274  -6.000  -1.602  0.00  0.00     0.077 C 
ATOM      8  C7  UNL d   1       3.123  -5.974  -3.835  0.00  0.00    -0.001 A 
ENDROOT
TORSDOF 0
ENDMDL
