MODEL 1
REMARK minimizedAffinity 1.50230634
REMARK minimizedRMSD -1
REMARK  0 active torsions:
REMARK  status: ('A' for Active; 'I' for Inactive)
ROOT
ATOM      1  C   UNL d   1      -5.980   5.514  -5.992  0.00  0.00     0.077 C 
ATOM      2  C1  UNL d   1      -5.308   4.235  -5.588  0.00  0.00    -0.074 A 
ATOM      3  C2  UNL d   1      -5.998   3.258  -4.864  0.00  0.00    -0.005 A 
ATOM      4  C3  UNL d   1      -5.363   2.069  -4.504  0.00  0.00     0.006 A 
ATOM      5  C4  UNL d   1      -4.033   1.846  -4.865  0.00  0.00    -0.005 A 
ATOM      6  C5  UNL d   1      -3.327   2.812  -5.590  0.00  0.00    -0.074 A 
ATOM      7  C6  UNL d   1      -1.901   2.584  -5.994  0.00  0.00     0.077 C 
ATOM      8  C7  UNL d   1      -3.975   4.000  -5.954  0.00  0.00    -0.001 A 
ENDROOT
TORSDOF 0
ENDMDL
