MODEL 1
REMARK minimizedAffinity -2.13359237
REMARK minimizedRMSD -1
REMARK  0 active torsions:
REMARK  status: ('A' for Active; 'I' for Inactive)
ROOT
ATOM      1  C   UNL d   1       6.000  -5.494  -5.999  0.00  0.00     0.077 C 
ATOM      2  C1  UNL d   1       4.711  -5.655  -5.250  0.00  0.00    -0.074 A 
ATOM      3  C2  UNL d   1       3.503  -5.842  -5.929  0.00  0.00    -0.005 A 
ATOM      4  C3  UNL d   1       2.313  -6.000  -5.218  0.00  0.00     0.006 A 
ATOM      5  C4  UNL d   1       2.319  -5.971  -3.823  0.00  0.00    -0.005 A 
ATOM      6  C5  UNL d   1       3.517  -5.785  -3.126  0.00  0.00    -0.074 A 
ATOM      7  C6  UNL d   1       3.543  -5.762  -1.627  0.00  0.00     0.077 C 
ATOM      8  C7  UNL d   1       4.710  -5.635  -3.848  0.00  0.00    -0.001 A 
ENDROOT
TORSDOF 0
ENDMDL
