MODEL 1
REMARK minimizedAffinity -2.98820806
REMARK minimizedRMSD -1
REMARK  0 active torsions:
REMARK  status: ('A' for Active; 'I' for Inactive)
ROOT
ATOM      1  C   UNL d   1      -1.741   2.985  -5.620  0.00  0.00     0.077 C 
ATOM      2  C1  UNL d   1      -3.226   3.151  -5.755  0.00  0.00    -0.074 A 
ATOM      3  C2  UNL d   1      -4.071   2.038  -5.807  0.00  0.00    -0.005 A 
ATOM      4  C3  UNL d   1      -5.451   2.208  -5.923  0.00  0.00     0.006 A 
ATOM      5  C4  UNL d   1      -5.998   3.490  -5.990  0.00  0.00    -0.005 A 
ATOM      6  C5  UNL d   1      -5.168   4.615  -5.939  0.00  0.00    -0.074 A 
ATOM      7  C6  UNL d   1      -5.740   6.000  -6.000  0.00  0.00     0.077 C 
ATOM      8  C7  UNL d   1      -3.783   4.436  -5.815  0.00  0.00    -0.001 A 
ENDROOT
TORSDOF 0
ENDMDL
