MODEL 1
REMARK minimizedAffinity 0.122953646
REMARK minimizedRMSD -1
REMARK  0 active torsions:
REMARK  status: ('A' for Active; 'I' for Inactive)
ROOT
ATOM      1  C   UNL d   1       1.452  -5.928  -4.698  0.00  0.00     0.077 C 
ATOM      2  C1  UNL d   1       2.929  -5.677  -4.775  0.00  0.00    -0.074 A 
ATOM      3  C2  UNL d   1       3.648  -5.966  -5.940  0.00  0.00    -0.005 A 
ATOM      4  C3  UNL d   1       5.019  -5.718  -6.000  0.00  0.00     0.006 A 
ATOM      5  C4  UNL d   1       5.684  -5.178  -4.898  0.00  0.00    -0.005 A 
ATOM      6  C5  UNL d   1       4.982  -4.881  -3.726  0.00  0.00    -0.074 A 
ATOM      7  C6  UNL d   1       5.679  -4.291  -2.536  0.00  0.00     0.077 C 
ATOM      8  C7  UNL d   1       3.603  -5.127  -3.676  0.00  0.00    -0.001 A 
ENDROOT
TORSDOF 0
ENDMDL
