MODEL 1
REMARK minimizedAffinity 0.947420061
REMARK minimizedRMSD -1
REMARK  0 active torsions:
REMARK  status: ('A' for Active; 'I' for Inactive)
ROOT
ATOM      1  C   UNL d   1       4.479  -5.970  -1.884  0.00  0.00     0.077 C 
ATOM      2  C1  UNL d   1       4.270  -5.579  -3.317  0.00  0.00    -0.074 A 
ATOM      3  C2  UNL d   1       5.247  -4.864  -4.017  0.00  0.00    -0.005 A 
ATOM      4  C3  UNL d   1       5.042  -4.516  -5.352  0.00  0.00     0.006 A 
ATOM      5  C4  UNL d   1       3.860  -4.878  -5.999  0.00  0.00    -0.005 A 
ATOM      6  C5  UNL d   1       2.872  -5.593  -5.316  0.00  0.00    -0.074 A 
ATOM      7  C6  UNL d   1       1.600  -5.999  -5.999  0.00  0.00     0.077 C 
ATOM      8  C7  UNL d   1       3.088  -5.946  -3.976  0.00  0.00    -0.001 A 
ENDROOT
TORSDOF 0
ENDMDL
