MODEL 1
REMARK minimizedAffinity 0.0120446552
REMARK minimizedRMSD -1
REMARK  0 active torsions:
REMARK  status: ('A' for Active; 'I' for Inactive)
ROOT
ATOM      1  C   UNL d   1      -1.677   3.331  -5.851  0.00  0.00     0.077 C 
ATOM      2  C1  UNL d   1      -3.167   3.358  -5.686  0.00  0.00    -0.074 A 
ATOM      3  C2  UNL d   1      -3.869   2.212  -5.295  0.00  0.00    -0.005 A 
ATOM      4  C3  UNL d   1      -5.254   2.255  -5.137  0.00  0.00     0.006 A 
ATOM      5  C4  UNL d   1      -5.951   3.442  -5.367  0.00  0.00    -0.005 A 
ATOM      6  C5  UNL d   1      -5.266   4.598  -5.757  0.00  0.00    -0.074 A 
ATOM      7  C6  UNL d   1      -5.999   5.884  -5.999  0.00  0.00     0.077 C 
ATOM      8  C7  UNL d   1      -3.874   4.548  -5.908  0.00  0.00    -0.001 A 
ENDROOT
TORSDOF 0
ENDMDL
