MODEL 1
REMARK minimizedAffinity -1.14832747
REMARK minimizedRMSD -1
REMARK  0 active torsions:
REMARK  status: ('A' for Active; 'I' for Inactive)
ROOT
ATOM      1  C   UNL d   1       3.482  -5.516  -1.654  0.00  0.00     0.077 C 
ATOM      2  C1  UNL d   1       3.469  -5.690  -3.144  0.00  0.00    -0.074 A 
ATOM      3  C2  UNL d   1       2.262  -5.765  -3.848  0.00  0.00    -0.005 A 
ATOM      4  C3  UNL d   1       2.265  -5.918  -5.234  0.00  0.00     0.006 A 
ATOM      5  C4  UNL d   1       3.473  -5.997  -5.930  0.00  0.00    -0.005 A 
ATOM      6  C5  UNL d   1       4.689  -5.923  -5.243  0.00  0.00    -0.074 A 
ATOM      7  C6  UNL d   1       5.995  -5.997  -5.976  0.00  0.00     0.077 C 
ATOM      8  C7  UNL d   1       4.677  -5.763  -3.851  0.00  0.00    -0.001 A 
ENDROOT
TORSDOF 0
ENDMDL
