MODEL 1
REMARK minimizedAffinity -0.541759253
REMARK minimizedRMSD -1
REMARK  0 active torsions:
REMARK  status: ('A' for Active; 'I' for Inactive)
ROOT
ATOM      1  C   UNL d   1      -5.991   5.891  -6.000  0.00  0.00     0.077 C 
ATOM      2  C1  UNL d   1      -5.282   4.614  -5.657  0.00  0.00    -0.074 A 
ATOM      3  C2  UNL d   1      -6.000   3.453  -5.352  0.00  0.00    -0.005 A 
ATOM      4  C3  UNL d   1      -5.326   2.271  -5.045  0.00  0.00     0.006 A 
ATOM      5  C4  UNL d   1      -3.931   2.238  -5.038  0.00  0.00    -0.005 A 
ATOM      6  C5  UNL d   1      -3.197   3.389  -5.342  0.00  0.00    -0.074 A 
ATOM      7  C6  UNL d   1      -1.697   3.368  -5.349  0.00  0.00     0.077 C 
ATOM      8  C7  UNL d   1      -3.881   4.571  -5.657  0.00  0.00    -0.001 A 
ENDROOT
TORSDOF 0
ENDMDL
