MODEL 1
REMARK minimizedAffinity -2.81575108
REMARK minimizedRMSD -1
REMARK  0 active torsions:
REMARK  status: ('A' for Active; 'I' for Inactive)
ROOT
ATOM      1  C   UNL d   1       1.362  -5.465  -4.107  0.00  0.00     0.077 C 
ATOM      2  C1  UNL d   1       2.838  -5.614  -3.888  0.00  0.00    -0.074 A 
ATOM      3  C2  UNL d   1       3.373  -5.654  -2.596  0.00  0.00    -0.005 A 
ATOM      4  C3  UNL d   1       4.747  -5.802  -2.408  0.00  0.00     0.006 A 
ATOM      5  C4  UNL d   1       5.599  -5.911  -3.507  0.00  0.00    -0.005 A 
ATOM      6  C5  UNL d   1       5.082  -5.874  -4.807  0.00  0.00    -0.074 A 
ATOM      7  C6  UNL d   1       5.983  -6.000  -5.999  0.00  0.00     0.077 C 
ATOM      8  C7  UNL d   1       3.700  -5.732  -4.987  0.00  0.00    -0.001 A 
ENDROOT
TORSDOF 0
ENDMDL
