MODEL 1
REMARK minimizedAffinity 1.72820675
REMARK minimizedRMSD -1
REMARK  0 active torsions:
REMARK  status: ('A' for Active; 'I' for Inactive)
ROOT
ATOM      1  C   UNL d   1       4.750   1.827   1.007  0.00  0.00     0.077 C 
ATOM      2  C1  UNL d   1       3.255   1.863   0.892  0.00  0.00    -0.074 A 
ATOM      3  C2  UNL d   1       2.588   1.078  -0.054  0.00  0.00    -0.005 A 
ATOM      4  C3  UNL d   1       1.196   1.115  -0.142  0.00  0.00     0.006 A 
ATOM      5  C4  UNL d   1       0.459   1.937   0.712  0.00  0.00    -0.005 A 
ATOM      6  C5  UNL d   1       1.109   2.728   1.664  0.00  0.00    -0.074 A 
ATOM      7  C6  UNL d   1       0.332   3.609   2.596  0.00  0.00     0.077 C 
ATOM      8  C7  UNL d   1       2.507   2.680   1.752  0.00  0.00    -0.001 A 
ENDROOT
TORSDOF 0
ENDMDL
