MODEL 1
REMARK minimizedAffinity -2.22020316
REMARK minimizedRMSD -1
REMARK  0 active torsions:
REMARK  status: ('A' for Active; 'I' for Inactive)
ROOT
ATOM      1  C   UNL d   1       1.875   2.033  -6.000  0.00  0.00     0.077 C 
ATOM      2  C1  UNL d   1       0.597   2.223  -5.238  0.00  0.00    -0.074 A 
ATOM      3  C2  UNL d   1       0.584   2.205  -3.839  0.00  0.00    -0.005 A 
ATOM      4  C3  UNL d   1      -0.610   2.393  -3.144  0.00  0.00     0.006 A 
ATOM      5  C4  UNL d   1      -1.802   2.602  -3.839  0.00  0.00    -0.005 A 
ATOM      6  C5  UNL d   1      -1.809   2.624  -5.238  0.00  0.00    -0.074 A 
ATOM      7  C6  UNL d   1      -3.080   2.857  -6.000  0.00  0.00     0.077 C 
ATOM      8  C7  UNL d   1      -0.603   2.441  -5.929  0.00  0.00    -0.001 A 
ENDROOT
TORSDOF 0
ENDMDL
