MODEL 1
REMARK minimizedAffinity 5.26660347
REMARK minimizedRMSD -1
REMARK  0 active torsions:
REMARK  status: ('A' for Active; 'I' for Inactive)
ROOT
ATOM      1  C   UNL d   1       1.941  -0.740   1.475  0.00  0.00     0.077 C 
ATOM      2  C1  UNL d   1       1.256   0.240   0.569  0.00  0.00    -0.074 A 
ATOM      3  C2  UNL d   1       0.981   1.543   0.997  0.00  0.00    -0.005 A 
ATOM      4  C3  UNL d   1       0.352   2.446   0.140  0.00  0.00     0.006 A 
ATOM      5  C4  UNL d   1      -0.007   2.056  -1.151  0.00  0.00    -0.005 A 
ATOM      6  C5  UNL d   1       0.260   0.757  -1.596  0.00  0.00    -0.074 A 
ATOM      7  C6  UNL d   1      -0.111   0.325  -2.983  0.00  0.00     0.077 C 
ATOM      8  C7  UNL d   1       0.898  -0.142  -0.731  0.00  0.00    -0.001 A 
ENDROOT
TORSDOF 0
ENDMDL
