MODEL 1
REMARK minimizedAffinity 3.7534225
REMARK minimizedRMSD -1
REMARK  0 active torsions:
REMARK  status: ('A' for Active; 'I' for Inactive)
ROOT
ATOM      1  C   UNL d   1       0.471   3.069   0.503  0.00  0.00     0.077 C 
ATOM      2  C1  UNL d   1       0.793   1.648   0.146  0.00  0.00    -0.074 A 
ATOM      3  C2  UNL d   1       1.369   0.784   1.082  0.00  0.00    -0.005 A 
ATOM      4  C3  UNL d   1       1.655  -0.537   0.738  0.00  0.00     0.006 A 
ATOM      5  C4  UNL d   1       1.367  -1.007  -0.544  0.00  0.00    -0.005 A 
ATOM      6  C5  UNL d   1       0.790  -0.157  -1.494  0.00  0.00    -0.074 A 
ATOM      7  C6  UNL d   1       0.466  -0.649  -2.873  0.00  0.00     0.077 C 
ATOM      8  C7  UNL d   1       0.500   1.167  -1.138  0.00  0.00    -0.001 A 
ENDROOT
TORSDOF 0
ENDMDL
