MODEL 1
REMARK minimizedAffinity 5.2671895
REMARK minimizedRMSD -1
REMARK  0 active torsions:
REMARK  status: ('A' for Active; 'I' for Inactive)
ROOT
ATOM      1  C   UNL d   1      -3.169   4.948  -4.484  0.00  0.00     0.077 C 
ATOM      2  C1  UNL d   1      -2.445   3.638  -4.592  0.00  0.00    -0.074 A 
ATOM      3  C2  UNL d   1      -2.031   3.146  -5.834  0.00  0.00    -0.005 A 
ATOM      4  C3  UNL d   1      -1.351   1.931  -5.918  0.00  0.00     0.006 A 
ATOM      5  C4  UNL d   1      -1.078   1.197  -4.762  0.00  0.00    -0.005 A 
ATOM      6  C5  UNL d   1      -1.484   1.674  -3.512  0.00  0.00    -0.074 A 
ATOM      7  C6  UNL d   1      -1.191   0.902  -2.260  0.00  0.00     0.077 C 
ATOM      8  C7  UNL d   1      -2.161   2.899  -3.435  0.00  0.00    -0.001 A 
ENDROOT
TORSDOF 0
ENDMDL
