MODEL 1
REMARK minimizedAffinity 7.87425804
REMARK minimizedRMSD -1
REMARK  0 active torsions:
REMARK  status: ('A' for Active; 'I' for Inactive)
ROOT
ATOM      1  C   UNL d   1       2.195  -1.252   1.241  0.00  0.00     0.077 C 
ATOM      2  C1  UNL d   1       3.004  -1.220   2.504  0.00  0.00    -0.074 A 
ATOM      3  C2  UNL d   1       2.990  -0.098   3.338  0.00  0.00    -0.005 A 
ATOM      4  C3  UNL d   1       3.740  -0.086   4.514  0.00  0.00     0.006 A 
ATOM      5  C4  UNL d   1       4.511  -1.195   4.867  0.00  0.00    -0.005 A 
ATOM      6  C5  UNL d   1       4.537  -2.326   4.045  0.00  0.00    -0.074 A 
ATOM      7  C6  UNL d   1       5.352  -3.530   4.415  0.00  0.00     0.077 C 
ATOM      8  C7  UNL d   1       3.775  -2.333   2.869  0.00  0.00    -0.001 A 
ENDROOT
TORSDOF 0
ENDMDL
