MODEL 1
REMARK minimizedAffinity 3.47612524
REMARK minimizedRMSD -1
REMARK  0 active torsions:
REMARK  status: ('A' for Active; 'I' for Inactive)
ROOT
ATOM      1  C   UNL d   1      -3.355   0.395  -2.910  0.00  0.00     0.077 C 
ATOM      2  C1  UNL d   1      -3.111   1.411  -3.985  0.00  0.00    -0.074 A 
ATOM      3  C2  UNL d   1      -2.179   1.173  -5.001  0.00  0.00    -0.005 A 
ATOM      4  C3  UNL d   1      -1.970   2.124  -6.000  0.00  0.00     0.006 A 
ATOM      5  C4  UNL d   1      -2.688   3.320  -5.994  0.00  0.00    -0.005 A 
ATOM      6  C5  UNL d   1      -3.625   3.575  -4.987  0.00  0.00    -0.074 A 
ATOM      7  C6  UNL d   1      -4.412   4.851  -4.971  0.00  0.00     0.077 C 
ATOM      8  C7  UNL d   1      -3.835   2.612  -3.990  0.00  0.00    -0.001 A 
ENDROOT
TORSDOF 0
ENDMDL
