MODEL 1
REMARK minimizedAffinity -4.00703382
REMARK minimizedRMSD -1
REMARK  0 active torsions:
REMARK  status: ('A' for Active; 'I' for Inactive)
ROOT
ATOM      1  C   UNL d   1      -0.478  -0.030   1.822  0.00  0.00     0.124 A 
ATOM      2  C1  UNL d   1      -1.203   1.149   1.926  0.00  0.00     0.062 A 
ATOM      3  C2  UNL d   1      -1.068   2.142   0.960  0.00  0.00     0.162 A 
ATOM      4  C3  UNL d   1      -0.206   1.959  -0.120  0.00  0.00    -0.034 A 
ATOM      5  C4  UNL d   1       0.521   0.771  -0.219  0.00  0.00     0.162 A 
ATOM      6  C5  UNL d   1       0.382  -0.218   0.749  0.00  0.00     0.062 A 
ATOM      7  F   UNL d   1       1.083  -1.357   0.646  0.00  0.00    -0.097 F 
ATOM      8  F1  UNL d   1       1.359   0.563  -1.245  0.00  0.00    -0.096 F 
ATOM      9  I   UNL d   1      -0.001   3.441  -1.567  0.00  0.00    -0.060 I 
ATOM     10  F2  UNL d   1      -1.781   3.271   1.087  0.00  0.00    -0.096 F 
ATOM     11  F3  UNL d   1      -2.035   1.333   2.962  0.00  0.00    -0.097 F 
ATOM     12  F4  UNL d   1      -0.609  -0.984   2.753  0.00  0.00    -0.092 F 
ENDROOT
TORSDOF 0
ENDMDL
