MODEL 1
REMARK minimizedAffinity -0.597367346
REMARK minimizedRMSD -1
REMARK  0 active torsions:
REMARK  status: ('A' for Active; 'I' for Inactive)
ROOT
ATOM      1  C   UNL d   1      -1.084   1.288   0.594  0.00  0.00     0.124 A 
ATOM      2  C1  UNL d   1      -0.089   1.323  -0.374  0.00  0.00     0.062 A 
ATOM      3  C2  UNL d   1       0.445   0.137  -0.871  0.00  0.00     0.162 A 
ATOM      4  C3  UNL d   1      -0.014  -1.093  -0.401  0.00  0.00    -0.034 A 
ATOM      5  C4  UNL d   1      -1.014  -1.119   0.573  0.00  0.00     0.162 A 
ATOM      6  C5  UNL d   1      -1.545   0.068   1.066  0.00  0.00     0.062 A 
ATOM      7  F   UNL d   1      -2.505   0.033   2.001  0.00  0.00    -0.097 F 
ATOM      8  F1  UNL d   1      -1.479  -2.285   1.046  0.00  0.00    -0.096 F 
ATOM      9  I   UNL d   1       0.782  -2.868  -1.142  0.00  0.00    -0.060 I 
ATOM     10  F2  UNL d   1       1.405   0.200  -1.806  0.00  0.00    -0.096 F 
ATOM     11  F3  UNL d   1       0.359   2.501  -0.832  0.00  0.00    -0.097 F 
ATOM     12  F4  UNL d   1      -1.595   2.430   1.071  0.00  0.00    -0.092 F 
ENDROOT
TORSDOF 0
ENDMDL
