MODEL 1
REMARK minimizedAffinity -2.91206455
REMARK minimizedRMSD -1
REMARK  0 active torsions:
REMARK  status: ('A' for Active; 'I' for Inactive)
ROOT
ATOM      1  C   UNL d   1      -1.183   2.374   1.398  0.00  0.00     0.124 A 
ATOM      2  C1  UNL d   1      -0.542   2.607   0.189  0.00  0.00     0.062 A 
ATOM      3  C2  UNL d   1       0.088   1.564  -0.482  0.00  0.00     0.162 A 
ATOM      4  C3  UNL d   1       0.080   0.276   0.054  0.00  0.00    -0.034 A 
ATOM      5  C4  UNL d   1      -0.566   0.049   1.270  0.00  0.00     0.162 A 
ATOM      6  C5  UNL d   1      -1.194   1.095   1.937  0.00  0.00     0.062 A 
ATOM      7  F   UNL d   1      -1.813   0.868   3.105  0.00  0.00    -0.097 F 
ATOM      8  F1  UNL d   1      -0.593  -1.177   1.814  0.00  0.00    -0.096 F 
ATOM      9  I   UNL d   1       1.021  -1.287  -0.947  0.00  0.00    -0.060 I 
ATOM     10  F2  UNL d   1       0.699   1.819  -1.648  0.00  0.00    -0.096 F 
ATOM     11  F3  UNL d   1      -0.529   3.842  -0.333  0.00  0.00    -0.097 F 
ATOM     12  F4  UNL d   1      -1.788   3.380   2.043  0.00  0.00    -0.092 F 
ENDROOT
TORSDOF 0
ENDMDL
