MODEL 1
REMARK minimizedAffinity -0.0267883483
REMARK minimizedRMSD -1
REMARK  0 active torsions:
REMARK  status: ('A' for Active; 'I' for Inactive)
ROOT
ATOM      1  C   UNL d   1       0.620  -1.625  -1.171  0.00  0.00     0.124 A 
ATOM      2  C1  UNL d   1       1.141  -0.432  -0.691  0.00  0.00     0.062 A 
ATOM      3  C2  UNL d   1       0.347   0.425   0.065  0.00  0.00     0.162 A 
ATOM      4  C3  UNL d   1      -0.978   0.091   0.348  0.00  0.00    -0.034 A 
ATOM      5  C4  UNL d   1      -1.495  -1.111  -0.139  0.00  0.00     0.162 A 
ATOM      6  C5  UNL d   1      -0.697  -1.964  -0.895  0.00  0.00     0.062 A 
ATOM      7  F   UNL d   1      -1.202  -3.117  -1.357  0.00  0.00    -0.097 F 
ATOM      8  F1  UNL d   1      -2.764  -1.463   0.114  0.00  0.00    -0.096 F 
ATOM      9  I   UNL d   1      -2.169   1.369   1.478  0.00  0.00    -0.060 I 
ATOM     10  F2  UNL d   1       0.876   1.572   0.516  0.00  0.00    -0.096 F 
ATOM     11  F3  UNL d   1       2.413  -0.102  -0.958  0.00  0.00    -0.097 F 
ATOM     12  F4  UNL d   1       1.387  -2.447  -1.899  0.00  0.00    -0.092 F 
ENDROOT
TORSDOF 0
ENDMDL
