MODEL 1
REMARK minimizedAffinity -2.67774224
REMARK minimizedRMSD -1
REMARK  0 active torsions:
REMARK  status: ('A' for Active; 'I' for Inactive)
ROOT
ATOM      1  C   UNL d   1      -0.841   1.564   1.001  0.00  0.00     0.124 A 
ATOM      2  C1  UNL d   1      -0.315   1.425  -0.276  0.00  0.00     0.062 A 
ATOM      3  C2  UNL d   1       0.195   0.200  -0.694  0.00  0.00     0.162 A 
ATOM      4  C3  UNL d   1       0.182  -0.898   0.166  0.00  0.00    -0.034 A 
ATOM      5  C4  UNL d   1      -0.347  -0.751   1.450  0.00  0.00     0.162 A 
ATOM      6  C5  UNL d   1      -0.856   0.476   1.862  0.00  0.00     0.062 A 
ATOM      7  F   UNL d   1      -1.363   0.608   3.097  0.00  0.00    -0.097 F 
ATOM      8  F1  UNL d   1      -0.375  -1.786   2.302  0.00  0.00    -0.096 F 
ATOM      9  I   UNL d   1       0.945  -2.733  -0.455  0.00  0.00    -0.060 I 
ATOM     10  F2  UNL d   1       0.697   0.095  -1.934  0.00  0.00    -0.096 F 
ATOM     11  F3  UNL d   1      -0.298   2.475  -1.110  0.00  0.00    -0.097 F 
ATOM     12  F4  UNL d   1      -1.331   2.744   1.401  0.00  0.00    -0.092 F 
ENDROOT
TORSDOF 0
ENDMDL
