MODEL 1
REMARK minimizedAffinity 2.9433012
REMARK minimizedRMSD -1
REMARK  0 active torsions:
REMARK  status: ('A' for Active; 'I' for Inactive)
ROOT
ATOM      1  C   UNL d   1      -0.530   2.043  -0.684  0.00  0.00     0.124 A 
ATOM      2  C1  UNL d   1      -1.307   2.025   0.466  0.00  0.00     0.062 A 
ATOM      3  C2  UNL d   1      -1.128   1.024   1.416  0.00  0.00     0.162 A 
ATOM      4  C3  UNL d   1      -0.165   0.034   1.222  0.00  0.00    -0.034 A 
ATOM      5  C4  UNL d   1       0.612   0.058   0.062  0.00  0.00     0.162 A 
ATOM      6  C5  UNL d   1       0.428   1.060  -0.885  0.00  0.00     0.062 A 
ATOM      7  F   UNL d   1       1.180   1.076  -1.995  0.00  0.00    -0.097 F 
ATOM      8  F1  UNL d   1       1.546  -0.879  -0.156  0.00  0.00    -0.096 F 
ATOM      9  I   UNL d   1       0.107  -1.464   2.641  0.00  0.00    -0.060 I 
ATOM     10  F2  UNL d   1      -1.893   1.032   2.518  0.00  0.00    -0.096 F 
ATOM     11  F3  UNL d   1      -2.235   2.973   0.661  0.00  0.00    -0.097 F 
ATOM     12  F4  UNL d   1      -0.706   3.007  -1.598  0.00  0.00    -0.092 F 
ENDROOT
TORSDOF 0
ENDMDL
