MODEL 1
REMARK minimizedAffinity -3.17804408
REMARK minimizedRMSD -1
REMARK  0 active torsions:
REMARK  status: ('A' for Active; 'I' for Inactive)
ROOT
ATOM      1  C   UNL d   1      -1.449   2.009   0.555  0.00  0.00     0.124 A 
ATOM      2  C1  UNL d   1      -1.993   0.809   0.992  0.00  0.00     0.062 A 
ATOM      3  C2  UNL d   1      -1.429  -0.400   0.599  0.00  0.00     0.162 A 
ATOM      4  C3  UNL d   1      -0.312  -0.417  -0.237  0.00  0.00    -0.034 A 
ATOM      5  C4  UNL d   1       0.229   0.794  -0.674  0.00  0.00     0.162 A 
ATOM      6  C5  UNL d   1      -0.339   2.000  -0.278  0.00  0.00     0.062 A 
ATOM      7  F   UNL d   1       0.188   3.158  -0.702  0.00  0.00    -0.097 F 
ATOM      8  F1  UNL d   1       1.302   0.814  -1.478  0.00  0.00    -0.096 F 
ATOM      9  I   UNL d   1       0.536  -2.223  -0.828  0.00  0.00    -0.060 I 
ATOM     10  F2  UNL d   1      -1.975  -1.544   1.037  0.00  0.00    -0.096 F 
ATOM     11  F3  UNL d   1      -3.067   0.815   1.796  0.00  0.00    -0.097 F 
ATOM     12  F4  UNL d   1      -1.995   3.171   0.934  0.00  0.00    -0.092 F 
ENDROOT
TORSDOF 0
ENDMDL
