MODEL 1
REMARK minimizedAffinity -2.6586647
REMARK minimizedRMSD -1
REMARK  0 active torsions:
REMARK  status: ('A' for Active; 'I' for Inactive)
ROOT
ATOM      1  C   UNL d   1      -0.051  -3.078  -2.334  0.00  0.00     0.124 A 
ATOM      2  C1  UNL d   1       0.846  -2.608  -1.384  0.00  0.00     0.062 A 
ATOM      3  C2  UNL d   1       0.640  -1.372  -0.778  0.00  0.00     0.162 A 
ATOM      4  C3  UNL d   1      -0.468  -0.597  -1.119  0.00  0.00    -0.034 A 
ATOM      5  C4  UNL d   1      -1.365  -1.075  -2.076  0.00  0.00     0.162 A 
ATOM      6  C5  UNL d   1      -1.156  -2.311  -2.678  0.00  0.00     0.062 A 
ATOM      7  F   UNL d   1      -2.023  -2.763  -3.596  0.00  0.00    -0.097 F 
ATOM      8  F1  UNL d   1      -2.441  -0.355  -2.427  0.00  0.00    -0.096 F 
ATOM      9  I   UNL d   1      -0.779   1.252  -0.215  0.00  0.00    -0.060 I 
ATOM     10  F2  UNL d   1       1.523  -0.943   0.136  0.00  0.00    -0.096 F 
ATOM     11  F3  UNL d   1       1.914  -3.346  -1.050  0.00  0.00    -0.097 F 
ATOM     12  F4  UNL d   1       0.149  -4.267  -2.916  0.00  0.00    -0.092 F 
ENDROOT
TORSDOF 0
ENDMDL
