MODEL 1
REMARK minimizedAffinity -0.679744244
REMARK minimizedRMSD -1
REMARK  0 active torsions:
REMARK  status: ('A' for Active; 'I' for Inactive)
ROOT
ATOM      1  C   UNL d   1       0.575  -0.844  -1.446  0.00  0.00     0.124 A 
ATOM      2  C1  UNL d   1       0.756   0.527  -1.333  0.00  0.00     0.062 A 
ATOM      3  C2  UNL d   1       0.114   1.237  -0.323  0.00  0.00     0.162 A 
ATOM      4  C3  UNL d   1      -0.715   0.577   0.584  0.00  0.00    -0.034 A 
ATOM      5  C4  UNL d   1      -0.893  -0.803   0.464  0.00  0.00     0.162 A 
ATOM      6  C5  UNL d   1      -0.249  -1.508  -0.548  0.00  0.00     0.062 A 
ATOM      7  F   UNL d   1      -0.425  -2.833  -0.655  0.00  0.00    -0.097 F 
ATOM      8  F1  UNL d   1      -1.683  -1.469   1.319  0.00  0.00    -0.096 F 
ATOM      9  I   UNL d   1      -1.677   1.635   2.096  0.00  0.00    -0.060 I 
ATOM     10  F2  UNL d   1       0.307   2.562  -0.238  0.00  0.00    -0.096 F 
ATOM     11  F3  UNL d   1       1.551   1.171  -2.200  0.00  0.00    -0.097 F 
ATOM     12  F4  UNL d   1       1.194  -1.525  -2.420  0.00  0.00    -0.092 F 
ENDROOT
TORSDOF 0
ENDMDL
