MODEL 1
REMARK minimizedAffinity -4.26133728
REMARK minimizedRMSD -1
REMARK  0 active torsions:
REMARK  status: ('A' for Active; 'I' for Inactive)
ROOT
ATOM      1  C   UNL d   1       2.002   0.209  -0.333  0.00  0.00     0.124 A 
ATOM      2  C1  UNL d   1       1.341   1.332  -0.812  0.00  0.00     0.062 A 
ATOM      3  C2  UNL d   1       0.124   1.717  -0.257  0.00  0.00     0.162 A 
ATOM      4  C3  UNL d   1      -0.440   0.980   0.785  0.00  0.00    -0.034 A 
ATOM      5  C4  UNL d   1       0.231  -0.148   1.260  0.00  0.00     0.162 A 
ATOM      6  C5  UNL d   1       1.447  -0.529   0.702  0.00  0.00     0.062 A 
ATOM      7  F   UNL d   1       2.084  -1.614   1.166  0.00  0.00    -0.097 F 
ATOM      8  F1  UNL d   1      -0.283  -0.880   2.261  0.00  0.00    -0.096 F 
ATOM      9  I   UNL d   1      -2.259   1.553   1.618  0.00  0.00    -0.060 I 
ATOM     10  F2  UNL d   1      -0.493   2.806  -0.739  0.00  0.00    -0.096 F 
ATOM     11  F3  UNL d   1       1.874   2.047  -1.813  0.00  0.00    -0.097 F 
ATOM     12  F4  UNL d   1       3.172  -0.160  -0.870  0.00  0.00    -0.092 F 
ENDROOT
TORSDOF 0
ENDMDL
