MODEL 1
REMARK minimizedAffinity -3.53947926
REMARK minimizedRMSD -1
REMARK  0 active torsions:
REMARK  status: ('A' for Active; 'I' for Inactive)
ROOT
ATOM      1  C   UNL d   1      -0.747   2.913   0.840  0.00  0.00     0.124 A 
ATOM      2  C1  UNL d   1      -0.943   1.749   1.571  0.00  0.00     0.062 A 
ATOM      3  C2  UNL d   1      -0.325   0.565   1.179  0.00  0.00     0.162 A 
ATOM      4  C3  UNL d   1       0.496   0.539   0.051  0.00  0.00    -0.034 A 
ATOM      5  C4  UNL d   1       0.687   1.713  -0.679  0.00  0.00     0.162 A 
ATOM      6  C5  UNL d   1       0.067   2.894  -0.283  0.00  0.00     0.062 A 
ATOM      7  F   UNL d   1       0.257   4.018  -0.990  0.00  0.00    -0.097 F 
ATOM      8  F1  UNL d   1       1.469   1.723  -1.768  0.00  0.00    -0.096 F 
ATOM      9  I   UNL d   1       1.421  -1.230  -0.538  0.00  0.00    -0.060 I 
ATOM     10  F2  UNL d   1      -0.532  -0.545   1.904  0.00  0.00    -0.096 F 
ATOM     11  F3  UNL d   1      -1.729   1.765   2.656  0.00  0.00    -0.097 F 
ATOM     12  F4  UNL d   1      -1.343   4.051   1.219  0.00  0.00    -0.092 F 
ENDROOT
TORSDOF 0
ENDMDL
