MODEL 1
REMARK minimizedAffinity -6.02629375
REMARK minimizedRMSD -1
REMARK  0 active torsions:
REMARK  status: ('A' for Active; 'I' for Inactive)
ROOT
ATOM      1  C   UNL d   1       0.449  -0.905  -0.392  0.00  0.00     0.124 A 
ATOM      2  C1  UNL d   1       0.327   0.051  -1.390  0.00  0.00     0.062 A 
ATOM      3  C2  UNL d   1      -0.255   1.284  -1.111  0.00  0.00     0.162 A 
ATOM      4  C3  UNL d   1      -0.718   1.569   0.173  0.00  0.00    -0.034 A 
ATOM      5  C4  UNL d   1      -0.592   0.602   1.172  0.00  0.00     0.162 A 
ATOM      6  C5  UNL d   1      -0.010  -0.629   0.888  0.00  0.00     0.062 A 
ATOM      7  F   UNL d   1       0.108  -1.551   1.855  0.00  0.00    -0.097 F 
ATOM      8  F1  UNL d   1      -1.026   0.843   2.418  0.00  0.00    -0.096 F 
ATOM      9  I   UNL d   1      -1.588   3.412   0.595  0.00  0.00    -0.060 I 
ATOM     10  F2  UNL d   1      -0.360   2.189  -2.096  0.00  0.00    -0.096 F 
ATOM     11  F3  UNL d   1       0.769  -0.214  -2.628  0.00  0.00    -0.097 F 
ATOM     12  F4  UNL d   1       1.009  -2.092  -0.663  0.00  0.00    -0.092 F 
ENDROOT
TORSDOF 0
ENDMDL
