MODEL 1
REMARK minimizedAffinity 1.41692054
REMARK minimizedRMSD -1
REMARK  0 active torsions:
REMARK  status: ('A' for Active; 'I' for Inactive)
ROOT
ATOM      1  C   UNL d   1      -1.067   1.681   0.961  0.00  0.00     0.124 A 
ATOM      2  C1  UNL d   1      -1.093   0.567   1.789  0.00  0.00     0.062 A 
ATOM      3  C2  UNL d   1      -0.390  -0.582   1.438  0.00  0.00     0.162 A 
ATOM      4  C3  UNL d   1       0.345  -0.623   0.253  0.00  0.00    -0.034 A 
ATOM      5  C4  UNL d   1       0.366   0.501  -0.574  0.00  0.00     0.162 A 
ATOM      6  C5  UNL d   1      -0.338   1.647  -0.219  0.00  0.00     0.062 A 
ATOM      7  F   UNL d   1      -0.312   2.722  -1.020  0.00  0.00    -0.097 F 
ATOM      8  F1  UNL d   1       1.063   0.496  -1.720  0.00  0.00    -0.096 F 
ATOM      9  I   UNL d   1       1.397  -2.340  -0.275  0.00  0.00    -0.060 I 
ATOM     10  F2  UNL d   1      -0.433  -1.644   2.256  0.00  0.00    -0.096 F 
ATOM     11  F3  UNL d   1      -1.797   0.597   2.929  0.00  0.00    -0.097 F 
ATOM     12  F4  UNL d   1      -1.745   2.785   1.301  0.00  0.00    -0.092 F 
ENDROOT
TORSDOF 0
ENDMDL
