MODEL 1
REMARK minimizedAffinity -0.376057237
REMARK minimizedRMSD -1
REMARK  1 active torsions:
REMARK  status: ('A' for Active; 'I' for Inactive)
REMARK    1  A    between atoms: C3_4  and  O_7 
ROOT
ATOM      1  C   UNL d   1       3.275   0.035  -1.122  0.00  0.00    -0.033 A 
ATOM      2  C1  UNL d   1       2.791   0.724  -0.008  0.00  0.00     0.039 A 
ATOM      3  C2  UNL d   1       1.640   0.279   0.645  0.00  0.00    -0.080 A 
ATOM      4  C3  UNL d   1       0.984  -0.855   0.176  0.00  0.00     0.150 A 
ATOM      5  C4  UNL d   1       1.462  -1.549  -0.930  0.00  0.00    -0.007 A 
ATOM      6  C5  UNL d   1       2.611  -1.103  -1.582  0.00  0.00     0.039 A 
ENDROOT
BRANCH   4   7
ATOM      7  O   UNL d   1      -0.146  -1.325   0.778  0.00  0.00    -0.526 OA
ATOM      8  H5  UNL d   1      -0.375  -0.729   1.510  0.00  0.00     0.418 HD
ENDBRANCH   4   7
TORSDOF 1
ENDMDL
