MODEL 1
REMARK minimizedAffinity -1.39052606
REMARK minimizedRMSD -1
REMARK  1 active torsions:
REMARK  status: ('A' for Active; 'I' for Inactive)
REMARK    1  A    between atoms: C3_4  and  O_7 
ROOT
ATOM      1  C   UNL d   1      -1.739   1.164   0.192  0.00  0.00    -0.033 A 
ATOM      2  C1  UNL d   1      -1.094   0.111  -0.460  0.00  0.00     0.039 A 
ATOM      3  C2  UNL d   1       0.255  -0.147  -0.207  0.00  0.00    -0.080 A 
ATOM      4  C3  UNL d   1       0.946   0.653   0.699  0.00  0.00     0.150 A 
ATOM      5  C4  UNL d   1       0.309   1.701   1.355  0.00  0.00    -0.007 A 
ATOM      6  C5  UNL d   1      -1.038   1.958   1.100  0.00  0.00     0.039 A 
ENDROOT
BRANCH   4   7
ATOM      7  O   UNL d   1       2.264   0.443   0.974  0.00  0.00    -0.526 OA
ATOM      8  H5  UNL d   1       2.579  -0.296   0.427  0.00  0.00     0.418 HD
ENDBRANCH   4   7
TORSDOF 1
ENDMDL
