MODEL 1
REMARK minimizedAffinity 1.46051574
REMARK minimizedRMSD -1
REMARK  1 active torsions:
REMARK  status: ('A' for Active; 'I' for Inactive)
REMARK    1  A    between atoms: C3_4  and  O_7 
ROOT
ATOM      1  C   UNL d   1      -2.499   1.250   1.252  0.00  0.00    -0.033 A 
ATOM      2  C1  UNL d   1      -1.923  -0.020   1.185  0.00  0.00     0.039 A 
ATOM      3  C2  UNL d   1      -0.548  -0.155   0.982  0.00  0.00    -0.080 A 
ATOM      4  C3  UNL d   1       0.238   0.986   0.850  0.00  0.00     0.150 A 
ATOM      5  C4  UNL d   1      -0.329   2.254   0.920  0.00  0.00    -0.007 A 
ATOM      6  C5  UNL d   1      -1.702   2.387   1.121  0.00  0.00     0.039 A 
ENDROOT
BRANCH   4   7
ATOM      7  O   UNL d   1       1.584   0.904   0.646  0.00  0.00    -0.526 OA
ATOM      8  H5  UNL d   1       1.830  -0.034   0.591  0.00  0.00     0.418 HD
ENDBRANCH   4   7
TORSDOF 1
ENDMDL
