MODEL 1
REMARK minimizedAffinity -0.713495672
REMARK minimizedRMSD -1
REMARK  1 active torsions:
REMARK  status: ('A' for Active; 'I' for Inactive)
REMARK    1  A    between atoms: C3_4  and  O_7 
ROOT
ATOM      1  C   UNL d   1      -1.995   0.988   0.930  0.00  0.00    -0.033 A 
ATOM      2  C1  UNL d   1      -1.494   2.278   1.112  0.00  0.00     0.039 A 
ATOM      3  C2  UNL d   1      -0.116   2.489   1.190  0.00  0.00    -0.080 A 
ATOM      4  C3  UNL d   1       0.749   1.403   1.083  0.00  0.00     0.150 A 
ATOM      5  C4  UNL d   1       0.256   0.115   0.897  0.00  0.00    -0.007 A 
ATOM      6  C5  UNL d   1      -1.121  -0.093   0.821  0.00  0.00     0.039 A 
ENDROOT
BRANCH   4   7
ATOM      7  O   UNL d   1       2.101   1.558   1.158  0.00  0.00    -0.526 OA
ATOM      8  H5  UNL d   1       2.295   2.497   1.316  0.00  0.00     0.418 HD
ENDBRANCH   4   7
TORSDOF 1
ENDMDL
