MODEL 1
REMARK minimizedAffinity -2.58583617
REMARK minimizedRMSD -1
REMARK  1 active torsions:
REMARK  status: ('A' for Active; 'I' for Inactive)
REMARK    1  A    between atoms: C3_4  and  O_7 
ROOT
ATOM      1  C   UNL d   1      -1.235   1.350   0.640  0.00  0.00    -0.033 A 
ATOM      2  C1  UNL d   1      -1.011   2.632   1.147  0.00  0.00     0.039 A 
ATOM      3  C2  UNL d   1       0.264   3.001   1.577  0.00  0.00    -0.080 A 
ATOM      4  C3  UNL d   1       1.306   2.082   1.495  0.00  0.00     0.150 A 
ATOM      5  C4  UNL d   1       1.092   0.805   0.987  0.00  0.00    -0.007 A 
ATOM      6  C5  UNL d   1      -0.183   0.437   0.558  0.00  0.00     0.039 A 
ENDROOT
BRANCH   4   7
ATOM      7  O   UNL d   1       2.567   2.395   1.907  0.00  0.00    -0.526 OA
ATOM      8  H5  UNL d   1       2.559   3.300   2.261  0.00  0.00     0.418 HD
ENDBRANCH   4   7
TORSDOF 1
ENDMDL
