MODEL 1
REMARK minimizedAffinity -2.04229426
REMARK minimizedRMSD -1
REMARK  1 active torsions:
REMARK  status: ('A' for Active; 'I' for Inactive)
REMARK    1  A    between atoms: C3_4  and  O_7 
ROOT
ATOM      1  C   UNL d   1      -2.122   1.393   0.928  0.00  0.00    -0.033 A 
ATOM      2  C1  UNL d   1      -1.953   0.008   0.970  0.00  0.00     0.039 A 
ATOM      3  C2  UNL d   1      -0.672  -0.543   0.903  0.00  0.00    -0.080 A 
ATOM      4  C3  UNL d   1       0.430   0.301   0.795  0.00  0.00     0.150 A 
ATOM      5  C4  UNL d   1       0.269   1.682   0.756  0.00  0.00    -0.007 A 
ATOM      6  C5  UNL d   1      -1.011   2.230   0.823  0.00  0.00     0.039 A 
ENDROOT
BRANCH   4   7
ATOM      7  O   UNL d   1       1.699  -0.191   0.722  0.00  0.00    -0.526 OA
ATOM      8  H5  UNL d   1       1.654  -1.161   0.731  0.00  0.00     0.418 HD
ENDBRANCH   4   7
TORSDOF 1
ENDMDL
