MODEL 1
REMARK minimizedAffinity -0.115367219
REMARK minimizedRMSD -1
REMARK  1 active torsions:
REMARK  status: ('A' for Active; 'I' for Inactive)
REMARK    1  A    between atoms: C3_4  and  O_7 
ROOT
ATOM      1  C   UNL d   1      -2.017   1.233   1.161  0.00  0.00    -0.033 A 
ATOM      2  C1  UNL d   1      -1.668  -0.118   1.114  0.00  0.00     0.039 A 
ATOM      3  C2  UNL d   1      -0.327  -0.490   1.000  0.00  0.00    -0.080 A 
ATOM      4  C3  UNL d   1       0.653   0.496   0.935  0.00  0.00     0.150 A 
ATOM      5  C4  UNL d   1       0.312   1.844   0.985  0.00  0.00    -0.007 A 
ATOM      6  C5  UNL d   1      -1.027   2.214   1.098  0.00  0.00     0.039 A 
ENDROOT
BRANCH   4   7
ATOM      7  O   UNL d   1       1.974   0.182   0.819  0.00  0.00    -0.526 OA
ATOM      8  H5  UNL d   1       2.057  -0.785   0.767  0.00  0.00     0.418 HD
ENDBRANCH   4   7
TORSDOF 1
ENDMDL
