MODEL 1
REMARK minimizedAffinity -0.725295126
REMARK minimizedRMSD -1
REMARK  1 active torsions:
REMARK  status: ('A' for Active; 'I' for Inactive)
REMARK    1  A    between atoms: C3_4  and  O_7 
ROOT
ATOM      1  C   UNL d   1      -0.526   1.885   0.353  0.00  0.00    -0.033 A 
ATOM      2  C1  UNL d   1      -0.813   2.696   1.453  0.00  0.00     0.039 A 
ATOM      3  C2  UNL d   1       0.166   2.937   2.419  0.00  0.00    -0.080 A 
ATOM      4  C3  UNL d   1       1.426   2.363   2.273  0.00  0.00     0.150 A 
ATOM      5  C4  UNL d   1       1.720   1.557   1.178  0.00  0.00    -0.007 A 
ATOM      6  C5  UNL d   1       0.740   1.317   0.215  0.00  0.00     0.039 A 
ENDROOT
BRANCH   4   7
ATOM      7  O   UNL d   1       2.412   2.566   3.192  0.00  0.00    -0.526 OA
ATOM      8  H5  UNL d   1       2.057   3.119   3.908  0.00  0.00     0.418 HD
ENDBRANCH   4   7
TORSDOF 1
ENDMDL
