MODEL 1
REMARK minimizedAffinity 0.376447082
REMARK minimizedRMSD -1
REMARK  1 active torsions:
REMARK  status: ('A' for Active; 'I' for Inactive)
REMARK    1  A    between atoms: C3_4  and  O_7 
ROOT
ATOM      1  C   UNL d   1      -1.890   0.849   1.166  0.00  0.00    -0.033 A 
ATOM      2  C1  UNL d   1      -1.510  -0.494   1.134  0.00  0.00     0.039 A 
ATOM      3  C2  UNL d   1      -0.168  -0.838   0.965  0.00  0.00    -0.080 A 
ATOM      4  C3  UNL d   1       0.784   0.169   0.831  0.00  0.00     0.150 A 
ATOM      5  C4  UNL d   1       0.413   1.509   0.866  0.00  0.00    -0.007 A 
ATOM      6  C5  UNL d   1      -0.928   1.851   1.034  0.00  0.00     0.039 A 
ENDROOT
BRANCH   4   7
ATOM      7  O   UNL d   1       2.105  -0.117   0.659  0.00  0.00    -0.526 OA
ATOM      8  H5  UNL d   1       2.209  -1.083   0.625  0.00  0.00     0.418 HD
ENDBRANCH   4   7
TORSDOF 1
ENDMDL
