MODEL 1
REMARK minimizedAffinity 2.81556749
REMARK minimizedRMSD -1
REMARK  1 active torsions:
REMARK  status: ('A' for Active; 'I' for Inactive)
REMARK    1  A    between atoms: C3_4  and  O_7 
ROOT
ATOM      1  C   UNL d   1      -2.628   1.309   0.881  0.00  0.00    -0.033 A 
ATOM      2  C1  UNL d   1      -2.117   0.015   0.999  0.00  0.00     0.039 A 
ATOM      3  C2  UNL d   1      -0.741  -0.205   0.913  0.00  0.00    -0.080 A 
ATOM      4  C3  UNL d   1       0.112   0.876   0.710  0.00  0.00     0.150 A 
ATOM      5  C4  UNL d   1      -0.389   2.168   0.596  0.00  0.00    -0.007 A 
ATOM      6  C5  UNL d   1      -1.764   2.386   0.681  0.00  0.00     0.039 A 
ENDROOT
BRANCH   4   7
ATOM      7  O   UNL d   1       1.462   0.711   0.615  0.00  0.00    -0.526 OA
ATOM      8  H5  UNL d   1       1.661  -0.238   0.684  0.00  0.00     0.418 HD
ENDBRANCH   4   7
TORSDOF 1
ENDMDL
