MODEL 1
REMARK minimizedAffinity 11.7619057
REMARK minimizedRMSD -1
REMARK  1 active torsions:
REMARK  status: ('A' for Active; 'I' for Inactive)
REMARK    1  A    between atoms: C3_4  and  O_7 
ROOT
ATOM      1  C   UNL d   1       1.663  -0.284  -2.501  0.00  0.00    -0.033 A 
ATOM      2  C1  UNL d   1       2.343  -1.036  -1.540  0.00  0.00     0.039 A 
ATOM      3  C2  UNL d   1       3.715  -1.257  -1.667  0.00  0.00    -0.080 A 
ATOM      4  C3  UNL d   1       4.396  -0.722  -2.757  0.00  0.00     0.150 A 
ATOM      5  C4  UNL d   1       3.726   0.030  -3.716  0.00  0.00    -0.007 A 
ATOM      6  C5  UNL d   1       2.355   0.250  -3.588  0.00  0.00     0.039 A 
ENDROOT
BRANCH   4   7
ATOM      7  O   UNL d   1       5.735  -0.916  -2.926  0.00  0.00    -0.526 OA
ATOM      8  H5  UNL d   1       6.058  -1.478  -2.202  0.00  0.00     0.418 HD
ENDBRANCH   4   7
TORSDOF 1
ENDMDL
