MODEL 1
REMARK minimizedAffinity 4.89923239
REMARK minimizedRMSD -1
REMARK  1 active torsions:
REMARK  status: ('A' for Active; 'I' for Inactive)
REMARK    1  A    between atoms: C3_4  and  O_7 
ROOT
ATOM      1  C   UNL d   1      -2.956   1.608   0.981  0.00  0.00    -0.033 A 
ATOM      2  C1  UNL d   1      -2.013   2.636   0.938  0.00  0.00     0.039 A 
ATOM      3  C2  UNL d   1      -0.652   2.335   0.845  0.00  0.00    -0.080 A 
ATOM      4  C3  UNL d   1      -0.249   1.004   0.794  0.00  0.00     0.150 A 
ATOM      5  C4  UNL d   1      -1.184  -0.026   0.833  0.00  0.00    -0.007 A 
ATOM      6  C5  UNL d   1      -2.542   0.277   0.927  0.00  0.00     0.039 A 
ENDROOT
BRANCH   4   7
ATOM      7  O   UNL d   1       1.067   0.661   0.708  0.00  0.00    -0.526 OA
ATOM      8  H5  UNL d   1       1.599   1.474   0.720  0.00  0.00     0.418 HD
ENDBRANCH   4   7
TORSDOF 1
ENDMDL
