MODEL 1
REMARK minimizedAffinity 8.68177891
REMARK minimizedRMSD -1
REMARK  1 active torsions:
REMARK  status: ('A' for Active; 'I' for Inactive)
REMARK    1  A    between atoms: C3_4  and  O_7 
ROOT
ATOM      1  C   UNL d   1       0.224   1.139  -2.778  0.00  0.00    -0.033 A 
ATOM      2  C1  UNL d   1       1.468   0.591  -3.097  0.00  0.00     0.039 A 
ATOM      3  C2  UNL d   1       2.241   1.153  -4.115  0.00  0.00    -0.080 A 
ATOM      4  C3  UNL d   1       1.760   2.263  -4.804  0.00  0.00     0.150 A 
ATOM      5  C4  UNL d   1       0.523   2.816  -4.490  0.00  0.00    -0.007 A 
ATOM      6  C5  UNL d   1      -0.248   2.253  -3.474  0.00  0.00     0.039 A 
ENDROOT
BRANCH   4   7
ATOM      7  O   UNL d   1       2.476   2.843  -5.808  0.00  0.00    -0.526 OA
ATOM      8  H5  UNL d   1       3.296   2.337  -5.934  0.00  0.00     0.418 HD
ENDBRANCH   4   7
TORSDOF 1
ENDMDL
