MODEL 1
REMARK minimizedAffinity 0.973509967
REMARK minimizedRMSD -1
REMARK  1 active torsions:
REMARK  status: ('A' for Active; 'I' for Inactive)
REMARK    1  A    between atoms: C3_4  and  O_7 
ROOT
ATOM      1  C   UNL d   1       1.737   0.259  -2.740  0.00  0.00    -0.033 A 
ATOM      2  C1  UNL d   1       2.705  -0.164  -3.653  0.00  0.00     0.039 A 
ATOM      3  C2  UNL d   1       3.667  -1.101  -3.270  0.00  0.00    -0.080 A 
ATOM      4  C3  UNL d   1       3.648  -1.608  -1.973  0.00  0.00     0.150 A 
ATOM      5  C4  UNL d   1       2.685  -1.194  -1.059  0.00  0.00    -0.007 A 
ATOM      6  C5  UNL d   1       1.726  -0.257  -1.443  0.00  0.00     0.039 A 
ENDROOT
BRANCH   4   7
ATOM      7  O   UNL d   1       4.569  -2.521  -1.552  0.00  0.00    -0.526 OA
ATOM      8  H5  UNL d   1       5.189  -2.691  -2.280  0.00  0.00     0.418 HD
ENDBRANCH   4   7
TORSDOF 1
ENDMDL
