MODEL 1
REMARK minimizedAffinity -4.60377359
REMARK minimizedRMSD -1
REMARK  0 active torsions:
REMARK  status: ('A' for Active; 'I' for Inactive)
ROOT
ATOM      1  C2' OXE d   1      -1.169  -0.497   0.277  0.00  0.00     0.078 C 
ATOM      2  C1' OXE d   1      -0.772  -1.299   2.938  0.00  0.00     0.078 C 
ATOM      3  C1  OXE d   1       0.448  -1.101   2.073  0.00  0.00    -0.078 A 
ATOM      4  C2  OXE d   1       0.242  -0.754   0.760  0.00  0.00    -0.078 A 
ATOM      5  C3  OXE d   1       1.335  -0.506  -0.067  0.00  0.00     0.003 A 
ATOM      6  C4  OXE d   1       2.636  -0.756   0.385  0.00  0.00    -0.002 A 
ATOM      7  C5  OXE d   1       2.866  -1.148   1.708  0.00  0.00    -0.002 A 
ATOM      8  C6  OXE d   1       1.787  -1.284   2.575  0.00  0.00     0.003 A 
ENDROOT
TORSDOF 0
ENDMDL
