MODEL 1
REMARK minimizedAffinity -1.97257292
REMARK minimizedRMSD -1
REMARK  0 active torsions:
REMARK  status: ('A' for Active; 'I' for Inactive)
ROOT
ATOM      1  C2' OXE d   1       1.072  -0.032   2.482  0.00  0.00     0.078 C 
ATOM      2  C1' OXE d   1      -1.665   0.104   1.875  0.00  0.00     0.078 C 
ATOM      3  C1  OXE d   1      -0.691   0.058   0.724  0.00  0.00    -0.078 A 
ATOM      4  C2  OXE d   1       0.649   0.039   1.031  0.00  0.00    -0.078 A 
ATOM      5  C3  OXE d   1       1.588  -0.059   0.008  0.00  0.00     0.003 A 
ATOM      6  C4  OXE d   1       1.189   0.017  -1.331  0.00  0.00    -0.002 A 
ATOM      7  C5  OXE d   1      -0.169   0.077  -1.665  0.00  0.00    -0.002 A 
ATOM      8  C6  OXE d   1      -1.121   0.055  -0.652  0.00  0.00     0.003 A 
ENDROOT
TORSDOF 0
ENDMDL
