MODEL 1
REMARK minimizedAffinity -4.87837172
REMARK minimizedRMSD -1
REMARK  0 active torsions:
REMARK  status: ('A' for Active; 'I' for Inactive)
ROOT
ATOM      1  C2' OXE d   1      -2.109  -0.427   1.065  0.00  0.00     0.078 C 
ATOM      2  C1' OXE d   1      -0.538   0.264  -1.157  0.00  0.00     0.078 C 
ATOM      3  C1  OXE d   1       0.174  -0.119   0.116  0.00  0.00    -0.078 A 
ATOM      4  C2  OXE d   1      -0.603  -0.410   1.212  0.00  0.00    -0.078 A 
ATOM      5  C3  OXE d   1       0.002  -0.822   2.395  0.00  0.00     0.003 A 
ATOM      6  C4  OXE d   1       1.396  -0.795   2.526  0.00  0.00    -0.002 A 
ATOM      7  C5  OXE d   1       2.205  -0.463   1.434  0.00  0.00    -0.002 A 
ATOM      8  C6  OXE d   1       1.612  -0.164   0.213  0.00  0.00     0.003 A 
ENDROOT
TORSDOF 0
ENDMDL
