MODEL 1
REMARK minimizedAffinity -3.43958807
REMARK minimizedRMSD -1
REMARK  0 active torsions:
REMARK  status: ('A' for Active; 'I' for Inactive)
ROOT
ATOM      1  C2' OXE d   1      -0.513   0.071  -1.189  0.00  0.00     0.078 C 
ATOM      2  C1' OXE d   1       1.720  -1.485  -0.501  0.00  0.00     0.078 C 
ATOM      3  C1  OXE d   1       0.752  -1.119   0.597  0.00  0.00    -0.078 A 
ATOM      4  C2  OXE d   1      -0.313  -0.318   0.259  0.00  0.00    -0.078 A 
ATOM      5  C3  OXE d   1      -1.265   0.004   1.222  0.00  0.00     0.003 A 
ATOM      6  C4  OXE d   1      -1.067  -0.352   2.562  0.00  0.00    -0.002 A 
ATOM      7  C5  OXE d   1       0.032  -1.134   2.934  0.00  0.00    -0.002 A 
ATOM      8  C6  OXE d   1       0.926  -1.561   1.958  0.00  0.00     0.003 A 
ENDROOT
TORSDOF 0
ENDMDL
