MODEL 1
REMARK minimizedAffinity -6.4552145
REMARK minimizedRMSD -1
REMARK  0 active torsions:
REMARK  status: ('A' for Active; 'I' for Inactive)
ROOT
ATOM      1  C2' OXE d   1      -0.697  -0.115  -1.105  0.00  0.00     0.078 C 
ATOM      2  C1' OXE d   1       1.696  -1.568  -1.317  0.00  0.00     0.078 C 
ATOM      3  C1  OXE d   1       1.237  -1.165   0.062  0.00  0.00    -0.078 A 
ATOM      4  C2  OXE d   1       0.090  -0.414   0.152  0.00  0.00    -0.078 A 
ATOM      5  C3  OXE d   1      -0.406  -0.062   1.404  0.00  0.00     0.003 A 
ATOM      6  C4  OXE d   1       0.333  -0.333   2.562  0.00  0.00    -0.002 A 
ATOM      7  C5  OXE d   1       1.524  -1.062   2.489  0.00  0.00    -0.002 A 
ATOM      8  C6  OXE d   1       1.968  -1.521   1.253  0.00  0.00     0.003 A 
ENDROOT
TORSDOF 0
ENDMDL
