MODEL 1
REMARK minimizedAffinity -4.82754517
REMARK minimizedRMSD -1
REMARK  0 active torsions:
REMARK  status: ('A' for Active; 'I' for Inactive)
ROOT
ATOM      1  C2' OXE d   1      -0.629   0.007  -0.789  0.00  0.00     0.078 C 
ATOM      2  C1' OXE d   1       1.508  -1.363  -1.987  0.00  0.00     0.078 C 
ATOM      3  C1  OXE d   1       1.457  -1.318  -0.480  0.00  0.00    -0.078 A 
ATOM      4  C2  OXE d   1       0.434  -0.606   0.097  0.00  0.00    -0.078 A 
ATOM      5  C3  OXE d   1       0.310  -0.578   1.483  0.00  0.00     0.003 A 
ATOM      6  C4  OXE d   1       1.303  -1.139   2.295  0.00  0.00    -0.002 A 
ATOM      7  C5  OXE d   1       2.375  -1.835   1.727  0.00  0.00    -0.002 A 
ATOM      8  C6  OXE d   1       2.444  -1.970   0.345  0.00  0.00     0.003 A 
ENDROOT
TORSDOF 0
ENDMDL
