MODEL 1
REMARK minimizedAffinity -0.507858455
REMARK minimizedRMSD -1
REMARK  0 active torsions:
REMARK  status: ('A' for Active; 'I' for Inactive)
ROOT
ATOM      1  C2' OXE d   1      -2.164  -0.471   0.960  0.00  0.00     0.078 C 
ATOM      2  C1' OXE d   1       0.258  -1.288   2.119  0.00  0.00     0.078 C 
ATOM      3  C1  OXE d   1       0.255  -0.973   0.644  0.00  0.00    -0.078 A 
ATOM      4  C2  OXE d   1      -0.945  -0.619   0.076  0.00  0.00    -0.078 A 
ATOM      5  C3  OXE d   1      -0.993  -0.266  -1.270  0.00  0.00     0.003 A 
ATOM      6  C4  OXE d   1       0.138  -0.415  -2.083  0.00  0.00    -0.002 A 
ATOM      7  C5  OXE d   1       1.361  -0.812  -1.532  0.00  0.00    -0.002 A 
ATOM      8  C6  OXE d   1       1.446  -1.053  -0.165  0.00  0.00     0.003 A 
ENDROOT
TORSDOF 0
ENDMDL
