MODEL 1
REMARK minimizedAffinity -1.99480319
REMARK minimizedRMSD -1
REMARK  0 active torsions:
REMARK  status: ('A' for Active; 'I' for Inactive)
ROOT
ATOM      1  C2' OXE d   1       1.043  -1.462   2.809  0.00  0.00     0.078 C 
ATOM      2  C1' OXE d   1       2.537  -1.832   0.461  0.00  0.00     0.078 C 
ATOM      3  C1  OXE d   1       1.210  -1.123   0.346  0.00  0.00    -0.078 A 
ATOM      4  C2  OXE d   1       0.465  -0.988   1.493  0.00  0.00    -0.078 A 
ATOM      5  C3  OXE d   1      -0.741  -0.294   1.453  0.00  0.00     0.003 A 
ATOM      6  C4  OXE d   1      -1.274   0.133   0.230  0.00  0.00    -0.002 A 
ATOM      7  C5  OXE d   1      -0.549  -0.031  -0.955  0.00  0.00    -0.002 A 
ATOM      8  C6  OXE d   1       0.711  -0.617  -0.908  0.00  0.00     0.003 A 
ENDROOT
TORSDOF 0
ENDMDL
