MODEL 1
REMARK minimizedAffinity -3.20848918
REMARK minimizedRMSD -1
REMARK  0 active torsions:
REMARK  status: ('A' for Active; 'I' for Inactive)
ROOT
ATOM      1  C2' OXE d   1       2.827  -0.712   0.346  0.00  0.00     0.078 C 
ATOM      2  C1' OXE d   1       1.410  -0.895   2.763  0.00  0.00     0.078 C 
ATOM      3  C1  OXE d   1       0.628  -0.584   1.511  0.00  0.00    -0.078 A 
ATOM      4  C2  OXE d   1       1.336  -0.450   0.341  0.00  0.00    -0.078 A 
ATOM      5  C3  OXE d   1       0.658  -0.218  -0.852  0.00  0.00     0.003 A 
ATOM      6  C4  OXE d   1      -0.720   0.034  -0.847  0.00  0.00    -0.002 A 
ATOM      7  C5  OXE d   1      -1.454  -0.058   0.340  0.00  0.00    -0.002 A 
ATOM      8  C6  OXE d   1      -0.803  -0.407   1.519  0.00  0.00     0.003 A 
ENDROOT
TORSDOF 0
ENDMDL
