MODEL 1
REMARK minimizedAffinity 3.73471904
REMARK minimizedRMSD -1
REMARK  0 active torsions:
REMARK  status: ('A' for Active; 'I' for Inactive)
ROOT
ATOM      1  N1  IND d   1       1.953   3.263   1.374  0.00  0.00    -0.196 N 
ATOM      2  C2  IND d   1       1.463   2.698   2.518  0.00  0.00     0.054 A 
ATOM      3  C3  IND d   1       0.112   2.677   2.492  0.00  0.00    -0.031 A 
ATOM      4  C4  IND d   1      -1.499   3.423   0.627  0.00  0.00     0.051 A 
ATOM      5  C5  IND d   1      -1.524   4.037  -0.593  0.00  0.00    -0.031 A 
ATOM      6  C6  IND d   1      -0.367   4.430  -1.235  0.00  0.00     0.015 A 
ATOM      7  C7  IND d   1       0.863   4.212  -0.682  0.00  0.00    -0.016 A 
ATOM      8  C8  IND d   1       0.891   3.595   0.560  0.00  0.00    -0.047 A 
ATOM      9  C9  IND d   1      -0.281   3.233   1.236  0.00  0.00    -0.096 A 
ATOM     10  HN1 IND d   1       2.783   3.390   1.192  0.00  0.00     0.298 HD
ENDROOT
TORSDOF 0
ENDMDL
