MODEL 1
REMARK minimizedAffinity -0.13780874
REMARK minimizedRMSD -1
REMARK  0 active torsions:
REMARK  status: ('A' for Active; 'I' for Inactive)
ROOT
ATOM      1  N1  IND d   1       0.549   2.733   1.260  0.00  0.00    -0.196 N 
ATOM      2  C2  IND d   1       0.740   3.352   0.056  0.00  0.00     0.054 A 
ATOM      3  C3  IND d   1      -0.284   4.194  -0.208  0.00  0.00    -0.031 A 
ATOM      4  C4  IND d   1      -2.326   4.790   1.242  0.00  0.00     0.051 A 
ATOM      5  C5  IND d   1      -2.954   4.454   2.408  0.00  0.00    -0.031 A 
ATOM      6  C6  IND d   1      -2.435   3.510   3.270  0.00  0.00     0.015 A 
ATOM      7  C7  IND d   1      -1.257   2.872   3.002  0.00  0.00    -0.016 A 
ATOM      8  C8  IND d   1      -0.620   3.205   1.815  0.00  0.00    -0.047 A 
ATOM      9  C9  IND d   1      -1.164   4.132   0.916  0.00  0.00    -0.096 A 
ATOM     10  HN1 IND d   1       1.071   2.146   1.611  0.00  0.00     0.298 HD
ENDROOT
TORSDOF 0
ENDMDL
