MODEL 1
REMARK minimizedAffinity 5.90706253
REMARK minimizedRMSD -1
REMARK  0 active torsions:
REMARK  status: ('A' for Active; 'I' for Inactive)
ROOT
ATOM      1  N1  IND d   1       4.497  -2.917  -4.051  0.00  0.00    -0.196 N 
ATOM      2  C2  IND d   1       4.623  -4.103  -4.720  0.00  0.00     0.054 A 
ATOM      3  C3  IND d   1       4.780  -5.122  -3.845  0.00  0.00    -0.031 A 
ATOM      4  C4  IND d   1       4.759  -5.086  -1.271  0.00  0.00     0.051 A 
ATOM      5  C5  IND d   1       4.711  -4.231  -0.206  0.00  0.00    -0.031 A 
ATOM      6  C6  IND d   1       4.583  -2.867  -0.372  0.00  0.00     0.015 A 
ATOM      7  C7  IND d   1       4.488  -2.305  -1.614  0.00  0.00    -0.016 A 
ATOM      8  C8  IND d   1       4.544  -3.170  -2.698  0.00  0.00    -0.047 A 
ATOM      9  C9  IND d   1       4.716  -4.551  -2.537  0.00  0.00    -0.096 A 
ATOM     10  HN1 IND d   1       4.405  -2.143  -4.415  0.00  0.00     0.298 HD
ENDROOT
TORSDOF 0
ENDMDL
