MODEL 1
REMARK minimizedAffinity 1.83095884
REMARK minimizedRMSD -1
REMARK  0 active torsions:
REMARK  status: ('A' for Active; 'I' for Inactive)
ROOT
ATOM      1  N1  IND d   1      -5.916   3.439  -5.424  0.00  0.00    -0.196 N 
ATOM      2  C2  IND d   1      -5.937   4.748  -5.816  0.00  0.00     0.054 A 
ATOM      3  C3  IND d   1      -5.999   5.561  -4.738  0.00  0.00    -0.031 A 
ATOM      4  C4  IND d   1      -5.974   4.963  -2.234  0.00  0.00     0.051 A 
ATOM      5  C5  IND d   1      -6.000   3.895  -1.382  0.00  0.00    -0.031 A 
ATOM      6  C6  IND d   1      -5.996   2.594  -1.842  0.00  0.00     0.015 A 
ATOM      7  C7  IND d   1      -5.955   2.311  -3.178  0.00  0.00    -0.016 A 
ATOM      8  C8  IND d   1      -5.936   3.393  -4.047  0.00  0.00    -0.047 A 
ATOM      9  C9  IND d   1      -5.983   4.716  -3.587  0.00  0.00    -0.096 A 
ATOM     10  HN1 IND d   1      -5.895   2.758  -5.949  0.00  0.00     0.298 HD
ENDROOT
TORSDOF 0
ENDMDL
