MODEL 1
REMARK minimizedAffinity -1.98076534
REMARK minimizedRMSD -1
REMARK  0 active torsions:
REMARK  status: ('A' for Active; 'I' for Inactive)
ROOT
ATOM      1  N1  IND d   1      -6.000   3.602  -2.387  0.00  0.00    -0.196 N 
ATOM      2  C2  IND d   1      -5.212   2.601  -1.890  0.00  0.00     0.054 A 
ATOM      3  C3  IND d   1      -4.259   2.263  -2.787  0.00  0.00    -0.031 A 
ATOM      4  C4  IND d   1      -3.744   3.289  -5.091  0.00  0.00     0.051 A 
ATOM      5  C5  IND d   1      -4.212   4.203  -5.992  0.00  0.00    -0.031 A 
ATOM      6  C6  IND d   1      -5.321   4.982  -5.731  0.00  0.00     0.015 A 
ATOM      7  C7  IND d   1      -5.999   4.882  -4.549  0.00  0.00    -0.016 A 
ATOM      8  C8  IND d   1      -5.531   3.950  -3.635  0.00  0.00    -0.047 A 
ATOM      9  C9  IND d   1      -4.431   3.127  -3.912  0.00  0.00    -0.096 A 
ATOM     10  HN1 IND d   1      -6.675   3.955  -1.988  0.00  0.00     0.298 HD
ENDROOT
TORSDOF 0
ENDMDL
