MODEL 1
REMARK minimizedAffinity -4.56195498
REMARK minimizedRMSD -1
REMARK  0 active torsions:
REMARK  status: ('A' for Active; 'I' for Inactive)
ROOT
ATOM      1  N1  IND d   1      -5.987   5.769  -4.360  0.00  0.00    -0.196 N 
ATOM      2  C2  IND d   1      -5.908   5.526  -5.703  0.00  0.00     0.054 A 
ATOM      3  C3  IND d   1      -5.271   4.357  -5.933  0.00  0.00    -0.031 A 
ATOM      4  C4  IND d   1      -4.363   2.631  -4.251  0.00  0.00     0.051 A 
ATOM      5  C5  IND d   1      -4.171   2.429  -2.913  0.00  0.00    -0.031 A 
ATOM      6  C6  IND d   1      -4.585   3.347  -1.970  0.00  0.00     0.015 A 
ATOM      7  C7  IND d   1      -5.220   4.502  -2.331  0.00  0.00    -0.016 A 
ATOM      8  C8  IND d   1      -5.411   4.714  -3.689  0.00  0.00    -0.047 A 
ATOM      9  C9  IND d   1      -4.955   3.806  -4.653  0.00  0.00    -0.096 A 
ATOM     10  HN1 IND d   1      -6.338   6.465  -3.996  0.00  0.00     0.298 HD
ENDROOT
TORSDOF 0
ENDMDL
