MODEL 1
REMARK minimizedAffinity -2.20826578
REMARK minimizedRMSD -1
REMARK  0 active torsions:
REMARK  status: ('A' for Active; 'I' for Inactive)
ROOT
ATOM      1  N1  IND d   1      -5.639   3.629  -1.917  0.00  0.00    -0.196 N 
ATOM      2  C2  IND d   1      -5.791   2.271  -1.880  0.00  0.00     0.054 A 
ATOM      3  C3  IND d   1      -5.988   1.785  -3.126  0.00  0.00    -0.031 A 
ATOM      4  C4  IND d   1      -6.000   3.026  -5.382  0.00  0.00     0.051 A 
ATOM      5  C5  IND d   1      -5.940   4.280  -5.922  0.00  0.00    -0.031 A 
ATOM      6  C6  IND d   1      -5.771   5.404  -5.139  0.00  0.00     0.015 A 
ATOM      7  C7  IND d   1      -5.643   5.313  -3.781  0.00  0.00    -0.016 A 
ATOM      8  C8  IND d   1      -5.710   4.042  -3.229  0.00  0.00    -0.047 A 
ATOM      9  C9  IND d   1      -5.924   2.902  -4.014  0.00  0.00    -0.096 A 
ATOM     10  HN1 IND d   1      -5.520   4.139  -1.235  0.00  0.00     0.298 HD
ENDROOT
TORSDOF 0
ENDMDL
