MODEL 1
REMARK minimizedAffinity 3.6399231
REMARK minimizedRMSD -1
REMARK  0 active torsions:
REMARK  status: ('A' for Active; 'I' for Inactive)
ROOT
ATOM      1  N1  IND d   1       0.759   2.148   3.707  0.00  0.00    -0.196 N 
ATOM      2  C2  IND d   1       2.095   2.173   3.996  0.00  0.00     0.054 A 
ATOM      3  C3  IND d   1       2.757   2.929   3.092  0.00  0.00    -0.031 A 
ATOM      4  C4  IND d   1       1.836   4.299   1.116  0.00  0.00     0.051 A 
ATOM      5  C5  IND d   1       0.682   4.559   0.431  0.00  0.00    -0.031 A 
ATOM      6  C6  IND d   1      -0.530   4.020   0.812  0.00  0.00     0.015 A 
ATOM      7  C7  IND d   1      -0.636   3.207   1.904  0.00  0.00    -0.016 A 
ATOM      8  C8  IND d   1       0.535   2.934   2.599  0.00  0.00    -0.047 A 
ATOM      9  C9  IND d   1       1.775   3.444   2.192  0.00  0.00    -0.096 A 
ATOM     10  HN1 IND d   1       0.159   1.714   4.145  0.00  0.00     0.298 HD
ENDROOT
TORSDOF 0
ENDMDL
