MODEL 1
REMARK minimizedAffinity -2.86509252
REMARK minimizedRMSD -1
REMARK  0 active torsions:
REMARK  status: ('A' for Active; 'I' for Inactive)
ROOT
ATOM      1  N1  IND d   1      -5.840   5.536  -4.492  0.00  0.00    -0.196 N 
ATOM      2  C2  IND d   1      -5.986   4.931  -5.710  0.00  0.00     0.054 A 
ATOM      3  C3  IND d   1      -5.611   3.634  -5.638  0.00  0.00    -0.031 A 
ATOM      4  C4  IND d   1      -4.824   2.268  -3.603  0.00  0.00     0.051 A 
ATOM      5  C5  IND d   1      -4.497   2.395  -2.282  0.00  0.00    -0.031 A 
ATOM      6  C6  IND d   1      -4.606   3.599  -1.616  0.00  0.00     0.015 A 
ATOM      7  C7  IND d   1      -5.059   4.723  -2.246  0.00  0.00    -0.016 A 
ATOM      8  C8  IND d   1      -5.385   4.600  -3.589  0.00  0.00    -0.047 A 
ATOM      9  C9  IND d   1      -5.236   3.391  -4.281  0.00  0.00    -0.096 A 
ATOM     10  HN1 IND d   1      -6.005   6.362  -4.319  0.00  0.00     0.298 HD
ENDROOT
TORSDOF 0
ENDMDL
