MODEL 1
REMARK minimizedAffinity 10.9799433
REMARK minimizedRMSD -1
REMARK  0 active torsions:
REMARK  status: ('A' for Active; 'I' for Inactive)
ROOT
ATOM      1  N1  IND d   1       0.223   3.069  -0.047  0.00  0.00    -0.196 N 
ATOM      2  C2  IND d   1       0.150   2.098   0.912  0.00  0.00     0.054 A 
ATOM      3  C3  IND d   1      -0.788   2.415   1.833  0.00  0.00    -0.031 A 
ATOM      4  C4  IND d   1      -2.393   4.426   1.906  0.00  0.00     0.051 A 
ATOM      5  C5  IND d   1      -2.679   5.600   1.267  0.00  0.00    -0.031 A 
ATOM      6  C6  IND d   1      -2.001   5.997   0.133  0.00  0.00     0.015 A 
ATOM      7  C7  IND d   1      -1.014   5.226  -0.413  0.00  0.00    -0.016 A 
ATOM      8  C8  IND d   1      -0.716   4.037   0.237  0.00  0.00    -0.047 A 
ATOM      9  C9  IND d   1      -1.372   3.649   1.412  0.00  0.00    -0.096 A 
ATOM     10  HN1 IND d   1       0.764   3.075  -0.715  0.00  0.00     0.298 HD
ENDROOT
TORSDOF 0
ENDMDL
