MODEL 1
REMARK minimizedAffinity -4.56406021
REMARK minimizedRMSD -1
REMARK  0 active torsions:
REMARK  status: ('A' for Active; 'I' for Inactive)
ROOT
ATOM      1  N1  IND d   1      -3.296   2.952  -6.000  0.00  0.00    -0.196 N 
ATOM      2  C2  IND d   1      -3.022   1.619  -5.868  0.00  0.00     0.054 A 
ATOM      3  C3  IND d   1      -3.719   1.096  -4.834  0.00  0.00    -0.031 A 
ATOM      4  C4  IND d   1      -5.443   2.221  -3.289  0.00  0.00     0.051 A 
ATOM      5  C5  IND d   1      -6.000   3.435  -2.999  0.00  0.00    -0.031 A 
ATOM      6  C6  IND d   1      -5.679   4.573  -3.711  0.00  0.00     0.015 A 
ATOM      7  C7  IND d   1      -4.794   4.536  -4.751  0.00  0.00    -0.016 A 
ATOM      8  C8  IND d   1      -4.222   3.306  -5.044  0.00  0.00    -0.047 A 
ATOM      9  C9  IND d   1      -4.511   2.157  -4.297  0.00  0.00    -0.096 A 
ATOM     10  HN1 IND d   1      -2.948   3.480  -6.582  0.00  0.00     0.298 HD
ENDROOT
TORSDOF 0
ENDMDL
