MODEL 1
REMARK minimizedAffinity 2.29394054
REMARK minimizedRMSD -1
REMARK  1 active torsions:
REMARK  status: ('A' for Active; 'I' for Inactive)
REMARK    1  A    between atoms: N_2  and  C1_3 
ROOT
ATOM      1  C1  UNL d   1      -4.398  -0.017  -1.936  0.00  0.00     0.143 A 
ATOM      2  C2  UNL d   1      -3.838  -1.261  -1.627  0.00  0.00    -0.057 A 
ATOM      3  C3  UNL d   1      -4.067  -2.381  -2.435  0.00  0.00     0.033 A 
ATOM      4  C4  UNL d   1      -4.887  -2.283  -3.554  0.00  0.00    -0.042 A 
ATOM      5  C5  UNL d   1      -5.475  -1.063  -3.866  0.00  0.00     0.033 A 
ATOM      6  C6  UNL d   1      -5.237   0.054  -3.059  0.00  0.00    -0.057 A 
ENDROOT
BRANCH   1   7
ATOM      7  N   UNL d   1      -4.288   1.111  -1.119  0.00  0.00    -0.732 N 
ATOM      8  C   UNL d   1      -4.878   1.124   0.203  0.00  0.00     0.284 C 
ATOM      9  H3  UNL d   1      -3.365   1.536  -1.166  0.00  0.00     0.395 HD
ENDBRANCH   1   7
TORSDOF 1
ENDMDL
