MODEL 1
REMARK minimizedAffinity 4.27207136
REMARK minimizedRMSD -1
REMARK  1 active torsions:
REMARK  status: ('A' for Active; 'I' for Inactive)
REMARK    1  A    between atoms: N_2  and  C1_3 
ROOT
ATOM      1  C1  UNL d   1       0.055   2.266  -2.374  0.00  0.00     0.143 A 
ATOM      2  C2  UNL d   1       0.212   1.469  -1.235  0.00  0.00    -0.057 A 
ATOM      3  C3  UNL d   1       1.081   0.372  -1.230  0.00  0.00     0.033 A 
ATOM      4  C4  UNL d   1       1.789   0.033  -2.379  0.00  0.00    -0.042 A 
ATOM      5  C5  UNL d   1       1.629   0.795  -3.530  0.00  0.00     0.033 A 
ATOM      6  C6  UNL d   1       0.765   1.894  -3.526  0.00  0.00    -0.057 A 
ENDROOT
BRANCH   1   7
ATOM      7  N   UNL d   1      -0.867   3.311  -2.471  0.00  0.00    -0.732 N 
ATOM      8  C   UNL d   1      -2.280   3.068  -2.270  0.00  0.00     0.284 C 
ATOM      9  H3  UNL d   1      -0.528   4.170  -2.044  0.00  0.00     0.395 HD
ENDBRANCH   1   7
TORSDOF 1
ENDMDL
