MODEL 1
REMARK minimizedAffinity 7.18475199
REMARK minimizedRMSD -1
REMARK  1 active torsions:
REMARK  status: ('A' for Active; 'I' for Inactive)
REMARK    1  A    between atoms: N_2  and  C1_3 
ROOT
ATOM      1  C1  UNL d   1      -0.904  -1.484   3.179  0.00  0.00     0.143 A 
ATOM      2  C2  UNL d   1       0.077  -0.631   3.696  0.00  0.00    -0.057 A 
ATOM      3  C3  UNL d   1       1.435  -0.836   3.423  0.00  0.00     0.033 A 
ATOM      4  C4  UNL d   1       1.839  -1.919   2.649  0.00  0.00    -0.042 A 
ATOM      5  C5  UNL d   1       0.883  -2.794   2.145  0.00  0.00     0.033 A 
ATOM      6  C6  UNL d   1      -0.472  -2.580   2.416  0.00  0.00    -0.057 A 
ENDROOT
BRANCH   1   7
ATOM      7  N   UNL d   1      -2.262  -1.390   3.495  0.00  0.00    -0.732 N 
ATOM      8  C   UNL d   1      -3.034  -0.235   3.091  0.00  0.00     0.284 C 
ATOM      9  H3  UNL d   1      -2.749  -2.276   3.382  0.00  0.00     0.395 HD
ENDBRANCH   1   7
TORSDOF 1
ENDMDL
