MODEL 1
REMARK minimizedAffinity 2.63381362
REMARK minimizedRMSD -1
REMARK  1 active torsions:
REMARK  status: ('A' for Active; 'I' for Inactive)
REMARK    1  A    between atoms: N_2  and  C1_3 
ROOT
ATOM      1  C1  UNL d   1      -0.795  -1.170   3.375  0.00  0.00     0.143 A 
ATOM      2  C2  UNL d   1      -0.769   0.165   3.794  0.00  0.00    -0.057 A 
ATOM      3  C3  UNL d   1      -1.902   0.980   3.693  0.00  0.00     0.033 A 
ATOM      4  C4  UNL d   1      -3.078   0.482   3.142  0.00  0.00    -0.042 A 
ATOM      5  C5  UNL d   1      -3.120  -0.835   2.696  0.00  0.00     0.033 A 
ATOM      6  C6  UNL d   1      -1.986  -1.646   2.806  0.00  0.00    -0.057 A 
ENDROOT
BRANCH   1   7
ATOM      7  N   UNL d   1       0.327  -2.002   3.359  0.00  0.00    -0.732 N 
ATOM      8  C   UNL d   1       0.971  -2.346   2.109  0.00  0.00     0.284 C 
ATOM      9  H3  UNL d   1       0.973  -1.798   4.117  0.00  0.00     0.395 HD
ENDBRANCH   1   7
TORSDOF 1
ENDMDL
