MODEL 1
REMARK minimizedAffinity 8.92267609
REMARK minimizedRMSD -1
REMARK  1 active torsions:
REMARK  status: ('A' for Active; 'I' for Inactive)
REMARK    1  A    between atoms: N_2  and  C1_3 
ROOT
ATOM      1  C1  UNL d   1       5.054  -5.169   0.643  0.00  0.00     0.143 A 
ATOM      2  C2  UNL d   1       5.349  -3.974   1.307  0.00  0.00    -0.057 A 
ATOM      3  C3  UNL d   1       4.341  -3.204   1.899  0.00  0.00     0.033 A 
ATOM      4  C4  UNL d   1       3.011  -3.602   1.812  0.00  0.00    -0.042 A 
ATOM      5  C5  UNL d   1       2.691  -4.774   1.135  0.00  0.00     0.033 A 
ATOM      6  C6  UNL d   1       3.704  -5.542   0.551  0.00  0.00    -0.057 A 
ENDROOT
BRANCH   1   7
ATOM      7  N   UNL d   1       6.000  -5.928  -0.051  0.00  0.00    -0.732 N 
ATOM      8  C   UNL d   1       5.999  -5.964  -1.497  0.00  0.00     0.284 C 
ATOM      9  H3  UNL d   1       6.927  -5.865   0.363  0.00  0.00     0.395 HD
ENDBRANCH   1   7
TORSDOF 1
ENDMDL
