MODEL 1
REMARK minimizedAffinity 11.5861454
REMARK minimizedRMSD -1
REMARK  1 active torsions:
REMARK  status: ('A' for Active; 'I' for Inactive)
REMARK    1  A    between atoms: N_2  and  C1_3 
ROOT
ATOM      1  C1  UNL d   1      -3.572  -0.972  -2.106  0.00  0.00     0.143 A 
ATOM      2  C2  UNL d   1      -4.089  -2.212  -2.496  0.00  0.00    -0.057 A 
ATOM      3  C3  UNL d   1      -4.997  -2.320  -3.556  0.00  0.00     0.033 A 
ATOM      4  C4  UNL d   1      -5.429  -1.181  -4.228  0.00  0.00    -0.042 A 
ATOM      5  C5  UNL d   1      -4.947   0.065  -3.842  0.00  0.00     0.033 A 
ATOM      6  C6  UNL d   1      -4.035   0.165  -2.787  0.00  0.00    -0.057 A 
ENDROOT
BRANCH   1   7
ATOM      7  N   UNL d   1      -2.742  -0.789  -0.997  0.00  0.00    -0.732 N 
ATOM      8  C   UNL d   1      -1.340  -0.474  -1.170  0.00  0.00     0.284 C 
ATOM      9  H3  UNL d   1      -3.197  -0.264  -0.254  0.00  0.00     0.395 HD
ENDBRANCH   1   7
TORSDOF 1
ENDMDL
