MODEL 1
REMARK minimizedAffinity 2.92466807
REMARK minimizedRMSD -1
REMARK  1 active torsions:
REMARK  status: ('A' for Active; 'I' for Inactive)
REMARK    1  A    between atoms: N_2  and  C1_3 
ROOT
ATOM      1  C1  UNL d   1       1.325  -3.020   2.011  0.00  0.00     0.143 A 
ATOM      2  C2  UNL d   1       0.435  -2.150   2.651  0.00  0.00    -0.057 A 
ATOM      3  C3  UNL d   1      -0.812  -2.594   3.107  0.00  0.00     0.033 A 
ATOM      4  C4  UNL d   1      -1.204  -3.914   2.904  0.00  0.00    -0.042 A 
ATOM      5  C5  UNL d   1      -0.346  -4.789   2.249  0.00  0.00     0.033 A 
ATOM      6  C6  UNL d   1       0.901  -4.341   1.801  0.00  0.00    -0.057 A 
ENDROOT
BRANCH   1   7
ATOM      7  N   UNL d   1       2.537  -2.615   1.447  0.00  0.00    -0.732 N 
ATOM      8  C   UNL d   1       3.731  -3.418   1.610  0.00  0.00     0.284 C 
ATOM      9  H3  UNL d   1       2.422  -2.227   0.513  0.00  0.00     0.395 HD
ENDBRANCH   1   7
TORSDOF 1
ENDMDL
