MODEL 1
REMARK minimizedAffinity -1.79073966
REMARK minimizedRMSD -1
REMARK  0 active torsions:
REMARK  status: ('A' for Active; 'I' for Inactive)
ROOT
ATOM      1  C1  BNZ d   1      -0.892  -0.029   1.271  0.00  0.00     0.000 A 
ATOM      2  C2  BNZ d   1      -1.092  -1.212   1.931  0.00  0.00     0.000 A 
ATOM      3  C3  BNZ d   1      -0.880  -2.408   1.304  0.00  0.00     0.000 A 
ATOM      4  C4  BNZ d   1      -0.507  -2.419   0.008  0.00  0.00     0.000 A 
ATOM      5  C5  BNZ d   1      -0.310  -1.235  -0.674  0.00  0.00     0.000 A 
ATOM      6  C6  BNZ d   1      -0.487  -0.033  -0.028  0.00  0.00     0.000 A 
ENDROOT
TORSDOF 0
ENDMDL
