MODEL 1
REMARK minimizedAffinity -2.76366472
REMARK minimizedRMSD -1
REMARK  0 active torsions:
REMARK  status: ('A' for Active; 'I' for Inactive)
ROOT
ATOM      1  C1  BNZ d   1       0.116   0.336  -1.815  0.00  0.00     0.000 A 
ATOM      2  C2  BNZ d   1       0.482  -0.883  -2.321  0.00  0.00     0.000 A 
ATOM      3  C3  BNZ d   1       0.904  -1.886  -1.494  0.00  0.00     0.000 A 
ATOM      4  C4  BNZ d   1       0.999  -1.656  -0.168  0.00  0.00     0.000 A 
ATOM      5  C5  BNZ d   1       0.643  -0.430   0.356  0.00  0.00     0.000 A 
ATOM      6  C6  BNZ d   1       0.181   0.565  -0.475  0.00  0.00     0.000 A 
ENDROOT
TORSDOF 0
ENDMDL
