MODEL 1
REMARK minimizedAffinity -3.15196276
REMARK minimizedRMSD -1
REMARK  0 active torsions:
REMARK  status: ('A' for Active; 'I' for Inactive)
ROOT
ATOM      1  C1  BNZ d   1       1.167  -1.791  -0.560  0.00  0.00     0.000 A 
ATOM      2  C2  BNZ d   1       1.022  -3.115  -0.879  0.00  0.00     0.000 A 
ATOM      3  C3  BNZ d   1      -0.125  -3.788  -0.565  0.00  0.00     0.000 A 
ATOM      4  C4  BNZ d   1      -1.108  -3.149   0.103  0.00  0.00     0.000 A 
ATOM      5  C5  BNZ d   1      -0.973  -1.817   0.439  0.00  0.00     0.000 A 
ATOM      6  C6  BNZ d   1       0.167  -1.132   0.087  0.00  0.00     0.000 A 
ENDROOT
TORSDOF 0
ENDMDL
