MODEL 1
REMARK minimizedAffinity -4.08752346
REMARK minimizedRMSD -1
REMARK  0 active torsions:
REMARK  status: ('A' for Active; 'I' for Inactive)
ROOT
ATOM      1  C1  BNZ d   1      -1.077  -1.155   1.262  0.00  0.00     0.000 A 
ATOM      2  C2  BNZ d   1      -0.529  -1.445   0.041  0.00  0.00     0.000 A 
ATOM      3  C3  BNZ d   1      -0.049  -0.450  -0.765  0.00  0.00     0.000 A 
ATOM      4  C4  BNZ d   1      -0.153   0.834  -0.366  0.00  0.00     0.000 A 
ATOM      5  C5  BNZ d   1      -0.710   1.143   0.859  0.00  0.00     0.000 A 
ATOM      6  C6  BNZ d   1      -1.157   0.136   1.684  0.00  0.00     0.000 A 
ENDROOT
TORSDOF 0
ENDMDL
