MODEL 1
REMARK minimizedAffinity -4.31122494
REMARK minimizedRMSD -1
REMARK  0 active torsions:
REMARK  status: ('A' for Active; 'I' for Inactive)
ROOT
ATOM      1  C1  BNZ d   1       0.011  -0.485  -1.036  0.00  0.00     0.000 A 
ATOM      2  C2  BNZ d   1       0.589  -1.726  -1.005  0.00  0.00     0.000 A 
ATOM      3  C3  BNZ d   1       0.426  -2.547   0.076  0.00  0.00     0.000 A 
ATOM      4  C4  BNZ d   1      -0.280  -2.111   1.139  0.00  0.00     0.000 A 
ATOM      5  C5  BNZ d   1      -0.860  -0.859   1.127  0.00  0.00     0.000 A 
ATOM      6  C6  BNZ d   1      -0.727  -0.051   0.021  0.00  0.00     0.000 A 
ENDROOT
TORSDOF 0
ENDMDL
