MODEL 1
REMARK minimizedAffinity -3.80450344
REMARK minimizedRMSD -1
REMARK  0 active torsions:
REMARK  status: ('A' for Active; 'I' for Inactive)
ROOT
ATOM      1  C1  BNZ d   1      -1.132  -0.520   1.249  0.00  0.00     0.000 A 
ATOM      2  C2  BNZ d   1      -0.594   0.270   0.269  0.00  0.00     0.000 A 
ATOM      3  C3  BNZ d   1       0.295  -0.243  -0.634  0.00  0.00     0.000 A 
ATOM      4  C4  BNZ d   1       0.674  -1.533  -0.531  0.00  0.00     0.000 A 
ATOM      5  C5  BNZ d   1       0.147  -2.340   0.458  0.00  0.00     0.000 A 
ATOM      6  C6  BNZ d   1      -0.776  -1.830   1.341  0.00  0.00     0.000 A 
ENDROOT
TORSDOF 0
ENDMDL
