MODEL 1
REMARK minimizedAffinity -4.56713963
REMARK minimizedRMSD -1
REMARK  0 active torsions:
REMARK  status: ('A' for Active; 'I' for Inactive)
ROOT
ATOM      1  C1  BNZ d   1      -0.198  -2.760  -0.038  0.00  0.00     0.000 A 
ATOM      2  C2  BNZ d   1       0.267  -1.874  -0.973  0.00  0.00     0.000 A 
ATOM      3  C3  BNZ d   1       0.300  -0.533  -0.710  0.00  0.00     0.000 A 
ATOM      4  C4  BNZ d   1      -0.169  -0.077   0.469  0.00  0.00     0.000 A 
ATOM      5  C5  BNZ d   1      -0.650  -0.957   1.418  0.00  0.00     0.000 A 
ATOM      6  C6  BNZ d   1      -0.646  -2.309   1.165  0.00  0.00     0.000 A 
ENDROOT
TORSDOF 0
ENDMDL
