MODEL 1
REMARK minimizedAffinity -2.66983509
REMARK minimizedRMSD -1
REMARK  0 active torsions:
REMARK  status: ('A' for Active; 'I' for Inactive)
ROOT
ATOM      1  C1  BNZ d   1       0.229  -1.402   1.170  0.00  0.00     0.000 A 
ATOM      2  C2  BNZ d   1       0.016  -0.105   1.554  0.00  0.00     0.000 A 
ATOM      3  C3  BNZ d   1      -0.318   0.852   0.637  0.00  0.00     0.000 A 
ATOM      4  C4  BNZ d   1      -0.399   0.519  -0.668  0.00  0.00     0.000 A 
ATOM      5  C5  BNZ d   1      -0.178  -0.782  -1.073  0.00  0.00     0.000 A 
ATOM      6  C6  BNZ d   1       0.120  -1.750  -0.141  0.00  0.00     0.000 A 
ENDROOT
TORSDOF 0
ENDMDL
