MODEL 1
REMARK minimizedAffinity -3.66900086
REMARK minimizedRMSD -1
REMARK  0 active torsions:
REMARK  status: ('A' for Active; 'I' for Inactive)
ROOT
ATOM      1  C1  BNZ d   1       0.205  -1.178  -0.612  0.00  0.00     0.000 A 
ATOM      2  C2  BNZ d   1      -0.287  -1.984   0.380  0.00  0.00     0.000 A 
ATOM      3  C3  BNZ d   1      -0.653  -3.274   0.116  0.00  0.00     0.000 A 
ATOM      4  C4  BNZ d   1      -0.566  -3.744  -1.145  0.00  0.00     0.000 A 
ATOM      5  C5  BNZ d   1      -0.081  -2.940  -2.158  0.00  0.00     0.000 A 
ATOM      6  C6  BNZ d   1       0.323  -1.655  -1.881  0.00  0.00     0.000 A 
ENDROOT
TORSDOF 0
ENDMDL
