MODEL 1
REMARK minimizedAffinity -2.41552234
REMARK minimizedRMSD -1
REMARK  0 active torsions:
REMARK  status: ('A' for Active; 'I' for Inactive)
ROOT
ATOM      1  C1  BNZ d   1      -0.750   0.208   0.844  0.00  0.00     0.000 A 
ATOM      2  C2  BNZ d   1      -0.606  -1.142   1.027  0.00  0.00     0.000 A 
ATOM      3  C3  BNZ d   1       0.063  -1.905   0.111  0.00  0.00     0.000 A 
ATOM      4  C4  BNZ d   1       0.551  -1.326  -1.005  0.00  0.00     0.000 A 
ATOM      5  C5  BNZ d   1       0.406   0.032  -1.209  0.00  0.00     0.000 A 
ATOM      6  C6  BNZ d   1      -0.234   0.803  -0.266  0.00  0.00     0.000 A 
ENDROOT
TORSDOF 0
ENDMDL
