MODEL 1
REMARK minimizedAffinity -4.50725937
REMARK minimizedRMSD -1
REMARK  0 active torsions:
REMARK  status: ('A' for Active; 'I' for Inactive)
ROOT
ATOM      1  C1  BNZ d   1       0.758  -0.765  -1.100  0.00  0.00     0.000 A 
ATOM      2  C2  BNZ d   1       1.038  -2.097  -0.949  0.00  0.00     0.000 A 
ATOM      3  C3  BNZ d   1       0.426  -2.836   0.025  0.00  0.00     0.000 A 
ATOM      4  C4  BNZ d   1      -0.435  -2.234   0.870  0.00  0.00     0.000 A 
ATOM      5  C5  BNZ d   1      -0.721  -0.890   0.737  0.00  0.00     0.000 A 
ATOM      6  C6  BNZ d   1      -0.132  -0.158  -0.269  0.00  0.00     0.000 A 
ENDROOT
TORSDOF 0
ENDMDL
