MODEL 1
REMARK minimizedAffinity 10.1841936
REMARK minimizedRMSD -1
REMARK  2 active torsions:
REMARK  status: ('A' for Active; 'I' for Inactive)
REMARK    1  A    between atoms: C2'_3  and  C1'_4 
REMARK    2  A    between atoms: C1'_4  and  C1_5 
ROOT
ATOM      1  C1  I4B d   1       2.962   1.957  -1.652  0.00  0.00    -0.075 A 
ATOM      2  C2  I4B d   1       1.608   2.110  -1.485  0.00  0.00     0.003 A 
ATOM      3  C3  I4B d   1       0.883   2.995  -2.319  0.00  0.00     0.002 A 
ATOM      4  C4  I4B d   1       1.555   3.740  -3.266  0.00  0.00    -0.004 A 
ATOM      5  C5  I4B d   1       2.923   3.567  -3.449  0.00  0.00     0.002 A 
ATOM      6  C6  I4B d   1       3.630   2.661  -2.645  0.00  0.00     0.003 A 
ENDROOT
BRANCH   1   7
ATOM      7  C1' I4B d   1       3.702   1.038  -0.732  0.00  0.00     0.060 C 
BRANCH   7   8
ATOM      8  C2' I4B d   1       3.262   1.343   0.685  0.00  0.00    -0.013 C 
ATOM      9  C4' I4B d   1       2.946   0.079   1.442  0.00  0.00     0.013 C 
ATOM     10  C3' I4B d   1       4.361   2.114   1.355  0.00  0.00     0.013 C 
ENDBRANCH   7   8
ENDBRANCH   1   7
TORSDOF 2
ENDMDL
