MODEL 1
REMARK minimizedAffinity 12.658412
REMARK minimizedRMSD -1
REMARK  2 active torsions:
REMARK  status: ('A' for Active; 'I' for Inactive)
REMARK    1  A    between atoms: C2'_3  and  C1'_4 
REMARK    2  A    between atoms: C1'_4  and  C1_5 
ROOT
ATOM      1  C1  I4B d   1      -0.173  -0.312   1.999  0.00  0.00    -0.075 A 
ATOM      2  C2  I4B d   1      -0.937  -1.251   1.354  0.00  0.00     0.003 A 
ATOM      3  C3  I4B d   1      -2.297  -1.427   1.705  0.00  0.00     0.002 A 
ATOM      4  C4  I4B d   1      -2.835  -0.682   2.735  0.00  0.00    -0.004 A 
ATOM      5  C5  I4B d   1      -2.065   0.286   3.373  0.00  0.00     0.002 A 
ATOM      6  C6  I4B d   1      -0.729   0.481   2.995  0.00  0.00     0.003 A 
ENDROOT
BRANCH   1   7
ATOM      7  C1' I4B d   1       1.269  -0.175   1.626  0.00  0.00     0.060 C 
BRANCH   7   8
ATOM      8  C2' I4B d   1       1.456   1.178   0.971  0.00  0.00    -0.013 C 
ATOM      9  C4' I4B d   1       2.715   1.849   1.454  0.00  0.00     0.013 C 
ATOM     10  C3' I4B d   1       1.488   0.973  -0.515  0.00  0.00     0.013 C 
ENDBRANCH   7   8
ENDBRANCH   1   7
TORSDOF 2
ENDMDL
