MODEL 1
REMARK minimizedAffinity 3.33903766
REMARK minimizedRMSD -1
REMARK  2 active torsions:
REMARK  status: ('A' for Active; 'I' for Inactive)
REMARK    1  A    between atoms: C2'_3  and  C1'_4 
REMARK    2  A    between atoms: C1'_4  and  C1_5 
ROOT
ATOM      1  C1  I4B d   1      -2.931   5.247  -4.768  0.00  0.00    -0.075 A 
ATOM      2  C2  I4B d   1      -2.253   4.882  -3.632  0.00  0.00     0.003 A 
ATOM      3  C3  I4B d   1      -0.845   4.731  -3.659  0.00  0.00     0.002 A 
ATOM      4  C4  I4B d   1      -0.166   4.904  -4.848  0.00  0.00    -0.004 A 
ATOM      5  C5  I4B d   1      -0.852   5.296  -5.994  0.00  0.00     0.002 A 
ATOM      6  C6  I4B d   1      -2.242   5.481  -5.951  0.00  0.00     0.003 A 
ENDROOT
BRANCH   1   7
ATOM      7  C1' I4B d   1      -4.421   5.366  -4.712  0.00  0.00     0.060 C 
BRANCH   7   8
ATOM      8  C2' I4B d   1      -4.860   5.065  -3.293  0.00  0.00    -0.013 C 
ATOM      9  C4' I4B d   1      -5.970   5.986  -2.859  0.00  0.00     0.013 C 
ATOM     10  C3' I4B d   1      -5.292   3.630  -3.236  0.00  0.00     0.013 C 
ENDBRANCH   7   8
ENDBRANCH   1   7
TORSDOF 2
ENDMDL
