MODEL 1
REMARK minimizedAffinity 9.32215309
REMARK minimizedRMSD -1
REMARK  2 active torsions:
REMARK  status: ('A' for Active; 'I' for Inactive)
REMARK    1  A    between atoms: C2'_3  and  C1'_4 
REMARK    2  A    between atoms: C1'_4  and  C1_5 
ROOT
ATOM      1  C1  I4B d   1       4.104   2.331   0.624  0.00  0.00    -0.075 A 
ATOM      2  C2  I4B d   1       5.295   2.640   0.016  0.00  0.00     0.003 A 
ATOM      3  C3  I4B d   1       5.996   3.816   0.379  0.00  0.00     0.002 A 
ATOM      4  C4  I4B d   1       5.448   4.674   1.310  0.00  0.00    -0.004 A 
ATOM      5  C5  I4B d   1       4.251   4.347   1.941  0.00  0.00     0.002 A 
ATOM      6  C6  I4B d   1       3.581   3.162   1.605  0.00  0.00     0.003 A 
ENDROOT
BRANCH   1   7
ATOM      7  C1' I4B d   1       3.375   1.098   0.193  0.00  0.00     0.060 C 
BRANCH   7   8
ATOM      8  C2' I4B d   1       1.902   1.440   0.088  0.00  0.00    -0.013 C 
ATOM      9  C4' I4B d   1       1.443   1.440  -1.346  0.00  0.00     0.013 C 
ATOM     10  C3' I4B d   1       1.136   0.440   0.902  0.00  0.00     0.013 C 
ENDBRANCH   7   8
ENDBRANCH   1   7
TORSDOF 2
ENDMDL
