MODEL 1
REMARK minimizedAffinity 11.4451237
REMARK minimizedRMSD -1
REMARK  2 active torsions:
REMARK  status: ('A' for Active; 'I' for Inactive)
REMARK    1  A    between atoms: C2'_3  and  C1'_4 
REMARK    2  A    between atoms: C1'_4  and  C1_5 
ROOT
ATOM      1  C1  I4B d   1      -1.032  -1.022   3.000  0.00  0.00    -0.075 A 
ATOM      2  C2  I4B d   1      -1.086  -0.542   4.285  0.00  0.00     0.003 A 
ATOM      3  C3  I4B d   1      -0.487  -1.269   5.342  0.00  0.00     0.002 A 
ATOM      4  C4  I4B d   1       0.106  -2.487   5.079  0.00  0.00    -0.004 A 
ATOM      5  C5  I4B d   1       0.180  -2.960   3.773  0.00  0.00     0.002 A 
ATOM      6  C6  I4B d   1      -0.382  -2.218   2.724  0.00  0.00     0.003 A 
ENDROOT
BRANCH   1   7
ATOM      7  C1' I4B d   1      -1.704  -0.245   1.912  0.00  0.00     0.060 C 
BRANCH   7   8
ATOM      8  C2' I4B d   1      -2.841   0.541   2.533  0.00  0.00    -0.013 C 
ATOM      9  C4' I4B d   1      -2.404   1.936   2.897  0.00  0.00     0.013 C 
ATOM     10  C3' I4B d   1      -3.975   0.567   1.553  0.00  0.00     0.013 C 
ENDBRANCH   7   8
ENDBRANCH   1   7
TORSDOF 2
ENDMDL
