MODEL 1
REMARK minimizedAffinity 14.622467
REMARK minimizedRMSD -1
REMARK  2 active torsions:
REMARK  status: ('A' for Active; 'I' for Inactive)
REMARK    1  A    between atoms: C2'_3  and  C1'_4 
REMARK    2  A    between atoms: C1'_4  and  C1_5 
ROOT
ATOM      1  C1  I4B d   1       2.597   0.096  -3.299  0.00  0.00    -0.075 A 
ATOM      2  C2  I4B d   1       1.952   1.286  -3.529  0.00  0.00     0.003 A 
ATOM      3  C3  I4B d   1       2.371   2.463  -2.863  0.00  0.00     0.002 A 
ATOM      4  C4  I4B d   1       3.398   2.396  -1.944  0.00  0.00    -0.004 A 
ATOM      5  C5  I4B d   1       4.065   1.193  -1.729  0.00  0.00     0.002 A 
ATOM      6  C6  I4B d   1       3.671   0.038  -2.420  0.00  0.00     0.003 A 
ENDROOT
BRANCH   1   7
ATOM      7  C1' I4B d   1       2.108  -1.135  -3.994  0.00  0.00     0.060 C 
BRANCH   7   8
ATOM      8  C2' I4B d   1       1.172  -1.863  -3.051  0.00  0.00    -0.013 C 
ATOM      9  C4' I4B d   1      -0.231  -1.326  -3.152  0.00  0.00     0.013 C 
ATOM     10  C3' I4B d   1       1.219  -3.324  -3.389  0.00  0.00     0.013 C 
ENDBRANCH   7   8
ENDBRANCH   1   7
TORSDOF 2
ENDMDL
