MODEL 1
REMARK minimizedAffinity 5.11947966
REMARK minimizedRMSD -1
REMARK  2 active torsions:
REMARK  status: ('A' for Active; 'I' for Inactive)
REMARK    1  A    between atoms: C2'_3  and  C1'_4 
REMARK    2  A    between atoms: C1'_4  and  C1_5 
ROOT
ATOM      1  C1  I4B d   1       3.600  -3.789   0.000  0.00  0.00    -0.075 A 
ATOM      2  C2  I4B d   1       4.858  -3.241  -0.021  0.00  0.00     0.003 A 
ATOM      3  C3  I4B d   1       6.000  -4.078   0.002  0.00  0.00     0.002 A 
ATOM      4  C4  I4B d   1       5.839  -5.445   0.095  0.00  0.00    -0.004 A 
ATOM      5  C5  I4B d   1       4.562  -6.000   0.093  0.00  0.00     0.002 A 
ATOM      6  C6  I4B d   1       3.435  -5.167   0.033  0.00  0.00     0.003 A 
ENDROOT
BRANCH   1   7
ATOM      7  C1' I4B d   1       2.416  -2.874   0.009  0.00  0.00     0.060 C 
BRANCH   7   8
ATOM      8  C2' I4B d   1       1.209  -3.668  -0.450  0.00  0.00    -0.013 C 
ATOM      9  C4' I4B d   1      -0.073  -3.017  -0.003  0.00  0.00     0.013 C 
ATOM     10  C3' I4B d   1       1.269  -3.779  -1.944  0.00  0.00     0.013 C 
ENDBRANCH   7   8
ENDBRANCH   1   7
TORSDOF 2
ENDMDL
