MODEL 1
REMARK minimizedAffinity 3.47320294
REMARK minimizedRMSD -1
REMARK  2 active torsions:
REMARK  status: ('A' for Active; 'I' for Inactive)
REMARK    1  A    between atoms: C2'_3  and  C1'_4 
REMARK    2  A    between atoms: C1'_4  and  C1_5 
ROOT
ATOM      1  C1  I4B d   1      -2.916   1.644   1.543  0.00  0.00    -0.075 A 
ATOM      2  C2  I4B d   1      -3.533   2.646   0.836  0.00  0.00     0.003 A 
ATOM      3  C3  I4B d   1      -4.437   2.330  -0.207  0.00  0.00     0.002 A 
ATOM      4  C4  I4B d   1      -4.654   1.009  -0.541  0.00  0.00    -0.004 A 
ATOM      5  C5  I4B d   1      -4.045  -0.006   0.191  0.00  0.00     0.002 A 
ATOM      6  C6  I4B d   1      -3.180   0.313   1.248  0.00  0.00     0.003 A 
ENDROOT
BRANCH   1   7
ATOM      7  C1' I4B d   1      -1.942   2.014   2.616  0.00  0.00     0.060 C 
BRANCH   7   8
ATOM      8  C2' I4B d   1      -1.824   0.838   3.565  0.00  0.00    -0.013 C 
ATOM      9  C4' I4B d   1      -0.393   0.606   3.971  0.00  0.00     0.013 C 
ATOM     10  C3' I4B d   1      -2.687   1.118   4.759  0.00  0.00     0.013 C 
ENDBRANCH   7   8
ENDBRANCH   1   7
TORSDOF 2
ENDMDL
