MODEL 1
REMARK minimizedAffinity 8.70659447
REMARK minimizedRMSD -1
REMARK  2 active torsions:
REMARK  status: ('A' for Active; 'I' for Inactive)
REMARK    1  A    between atoms: C2'_3  and  C1'_4 
REMARK    2  A    between atoms: C1'_4  and  C1_5 
ROOT
ATOM      1  C1  I4B d   1       2.955  -4.413   0.217  0.00  0.00    -0.075 A 
ATOM      2  C2  I4B d   1       1.590  -4.468   0.344  0.00  0.00     0.003 A 
ATOM      3  C3  I4B d   1       0.836  -3.274   0.458  0.00  0.00     0.002 A 
ATOM      4  C4  I4B d   1       1.489  -2.059   0.490  0.00  0.00    -0.004 A 
ATOM      5  C5  I4B d   1       2.871  -2.004   0.337  0.00  0.00     0.002 A 
ATOM      6  C6  I4B d   1       3.608  -3.188   0.188  0.00  0.00     0.003 A 
ENDROOT
BRANCH   1   7
ATOM      7  C1' I4B d   1       3.723  -5.694   0.132  0.00  0.00     0.060 C 
BRANCH   7   8
ATOM      8  C2' I4B d   1       5.195  -5.366   0.274  0.00  0.00    -0.013 C 
ATOM      9  C4' I4B d   1       5.736  -5.849   1.594  0.00  0.00     0.013 C 
ATOM     10  C3' I4B d   1       5.924  -5.999  -0.873  0.00  0.00     0.013 C 
ENDBRANCH   7   8
ENDBRANCH   1   7
TORSDOF 2
ENDMDL
