MODEL 1
REMARK minimizedAffinity 10.5579729
REMARK minimizedRMSD -1
REMARK  2 active torsions:
REMARK  status: ('A' for Active; 'I' for Inactive)
REMARK    1  A    between atoms: C2'_3  and  C1'_4 
REMARK    2  A    between atoms: C1'_4  and  C1_5 
ROOT
ATOM      1  C1  I4B d   1       3.251  -4.070   0.102  0.00  0.00    -0.075 A 
ATOM      2  C2  I4B d   1       2.442  -3.341   0.937  0.00  0.00     0.003 A 
ATOM      3  C3  I4B d   1       1.064  -3.196   0.647  0.00  0.00     0.002 A 
ATOM      4  C4  I4B d   1       0.551  -3.750  -0.508  0.00  0.00    -0.004 A 
ATOM      5  C5  I4B d   1       1.368  -4.509  -1.342  0.00  0.00     0.002 A 
ATOM      6  C6  I4B d   1       2.724  -4.680  -1.029  0.00  0.00     0.003 A 
ENDROOT
BRANCH   1   7
ATOM      7  C1' I4B d   1       4.709  -4.175   0.422  0.00  0.00     0.060 C 
BRANCH   7   8
ATOM      8  C2' I4B d   1       5.079  -5.644   0.436  0.00  0.00    -0.013 C 
ATOM      9  C4' I4B d   1       5.995  -5.987  -0.709  0.00  0.00     0.013 C 
ATOM     10  C3' I4B d   1       5.725  -5.946   1.755  0.00  0.00     0.013 C 
ENDBRANCH   7   8
ENDBRANCH   1   7
TORSDOF 2
ENDMDL
