MODEL 1
REMARK minimizedAffinity 0.333325148
REMARK minimizedRMSD -1
REMARK  2 active torsions:
REMARK  status: ('A' for Active; 'I' for Inactive)
REMARK    1  A    between atoms: C2'_3  and  C1'_4 
REMARK    2  A    between atoms: C1'_4  and  C1_5 
ROOT
ATOM      1  C1  I4B d   1      -0.880  -2.592   1.185  0.00  0.00    -0.075 A 
ATOM      2  C2  I4B d   1      -1.509  -3.372   0.246  0.00  0.00     0.003 A 
ATOM      3  C3  I4B d   1      -0.749  -4.184  -0.630  0.00  0.00     0.002 A 
ATOM      4  C4  I4B d   1       0.629  -4.147  -0.568  0.00  0.00    -0.004 A 
ATOM      5  C5  I4B d   1       1.264  -3.373   0.399  0.00  0.00     0.002 A 
ATOM      6  C6  I4B d   1       0.505  -2.600   1.290  0.00  0.00     0.003 A 
ENDROOT
BRANCH   1   7
ATOM      7  C1' I4B d   1      -1.712  -1.721   2.072  0.00  0.00     0.060 C 
BRANCH   7   8
ATOM      8  C2' I4B d   1      -0.912  -0.473   2.384  0.00  0.00    -0.013 C 
ATOM      9  C4' I4B d   1      -1.672   0.771   2.006  0.00  0.00     0.013 C 
ATOM     10  C3' I4B d   1      -0.587  -0.485   3.848  0.00  0.00     0.013 C 
ENDBRANCH   7   8
ENDBRANCH   1   7
TORSDOF 2
ENDMDL
