MODEL 1
REMARK minimizedAffinity 15.1019211
REMARK minimizedRMSD -1
REMARK  2 active torsions:
REMARK  status: ('A' for Active; 'I' for Inactive)
REMARK    1  A    between atoms: C2'_3  and  C1'_4 
REMARK    2  A    between atoms: C1'_4  and  C1_5 
ROOT
ATOM      1  C1  I4B d   1       3.564   2.423  -1.732  0.00  0.00    -0.075 A 
ATOM      2  C2  I4B d   1       2.448   2.752  -2.460  0.00  0.00     0.003 A 
ATOM      3  C3  I4B d   1       1.838   1.792  -3.304  0.00  0.00     0.002 A 
ATOM      4  C4  I4B d   1       2.403   0.540  -3.427  0.00  0.00    -0.004 A 
ATOM      5  C5  I4B d   1       3.521   0.200  -2.671  0.00  0.00     0.002 A 
ATOM      6  C6  I4B d   1       4.099   1.143  -1.809  0.00  0.00     0.003 A 
ENDROOT
BRANCH   1   7
ATOM      7  C1' I4B d   1       4.202   3.471  -0.876  0.00  0.00     0.060 C 
BRANCH   7   8
ATOM      8  C2' I4B d   1       3.297   3.715   0.315  0.00  0.00    -0.013 C 
ATOM      9  C4' I4B d   1       2.824   2.417   0.915  0.00  0.00     0.013 C 
ATOM     10  C3' I4B d   1       4.061   4.528   1.317  0.00  0.00     0.013 C 
ENDBRANCH   7   8
ENDBRANCH   1   7
TORSDOF 2
ENDMDL
