MODEL 1
REMARK minimizedAffinity 29.2206745
REMARK minimizedRMSD -1
REMARK  0 active torsions:
REMARK  status: ('A' for Active; 'I' for Inactive)
ROOT
ATOM      1  C   UNL d   1      -0.732  -3.799   0.260  0.00  0.00     0.124 A 
ATOM      2  C1  UNL d   1      -0.635  -4.258   1.567  0.00  0.00     0.062 A 
ATOM      3  C2  UNL d   1      -1.271  -3.572   2.598  0.00  0.00     0.162 A 
ATOM      4  C3  UNL d   1      -2.010  -2.421   2.327  0.00  0.00    -0.034 A 
ATOM      5  C4  UNL d   1      -2.102  -1.965   1.011  0.00  0.00     0.162 A 
ATOM      6  C5  UNL d   1      -1.465  -2.654  -0.016  0.00  0.00     0.062 A 
ATOM      7  F   UNL d   1      -1.559  -2.209  -1.278  0.00  0.00    -0.097 F 
ATOM      8  F1  UNL d   1      -2.804  -0.861   0.715  0.00  0.00    -0.096 F 
ATOM      9  I   UNL d   1      -2.962  -1.393   3.866  0.00  0.00    -0.060 I 
ATOM     10  F2  UNL d   1      -1.161  -4.038   3.851  0.00  0.00    -0.096 F 
ATOM     11  F3  UNL d   1       0.073  -5.364   1.837  0.00  0.00    -0.097 F 
ATOM     12  F4  UNL d   1      -0.118  -4.460  -0.730  0.00  0.00    -0.092 F 
ENDROOT
TORSDOF 0
ENDMDL
