MODEL 1
REMARK minimizedAffinity 4.05376005
REMARK minimizedRMSD -1
REMARK  0 active torsions:
REMARK  status: ('A' for Active; 'I' for Inactive)
ROOT
ATOM      1  C   UNL d   1      -1.357  -2.873   0.712  0.00  0.00     0.124 A 
ATOM      2  C1  UNL d   1      -0.741  -4.108   0.864  0.00  0.00     0.062 A 
ATOM      3  C2  UNL d   1      -0.863  -4.809   2.059  0.00  0.00     0.162 A 
ATOM      4  C3  UNL d   1      -1.606  -4.278   3.114  0.00  0.00    -0.034 A 
ATOM      5  C4  UNL d   1      -2.222  -3.036   2.955  0.00  0.00     0.162 A 
ATOM      6  C5  UNL d   1      -2.097  -2.339   1.758  0.00  0.00     0.062 A 
ATOM      7  F   UNL d   1      -2.693  -1.146   1.613  0.00  0.00    -0.097 F 
ATOM      8  F1  UNL d   1      -2.944  -2.496   3.948  0.00  0.00    -0.096 F 
ATOM      9  I   UNL d   1      -1.791  -5.324   4.904  0.00  0.00    -0.060 I 
ATOM     10  F2  UNL d   1      -0.257  -6.000   2.178  0.00  0.00    -0.096 F 
ATOM     11  F3  UNL d   1      -0.025  -4.626  -0.145  0.00  0.00    -0.097 F 
ATOM     12  F4  UNL d   1      -1.237  -2.200  -0.439  0.00  0.00    -0.092 F 
ENDROOT
TORSDOF 0
ENDMDL
