MODEL 1
REMARK minimizedAffinity 18.8235817
REMARK minimizedRMSD -1
REMARK  0 active torsions:
REMARK  status: ('A' for Active; 'I' for Inactive)
ROOT
ATOM      1  C   UNL d   1      -1.686   2.416  -4.308  0.00  0.00     0.124 A 
ATOM      2  C1  UNL d   1      -0.319   2.180  -4.258  0.00  0.00     0.062 A 
ATOM      3  C2  UNL d   1       0.168   1.008  -3.686  0.00  0.00     0.162 A 
ATOM      4  C3  UNL d   1      -0.713   0.062  -3.162  0.00  0.00    -0.034 A 
ATOM      5  C4  UNL d   1      -2.086   0.307  -3.216  0.00  0.00     0.162 A 
ATOM      6  C5  UNL d   1      -2.568   1.480  -3.788  0.00  0.00     0.062 A 
ATOM      7  F   UNL d   1      -3.889   1.706  -3.836  0.00  0.00    -0.097 F 
ATOM      8  F1  UNL d   1      -2.961  -0.581  -2.721  0.00  0.00    -0.096 F 
ATOM      9  I   UNL d   1       0.012  -1.692  -2.307  0.00  0.00    -0.060 I 
ATOM     10  F2  UNL d   1       1.494   0.806  -3.651  0.00  0.00    -0.096 F 
ATOM     11  F3  UNL d   1       0.535   3.084  -4.759  0.00  0.00    -0.097 F 
ATOM     12  F4  UNL d   1      -2.152   3.545  -4.858  0.00  0.00    -0.092 F 
ENDROOT
TORSDOF 0
ENDMDL
