MODEL 1
REMARK minimizedAffinity 29.2246284
REMARK minimizedRMSD -1
REMARK  0 active torsions:
REMARK  status: ('A' for Active; 'I' for Inactive)
ROOT
ATOM      1  C   UNL d   1      -1.241  -4.175   2.463  0.00  0.00     0.124 A 
ATOM      2  C1  UNL d   1      -2.044  -3.090   2.139  0.00  0.00     0.062 A 
ATOM      3  C2  UNL d   1      -1.999  -2.543   0.860  0.00  0.00     0.162 A 
ATOM      4  C3  UNL d   1      -1.148  -3.081  -0.106  0.00  0.00    -0.034 A 
ATOM      5  C4  UNL d   1      -0.343  -4.172   0.228  0.00  0.00     0.162 A 
ATOM      6  C5  UNL d   1      -0.391  -4.714   1.508  0.00  0.00     0.062 A 
ATOM      7  F   UNL d   1       0.385  -5.762   1.820  0.00  0.00    -0.097 F 
ATOM      8  F1  UNL d   1       0.487  -4.713  -0.676  0.00  0.00    -0.096 F 
ATOM      9  I   UNL d   1      -1.078  -2.267  -2.019  0.00  0.00    -0.060 I 
ATOM     10  F2  UNL d   1      -2.786  -1.495   0.575  0.00  0.00    -0.096 F 
ATOM     11  F3  UNL d   1      -2.865  -2.566   3.061  0.00  0.00    -0.097 F 
ATOM     12  F4  UNL d   1      -1.286  -4.698   3.695  0.00  0.00    -0.092 F 
ENDROOT
TORSDOF 0
ENDMDL
