MODEL 1
REMARK minimizedAffinity 23.8480854
REMARK minimizedRMSD -1
REMARK  0 active torsions:
REMARK  status: ('A' for Active; 'I' for Inactive)
ROOT
ATOM      1  C   UNL d   1      -0.283  -4.264  -0.417  0.00  0.00     0.124 A 
ATOM      2  C1  UNL d   1      -0.374  -2.960   0.051  0.00  0.00     0.062 A 
ATOM      3  C2  UNL d   1      -0.825  -1.945  -0.789  0.00  0.00     0.162 A 
ATOM      4  C3  UNL d   1      -1.190  -2.230  -2.104  0.00  0.00    -0.034 A 
ATOM      5  C4  UNL d   1      -1.095  -3.544  -2.567  0.00  0.00     0.162 A 
ATOM      6  C5  UNL d   1      -0.644  -4.554  -1.725  0.00  0.00     0.062 A 
ATOM      7  F   UNL d   1      -0.557  -5.813  -2.178  0.00  0.00    -0.097 F 
ATOM      8  F1  UNL d   1      -1.438  -3.853  -3.827  0.00  0.00    -0.096 F 
ATOM      9  I   UNL d   1      -1.865  -0.716  -3.362  0.00  0.00    -0.060 I 
ATOM     10  F2  UNL d   1      -0.902  -0.694  -0.310  0.00  0.00    -0.096 F 
ATOM     11  F3  UNL d   1      -0.025  -2.676   1.314  0.00  0.00    -0.097 F 
ATOM     12  F4  UNL d   1       0.152  -5.238   0.393  0.00  0.00    -0.092 F 
ENDROOT
TORSDOF 0
ENDMDL
