MODEL 1
REMARK minimizedAffinity 25.3391819
REMARK minimizedRMSD -1
REMARK  0 active torsions:
REMARK  status: ('A' for Active; 'I' for Inactive)
ROOT
ATOM      1  C   UNL d   1      -1.086  -2.900  -2.483  0.00  0.00     0.124 A 
ATOM      2  C1  UNL d   1      -0.487  -3.724  -1.539  0.00  0.00     0.062 A 
ATOM      3  C2  UNL d   1      -0.801  -3.585  -0.190  0.00  0.00     0.162 A 
ATOM      4  C3  UNL d   1      -1.719  -2.620   0.223  0.00  0.00    -0.034 A 
ATOM      5  C4  UNL d   1      -2.316  -1.795  -0.732  0.00  0.00     0.162 A 
ATOM      6  C5  UNL d   1      -1.999  -1.937  -2.079  0.00  0.00     0.062 A 
ATOM      7  F   UNL d   1      -2.578  -1.141  -2.989  0.00  0.00    -0.097 F 
ATOM      8  F1  UNL d   1      -3.202  -0.856  -0.368  0.00  0.00    -0.096 F 
ATOM      9  I   UNL d   1      -2.190  -2.409   2.240  0.00  0.00    -0.060 I 
ATOM     10  F2  UNL d   1      -0.207  -4.394   0.700  0.00  0.00    -0.096 F 
ATOM     11  F3  UNL d   1       0.396  -4.655  -1.927  0.00  0.00    -0.097 F 
ATOM     12  F4  UNL d   1      -0.781  -3.035  -3.780  0.00  0.00    -0.092 F 
ENDROOT
TORSDOF 0
ENDMDL
