MODEL 1
REMARK minimizedAffinity 21.7554893
REMARK minimizedRMSD -1
REMARK  0 active torsions:
REMARK  status: ('A' for Active; 'I' for Inactive)
ROOT
ATOM      1  C   UNL d   1      -0.168  -1.733   4.597  0.00  0.00     0.124 A 
ATOM      2  C1  UNL d   1      -1.373  -1.745   3.907  0.00  0.00     0.062 A 
ATOM      3  C2  UNL d   1      -1.417  -2.172   2.584  0.00  0.00     0.162 A 
ATOM      4  C3  UNL d   1      -0.253  -2.593   1.940  0.00  0.00    -0.034 A 
ATOM      5  C4  UNL d   1       0.955  -2.577   2.640  0.00  0.00     0.162 A 
ATOM      6  C5  UNL d   1       0.994  -2.149   3.963  0.00  0.00     0.062 A 
ATOM      7  F   UNL d   1       2.159  -2.139   4.628  0.00  0.00    -0.097 F 
ATOM      8  F1  UNL d   1       2.093  -2.975   2.052  0.00  0.00    -0.096 F 
ATOM      9  I   UNL d   1      -0.315  -3.232  -0.039  0.00  0.00    -0.060 I 
ATOM     10  F2  UNL d   1      -2.595  -2.173   1.941  0.00  0.00    -0.096 F 
ATOM     11  F3  UNL d   1      -2.497  -1.343   4.517  0.00  0.00    -0.097 F 
ATOM     12  F4  UNL d   1      -0.128  -1.321   5.871  0.00  0.00    -0.092 F 
ENDROOT
TORSDOF 0
ENDMDL
