MODEL 1
REMARK minimizedAffinity 22.465126
REMARK minimizedRMSD -1
REMARK  0 active torsions:
REMARK  status: ('A' for Active; 'I' for Inactive)
ROOT
ATOM      1  C   UNL d   1      -1.330  -3.883   2.259  0.00  0.00     0.124 A 
ATOM      2  C1  UNL d   1      -1.914  -2.631   2.123  0.00  0.00     0.062 A 
ATOM      3  C2  UNL d   1      -1.856  -1.961   0.904  0.00  0.00     0.162 A 
ATOM      4  C3  UNL d   1      -1.212  -2.541  -0.188  0.00  0.00    -0.034 A 
ATOM      5  C4  UNL d   1      -0.625  -3.800  -0.043  0.00  0.00     0.162 A 
ATOM      6  C5  UNL d   1      -0.687  -4.466   1.177  0.00  0.00     0.062 A 
ATOM      7  F   UNL d   1      -0.121  -5.675   1.307  0.00  0.00    -0.097 F 
ATOM      8  F1  UNL d   1       0.002  -4.387  -1.073  0.00  0.00    -0.096 F 
ATOM      9  I   UNL d   1      -1.122  -1.542  -2.012  0.00  0.00    -0.060 I 
ATOM     10  F2  UNL d   1      -2.429  -0.752   0.801  0.00  0.00    -0.096 F 
ATOM     11  F3  UNL d   1      -2.536  -2.065   3.167  0.00  0.00    -0.097 F 
ATOM     12  F4  UNL d   1      -1.387  -4.525   3.433  0.00  0.00    -0.092 F 
ENDROOT
TORSDOF 0
ENDMDL
