MODEL 1
REMARK minimizedAffinity 34.3069038
REMARK minimizedRMSD -1
REMARK  0 active torsions:
REMARK  status: ('A' for Active; 'I' for Inactive)
ROOT
ATOM      1  C   UNL d   1      -1.048  -2.793  -1.593  0.00  0.00     0.124 A 
ATOM      2  C1  UNL d   1      -1.720  -2.158  -2.628  0.00  0.00     0.062 A 
ATOM      3  C2  UNL d   1      -2.654  -1.164  -2.350  0.00  0.00     0.162 A 
ATOM      4  C3  UNL d   1      -2.921  -0.798  -1.031  0.00  0.00    -0.034 A 
ATOM      5  C4  UNL d   1      -2.241  -1.441   0.004  0.00  0.00     0.162 A 
ATOM      6  C5  UNL d   1      -1.308  -2.434  -0.279  0.00  0.00     0.062 A 
ATOM      7  F   UNL d   1      -0.659  -3.046   0.723  0.00  0.00    -0.097 F 
ATOM      8  F1  UNL d   1      -2.472  -1.114   1.284  0.00  0.00    -0.096 F 
ATOM      9  I   UNL d   1      -4.316   0.688  -0.611  0.00  0.00    -0.060 I 
ATOM     10  F2  UNL d   1      -3.289  -0.568  -3.370  0.00  0.00    -0.096 F 
ATOM     11  F3  UNL d   1      -1.471  -2.504  -3.900  0.00  0.00    -0.097 F 
ATOM     12  F4  UNL d   1      -0.150  -3.750  -1.864  0.00  0.00    -0.092 F 
ENDROOT
TORSDOF 0
ENDMDL
