MODEL 1
REMARK minimizedAffinity 26.6148262
REMARK minimizedRMSD -1
REMARK  0 active torsions:
REMARK  status: ('A' for Active; 'I' for Inactive)
ROOT
ATOM      1  C   UNL d   1      -0.783  -3.707  -0.016  0.00  0.00     0.124 A 
ATOM      2  C1  UNL d   1      -1.373  -2.549   0.473  0.00  0.00     0.062 A 
ATOM      3  C2  UNL d   1      -1.871  -1.593  -0.407  0.00  0.00     0.162 A 
ATOM      4  C3  UNL d   1      -1.784  -1.790  -1.785  0.00  0.00    -0.034 A 
ATOM      5  C4  UNL d   1      -1.188  -2.957  -2.269  0.00  0.00     0.162 A 
ATOM      6  C5  UNL d   1      -0.691  -3.910  -1.385  0.00  0.00     0.062 A 
ATOM      7  F   UNL d   1      -0.122  -5.028  -1.859  0.00  0.00    -0.097 F 
ATOM      8  F1  UNL d   1      -1.088  -3.179  -3.588  0.00  0.00    -0.096 F 
ATOM      9  I   UNL d   1      -2.528  -0.363  -3.104  0.00  0.00    -0.060 I 
ATOM     10  F2  UNL d   1      -2.436  -0.484   0.093  0.00  0.00    -0.096 F 
ATOM     11  F3  UNL d   1      -1.461  -2.351   1.796  0.00  0.00    -0.097 F 
ATOM     12  F4  UNL d   1      -0.303  -4.625   0.833  0.00  0.00    -0.092 F 
ENDROOT
TORSDOF 0
ENDMDL
