MODEL 1
REMARK minimizedAffinity 30.1175098
REMARK minimizedRMSD -1
REMARK  0 active torsions:
REMARK  status: ('A' for Active; 'I' for Inactive)
ROOT
ATOM      1  C   UNL d   1       4.455   3.179   0.352  0.00  0.00     0.124 A 
ATOM      2  C1  UNL d   1       5.016   4.376   0.777  0.00  0.00     0.062 A 
ATOM      3  C2  UNL d   1       5.128   4.653   2.136  0.00  0.00     0.162 A 
ATOM      4  C3  UNL d   1       4.679   3.731   3.082  0.00  0.00    -0.034 A 
ATOM      5  C4  UNL d   1       4.115   2.530   2.647  0.00  0.00     0.162 A 
ATOM      6  C5  UNL d   1       4.005   2.258   1.287  0.00  0.00     0.062 A 
ATOM      7  F   UNL d   1       3.462   1.102   0.879  0.00  0.00    -0.097 F 
ATOM      8  F1  UNL d   1       3.672   1.622   3.529  0.00  0.00    -0.096 F 
ATOM      9  I   UNL d   1       4.845   4.142   5.115  0.00  0.00    -0.060 I 
ATOM     10  F2  UNL d   1       5.675   5.817   2.517  0.00  0.00    -0.096 F 
ATOM     11  F3  UNL d   1       5.451   5.268  -0.125  0.00  0.00    -0.097 F 
ATOM     12  F4  UNL d   1       4.347   2.915  -0.956  0.00  0.00    -0.092 F 
ENDROOT
TORSDOF 0
ENDMDL
