MODEL 1
REMARK minimizedAffinity 28.2583275
REMARK minimizedRMSD -1
REMARK  0 active torsions:
REMARK  status: ('A' for Active; 'I' for Inactive)
ROOT
ATOM      1  C   UNL d   1      -1.348  -2.109  -1.487  0.00  0.00     0.124 A 
ATOM      2  C1  UNL d   1      -1.404  -1.916  -0.114  0.00  0.00     0.062 A 
ATOM      3  C2  UNL d   1      -0.970  -2.914   0.753  0.00  0.00     0.162 A 
ATOM      4  C3  UNL d   1      -0.474  -4.117   0.248  0.00  0.00    -0.034 A 
ATOM      5  C4  UNL d   1      -0.421  -4.305  -1.134  0.00  0.00     0.162 A 
ATOM      6  C5  UNL d   1      -0.856  -3.303  -1.996  0.00  0.00     0.062 A 
ATOM      7  F   UNL d   1      -0.801  -3.493  -3.322  0.00  0.00    -0.097 F 
ATOM      8  F1  UNL d   1       0.050  -5.449  -1.652  0.00  0.00    -0.096 F 
ATOM      9  I   UNL d   1       0.177  -5.613   1.541  0.00  0.00    -0.060 I 
ATOM     10  F2  UNL d   1      -1.036  -2.700   2.075  0.00  0.00    -0.096 F 
ATOM     11  F3  UNL d   1      -1.879  -0.763   0.380  0.00  0.00    -0.097 F 
ATOM     12  F4  UNL d   1      -1.767  -1.147  -2.318  0.00  0.00    -0.092 F 
ENDROOT
TORSDOF 0
ENDMDL
