MODEL 1
REMARK minimizedAffinity 30.8468952
REMARK minimizedRMSD -1
REMARK  0 active torsions:
REMARK  status: ('A' for Active; 'I' for Inactive)
ROOT
ATOM      1  C   UNL d   1      -2.997  -0.826   3.385  0.00  0.00     0.124 A 
ATOM      2  C1  UNL d   1      -3.085  -0.805   2.000  0.00  0.00     0.062 A 
ATOM      3  C2  UNL d   1      -3.456   0.362   1.339  0.00  0.00     0.162 A 
ATOM      4  C3  UNL d   1      -3.741   1.520   2.063  0.00  0.00    -0.034 A 
ATOM      5  C4  UNL d   1      -3.651   1.491   3.456  0.00  0.00     0.162 A 
ATOM      6  C5  UNL d   1      -3.280   0.322   4.111  0.00  0.00     0.062 A 
ATOM      7  F   UNL d   1      -3.195   0.304   5.450  0.00  0.00    -0.097 F 
ATOM      8  F1  UNL d   1      -3.918   2.586   4.183  0.00  0.00    -0.096 F 
ATOM      9  I   UNL d   1      -4.296   3.268   1.080  0.00  0.00    -0.060 I 
ATOM     10  F2  UNL d   1      -3.533   0.354   0.000  0.00  0.00    -0.096 F 
ATOM     11  F3  UNL d   1      -2.813  -1.913   1.295  0.00  0.00    -0.097 F 
ATOM     12  F4  UNL d   1      -2.641  -1.951   4.018  0.00  0.00    -0.092 F 
ENDROOT
TORSDOF 0
ENDMDL
