MODEL 1
REMARK minimizedAffinity 37.0146599
REMARK minimizedRMSD -1
REMARK  0 active torsions:
REMARK  status: ('A' for Active; 'I' for Inactive)
ROOT
ATOM      1  C   UNL d   1      -1.978   3.001  -5.364  0.00  0.00     0.124 A 
ATOM      2  C1  UNL d   1      -2.927   1.999  -5.211  0.00  0.00     0.062 A 
ATOM      3  C2  UNL d   1      -2.598   0.819  -4.552  0.00  0.00     0.162 A 
ATOM      4  C3  UNL d   1      -1.314   0.633  -4.039  0.00  0.00    -0.034 A 
ATOM      5  C4  UNL d   1      -0.365   1.644  -4.198  0.00  0.00     0.162 A 
ATOM      6  C5  UNL d   1      -0.698   2.822  -4.858  0.00  0.00     0.062 A 
ATOM      7  F   UNL d   1       0.220   3.789  -5.005  0.00  0.00    -0.097 F 
ATOM      8  F1  UNL d   1       0.879   1.498  -3.718  0.00  0.00    -0.096 F 
ATOM      9  I   UNL d   1      -0.818  -1.132  -3.053  0.00  0.00    -0.060 I 
ATOM     10  F2  UNL d   1      -3.535  -0.132  -4.419  0.00  0.00    -0.096 F 
ATOM     11  F3  UNL d   1      -4.163   2.169  -5.701  0.00  0.00    -0.097 F 
ATOM     12  F4  UNL d   1      -2.297   4.136  -6.000  0.00  0.00    -0.092 F 
ENDROOT
TORSDOF 0
ENDMDL
