MODEL 1
REMARK minimizedAffinity 23.3595829
REMARK minimizedRMSD -1
REMARK  0 active torsions:
REMARK  status: ('A' for Active; 'I' for Inactive)
ROOT
ATOM      1  C   UNL d   1      -0.437  -4.028  -0.144  0.00  0.00     0.124 A 
ATOM      2  C1  UNL d   1      -0.925  -2.846   0.395  0.00  0.00     0.062 A 
ATOM      3  C2  UNL d   1      -1.547  -1.907  -0.423  0.00  0.00     0.162 A 
ATOM      4  C3  UNL d   1      -1.684  -2.147  -1.791  0.00  0.00    -0.034 A 
ATOM      5  C4  UNL d   1      -1.190  -3.338  -2.326  0.00  0.00     0.162 A 
ATOM      6  C5  UNL d   1      -0.569  -4.273  -1.503  0.00  0.00     0.062 A 
ATOM      7  F   UNL d   1      -0.098  -5.414  -2.026  0.00  0.00    -0.097 F 
ATOM      8  F1  UNL d   1      -1.305  -3.601  -3.636  0.00  0.00    -0.096 F 
ATOM      9  I   UNL d   1      -2.613  -0.747  -3.018  0.00  0.00    -0.060 I 
ATOM     10  F2  UNL d   1      -2.009  -0.774   0.125  0.00  0.00    -0.096 F 
ATOM     11  F3  UNL d   1      -0.797  -2.606   1.708  0.00  0.00    -0.097 F 
ATOM     12  F4  UNL d   1       0.162  -4.929   0.646  0.00  0.00    -0.092 F 
ENDROOT
TORSDOF 0
ENDMDL
