MODEL 1
REMARK minimizedAffinity 21.1719818
REMARK minimizedRMSD -1
REMARK  0 active torsions:
REMARK  status: ('A' for Active; 'I' for Inactive)
ROOT
ATOM      1  C   UNL d   1       3.052   2.125   0.171  0.00  0.00     0.124 A 
ATOM      2  C1  UNL d   1       4.126   2.986  -0.004  0.00  0.00     0.062 A 
ATOM      3  C2  UNL d   1       4.970   2.840  -1.101  0.00  0.00     0.162 A 
ATOM      4  C3  UNL d   1       4.741   1.828  -2.034  0.00  0.00    -0.034 A 
ATOM      5  C4  UNL d   1       3.659   0.965  -1.851  0.00  0.00     0.162 A 
ATOM      6  C5  UNL d   1       2.820   1.116  -0.752  0.00  0.00     0.062 A 
ATOM      7  F   UNL d   1       1.782   0.282  -0.585  0.00  0.00    -0.097 F 
ATOM      8  F1  UNL d   1       3.411  -0.018  -2.728  0.00  0.00    -0.096 F 
ATOM      9  I   UNL d   1       6.000   1.606  -3.677  0.00  0.00    -0.060 I 
ATOM     10  F2  UNL d   1       6.000   3.687  -1.245  0.00  0.00    -0.096 F 
ATOM     11  F3  UNL d   1       4.354   3.962   0.888  0.00  0.00    -0.097 F 
ATOM     12  F4  UNL d   1       2.243   2.268   1.229  0.00  0.00    -0.092 F 
ENDROOT
TORSDOF 0
ENDMDL
