MODEL 1
REMARK minimizedAffinity 16.5106335
REMARK minimizedRMSD -1
REMARK  0 active torsions:
REMARK  status: ('A' for Active; 'I' for Inactive)
ROOT
ATOM      1  C   UNL d   1      -1.642  -1.480  -1.371  0.00  0.00     0.124 A 
ATOM      2  C1  UNL d   1      -1.222  -0.474  -0.511  0.00  0.00     0.062 A 
ATOM      3  C2  UNL d   1      -0.095   0.282  -0.816  0.00  0.00     0.162 A 
ATOM      4  C3  UNL d   1       0.621   0.037  -1.988  0.00  0.00    -0.034 A 
ATOM      5  C4  UNL d   1       0.194  -0.976  -2.848  0.00  0.00     0.162 A 
ATOM      6  C5  UNL d   1      -0.934  -1.730  -2.538  0.00  0.00     0.062 A 
ATOM      7  F   UNL d   1      -1.338  -2.701  -3.370  0.00  0.00    -0.097 F 
ATOM      8  F1  UNL d   1       0.859  -1.238  -3.983  0.00  0.00    -0.096 F 
ATOM      9  I   UNL d   1       2.308   1.167  -2.448  0.00  0.00    -0.060 I 
ATOM     10  F2  UNL d   1       0.288   1.247   0.033  0.00  0.00    -0.096 F 
ATOM     11  F3  UNL d   1      -1.904  -0.232   0.617  0.00  0.00    -0.097 F 
ATOM     12  F4  UNL d   1      -2.727  -2.207  -1.075  0.00  0.00    -0.092 F 
ENDROOT
TORSDOF 0
ENDMDL
