MODEL 1
REMARK minimizedAffinity 18.4181614
REMARK minimizedRMSD -1
REMARK  1 active torsions:
REMARK  status: ('A' for Active; 'I' for Inactive)
REMARK    1  A    between atoms: C1_2  and  C2_3 
ROOT
ATOM      1  C2  UNL d   1      -2.950   3.311  -4.480  0.00  0.00    -0.081 A 
ATOM      2  C3  UNL d   1      -2.922   4.666  -4.130  0.00  0.00     0.006 A 
ATOM      3  C4  UNL d   1      -3.899   5.542  -4.608  0.00  0.00     0.002 A 
ATOM      4  C5  UNL d   1      -4.925   5.076  -5.438  0.00  0.00    -0.080 A 
ATOM      5  C6  UNL d   1      -5.997   5.999  -5.934  0.00  0.00     0.076 C 
ATOM      6  C7  UNL d   1      -4.943   3.725  -5.802  0.00  0.00     0.002 A 
ATOM      7  C8  UNL d   1      -3.966   2.849  -5.324  0.00  0.00     0.006 A 
ENDROOT
BRANCH   1   8
ATOM      8  C1  UNL d   1      -1.935   2.351  -3.913  0.00  0.00     0.054 C 
ATOM      9  C   UNL d   1      -0.743   2.191  -4.847  0.00  0.00     0.018 C 
ENDBRANCH   1   8
TORSDOF 1
ENDMDL
