MODEL 1
REMARK minimizedAffinity 15.3147726
REMARK minimizedRMSD -1
REMARK  1 active torsions:
REMARK  status: ('A' for Active; 'I' for Inactive)
REMARK    1  A    between atoms: C1_2  and  C2_3 
ROOT
ATOM      1  C2  UNL d   1      -2.064  -3.584   2.070  0.00  0.00    -0.081 A 
ATOM      2  C3  UNL d   1      -1.069  -4.246   1.340  0.00  0.00     0.006 A 
ATOM      3  C4  UNL d   1      -0.715  -3.805   0.063  0.00  0.00     0.002 A 
ATOM      4  C5  UNL d   1      -1.345  -2.691  -0.503  0.00  0.00    -0.080 A 
ATOM      5  C6  UNL d   1      -0.955  -2.189  -1.861  0.00  0.00     0.076 C 
ATOM      6  C7  UNL d   1      -2.352  -2.041   0.219  0.00  0.00     0.002 A 
ATOM      7  C8  UNL d   1      -2.706  -2.482   1.496  0.00  0.00     0.006 A 
ENDROOT
BRANCH   1   8
ATOM      8  C1  UNL d   1      -2.402  -4.018   3.473  0.00  0.00     0.054 C 
ATOM      9  C   UNL d   1      -2.796  -2.830   4.340  0.00  0.00     0.018 C 
ENDBRANCH   1   8
TORSDOF 1
ENDMDL
