MODEL 1
REMARK minimizedAffinity 6.52369499
REMARK minimizedRMSD -1
REMARK  1 active torsions:
REMARK  status: ('A' for Active; 'I' for Inactive)
REMARK    1  A    between atoms: C1_2  and  C2_3 
ROOT
ATOM      1  C2  UNL d   1      -1.846  -3.534   2.242  0.00  0.00    -0.081 A 
ATOM      2  C3  UNL d   1      -0.840  -4.098   1.448  0.00  0.00     0.006 A 
ATOM      3  C4  UNL d   1      -0.552  -3.568   0.188  0.00  0.00     0.002 A 
ATOM      4  C5  UNL d   1      -1.257  -2.461  -0.294  0.00  0.00    -0.080 A 
ATOM      5  C6  UNL d   1      -0.937  -1.863  -1.632  0.00  0.00     0.076 C 
ATOM      6  C7  UNL d   1      -2.274  -1.908   0.492  0.00  0.00     0.002 A 
ATOM      7  C8  UNL d   1      -2.563  -2.438   1.751  0.00  0.00     0.006 A 
ENDROOT
BRANCH   1   8
ATOM      8  C1  UNL d   1      -2.116  -4.063   3.628  0.00  0.00     0.054 C 
ATOM      9  C   UNL d   1      -1.741  -3.042   4.693  0.00  0.00     0.018 C 
ENDBRANCH   1   8
TORSDOF 1
ENDMDL
