MODEL 1
REMARK minimizedAffinity 6.34486246
REMARK minimizedRMSD -1
REMARK  1 active torsions:
REMARK  status: ('A' for Active; 'I' for Inactive)
REMARK    1  A    between atoms: C1_2  and  C2_3 
ROOT
ATOM      1  C2  UNL d   1      -0.924  -3.397   0.360  0.00  0.00    -0.081 A 
ATOM      2  C3  UNL d   1      -1.724  -2.981   1.431  0.00  0.00     0.006 A 
ATOM      3  C4  UNL d   1      -2.587  -1.892   1.289  0.00  0.00     0.002 A 
ATOM      4  C5  UNL d   1      -2.669  -1.205   0.073  0.00  0.00    -0.080 A 
ATOM      5  C6  UNL d   1      -3.614  -0.053  -0.102  0.00  0.00     0.076 C 
ATOM      6  C7  UNL d   1      -1.857  -1.610  -0.992  0.00  0.00     0.002 A 
ATOM      7  C8  UNL d   1      -0.994  -2.699  -0.850  0.00  0.00     0.006 A 
ENDROOT
BRANCH   1   8
ATOM      8  C1  UNL d   1      -0.041  -4.612   0.490  0.00  0.00     0.054 C 
ATOM      9  C   UNL d   1      -0.836  -5.829   0.940  0.00  0.00     0.018 C 
ENDBRANCH   1   8
TORSDOF 1
ENDMDL
