MODEL 1
REMARK minimizedAffinity 6.91526985
REMARK minimizedRMSD -1
REMARK  1 active torsions:
REMARK  status: ('A' for Active; 'I' for Inactive)
REMARK    1  A    between atoms: C1_2  and  C2_3 
ROOT
ATOM      1  C2  UNL d   1      -2.992  -0.651   5.805  0.00  0.00    -0.081 A 
ATOM      2  C3  UNL d   1      -4.345  -0.990   5.924  0.00  0.00     0.006 A 
ATOM      3  C4  UNL d   1      -5.321   0.008   6.000  0.00  0.00     0.002 A 
ATOM      4  C5  UNL d   1      -4.960   1.358   5.950  0.00  0.00    -0.080 A 
ATOM      5  C6  UNL d   1      -5.999   2.438   6.000  0.00  0.00     0.076 C 
ATOM      6  C7  UNL d   1      -3.606   1.697   5.848  0.00  0.00     0.002 A 
ATOM      7  C8  UNL d   1      -2.631   0.700   5.773  0.00  0.00     0.006 A 
ENDROOT
BRANCH   1   8
ATOM      8  C1  UNL d   1      -1.944  -1.724   5.658  0.00  0.00     0.054 C 
ATOM      9  C   UNL d   1      -2.355  -2.762   4.623  0.00  0.00     0.018 C 
ENDBRANCH   1   8
TORSDOF 1
ENDMDL
