MODEL 1
REMARK minimizedAffinity 7.14448738
REMARK minimizedRMSD -1
REMARK  1 active torsions:
REMARK  status: ('A' for Active; 'I' for Inactive)
REMARK    1  A    between atoms: C1_2  and  C2_3 
ROOT
ATOM      1  C2  UNL d   1      -2.342   3.750  -4.621  0.00  0.00    -0.081 A 
ATOM      2  C3  UNL d   1      -3.347   3.303  -5.487  0.00  0.00     0.006 A 
ATOM      3  C4  UNL d   1      -4.538   4.022  -5.621  0.00  0.00     0.002 A 
ATOM      4  C5  UNL d   1      -4.739   5.202  -4.897  0.00  0.00    -0.080 A 
ATOM      5  C6  UNL d   1      -6.000   5.999  -5.054  0.00  0.00     0.076 C 
ATOM      6  C7  UNL d   1      -3.742   5.639  -4.019  0.00  0.00     0.002 A 
ATOM      7  C8  UNL d   1      -2.552   4.920  -3.884  0.00  0.00     0.006 A 
ENDROOT
BRANCH   1   8
ATOM      8  C1  UNL d   1      -1.031   3.012  -4.523  0.00  0.00     0.054 C 
ATOM      9  C   UNL d   1       0.063   3.721  -5.310  0.00  0.00     0.018 C 
ENDBRANCH   1   8
TORSDOF 1
ENDMDL
