MODEL 1
REMARK minimizedAffinity 9.26619911
REMARK minimizedRMSD -1
REMARK  1 active torsions:
REMARK  status: ('A' for Active; 'I' for Inactive)
REMARK    1  A    between atoms: C1_2  and  C2_3 
ROOT
ATOM      1  C2  UNL d   1       4.150   0.374  -2.655  0.00  0.00    -0.081 A 
ATOM      2  C3  UNL d   1       3.114   1.282  -2.909  0.00  0.00     0.006 A 
ATOM      3  C4  UNL d   1       2.247   1.671  -1.885  0.00  0.00     0.002 A 
ATOM      4  C5  UNL d   1       2.406   1.166  -0.590  0.00  0.00    -0.080 A 
ATOM      5  C6  UNL d   1       1.500   1.600   0.524  0.00  0.00     0.076 C 
ATOM      6  C7  UNL d   1       3.430   0.247  -0.340  0.00  0.00     0.002 A 
ATOM      7  C8  UNL d   1       4.297  -0.144  -1.363  0.00  0.00     0.006 A 
ENDROOT
BRANCH   1   8
ATOM      8  C1  UNL d   1       5.127   0.002  -3.741  0.00  0.00     0.054 C 
ATOM      9  C   UNL d   1       5.999   1.187  -4.131  0.00  0.00     0.018 C 
ENDBRANCH   1   8
TORSDOF 1
ENDMDL
