MODEL 1
REMARK minimizedAffinity 14.1661415
REMARK minimizedRMSD -1
REMARK  1 active torsions:
REMARK  status: ('A' for Active; 'I' for Inactive)
REMARK    1  A    between atoms: C1_2  and  C2_3 
ROOT
ATOM      1  C2  UNL d   1      -2.518   0.018   5.706  0.00  0.00    -0.081 A 
ATOM      2  C3  UNL d   1      -2.342   1.404   5.790  0.00  0.00     0.006 A 
ATOM      3  C4  UNL d   1      -3.447   2.255   5.869  0.00  0.00     0.002 A 
ATOM      4  C5  UNL d   1      -4.745   1.734   5.874  0.00  0.00    -0.080 A 
ATOM      5  C6  UNL d   1      -5.939   2.634   5.989  0.00  0.00     0.076 C 
ATOM      6  C7  UNL d   1      -4.922   0.349   5.773  0.00  0.00     0.002 A 
ATOM      7  C8  UNL d   1      -3.817  -0.502   5.693  0.00  0.00     0.006 A 
ENDROOT
BRANCH   1   8
ATOM      8  C1  UNL d   1      -1.327  -0.906   5.685  0.00  0.00     0.054 C 
ATOM      9  C   UNL d   1      -1.468  -1.967   4.603  0.00  0.00     0.018 C 
ENDBRANCH   1   8
TORSDOF 1
ENDMDL
