MODEL 1
REMARK minimizedAffinity 4.21785545
REMARK minimizedRMSD -1
REMARK  1 active torsions:
REMARK  status: ('A' for Active; 'I' for Inactive)
REMARK    1  A    between atoms: C1_2  and  C2_3 
ROOT
ATOM      1  C2  UNL d   1      -2.670   3.286  -4.883  0.00  0.00    -0.081 A 
ATOM      2  C3  UNL d   1      -3.786   2.906  -5.639  0.00  0.00     0.006 A 
ATOM      3  C4  UNL d   1      -4.868   3.777  -5.792  0.00  0.00     0.002 A 
ATOM      4  C5  UNL d   1      -4.849   5.043  -5.198  0.00  0.00    -0.080 A 
ATOM      5  C6  UNL d   1      -5.991   5.999  -5.379  0.00  0.00     0.076 C 
ATOM      6  C7  UNL d   1      -3.742   5.416  -4.428  0.00  0.00     0.002 A 
ATOM      7  C8  UNL d   1      -2.661   4.546  -4.274  0.00  0.00     0.006 A 
ENDROOT
BRANCH   1   8
ATOM      8  C1  UNL d   1      -1.475   2.375  -4.770  0.00  0.00     0.054 C 
ATOM      9  C   UNL d   1      -0.220   3.038  -5.319  0.00  0.00     0.018 C 
ENDBRANCH   1   8
TORSDOF 1
ENDMDL
