MODEL 1
REMARK minimizedAffinity 6.09320784
REMARK minimizedRMSD -1
REMARK  0 active torsions:
REMARK  status: ('A' for Active; 'I' for Inactive)
ROOT
ATOM      1  C   UNL d   1       3.536  -0.810  -4.197  0.00  0.00     0.078 C 
ATOM      2  C1  UNL d   1       2.217  -1.516  -4.096  0.00  0.00    -0.077 A 
ATOM      3  C2  UNL d   1       1.481  -1.501  -2.905  0.00  0.00    -0.001 A 
ATOM      4  C3  UNL d   1       0.259  -2.171  -2.822  0.00  0.00     0.003 A 
ATOM      5  C4  UNL d   1      -0.236  -2.862  -3.926  0.00  0.00    -0.005 A 
ATOM      6  C5  UNL d   1       0.490  -2.884  -5.114  0.00  0.00     0.003 A 
ATOM      7  C6  UNL d   1       1.712  -2.215  -5.199  0.00  0.00    -0.001 A 
ENDROOT
TORSDOF 0
ENDMDL
