MODEL 1
REMARK minimizedAffinity 4.02916479
REMARK minimizedRMSD -1
REMARK  0 active torsions:
REMARK  status: ('A' for Active; 'I' for Inactive)
ROOT
ATOM      1  C   UNL d   1       0.781  -1.661  -4.586  0.00  0.00     0.078 C 
ATOM      2  C1  UNL d   1      -0.559  -2.162  -4.135  0.00  0.00    -0.077 A 
ATOM      3  C2  UNL d   1      -1.265  -1.514  -3.114  0.00  0.00    -0.001 A 
ATOM      4  C3  UNL d   1      -2.506  -1.997  -2.698  0.00  0.00     0.003 A 
ATOM      5  C4  UNL d   1      -3.052  -3.131  -3.296  0.00  0.00    -0.005 A 
ATOM      6  C5  UNL d   1      -2.356  -3.784  -4.311  0.00  0.00     0.003 A 
ATOM      7  C6  UNL d   1      -1.115  -3.302  -4.729  0.00  0.00    -0.001 A 
ENDROOT
TORSDOF 0
ENDMDL
