MODEL 1
REMARK minimizedAffinity -0.736824453
REMARK minimizedRMSD -1
REMARK  0 active torsions:
REMARK  status: ('A' for Active; 'I' for Inactive)
ROOT
ATOM      1  C   UNL d   1      -1.096  -5.992   1.260  0.00  0.00     0.078 C 
ATOM      2  C1  UNL d   1       0.016  -5.979   2.266  0.00  0.00    -0.077 A 
ATOM      3  C2  UNL d   1       1.356  -6.000   1.861  0.00  0.00    -0.001 A 
ATOM      4  C3  UNL d   1       2.380  -5.998   2.809  0.00  0.00     0.003 A 
ATOM      5  C4  UNL d   1       2.075  -5.977   4.169  0.00  0.00    -0.005 A 
ATOM      6  C5  UNL d   1       0.745  -5.958   4.582  0.00  0.00     0.003 A 
ATOM      7  C6  UNL d   1      -0.281  -5.960   3.635  0.00  0.00    -0.001 A 
ENDROOT
TORSDOF 0
ENDMDL
