MODEL 1
REMARK minimizedAffinity -2.424963
REMARK minimizedRMSD -1
REMARK  0 active torsions:
REMARK  status: ('A' for Active; 'I' for Inactive)
ROOT
ATOM      1  C   UNL d   1       0.797  -5.952   6.000  0.00  0.00     0.078 C 
ATOM      2  C1  UNL d   1       1.020  -5.957   4.517  0.00  0.00    -0.077 A 
ATOM      3  C2  UNL d   1      -0.059  -5.985   3.625  0.00  0.00    -0.001 A 
ATOM      4  C3  UNL d   1       0.165  -6.000   2.247  0.00  0.00     0.003 A 
ATOM      5  C4  UNL d   1       1.466  -5.987   1.749  0.00  0.00    -0.005 A 
ATOM      6  C5  UNL d   1       2.546  -5.962   2.629  0.00  0.00     0.003 A 
ATOM      7  C6  UNL d   1       2.325  -5.947   4.007  0.00  0.00    -0.001 A 
ENDROOT
TORSDOF 0
ENDMDL
