MODEL 1
REMARK minimizedAffinity 2.98818541
REMARK minimizedRMSD -1
REMARK  0 active torsions:
REMARK  status: ('A' for Active; 'I' for Inactive)
ROOT
ATOM      1  C   UNL d   1       4.281  -5.994   2.997  0.00  0.00     0.078 C 
ATOM      2  C1  UNL d   1       2.825  -5.988   3.356  0.00  0.00    -0.077 A 
ATOM      3  C2  UNL d   1       2.412  -5.993   4.694  0.00  0.00    -0.001 A 
ATOM      4  C3  UNL d   1       1.053  -5.998   5.013  0.00  0.00     0.003 A 
ATOM      5  C4  UNL d   1       0.096  -5.998   4.000  0.00  0.00    -0.005 A 
ATOM      6  C5  UNL d   1       0.498  -5.995   2.666  0.00  0.00     0.003 A 
ATOM      7  C6  UNL d   1       1.856  -5.991   2.344  0.00  0.00    -0.001 A 
ENDROOT
TORSDOF 0
ENDMDL
