MODEL 1
REMARK minimizedAffinity 3.02705455
REMARK minimizedRMSD -1
REMARK  0 active torsions:
REMARK  status: ('A' for Active; 'I' for Inactive)
ROOT
ATOM      1  C   UNL d   1      -1.896  -1.408   2.168  0.00  0.00     0.078 C 
ATOM      2  C1  UNL d   1      -0.600  -0.727   1.842  0.00  0.00    -0.077 A 
ATOM      3  C2  UNL d   1       0.612  -1.428   1.878  0.00  0.00    -0.001 A 
ATOM      4  C3  UNL d   1       1.811  -0.780   1.581  0.00  0.00     0.003 A 
ATOM      5  C4  UNL d   1       1.812   0.573   1.248  0.00  0.00    -0.005 A 
ATOM      6  C5  UNL d   1       0.611   1.279   1.211  0.00  0.00     0.003 A 
ATOM      7  C6  UNL d   1      -0.590   0.633   1.508  0.00  0.00    -0.001 A 
ENDROOT
TORSDOF 0
ENDMDL
