MODEL 1
REMARK minimizedAffinity 2.42784119
REMARK minimizedRMSD -1
REMARK  0 active torsions:
REMARK  status: ('A' for Active; 'I' for Inactive)
ROOT
ATOM      1  C   UNL d   1      -1.047  -6.000   1.879  0.00  0.00     0.078 C 
ATOM      2  C1  UNL d   1      -1.456  -4.558   1.823  0.00  0.00    -0.077 A 
ATOM      3  C2  UNL d   1      -1.457  -3.855   0.612  0.00  0.00    -0.001 A 
ATOM      4  C3  UNL d   1      -1.830  -2.511   0.576  0.00  0.00     0.003 A 
ATOM      5  C4  UNL d   1      -2.204  -1.857   1.749  0.00  0.00    -0.005 A 
ATOM      6  C5  UNL d   1      -2.204  -2.548   2.959  0.00  0.00     0.003 A 
ATOM      7  C6  UNL d   1      -1.831  -3.892   2.996  0.00  0.00    -0.001 A 
ENDROOT
TORSDOF 0
ENDMDL
