MODEL 1
REMARK minimizedAffinity 5.16630888
REMARK minimizedRMSD -1
REMARK  0 active torsions:
REMARK  status: ('A' for Active; 'I' for Inactive)
ROOT
ATOM      1  C   UNL d   1      -2.544  -0.442  -2.251  0.00  0.00     0.078 C 
ATOM      2  C1  UNL d   1      -1.666  -0.193  -1.061  0.00  0.00    -0.077 A 
ATOM      3  C2  UNL d   1      -1.771  -0.982   0.090  0.00  0.00    -0.001 A 
ATOM      4  C3  UNL d   1      -0.954  -0.733   1.194  0.00  0.00     0.003 A 
ATOM      5  C4  UNL d   1      -0.027   0.307   1.157  0.00  0.00    -0.005 A 
ATOM      6  C5  UNL d   1       0.083   1.100   0.017  0.00  0.00     0.003 A 
ATOM      7  C6  UNL d   1      -0.733   0.851  -1.088  0.00  0.00    -0.001 A 
ENDROOT
TORSDOF 0
ENDMDL
