MODEL 1
REMARK minimizedAffinity 3.75632167
REMARK minimizedRMSD -1
REMARK  0 active torsions:
REMARK  status: ('A' for Active; 'I' for Inactive)
ROOT
ATOM      1  C   UNL d   1       2.728  -5.920   3.031  0.00  0.00     0.078 C 
ATOM      2  C1  UNL d   1       1.269  -5.954   2.684  0.00  0.00    -0.077 A 
ATOM      3  C2  UNL d   1       0.845  -5.960   1.350  0.00  0.00    -0.001 A 
ATOM      4  C3  UNL d   1      -0.516  -5.982   1.042  0.00  0.00     0.003 A 
ATOM      5  C4  UNL d   1      -1.464  -5.997   2.063  0.00  0.00    -0.005 A 
ATOM      6  C5  UNL d   1      -1.052  -5.989   3.394  0.00  0.00     0.003 A 
ATOM      7  C6  UNL d   1       0.309  -5.966   3.704  0.00  0.00    -0.001 A 
ENDROOT
TORSDOF 0
ENDMDL
