MODEL 1
REMARK minimizedAffinity 2.21092916
REMARK minimizedRMSD -1
REMARK  0 active torsions:
REMARK  status: ('A' for Active; 'I' for Inactive)
ROOT
ATOM      1  C   UNL d   1       0.522  -5.983   4.907  0.00  0.00     0.078 C 
ATOM      2  C1  UNL d   1       0.218  -5.996   3.439  0.00  0.00    -0.077 A 
ATOM      3  C2  UNL d   1       1.248  -5.997   2.490  0.00  0.00    -0.001 A 
ATOM      4  C3  UNL d   1       0.951  -5.999   1.126  0.00  0.00     0.003 A 
ATOM      5  C4  UNL d   1      -0.375  -6.000   0.699  0.00  0.00    -0.005 A 
ATOM      6  C5  UNL d   1      -1.407  -5.997   1.636  0.00  0.00     0.003 A 
ATOM      7  C6  UNL d   1      -1.112  -5.995   3.000  0.00  0.00    -0.001 A 
ENDROOT
TORSDOF 0
ENDMDL
