MODEL 1
REMARK minimizedAffinity 0.251005292
REMARK minimizedRMSD -1
REMARK  0 active torsions:
REMARK  status: ('A' for Active; 'I' for Inactive)
ROOT
ATOM      1  C   UNL d   1      -1.877  -5.981   2.850  0.00  0.00     0.078 C 
ATOM      2  C1  UNL d   1      -3.311  -5.709   2.507  0.00  0.00    -0.077 A 
ATOM      3  C2  UNL d   1      -3.666  -5.180   1.260  0.00  0.00    -0.001 A 
ATOM      4  C3  UNL d   1      -5.005  -4.924   0.958  0.00  0.00     0.003 A 
ATOM      5  C4  UNL d   1      -5.998  -5.191   1.897  0.00  0.00    -0.005 A 
ATOM      6  C5  UNL d   1      -5.654  -5.715   3.142  0.00  0.00     0.003 A 
ATOM      7  C6  UNL d   1      -4.316  -5.973   3.446  0.00  0.00    -0.001 A 
ENDROOT
TORSDOF 0
ENDMDL
