MODEL 1
REMARK minimizedAffinity -0.263694137
REMARK minimizedRMSD -1
REMARK  0 active torsions:
REMARK  status: ('A' for Active; 'I' for Inactive)
ROOT
ATOM      1  C   UNL d   1      -3.094  -6.000   2.543  0.00  0.00     0.078 C 
ATOM      2  C1  UNL d   1      -1.836  -5.301   2.966  0.00  0.00    -0.077 A 
ATOM      3  C2  UNL d   1      -1.617  -3.955   2.648  0.00  0.00    -0.001 A 
ATOM      4  C3  UNL d   1      -0.438  -3.320   3.040  0.00  0.00     0.003 A 
ATOM      5  C4  UNL d   1       0.532  -4.023   3.752  0.00  0.00    -0.005 A 
ATOM      6  C5  UNL d   1       0.324  -5.363   4.071  0.00  0.00     0.003 A 
ATOM      7  C6  UNL d   1      -0.855  -6.000   3.680  0.00  0.00    -0.001 A 
ENDROOT
TORSDOF 0
ENDMDL
