MODEL 1
REMARK minimizedAffinity 0.882492006
REMARK minimizedRMSD -1
REMARK  0 active torsions:
REMARK  status: ('A' for Active; 'I' for Inactive)
ROOT
ATOM      1  C   UNL d   1      -0.708   1.385   2.770  0.00  0.00     0.078 C 
ATOM      2  C1  UNL d   1      -2.060   1.045   3.322  0.00  0.00    -0.077 A 
ATOM      3  C2  UNL d   1      -2.304  -0.198   3.917  0.00  0.00    -0.001 A 
ATOM      4  C3  UNL d   1      -3.570  -0.505   4.419  0.00  0.00     0.003 A 
ATOM      5  C4  UNL d   1      -4.602   0.427   4.330  0.00  0.00    -0.005 A 
ATOM      6  C5  UNL d   1      -4.369   1.667   3.738  0.00  0.00     0.003 A 
ATOM      7  C6  UNL d   1      -3.104   1.975   3.235  0.00  0.00    -0.001 A 
ENDROOT
TORSDOF 0
ENDMDL
