MODEL 1
REMARK minimizedAffinity -2.74878836
REMARK minimizedRMSD -1
REMARK  1 active torsions:
REMARK  status: ('A' for Active; 'I' for Inactive)
REMARK    1  A    between atoms: C1_2  and  C2_3 
ROOT
ATOM      1  C2  UNL d   1       0.545   1.120  -0.642  0.00  0.00    -0.073 A 
ATOM      2  C3  UNL d   1      -0.331   1.885   0.137  0.00  0.00    -0.002 A 
ATOM      3  C4  UNL d   1      -1.065   1.288   1.163  0.00  0.00     0.004 A 
ATOM      4  C5  UNL d   1      -0.926  -0.075   1.425  0.00  0.00    -0.004 A 
ATOM      5  C6  UNL d   1      -0.047  -0.853   0.665  0.00  0.00    -0.075 A 
ATOM      6  C7  UNL d   1       0.112  -2.321   0.932  0.00  0.00     0.076 C 
ATOM      7  C8  UNL d   1       0.685  -0.247  -0.365  0.00  0.00     0.001 A 
ENDROOT
BRANCH   1   8
ATOM      8  C1  UNL d   1       1.345   1.762  -1.746  0.00  0.00     0.053 C 
ATOM      9  C   UNL d   1       0.673   1.607  -3.101  0.00  0.00     0.018 C 
ENDBRANCH   1   8
TORSDOF 1
ENDMDL
