MODEL 1
REMARK minimizedAffinity -3.52167583
REMARK minimizedRMSD -1
REMARK  1 active torsions:
REMARK  status: ('A' for Active; 'I' for Inactive)
REMARK    1  A    between atoms: C1_2  and  C2_3 
ROOT
ATOM      1  C2  UNL d   1      -0.249   0.379   0.499  0.00  0.00    -0.073 A 
ATOM      2  C3  UNL d   1       1.102   0.044   0.354  0.00  0.00    -0.002 A 
ATOM      3  C4  UNL d   1       1.513  -1.286   0.450  0.00  0.00     0.004 A 
ATOM      4  C5  UNL d   1       0.578  -2.294   0.685  0.00  0.00    -0.004 A 
ATOM      5  C6  UNL d   1      -0.778  -1.981   0.822  0.00  0.00    -0.075 A 
ATOM      6  C7  UNL d   1      -1.795  -3.054   1.077  0.00  0.00     0.076 C 
ATOM      7  C8  UNL d   1      -1.183  -0.643   0.726  0.00  0.00     0.001 A 
ENDROOT
BRANCH   1   8
ATOM      8  C1  UNL d   1      -0.699   1.813   0.389  0.00  0.00     0.053 C 
ATOM      9  C   UNL d   1      -2.107   2.012   0.928  0.00  0.00     0.018 C 
ENDBRANCH   1   8
TORSDOF 1
ENDMDL
