MODEL 1
REMARK minimizedAffinity -5.5106349
REMARK minimizedRMSD -1
REMARK  1 active torsions:
REMARK  status: ('A' for Active; 'I' for Inactive)
REMARK    1  A    between atoms: C1_2  and  C2_3 
ROOT
ATOM      1  C2  UNL d   1      -1.059  -1.632   0.852  0.00  0.00    -0.073 A 
ATOM      2  C3  UNL d   1      -0.391  -1.702  -0.376  0.00  0.00    -0.002 A 
ATOM      3  C4  UNL d   1      -0.115  -0.538  -1.095  0.00  0.00     0.004 A 
ATOM      4  C5  UNL d   1      -0.497   0.706  -0.592  0.00  0.00    -0.004 A 
ATOM      5  C6  UNL d   1      -1.154   0.797   0.639  0.00  0.00    -0.075 A 
ATOM      6  C7  UNL d   1      -1.573   2.127   1.193  0.00  0.00     0.076 C 
ATOM      7  C8  UNL d   1      -1.430  -0.376   1.354  0.00  0.00     0.001 A 
ENDROOT
BRANCH   1   8
ATOM      8  C1  UNL d   1      -1.353  -2.885   1.636  0.00  0.00     0.053 C 
ATOM      9  C   UNL d   1      -0.648  -2.894   2.983  0.00  0.00     0.018 C 
ENDBRANCH   1   8
TORSDOF 1
ENDMDL
