MODEL 1
REMARK minimizedAffinity -4.67194796
REMARK minimizedRMSD -1
REMARK  1 active torsions:
REMARK  status: ('A' for Active; 'I' for Inactive)
REMARK    1  A    between atoms: C1_2  and  C2_3 
ROOT
ATOM      1  C2  UNL d   1      -0.818  -0.345   0.116  0.00  0.00    -0.073 A 
ATOM      2  C3  UNL d   1      -0.827  -1.744   0.132  0.00  0.00    -0.002 A 
ATOM      3  C4  UNL d   1      -1.640  -2.434   1.032  0.00  0.00     0.004 A 
ATOM      4  C5  UNL d   1      -2.456  -1.733   1.920  0.00  0.00    -0.004 A 
ATOM      5  C6  UNL d   1      -2.469  -0.334   1.912  0.00  0.00    -0.075 A 
ATOM      6  C7  UNL d   1      -3.340   0.435   2.862  0.00  0.00     0.076 C 
ATOM      7  C8  UNL d   1      -1.648   0.351   1.006  0.00  0.00     0.001 A 
ENDROOT
BRANCH   1   8
ATOM      8  C1  UNL d   1       0.054   0.404  -0.859  0.00  0.00     0.053 C 
ATOM      9  C   UNL d   1       0.720   1.611  -0.218  0.00  0.00     0.018 C 
ENDBRANCH   1   8
TORSDOF 1
ENDMDL
