MODEL 1
REMARK minimizedAffinity -2.61582828
REMARK minimizedRMSD -1
REMARK  1 active torsions:
REMARK  status: ('A' for Active; 'I' for Inactive)
REMARK    1  A    between atoms: C1_2  and  C2_3 
ROOT
ATOM      1  C2  UNL d   1       0.245   0.655  -0.571  0.00  0.00    -0.073 A 
ATOM      2  C3  UNL d   1      -0.208   1.549   0.406  0.00  0.00    -0.002 A 
ATOM      3  C4  UNL d   1      -1.090   1.120   1.399  0.00  0.00     0.004 A 
ATOM      4  C5  UNL d   1      -1.522  -0.206   1.430  0.00  0.00    -0.004 A 
ATOM      5  C6  UNL d   1      -1.071  -1.117   0.469  0.00  0.00    -0.075 A 
ATOM      6  C7  UNL d   1      -1.528  -2.546   0.487  0.00  0.00     0.076 C 
ATOM      7  C8  UNL d   1      -0.188  -0.678  -0.527  0.00  0.00     0.001 A 
ENDROOT
BRANCH   1   8
ATOM      8  C1  UNL d   1       1.202   1.111  -1.642  0.00  0.00     0.053 C 
ATOM      9  C   UNL d   1       0.508   1.941  -2.710  0.00  0.00     0.018 C 
ENDBRANCH   1   8
TORSDOF 1
ENDMDL
