MODEL 1
REMARK minimizedAffinity -2.72964191
REMARK minimizedRMSD -1
REMARK  1 active torsions:
REMARK  status: ('A' for Active; 'I' for Inactive)
REMARK    1  A    between atoms: C1_2  and  C2_3 
ROOT
ATOM      1  C2  UNL d   1       0.303  -0.017  -0.808  0.00  0.00    -0.073 A 
ATOM      2  C3  UNL d   1       0.778  -1.210  -0.249  0.00  0.00    -0.002 A 
ATOM      3  C4  UNL d   1       0.062  -1.847   0.765  0.00  0.00     0.004 A 
ATOM      4  C5  UNL d   1      -1.137  -1.304   1.226  0.00  0.00    -0.004 A 
ATOM      5  C6  UNL d   1      -1.634  -0.119   0.672  0.00  0.00    -0.075 A 
ATOM      6  C7  UNL d   1      -2.921   0.479   1.159  0.00  0.00     0.076 C 
ATOM      7  C8  UNL d   1      -0.908   0.516  -0.344  0.00  0.00     0.001 A 
ENDROOT
BRANCH   1   8
ATOM      8  C1  UNL d   1       1.069   0.671  -1.908  0.00  0.00     0.053 C 
ATOM      9  C   UNL d   1       0.146   1.276  -2.953  0.00  0.00     0.018 C 
ENDBRANCH   1   8
TORSDOF 1
ENDMDL
