MODEL 1
REMARK minimizedAffinity -3.77231121
REMARK minimizedRMSD -1
REMARK  1 active torsions:
REMARK  status: ('A' for Active; 'I' for Inactive)
REMARK    1  A    between atoms: C1_2  and  C2_3 
ROOT
ATOM      1  C2  UNL d   1       0.519   0.672  -0.270  0.00  0.00    -0.073 A 
ATOM      2  C3  UNL d   1       1.788   0.129  -0.037  0.00  0.00    -0.002 A 
ATOM      3  C4  UNL d   1       1.918  -1.154   0.498  0.00  0.00     0.004 A 
ATOM      4  C5  UNL d   1       0.784  -1.908   0.798  0.00  0.00    -0.004 A 
ATOM      5  C6  UNL d   1      -0.492  -1.387   0.561  0.00  0.00    -0.075 A 
ATOM      6  C7  UNL d   1      -1.723  -2.184   0.880  0.00  0.00     0.076 C 
ATOM      7  C8  UNL d   1      -0.615  -0.097   0.026  0.00  0.00     0.001 A 
ENDROOT
BRANCH   1   8
ATOM      8  C1  UNL d   1       0.374   2.054  -0.853  0.00  0.00     0.053 C 
ATOM      9  C   UNL d   1       0.836   2.113  -2.300  0.00  0.00     0.018 C 
ENDBRANCH   1   8
TORSDOF 1
ENDMDL
