MODEL 1
REMARK minimizedAffinity -1.28579903
REMARK minimizedRMSD -1
REMARK  1 active torsions:
REMARK  status: ('A' for Active; 'I' for Inactive)
REMARK    1  A    between atoms: C1_2  and  C2_3 
ROOT
ATOM      1  C2  UNL d   1      -0.449  -1.605   1.183  0.00  0.00    -0.073 A 
ATOM      2  C3  UNL d   1      -1.200  -0.920   0.221  0.00  0.00    -0.002 A 
ATOM      3  C4  UNL d   1      -0.586   0.006  -0.624  0.00  0.00     0.004 A 
ATOM      4  C5  UNL d   1       0.783   0.251  -0.521  0.00  0.00    -0.004 A 
ATOM      5  C6  UNL d   1       1.552  -0.432   0.427  0.00  0.00    -0.075 A 
ATOM      6  C7  UNL d   1       3.026  -0.177   0.552  0.00  0.00     0.076 C 
ATOM      7  C8  UNL d   1       0.929  -1.358   1.273  0.00  0.00     0.001 A 
ENDROOT
BRANCH   1   8
ATOM      8  C1  UNL d   1      -1.105  -2.610   2.094  0.00  0.00     0.053 C 
ATOM      9  C   UNL d   1      -2.442  -3.086   1.547  0.00  0.00     0.018 C 
ENDBRANCH   1   8
TORSDOF 1
ENDMDL
