MODEL 1
REMARK minimizedAffinity -4.22081375
REMARK minimizedRMSD -1
REMARK  1 active torsions:
REMARK  status: ('A' for Active; 'I' for Inactive)
REMARK    1  A    between atoms: C1_2  and  C2_3 
ROOT
ATOM      1  C2  UNL d   1       0.720   1.185  -0.349  0.00  0.00    -0.073 A 
ATOM      2  C3  UNL d   1      -0.335   1.867   0.269  0.00  0.00    -0.002 A 
ATOM      3  C4  UNL d   1      -1.321   1.163   0.960  0.00  0.00     0.004 A 
ATOM      4  C5  UNL d   1      -1.260  -0.228   1.047  0.00  0.00    -0.004 A 
ATOM      5  C6  UNL d   1      -0.207  -0.927   0.447  0.00  0.00    -0.075 A 
ATOM      6  C7  UNL d   1      -0.128  -2.423   0.529  0.00  0.00     0.076 C 
ATOM      7  C8  UNL d   1       0.778  -0.212  -0.248  0.00  0.00     0.001 A 
ENDROOT
BRANCH   1   8
ATOM      8  C1  UNL d   1       1.791   1.942  -1.091  0.00  0.00     0.053 C 
ATOM      9  C   UNL d   1       1.501   2.027  -2.581  0.00  0.00     0.018 C 
ENDBRANCH   1   8
TORSDOF 1
ENDMDL
