MODEL 1
REMARK minimizedAffinity -2.01994419
REMARK minimizedRMSD -1
REMARK  1 active torsions:
REMARK  status: ('A' for Active; 'I' for Inactive)
REMARK    1  A    between atoms: C1_2  and  C2_3 
ROOT
ATOM      1  C2  UNL d   1      -0.313   0.499   0.602  0.00  0.00    -0.073 A 
ATOM      2  C3  UNL d   1       1.046   0.306   0.333  0.00  0.00    -0.002 A 
ATOM      3  C4  UNL d   1       1.561  -0.984   0.195  0.00  0.00     0.004 A 
ATOM      4  C5  UNL d   1       0.723  -2.092   0.318  0.00  0.00    -0.004 A 
ATOM      5  C6  UNL d   1      -0.641  -1.919   0.576  0.00  0.00    -0.075 A 
ATOM      6  C7  UNL d   1      -1.556  -3.100   0.713  0.00  0.00     0.076 C 
ATOM      7  C8  UNL d   1      -1.150  -0.621   0.715  0.00  0.00     0.001 A 
ENDROOT
BRANCH   1   8
ATOM      8  C1  UNL d   1      -0.875   1.890   0.745  0.00  0.00     0.053 C 
ATOM      9  C   UNL d   1      -2.175   1.901   1.535  0.00  0.00     0.018 C 
ENDBRANCH   1   8
TORSDOF 1
ENDMDL
