MODEL 1
REMARK minimizedAffinity -2.27581143
REMARK minimizedRMSD -1
REMARK  2 active torsions:
REMARK  status: ('A' for Active; 'I' for Inactive)
REMARK    1  A    between atoms: C2'_3  and  C1'_4 
REMARK    2  A    between atoms: C1'_4  and  C1_5 
ROOT
ATOM      1  C1  I4B d   1       0.848  -0.182   0.855  0.00  0.00    -0.075 A 
ATOM      2  C2  I4B d   1       1.694  -0.529   1.879  0.00  0.00     0.003 A 
ATOM      3  C3  I4B d   1       1.266  -0.426   3.224  0.00  0.00     0.002 A 
ATOM      4  C4  I4B d   1       0.009   0.072   3.501  0.00  0.00    -0.004 A 
ATOM      5  C5  I4B d   1      -0.856   0.402   2.461  0.00  0.00     0.002 A 
ATOM      6  C6  I4B d   1      -0.439   0.262   1.130  0.00  0.00     0.003 A 
ENDROOT
BRANCH   1   7
ATOM      7  C1' I4B d   1       1.345  -0.272  -0.553  0.00  0.00     0.060 C 
BRANCH   7   8
ATOM      8  C2' I4B d   1       0.333  -1.064  -1.355  0.00  0.00    -0.013 C 
ATOM      9  C4' I4B d   1       0.560  -0.898  -2.835  0.00  0.00     0.013 C 
ATOM     10  C3' I4B d   1       0.444  -2.504  -0.949  0.00  0.00     0.013 C 
ENDBRANCH   7   8
ENDBRANCH   1   7
TORSDOF 2
ENDMDL
