MODEL 1
REMARK minimizedAffinity -1.29118025
REMARK minimizedRMSD -1
REMARK  2 active torsions:
REMARK  status: ('A' for Active; 'I' for Inactive)
REMARK    1  A    between atoms: C2'_3  and  C1'_4 
REMARK    2  A    between atoms: C1'_4  and  C1_5 
ROOT
ATOM      1  C1  I4B d   1       0.268  -0.525  -2.569  0.00  0.00    -0.075 A 
ATOM      2  C2  I4B d   1      -0.821  -0.247  -3.356  0.00  0.00     0.003 A 
ATOM      3  C3  I4B d   1      -0.667   0.498  -4.550  0.00  0.00     0.002 A 
ATOM      4  C4  I4B d   1       0.579   0.985  -4.891  0.00  0.00    -0.004 A 
ATOM      5  C5  I4B d   1       1.686   0.682  -4.104  0.00  0.00     0.002 A 
ATOM      6  C6  I4B d   1       1.533  -0.088  -2.942  0.00  0.00     0.003 A 
ENDROOT
BRANCH   1   7
ATOM      7  C1' I4B d   1       0.064  -1.286  -1.297  0.00  0.00     0.060 C 
BRANCH   7   8
ATOM      8  C2' I4B d   1       0.122  -0.300  -0.148  0.00  0.00    -0.013 C 
ATOM      9  C4' I4B d   1      -1.237  -0.098   0.467  0.00  0.00     0.013 C 
ATOM     10  C3' I4B d   1       1.102  -0.821   0.860  0.00  0.00     0.013 C 
ENDBRANCH   7   8
ENDBRANCH   1   7
TORSDOF 2
ENDMDL
