MODEL 1
REMARK minimizedAffinity 4.47065926
REMARK minimizedRMSD -1
REMARK  2 active torsions:
REMARK  status: ('A' for Active; 'I' for Inactive)
REMARK    1  A    between atoms: C2'_3  and  C1'_4 
REMARK    2  A    between atoms: C1'_4  and  C1_5 
ROOT
ATOM      1  C1  I4B d   1      -0.068  -0.036   1.750  0.00  0.00    -0.075 A 
ATOM      2  C2  I4B d   1      -0.241   1.064   0.948  0.00  0.00     0.003 A 
ATOM      3  C3  I4B d   1       0.707   1.370  -0.058  0.00  0.00     0.002 A 
ATOM      4  C4  I4B d   1       1.832   0.582  -0.193  0.00  0.00    -0.004 A 
ATOM      5  C5  I4B d   1       1.995  -0.546   0.605  0.00  0.00     0.002 A 
ATOM      6  C6  I4B d   1       1.033  -0.865   1.575  0.00  0.00     0.003 A 
ENDROOT
BRANCH   1   7
ATOM      7  C1' I4B d   1      -1.072  -0.311   2.824  0.00  0.00     0.060 C 
BRANCH   7   8
ATOM      8  C2' I4B d   1      -0.385  -0.130   4.162  0.00  0.00    -0.013 C 
ATOM      9  C4' I4B d   1       0.480  -1.317   4.495  0.00  0.00     0.013 C 
ATOM     10  C3' I4B d   1       0.425   1.130   4.100  0.00  0.00     0.013 C 
ENDBRANCH   7   8
ENDBRANCH   1   7
TORSDOF 2
ENDMDL
