MODEL 1
REMARK minimizedAffinity -2.47576213
REMARK minimizedRMSD -1
REMARK  0 active torsions:
REMARK  status: ('A' for Active; 'I' for Inactive)
ROOT
ATOM      1  C1  DEN d   1      -5.195  -3.006  -5.703  0.00  0.00     0.130 A 
ATOM      2  C2  DEN d   1      -6.000  -2.668  -4.532  0.00  0.00    -0.031 A 
ATOM      3  C3  DEN d   1      -5.419  -3.359  -3.363  0.00  0.00     0.027 A 
ATOM      4  C4  DEN d   1      -3.360  -4.908  -3.253  0.00  0.00     0.027 A 
ATOM      5  C5  DEN d   1      -2.360  -5.501  -3.992  0.00  0.00    -0.003 A 
ATOM      6  C6  DEN d   1      -2.257  -5.332  -5.348  0.00  0.00     0.001 A 
ATOM      7  C7  DEN d   1      -3.142  -4.515  -6.000  0.00  0.00     0.017 A 
ATOM      8  C8  DEN d   1      -4.157  -3.920  -5.262  0.00  0.00    -0.094 A 
ATOM      9  C9  DEN d   1      -4.237  -4.093  -3.891  0.00  0.00    -0.072 A 
ENDROOT
TORSDOF 0
ENDMDL
