MODEL 1
REMARK minimizedAffinity -4.48570824
REMARK minimizedRMSD -1
REMARK  0 active torsions:
REMARK  status: ('A' for Active; 'I' for Inactive)
ROOT
ATOM      1  C1  DEN d   1      -4.192  -2.651  -3.751  0.00  0.00     0.130 A 
ATOM      2  C2  DEN d   1      -5.570  -3.116  -3.617  0.00  0.00    -0.031 A 
ATOM      3  C3  DEN d   1      -5.637  -4.500  -4.126  0.00  0.00     0.027 A 
ATOM      4  C4  DEN d   1      -3.750  -5.964  -5.099  0.00  0.00     0.027 A 
ATOM      5  C5  DEN d   1      -2.412  -6.000  -5.426  0.00  0.00    -0.003 A 
ATOM      6  C6  DEN d   1      -1.588  -4.920  -5.250  0.00  0.00     0.001 A 
ATOM      7  C7  DEN d   1      -2.084  -3.772  -4.692  0.00  0.00     0.017 A 
ATOM      8  C8  DEN d   1      -3.434  -3.725  -4.366  0.00  0.00    -0.094 A 
ATOM      9  C9  DEN d   1      -4.247  -4.832  -4.540  0.00  0.00    -0.072 A 
ENDROOT
TORSDOF 0
ENDMDL
