MODEL 1
REMARK minimizedAffinity -2.52179885
REMARK minimizedRMSD -1
REMARK  0 active torsions:
REMARK  status: ('A' for Active; 'I' for Inactive)
ROOT
ATOM      1  C1  DEN d   1      -2.586  -5.073  -4.951  0.00  0.00     0.130 A 
ATOM      2  C2  DEN d   1      -1.883  -4.157  -5.845  0.00  0.00    -0.031 A 
ATOM      3  C3  DEN d   1      -2.712  -2.944  -6.000  0.00  0.00     0.027 A 
ATOM      4  C4  DEN d   1      -5.000  -2.397  -4.943  0.00  0.00     0.027 A 
ATOM      5  C5  DEN d   1      -5.999  -2.870  -4.122  0.00  0.00    -0.003 A 
ATOM      6  C6  DEN d   1      -5.948  -4.114  -3.552  0.00  0.00     0.001 A 
ATOM      7  C7  DEN d   1      -4.852  -4.911  -3.758  0.00  0.00     0.017 A 
ATOM      8  C8  DEN d   1      -3.844  -4.443  -4.591  0.00  0.00    -0.094 A 
ATOM      9  C9  DEN d   1      -3.909  -3.178  -5.148  0.00  0.00    -0.072 A 
ENDROOT
TORSDOF 0
ENDMDL
