MODEL 1
REMARK minimizedAffinity -3.61866045
REMARK minimizedRMSD -1
REMARK  0 active torsions:
REMARK  status: ('A' for Active; 'I' for Inactive)
ROOT
ATOM      1  C1  DEN d   1      -4.611  -3.259  -3.609  0.00  0.00     0.130 A 
ATOM      2  C2  DEN d   1      -6.000  -3.623  -3.879  0.00  0.00    -0.031 A 
ATOM      3  C3  DEN d   1      -5.999  -4.749  -4.835  0.00  0.00     0.027 A 
ATOM      4  C4  DEN d   1      -3.993  -5.960  -5.914  0.00  0.00     0.027 A 
ATOM      5  C5  DEN d   1      -2.619  -5.998  -6.000  0.00  0.00    -0.003 A 
ATOM      6  C6  DEN d   1      -1.820  -5.112  -5.327  0.00  0.00     0.001 A 
ATOM      7  C7  DEN d   1      -2.388  -4.177  -4.502  0.00  0.00     0.017 A 
ATOM      8  C8  DEN d   1      -3.773  -4.127  -4.416  0.00  0.00    -0.094 A 
ATOM      9  C9  DEN d   1      -4.563  -5.040  -5.095  0.00  0.00    -0.072 A 
ENDROOT
TORSDOF 0
ENDMDL
