MODEL 1
REMARK minimizedAffinity -4.04637003
REMARK minimizedRMSD -1
REMARK  0 active torsions:
REMARK  status: ('A' for Active; 'I' for Inactive)
ROOT
ATOM      1  C1  DEN d   1      -4.506  -2.720  -3.779  0.00  0.00     0.130 A 
ATOM      2  C2  DEN d   1      -5.874  -3.178  -3.555  0.00  0.00    -0.031 A 
ATOM      3  C3  DEN d   1      -6.000  -4.536  -4.123  0.00  0.00     0.027 A 
ATOM      4  C4  DEN d   1      -4.217  -5.967  -5.316  0.00  0.00     0.027 A 
ATOM      5  C5  DEN d   1      -2.911  -6.000  -5.751  0.00  0.00    -0.003 A 
ATOM      6  C6  DEN d   1      -2.061  -4.937  -5.592  0.00  0.00     0.001 A 
ATOM      7  C7  DEN d   1      -2.495  -3.813  -4.941  0.00  0.00     0.017 A 
ATOM      8  C8  DEN d   1      -3.813  -3.770  -4.505  0.00  0.00    -0.094 A 
ATOM      9  C9  DEN d   1      -4.653  -4.859  -4.665  0.00  0.00    -0.072 A 
ENDROOT
TORSDOF 0
ENDMDL
