MODEL 1
REMARK minimizedAffinity -2.6200664
REMARK minimizedRMSD -1
REMARK  0 active torsions:
REMARK  status: ('A' for Active; 'I' for Inactive)
ROOT
ATOM      1  C1  DEN d   1      -2.520  -5.999  -5.999  0.00  0.00     0.130 A 
ATOM      2  C2  DEN d   1      -1.378  -5.365  -5.347  0.00  0.00    -0.031 A 
ATOM      3  C3  DEN d   1      -1.888  -4.272  -4.494  0.00  0.00     0.027 A 
ATOM      4  C4  DEN d   1      -4.324  -3.509  -4.119  0.00  0.00     0.027 A 
ATOM      5  C5  DEN d   1      -5.637  -3.737  -4.466  0.00  0.00    -0.003 A 
ATOM      6  C6  DEN d   1      -5.998  -4.704  -5.367  0.00  0.00     0.001 A 
ATOM      7  C7  DEN d   1      -5.037  -5.510  -5.918  0.00  0.00     0.017 A 
ATOM      8  C8  DEN d   1      -3.710  -5.282  -5.579  0.00  0.00    -0.094 A 
ATOM      9  C9  DEN d   1      -3.367  -4.308  -4.657  0.00  0.00    -0.072 A 
ENDROOT
TORSDOF 0
ENDMDL
