MODEL 1
REMARK minimizedAffinity -3.97648954
REMARK minimizedRMSD -1
REMARK  0 active torsions:
REMARK  status: ('A' for Active; 'I' for Inactive)
ROOT
ATOM      1  C1  DEN d   1      -4.771  -2.170  -5.209  0.00  0.00     0.130 A 
ATOM      2  C2  DEN d   1      -6.000  -2.478  -4.482  0.00  0.00    -0.031 A 
ATOM      3  C3  DEN d   1      -6.000  -3.922  -4.175  0.00  0.00     0.027 A 
ATOM      4  C4  DEN d   1      -4.224  -5.702  -4.748  0.00  0.00     0.027 A 
ATOM      5  C5  DEN d   1      -3.013  -5.921  -5.366  0.00  0.00    -0.003 A 
ATOM      6  C6  DEN d   1      -2.325  -4.921  -6.000  0.00  0.00     0.001 A 
ATOM      7  C7  DEN d   1      -2.822  -3.644  -5.990  0.00  0.00     0.017 A 
ATOM      8  C8  DEN d   1      -4.046  -3.417  -5.375  0.00  0.00    -0.094 A 
ATOM      9  C9  DEN d   1      -4.720  -4.439  -4.730  0.00  0.00    -0.072 A 
ENDROOT
TORSDOF 0
ENDMDL
