MODEL 1
REMARK minimizedAffinity -3.08036399
REMARK minimizedRMSD -1
REMARK  0 active torsions:
REMARK  status: ('A' for Active; 'I' for Inactive)
ROOT
ATOM      1  C1  DEN d   1      -2.566  -4.123  -6.000  0.00  0.00     0.130 A 
ATOM      2  C2  DEN d   1      -1.848  -4.860  -4.963  0.00  0.00    -0.031 A 
ATOM      3  C3  DEN d   1      -2.678  -4.855  -3.741  0.00  0.00     0.027 A 
ATOM      4  C4  DEN d   1      -4.995  -3.787  -3.359  0.00  0.00     0.027 A 
ATOM      5  C5  DEN d   1      -5.999  -3.046  -3.941  0.00  0.00    -0.003 A 
ATOM      6  C6  DEN d   1      -5.916  -2.587  -5.229  0.00  0.00     0.001 A 
ATOM      7  C7  DEN d   1      -4.823  -2.903  -5.992  0.00  0.00     0.017 A 
ATOM      8  C8  DEN d   1      -3.802  -3.644  -5.410  0.00  0.00    -0.094 A 
ATOM      9  C9  DEN d   1      -3.911  -4.108  -4.110  0.00  0.00    -0.072 A 
ENDROOT
TORSDOF 0
ENDMDL
