MODEL 1
REMARK minimizedAffinity -3.3671627
REMARK minimizedRMSD -1
REMARK  0 active torsions:
REMARK  status: ('A' for Active; 'I' for Inactive)
ROOT
ATOM      1  C1  DEN d   1      -4.634  -2.387  -5.069  0.00  0.00     0.130 A 
ATOM      2  C2  DEN d   1      -6.000  -2.854  -4.850  0.00  0.00    -0.031 A 
ATOM      3  C3  DEN d   1      -5.987  -4.330  -4.873  0.00  0.00     0.027 A 
ATOM      4  C4  DEN d   1      -3.994  -5.930  -5.220  0.00  0.00     0.027 A 
ATOM      5  C5  DEN d   1      -2.638  -6.000  -5.455  0.00  0.00    -0.003 A 
ATOM      6  C6  DEN d   1      -1.865  -4.880  -5.611  0.00  0.00     0.001 A 
ATOM      7  C7  DEN d   1      -2.435  -3.640  -5.489  0.00  0.00     0.017 A 
ATOM      8  C8  DEN d   1      -3.802  -3.561  -5.258  0.00  0.00    -0.094 A 
ATOM      9  C9  DEN d   1      -4.564  -4.705  -5.091  0.00  0.00    -0.072 A 
ENDROOT
TORSDOF 0
ENDMDL
