MODEL 1
REMARK minimizedAffinity -2.6511097
REMARK minimizedRMSD -1
REMARK  0 active torsions:
REMARK  status: ('A' for Active; 'I' for Inactive)
ROOT
ATOM      1  C1  DEN d   1      -2.671  -4.493  -6.000  0.00  0.00     0.130 A 
ATOM      2  C2  DEN d   1      -2.994  -5.794  -5.420  0.00  0.00    -0.031 A 
ATOM      3  C3  DEN d   1      -4.301  -5.681  -4.743  0.00  0.00     0.027 A 
ATOM      4  C4  DEN d   1      -5.852  -3.630  -4.543  0.00  0.00     0.027 A 
ATOM      5  C5  DEN d   1      -6.000  -2.298  -4.864  0.00  0.00    -0.003 A 
ATOM      6  C6  DEN d   1      -5.041  -1.602  -5.551  0.00  0.00     0.001 A 
ATOM      7  C7  DEN d   1      -3.910  -2.247  -5.979  0.00  0.00     0.017 A 
ATOM      8  C8  DEN d   1      -3.751  -3.587  -5.653  0.00  0.00    -0.094 A 
ATOM      9  C9  DEN d   1      -4.738  -4.276  -4.968  0.00  0.00    -0.072 A 
ENDROOT
TORSDOF 0
ENDMDL
