MODEL 1
REMARK minimizedAffinity -4.50674915
REMARK minimizedRMSD -1
REMARK  0 active torsions:
REMARK  status: ('A' for Active; 'I' for Inactive)
ROOT
ATOM      1  C1  DEN d   1      -4.559  -5.965  -3.716  0.00  0.00     0.130 A 
ATOM      2  C2  DEN d   1      -5.880  -5.430  -3.395  0.00  0.00    -0.031 A 
ATOM      3  C3  DEN d   1      -5.999  -4.100  -4.026  0.00  0.00     0.027 A 
ATOM      4  C4  DEN d   1      -4.279  -2.826  -5.464  0.00  0.00     0.027 A 
ATOM      5  C5  DEN d   1      -3.011  -2.871  -6.000  0.00  0.00    -0.003 A 
ATOM      6  C6  DEN d   1      -2.164  -3.926  -5.786  0.00  0.00     0.001 A 
ATOM      7  C7  DEN d   1      -2.593  -5.001  -5.053  0.00  0.00     0.017 A 
ATOM      8  C8  DEN d   1      -3.867  -4.960  -4.503  0.00  0.00    -0.094 A 
ATOM      9  C9  DEN d   1      -4.712  -3.889  -4.741  0.00  0.00    -0.072 A 
ENDROOT
TORSDOF 0
ENDMDL
