MODEL 1
REMARK minimizedAffinity -5.03788042
REMARK minimizedRMSD -1
REMARK  0 active torsions:
REMARK  status: ('A' for Active; 'I' for Inactive)
ROOT
ATOM      1  C1  DEN d   1      -1.926  -4.127  -5.623  0.00  0.00     0.130 A 
ATOM      2  C2  DEN d   1      -1.674  -5.507  -5.214  0.00  0.00    -0.031 A 
ATOM      3  C3  DEN d   1      -2.872  -5.999  -4.506  0.00  0.00     0.027 A 
ATOM      4  C4  DEN d   1      -5.084  -4.769  -4.009  0.00  0.00     0.027 A 
ATOM      5  C5  DEN d   1      -5.762  -3.578  -4.148  0.00  0.00    -0.003 A 
ATOM      6  C6  DEN d   1      -5.201  -2.485  -4.753  0.00  0.00     0.001 A 
ATOM      7  C7  DEN d   1      -3.940  -2.575  -5.283  0.00  0.00     0.017 A 
ATOM      8  C8  DEN d   1      -3.248  -3.770  -5.140  0.00  0.00    -0.094 A 
ATOM      9  C9  DEN d   1      -3.837  -4.867  -4.535  0.00  0.00    -0.072 A 
ENDROOT
TORSDOF 0
ENDMDL
