MODEL 1
REMARK minimizedAffinity 8.4324398
REMARK minimizedRMSD -1
REMARK  1 active torsions:
REMARK  status: ('A' for Active; 'I' for Inactive)
REMARK    1  A    between atoms: C1_2  and  C2_3 
ROOT
ATOM      1  C2  UNL d   1      -2.072  -0.975   1.096  0.00  0.00    -0.081 A 
ATOM      2  C3  UNL d   1      -1.815  -2.088   1.906  0.00  0.00     0.006 A 
ATOM      3  C4  UNL d   1      -2.606  -3.235   1.804  0.00  0.00     0.002 A 
ATOM      4  C5  UNL d   1      -3.661  -3.291   0.887  0.00  0.00    -0.080 A 
ATOM      5  C6  UNL d   1      -4.498  -4.528   0.747  0.00  0.00     0.076 C 
ATOM      6  C7  UNL d   1      -3.928  -2.173   0.090  0.00  0.00     0.002 A 
ATOM      7  C8  UNL d   1      -3.139  -1.026   0.192  0.00  0.00     0.006 A 
ENDROOT
BRANCH   1   8
ATOM      8  C1  UNL d   1      -1.181   0.239   1.158  0.00  0.00     0.054 C 
ATOM      9  C   UNL d   1      -1.514   1.109   2.362  0.00  0.00     0.018 C 
ENDBRANCH   1   8
TORSDOF 1
ENDMDL
