MODEL 1
REMARK minimizedAffinity 4.97141886
REMARK minimizedRMSD -1
REMARK  1 active torsions:
REMARK  status: ('A' for Active; 'I' for Inactive)
REMARK    1  A    between atoms: C1_2  and  C2_3 
ROOT
ATOM      1  C2  UNL d   1       0.780   1.362   1.473  0.00  0.00    -0.081 A 
ATOM      2  C3  UNL d   1       0.840   0.579   0.313  0.00  0.00     0.006 A 
ATOM      3  C4  UNL d   1      -0.292  -0.103  -0.140  0.00  0.00     0.002 A 
ATOM      4  C5  UNL d   1      -1.503  -0.007   0.554  0.00  0.00    -0.080 A 
ATOM      5  C6  UNL d   1      -2.733  -0.710   0.062  0.00  0.00     0.076 C 
ATOM      6  C7  UNL d   1      -1.558   0.761   1.722  0.00  0.00     0.002 A 
ATOM      7  C8  UNL d   1      -0.427   1.443   2.176  0.00  0.00     0.006 A 
ENDROOT
BRANCH   1   8
ATOM      8  C1  UNL d   1       1.982   2.151   1.927  0.00  0.00     0.054 C 
ATOM      9  C   UNL d   1       2.643   2.874   0.762  0.00  0.00     0.018 C 
ENDBRANCH   1   8
TORSDOF 1
ENDMDL
