MODEL 1
REMARK minimizedAffinity 4.00874186
REMARK minimizedRMSD -1
REMARK  1 active torsions:
REMARK  status: ('A' for Active; 'I' for Inactive)
REMARK    1  A    between atoms: C1_2  and  C2_3 
ROOT
ATOM      1  C2  UNL d   1      -1.952  -0.642   0.142  0.00  0.00    -0.081 A 
ATOM      2  C3  UNL d   1      -1.865  -0.660   1.539  0.00  0.00     0.006 A 
ATOM      3  C4  UNL d   1      -1.030   0.238   2.208  0.00  0.00     0.002 A 
ATOM      4  C5  UNL d   1      -0.275   1.173   1.492  0.00  0.00    -0.080 A 
ATOM      5  C6  UNL d   1       0.602   2.162   2.200  0.00  0.00     0.076 C 
ATOM      6  C7  UNL d   1      -0.349   1.179   0.095  0.00  0.00     0.002 A 
ATOM      7  C8  UNL d   1      -1.183   0.281  -0.574  0.00  0.00     0.006 A 
ENDROOT
BRANCH   1   8
ATOM      8  C1  UNL d   1      -2.901  -1.566  -0.579  0.00  0.00     0.054 C 
ATOM      9  C   UNL d   1      -3.469  -2.619   0.361  0.00  0.00     0.018 C 
ENDBRANCH   1   8
TORSDOF 1
ENDMDL
