MODEL 1
REMARK minimizedAffinity 4.54472351
REMARK minimizedRMSD -1
REMARK  1 active torsions:
REMARK  status: ('A' for Active; 'I' for Inactive)
REMARK    1  A    between atoms: C1_2  and  C2_3 
ROOT
ATOM      1  C2  UNL d   1      -0.488   2.810   2.841  0.00  0.00    -0.081 A 
ATOM      2  C3  UNL d   1       0.566   2.201   2.150  0.00  0.00     0.006 A 
ATOM      3  C4  UNL d   1       0.317   1.157   1.256  0.00  0.00     0.002 A 
ATOM      4  C5  UNL d   1      -0.990   0.711   1.032  0.00  0.00    -0.080 A 
ATOM      5  C6  UNL d   1      -1.275  -0.388   0.052  0.00  0.00     0.076 C 
ATOM      6  C7  UNL d   1      -2.042   1.309   1.735  0.00  0.00     0.002 A 
ATOM      7  C8  UNL d   1      -1.793   2.352   2.630  0.00  0.00     0.006 A 
ENDROOT
BRANCH   1   8
ATOM      8  C1  UNL d   1      -0.229   3.979   3.757  0.00  0.00     0.054 C 
ATOM      9  C   UNL d   1       1.261   4.264   3.884  0.00  0.00     0.018 C 
ENDBRANCH   1   8
TORSDOF 1
ENDMDL
