MODEL 1
REMARK minimizedAffinity 9.21413994
REMARK minimizedRMSD -1
REMARK  1 active torsions:
REMARK  status: ('A' for Active; 'I' for Inactive)
REMARK    1  A    between atoms: C1_2  and  C2_3 
ROOT
ATOM      1  C2  UNL d   1      -1.630  -1.308   1.004  0.00  0.00    -0.081 A 
ATOM      2  C3  UNL d   1      -1.364  -0.892   2.314  0.00  0.00     0.006 A 
ATOM      3  C4  UNL d   1      -0.338   0.020   2.573  0.00  0.00     0.002 A 
ATOM      4  C5  UNL d   1       0.433   0.537   1.527  0.00  0.00    -0.080 A 
ATOM      5  C6  UNL d   1       1.518   1.539   1.788  0.00  0.00     0.076 C 
ATOM      6  C7  UNL d   1       0.180   0.107   0.220  0.00  0.00     0.002 A 
ATOM      7  C8  UNL d   1      -0.846  -0.805  -0.040  0.00  0.00     0.006 A 
ENDROOT
BRANCH   1   8
ATOM      8  C1  UNL d   1      -2.777  -2.242   0.715  0.00  0.00     0.054 C 
ATOM      9  C   UNL d   1      -3.369  -1.981  -0.663  0.00  0.00     0.018 C 
ENDBRANCH   1   8
TORSDOF 1
ENDMDL
