MODEL 1
REMARK minimizedAffinity 6.44424295
REMARK minimizedRMSD -1
REMARK  1 active torsions:
REMARK  status: ('A' for Active; 'I' for Inactive)
REMARK    1  A    between atoms: C1_2  and  C2_3 
ROOT
ATOM      1  C2  UNL d   1       0.349  -5.996   4.103  0.00  0.00    -0.081 A 
ATOM      2  C3  UNL d   1       1.003  -5.998   2.865  0.00  0.00     0.006 A 
ATOM      3  C4  UNL d   1       0.269  -5.983   1.676  0.00  0.00     0.002 A 
ATOM      4  C5  UNL d   1      -1.130  -5.959   1.706  0.00  0.00    -0.080 A 
ATOM      5  C6  UNL d   1      -1.929  -5.912   0.438  0.00  0.00     0.076 C 
ATOM      6  C7  UNL d   1      -1.783  -5.974   2.943  0.00  0.00     0.002 A 
ATOM      7  C8  UNL d   1      -1.049  -5.990   4.132  0.00  0.00     0.006 A 
ENDROOT
BRANCH   1   8
ATOM      8  C1  UNL d   1       1.139  -5.946   5.386  0.00  0.00     0.054 C 
ATOM      9  C   UNL d   1       1.202  -4.531   5.942  0.00  0.00     0.018 C 
ENDBRANCH   1   8
TORSDOF 1
ENDMDL
