MODEL 1
REMARK minimizedAffinity 5.45448685
REMARK minimizedRMSD -1
REMARK  1 active torsions:
REMARK  status: ('A' for Active; 'I' for Inactive)
REMARK    1  A    between atoms: C1_2  and  C2_3 
ROOT
ATOM      1  C2  UNL d   1       0.070   0.036   1.685  0.00  0.00    -0.081 A 
ATOM      2  C3  UNL d   1       1.170  -0.812   1.509  0.00  0.00     0.006 A 
ATOM      3  C4  UNL d   1       2.470  -0.333   1.685  0.00  0.00     0.002 A 
ATOM      4  C5  UNL d   1       2.691   1.000   2.049  0.00  0.00    -0.080 A 
ATOM      5  C6  UNL d   1       4.080   1.520   2.271  0.00  0.00     0.076 C 
ATOM      6  C7  UNL d   1       1.593   1.852   2.209  0.00  0.00     0.002 A 
ATOM      7  C8  UNL d   1       0.293   1.373   2.031  0.00  0.00     0.006 A 
ENDROOT
BRANCH   1   8
ATOM      8  C1  UNL d   1      -1.335  -0.495   1.559  0.00  0.00     0.054 C 
ATOM      9  C   UNL d   1      -1.608  -1.588   2.583  0.00  0.00     0.018 C 
ENDBRANCH   1   8
TORSDOF 1
ENDMDL
