MODEL 1
REMARK minimizedAffinity 7.42576647
REMARK minimizedRMSD -1
REMARK  1 active torsions:
REMARK  status: ('A' for Active; 'I' for Inactive)
REMARK    1  A    between atoms: C1_2  and  C2_3 
ROOT
ATOM      1  C2  UNL d   1      -0.220  -5.990   2.786  0.00  0.00    -0.081 A 
ATOM      2  C3  UNL d   1      -0.648  -5.977   4.119  0.00  0.00     0.006 A 
ATOM      3  C4  UNL d   1       0.282  -5.947   5.161  0.00  0.00     0.002 A 
ATOM      4  C5  UNL d   1       1.654  -5.920   4.887  0.00  0.00    -0.080 A 
ATOM      5  C6  UNL d   1       2.662  -5.856   5.996  0.00  0.00     0.076 C 
ATOM      6  C7  UNL d   1       2.081  -5.950   3.556  0.00  0.00     0.002 A 
ATOM      7  C8  UNL d   1       1.152  -5.981   2.514  0.00  0.00     0.006 A 
ENDROOT
BRANCH   1   8
ATOM      8  C1  UNL d   1      -1.221  -5.958   1.660  0.00  0.00     0.054 C 
ATOM      9  C   UNL d   1      -2.649  -5.970   2.187  0.00  0.00     0.018 C 
ENDBRANCH   1   8
TORSDOF 1
ENDMDL
