MODEL 1
REMARK minimizedAffinity 6.16309261
REMARK minimizedRMSD -1
REMARK  1 active torsions:
REMARK  status: ('A' for Active; 'I' for Inactive)
REMARK    1  A    between atoms: C1_2  and  C2_3 
ROOT
ATOM      1  C2  UNL d   1      -0.813  -5.948   2.994  0.00  0.00    -0.081 A 
ATOM      2  C3  UNL d   1      -0.122  -5.924   4.212  0.00  0.00     0.006 A 
ATOM      3  C4  UNL d   1       1.275  -5.915   4.233  0.00  0.00     0.002 A 
ATOM      4  C5  UNL d   1       2.003  -5.921   3.039  0.00  0.00    -0.080 A 
ATOM      5  C6  UNL d   1       3.503  -5.880   3.048  0.00  0.00     0.076 C 
ATOM      6  C7  UNL d   1       1.313  -5.963   1.823  0.00  0.00     0.002 A 
ATOM      7  C8  UNL d   1      -0.083  -5.973   1.801  0.00  0.00     0.006 A 
ENDROOT
BRANCH   1   8
ATOM      8  C1  UNL d   1      -2.319  -5.893   2.967  0.00  0.00     0.054 C 
ATOM      9  C   UNL d   1      -2.847  -5.899   1.539  0.00  0.00     0.018 C 
ENDBRANCH   1   8
TORSDOF 1
ENDMDL
