MODEL 1
REMARK minimizedAffinity 10.7126484
REMARK minimizedRMSD -1
REMARK  1 active torsions:
REMARK  status: ('A' for Active; 'I' for Inactive)
REMARK    1  A    between atoms: C1_2  and  C2_3 
ROOT
ATOM      1  C2  UNL d   1      -0.636  -5.929   1.371  0.00  0.00    -0.081 A 
ATOM      2  C3  UNL d   1       0.759  -5.884   1.262  0.00  0.00     0.006 A 
ATOM      3  C4  UNL d   1       1.559  -5.881   2.407  0.00  0.00     0.002 A 
ATOM      4  C5  UNL d   1       0.978  -5.931   3.679  0.00  0.00    -0.080 A 
ATOM      5  C6  UNL d   1       1.826  -5.959   4.915  0.00  0.00     0.076 C 
ATOM      6  C7  UNL d   1      -0.416  -5.958   3.788  0.00  0.00     0.002 A 
ATOM      7  C8  UNL d   1      -1.217  -5.960   2.643  0.00  0.00     0.006 A 
ENDROOT
BRANCH   1   8
ATOM      8  C1  UNL d   1      -1.499  -5.997   0.137  0.00  0.00     0.054 C 
ATOM      9  C   UNL d   1      -2.977  -5.908   0.489  0.00  0.00     0.018 C 
ENDBRANCH   1   8
TORSDOF 1
ENDMDL
