MODEL 1
REMARK minimizedAffinity 7.70967197
REMARK minimizedRMSD -1
REMARK  1 active torsions:
REMARK  status: ('A' for Active; 'I' for Inactive)
REMARK    1  A    between atoms: C1_2  and  C2_3 
ROOT
ATOM      1  C2  UNL d   1      -0.220  -5.975   3.097  0.00  0.00    -0.081 A 
ATOM      2  C3  UNL d   1       0.414  -5.882   4.342  0.00  0.00     0.006 A 
ATOM      3  C4  UNL d   1       1.807  -5.806   4.423  0.00  0.00     0.002 A 
ATOM      4  C5  UNL d   1       2.587  -5.812   3.261  0.00  0.00    -0.080 A 
ATOM      5  C6  UNL d   1       4.081  -5.699   3.333  0.00  0.00     0.076 C 
ATOM      6  C7  UNL d   1       1.954  -5.921   2.019  0.00  0.00     0.002 A 
ATOM      7  C8  UNL d   1       0.562  -5.999   1.937  0.00  0.00     0.006 A 
ENDROOT
BRANCH   1   8
ATOM      8  C1  UNL d   1      -1.725  -5.992   3.003  0.00  0.00     0.054 C 
ATOM      9  C   UNL d   1      -2.191  -5.860   1.561  0.00  0.00     0.018 C 
ENDBRANCH   1   8
TORSDOF 1
ENDMDL
