MODEL 1
REMARK minimizedAffinity 11.0379333
REMARK minimizedRMSD -1
REMARK  1 active torsions:
REMARK  status: ('A' for Active; 'I' for Inactive)
REMARK    1  A    between atoms: C1_2  and  C2_3 
ROOT
ATOM      1  C2  UNL d   1      -0.785   0.250   0.098  0.00  0.00    -0.081 A 
ATOM      2  C3  UNL d   1      -1.086  -1.001   0.650  0.00  0.00     0.006 A 
ATOM      3  C4  UNL d   1      -1.890  -1.908  -0.047  0.00  0.00     0.002 A 
ATOM      4  C5  UNL d   1      -2.399  -1.581  -1.308  0.00  0.00    -0.080 A 
ATOM      5  C6  UNL d   1      -3.237  -2.557  -2.079  0.00  0.00     0.076 C 
ATOM      6  C7  UNL d   1      -2.113  -0.325  -1.852  0.00  0.00     0.002 A 
ATOM      7  C8  UNL d   1      -1.310   0.582  -1.156  0.00  0.00     0.006 A 
ENDROOT
BRANCH   1   8
ATOM      8  C1  UNL d   1       0.134   1.204   0.817  0.00  0.00     0.054 C 
ATOM      9  C   UNL d   1      -0.362   1.493   2.227  0.00  0.00     0.018 C 
ENDBRANCH   1   8
TORSDOF 1
ENDMDL
