MODEL 1
REMARK minimizedAffinity -1.40373945
REMARK minimizedRMSD -1
REMARK  2 active torsions:
REMARK  status: ('A' for Active; 'I' for Inactive)
REMARK    1  A    between atoms: C2'_3  and  C1'_4 
REMARK    2  A    between atoms: C1'_4  and  C1_5 
ROOT
ATOM      1  C1  I4B d   1      -0.172  -0.418  -0.161  0.00  0.00    -0.075 A 
ATOM      2  C2  I4B d   1       0.780  -0.345   0.825  0.00  0.00     0.003 A 
ATOM      3  C3  I4B d   1       0.395  -0.159   2.175  0.00  0.00     0.002 A 
ATOM      4  C4  I4B d   1      -0.940  -0.000   2.485  0.00  0.00    -0.004 A 
ATOM      5  C5  I4B d   1      -1.905  -0.097   1.487  0.00  0.00     0.002 A 
ATOM      6  C6  I4B d   1      -1.520  -0.320   0.157  0.00  0.00     0.003 A 
ENDROOT
BRANCH   1   7
ATOM      7  C1' I4B d   1       0.272  -0.583  -1.580  0.00  0.00     0.060 C 
BRANCH   7   8
ATOM      8  C2' I4B d   1       1.001   0.679  -1.991  0.00  0.00    -0.013 C 
ATOM      9  C4' I4B d   1       1.124   0.775  -3.489  0.00  0.00     0.013 C 
ATOM     10  C3' I4B d   1       0.249   1.851  -1.434  0.00  0.00     0.013 C 
ENDBRANCH   7   8
ENDBRANCH   1   7
TORSDOF 2
ENDMDL
