MODEL 1
REMARK minimizedAffinity -5.09158659
REMARK minimizedRMSD -1
REMARK  2 active torsions:
REMARK  status: ('A' for Active; 'I' for Inactive)
REMARK    1  A    between atoms: C2'_3  and  C1'_4 
REMARK    2  A    between atoms: C1'_4  and  C1_5 
ROOT
ATOM      1  C1  I4B d   1       0.289   0.298  -1.294  0.00  0.00    -0.075 A 
ATOM      2  C2  I4B d   1      -0.451   1.342  -0.798  0.00  0.00     0.003 A 
ATOM      3  C3  I4B d   1      -1.520   1.096   0.098  0.00  0.00     0.002 A 
ATOM      4  C4  I4B d   1      -1.843  -0.204   0.429  0.00  0.00    -0.004 A 
ATOM      5  C5  I4B d   1      -1.078  -1.260  -0.058  0.00  0.00     0.002 A 
ATOM      6  C6  I4B d   1       0.003  -1.007  -0.915  0.00  0.00     0.003 A 
ENDROOT
BRANCH   1   7
ATOM      7  C1' I4B d   1       1.389   0.592  -2.264  0.00  0.00     0.060 C 
BRANCH   7   8
ATOM      8  C2' I4B d   1       0.903   1.673  -3.209  0.00  0.00    -0.013 C 
ATOM      9  C4' I4B d   1       1.836   2.854  -3.211  0.00  0.00     0.013 C 
ATOM     10  C3' I4B d   1       0.786   1.072  -4.578  0.00  0.00     0.013 C 
ENDBRANCH   7   8
ENDBRANCH   1   7
TORSDOF 2
ENDMDL
