MODEL 1
REMARK minimizedAffinity -3.61591029
REMARK minimizedRMSD -1
REMARK  2 active torsions:
REMARK  status: ('A' for Active; 'I' for Inactive)
REMARK    1  A    between atoms: C2'_3  and  C1'_4 
REMARK    2  A    between atoms: C1'_4  and  C1_5 
ROOT
ATOM      1  C1  I4B d   1      -0.161  -0.071  -1.229  0.00  0.00    -0.075 A 
ATOM      2  C2  I4B d   1       0.148  -0.937  -2.248  0.00  0.00     0.003 A 
ATOM      3  C3  I4B d   1       0.450  -0.440  -3.539  0.00  0.00     0.002 A 
ATOM      4  C4  I4B d   1       0.381   0.917  -3.778  0.00  0.00    -0.004 A 
ATOM      5  C5  I4B d   1       0.090   1.795  -2.738  0.00  0.00     0.002 A 
ATOM      6  C6  I4B d   1      -0.171   1.300  -1.452  0.00  0.00     0.003 A 
ENDROOT
BRANCH   1   7
ATOM      7  C1' I4B d   1      -0.507  -0.632   0.114  0.00  0.00     0.060 C 
BRANCH   7   8
ATOM      8  C2' I4B d   1      -1.205   0.454   0.908  0.00  0.00    -0.013 C 
ATOM      9  C4' I4B d   1      -2.700   0.273   0.882  0.00  0.00     0.013 C 
ATOM     10  C3' I4B d   1      -0.679   0.412   2.312  0.00  0.00     0.013 C 
ENDBRANCH   7   8
ENDBRANCH   1   7
TORSDOF 2
ENDMDL
