MODEL 1
REMARK minimizedAffinity -0.393183202
REMARK minimizedRMSD -1
REMARK  2 active torsions:
REMARK  status: ('A' for Active; 'I' for Inactive)
REMARK    1  A    between atoms: C2'_3  and  C1'_4 
REMARK    2  A    between atoms: C1'_4  and  C1_5 
ROOT
ATOM      1  C1  I4B d   1       0.116  -0.464  -1.162  0.00  0.00    -0.075 A 
ATOM      2  C2  I4B d   1      -0.142  -0.859  -2.451  0.00  0.00     0.003 A 
ATOM      3  C3  I4B d   1       0.639  -0.357  -3.521  0.00  0.00     0.002 A 
ATOM      4  C4  I4B d   1       1.628   0.570  -3.263  0.00  0.00    -0.004 A 
ATOM      5  C5  I4B d   1       1.903   0.953  -1.954  0.00  0.00     0.002 A 
ATOM      6  C6  I4B d   1       1.151   0.423  -0.895  0.00  0.00     0.003 A 
ENDROOT
BRANCH   1   7
ATOM      7  C1' I4B d   1      -0.749  -0.988  -0.060  0.00  0.00     0.060 C 
BRANCH   7   8
ATOM      8  C2' I4B d   1      -1.403   0.195   0.623  0.00  0.00    -0.013 C 
ATOM      9  C4' I4B d   1      -2.880   0.244   0.332  0.00  0.00     0.013 C 
ATOM     10  C3' I4B d   1      -1.145   0.081   2.095  0.00  0.00     0.013 C 
ENDBRANCH   7   8
ENDBRANCH   1   7
TORSDOF 2
ENDMDL
