MODEL 1
REMARK minimizedAffinity -2.15868092
REMARK minimizedRMSD -1
REMARK  2 active torsions:
REMARK  status: ('A' for Active; 'I' for Inactive)
REMARK    1  A    between atoms: C2'_3  and  C1'_4 
REMARK    2  A    between atoms: C1'_4  and  C1_5 
ROOT
ATOM      1  C1  I4B d   1       0.054   0.073   0.170  0.00  0.00    -0.075 A 
ATOM      2  C2  I4B d   1       1.158   0.290   0.957  0.00  0.00     0.003 A 
ATOM      3  C3  I4B d   1       1.114  -0.001   2.342  0.00  0.00     0.002 A 
ATOM      4  C4  I4B d   1      -0.061  -0.456   2.904  0.00  0.00    -0.004 A 
ATOM      5  C5  I4B d   1      -1.172  -0.697   2.101  0.00  0.00     0.002 A 
ATOM      6  C6  I4B d   1      -1.111  -0.443   0.723  0.00  0.00     0.003 A 
ENDROOT
BRANCH   1   7
ATOM      7  C1' I4B d   1       0.125   0.422  -1.283  0.00  0.00     0.060 C 
BRANCH   7   8
ATOM      8  C2' I4B d   1       0.887  -0.680  -1.991  0.00  0.00    -0.013 C 
ATOM      9  C4' I4B d   1      -0.048  -1.727  -2.535  0.00  0.00     0.013 C 
ATOM     10  C3' I4B d   1       1.695  -0.053  -3.088  0.00  0.00     0.013 C 
ENDBRANCH   7   8
ENDBRANCH   1   7
TORSDOF 2
ENDMDL
