MODEL 1
REMARK minimizedAffinity -4.59399843
REMARK minimizedRMSD -1
REMARK  2 active torsions:
REMARK  status: ('A' for Active; 'I' for Inactive)
REMARK    1  A    between atoms: C2'_3  and  C1'_4 
REMARK    2  A    between atoms: C1'_4  and  C1_5 
ROOT
ATOM      1  C1  I4B d   1      -0.301  -0.038   1.565  0.00  0.00    -0.075 A 
ATOM      2  C2  I4B d   1       0.204  -0.823   2.570  0.00  0.00     0.003 A 
ATOM      3  C3  I4B d   1      -0.611  -1.187   3.669  0.00  0.00     0.002 A 
ATOM      4  C4  I4B d   1      -1.902  -0.705   3.746  0.00  0.00    -0.004 A 
ATOM      5  C5  I4B d   1      -2.420   0.072   2.715  0.00  0.00     0.002 A 
ATOM      6  C6  I4B d   1      -1.619   0.398   1.610  0.00  0.00     0.003 A 
ENDROOT
BRANCH   1   7
ATOM      7  C1' I4B d   1       0.598   0.355   0.435  0.00  0.00     0.060 C 
BRANCH   7   8
ATOM      8  C2' I4B d   1      -0.075  -0.053  -0.860  0.00  0.00    -0.013 C 
ATOM      9  C4' I4B d   1      -0.811   1.106  -1.479  0.00  0.00     0.013 C 
ATOM     10  C3' I4B d   1       0.982  -0.579  -1.785  0.00  0.00     0.013 C 
ENDBRANCH   7   8
ENDBRANCH   1   7
TORSDOF 2
ENDMDL
