MODEL 1
REMARK minimizedAffinity -4.1493454
REMARK minimizedRMSD -1
REMARK  2 active torsions:
REMARK  status: ('A' for Active; 'I' for Inactive)
REMARK    1  A    between atoms: C2'_3  and  C1'_4 
REMARK    2  A    between atoms: C1'_4  and  C1_5 
ROOT
ATOM      1  C1  I4B d   1       0.266   0.417  -0.295  0.00  0.00    -0.075 A 
ATOM      2  C2  I4B d   1       1.381   0.577   0.488  0.00  0.00     0.003 A 
ATOM      3  C3  I4B d   1       1.327   0.289   1.873  0.00  0.00     0.002 A 
ATOM      4  C4  I4B d   1       0.132  -0.105   2.439  0.00  0.00    -0.004 A 
ATOM      5  C5  I4B d   1      -0.993  -0.289   1.639  0.00  0.00     0.002 A 
ATOM      6  C6  I4B d   1      -0.922  -0.038   0.261  0.00  0.00     0.003 A 
ENDROOT
BRANCH   1   7
ATOM      7  C1' I4B d   1       0.350   0.762  -1.748  0.00  0.00     0.060 C 
BRANCH   7   8
ATOM      8  C2' I4B d   1       1.302  -0.216  -2.406  0.00  0.00    -0.013 C 
ATOM      9  C4' I4B d   1       0.561  -1.390  -2.988  0.00  0.00     0.013 C 
ATOM     10  C3' I4B d   1       2.065   0.522  -3.465  0.00  0.00     0.013 C 
ENDBRANCH   7   8
ENDBRANCH   1   7
TORSDOF 2
ENDMDL
