MODEL 1
REMARK minimizedAffinity -5.25985813
REMARK minimizedRMSD -1
REMARK  2 active torsions:
REMARK  status: ('A' for Active; 'I' for Inactive)
REMARK    1  A    between atoms: C2'_3  and  C1'_4 
REMARK    2  A    between atoms: C1'_4  and  C1_5 
ROOT
ATOM      1  C1  I4B d   1       0.043   0.265  -0.951  0.00  0.00    -0.075 A 
ATOM      2  C2  I4B d   1       0.575  -0.484   0.068  0.00  0.00     0.003 A 
ATOM      3  C3  I4B d   1      -0.254  -0.954   1.116  0.00  0.00     0.002 A 
ATOM      4  C4  I4B d   1      -1.590  -0.610   1.131  0.00  0.00    -0.004 A 
ATOM      5  C5  I4B d   1      -2.133   0.130   0.084  0.00  0.00     0.002 A 
ATOM      6  C6  I4B d   1      -1.314   0.561  -0.970  0.00  0.00     0.003 A 
ENDROOT
BRANCH   1   7
ATOM      7  C1' I4B d   1       0.954   0.772  -2.024  0.00  0.00     0.060 C 
BRANCH   7   8
ATOM      8  C2' I4B d   1       1.567  -0.426  -2.720  0.00  0.00    -0.013 C 
ATOM      9  C4' I4B d   1       0.519  -1.240  -3.432  0.00  0.00     0.013 C 
ATOM     10  C3' I4B d   1       2.605   0.077  -3.679  0.00  0.00     0.013 C 
ENDBRANCH   7   8
ENDBRANCH   1   7
TORSDOF 2
ENDMDL
