MODEL 1
REMARK minimizedAffinity -4.33747149
REMARK minimizedRMSD -1
REMARK  2 active torsions:
REMARK  status: ('A' for Active; 'I' for Inactive)
REMARK    1  A    between atoms: C2'_3  and  C1'_4 
REMARK    2  A    between atoms: C1'_4  and  C1_5 
ROOT
ATOM      1  C1  I4B d   1      -0.904  -0.082   1.984  0.00  0.00    -0.075 A 
ATOM      2  C2  I4B d   1      -0.682   0.310   0.687  0.00  0.00     0.003 A 
ATOM      3  C3  I4B d   1       0.631   0.304   0.156  0.00  0.00     0.002 A 
ATOM      4  C4  I4B d   1       1.690  -0.051   0.965  0.00  0.00    -0.004 A 
ATOM      5  C5  I4B d   1       1.460  -0.471   2.273  0.00  0.00     0.002 A 
ATOM      6  C6  I4B d   1       0.154  -0.499   2.782  0.00  0.00     0.003 A 
ENDROOT
BRANCH   1   7
ATOM      7  C1' I4B d   1      -2.298  -0.032   2.523  0.00  0.00     0.060 C 
BRANCH   7   8
ATOM      8  C2' I4B d   1      -3.159   0.714   1.523  0.00  0.00    -0.013 C 
ATOM      9  C4' I4B d   1      -4.370  -0.093   1.138  0.00  0.00     0.013 C 
ATOM     10  C3' I4B d   1      -3.553   2.023   2.139  0.00  0.00     0.013 C 
ENDBRANCH   7   8
ENDBRANCH   1   7
TORSDOF 2
ENDMDL
