MODEL 1
REMARK minimizedAffinity -2.47455645
REMARK minimizedRMSD -1
REMARK  2 active torsions:
REMARK  status: ('A' for Active; 'I' for Inactive)
REMARK    1  A    between atoms: C2'_3  and  C1'_4 
REMARK    2  A    between atoms: C1'_4  and  C1_5 
ROOT
ATOM      1  C1  I4B d   1       0.202   0.473  -0.423  0.00  0.00    -0.075 A 
ATOM      2  C2  I4B d   1      -0.848   0.013   0.332  0.00  0.00     0.003 A 
ATOM      3  C3  I4B d   1      -0.693  -0.181   1.726  0.00  0.00     0.002 A 
ATOM      4  C4  I4B d   1       0.535   0.048   2.311  0.00  0.00    -0.004 A 
ATOM      5  C5  I4B d   1       1.592   0.536   1.548  0.00  0.00     0.002 A 
ATOM      6  C6  I4B d   1       1.421   0.762   0.175  0.00  0.00     0.003 A 
ENDROOT
BRANCH   1   7
ATOM      7  C1' I4B d   1       0.013   0.635  -1.898  0.00  0.00     0.060 C 
BRANCH   7   8
ATOM      8  C2' I4B d   1       0.843  -0.423  -2.594  0.00  0.00    -0.013 C 
ATOM      9  C4' I4B d   1      -0.016  -1.311  -3.456  0.00  0.00     0.013 C 
ATOM     10  C3' I4B d   1       1.891   0.273  -3.411  0.00  0.00     0.013 C 
ENDBRANCH   7   8
ENDBRANCH   1   7
TORSDOF 2
ENDMDL
