MODEL 1
REMARK minimizedAffinity -6.074821
REMARK minimizedRMSD -1
REMARK  2 active torsions:
REMARK  status: ('A' for Active; 'I' for Inactive)
REMARK    1  A    between atoms: C2'_3  and  C1'_4 
REMARK    2  A    between atoms: C1'_4  and  C1_5 
ROOT
ATOM      1  C1  I4B d   1       0.062   0.002  -0.767  0.00  0.00    -0.075 A 
ATOM      2  C2  I4B d   1       1.227  -0.033  -0.041  0.00  0.00     0.003 A 
ATOM      3  C3  I4B d   1       1.185  -0.038   1.374  0.00  0.00     0.002 A 
ATOM      4  C4  I4B d   1      -0.033   0.043   2.018  0.00  0.00    -0.004 A 
ATOM      5  C5  I4B d   1      -1.214   0.055   1.281  0.00  0.00     0.002 A 
ATOM      6  C6  I4B d   1      -1.167   0.022  -0.120  0.00  0.00     0.003 A 
ENDROOT
BRANCH   1   7
ATOM      7  C1' I4B d   1       0.144   0.039  -2.260  0.00  0.00     0.060 C 
BRANCH   7   8
ATOM      8  C2' I4B d   1       0.868  -1.210  -2.719  0.00  0.00    -0.013 C 
ATOM      9  C4' I4B d   1      -0.074  -2.166  -3.404  0.00  0.00     0.013 C 
ATOM     10  C3' I4B d   1       1.977  -0.792  -3.638  0.00  0.00     0.013 C 
ENDBRANCH   7   8
ENDBRANCH   1   7
TORSDOF 2
ENDMDL
