MODEL 1
REMARK minimizedAffinity -3.94741535
REMARK minimizedRMSD -1
REMARK  2 active torsions:
REMARK  status: ('A' for Active; 'I' for Inactive)
REMARK    1  A    between atoms: C2'_3  and  C1'_4 
REMARK    2  A    between atoms: C1'_4  and  C1_5 
ROOT
ATOM      1  C1  I4B d   1      -0.242   0.398   0.034  0.00  0.00    -0.075 A 
ATOM      2  C2  I4B d   1       0.948   0.196   0.689  0.00  0.00     0.003 A 
ATOM      3  C3  I4B d   1       0.971   0.059   2.098  0.00  0.00     0.002 A 
ATOM      4  C4  I4B d   1      -0.204   0.179   2.812  0.00  0.00    -0.004 A 
ATOM      5  C5  I4B d   1      -1.411   0.361   2.144  0.00  0.00     0.002 A 
ATOM      6  C6  I4B d   1      -1.433   0.459   0.745  0.00  0.00     0.003 A 
ENDROOT
BRANCH   1   7
ATOM      7  C1' I4B d   1      -0.226   0.571  -1.452  0.00  0.00     0.060 C 
BRANCH   7   8
ATOM      8  C2' I4B d   1       0.836  -0.349  -2.018  0.00  0.00    -0.013 C 
ATOM      9  C4' I4B d   1       0.232  -1.631  -2.527  0.00  0.00     0.013 C 
ATOM     10  C3' I4B d   1       1.549   0.386  -3.114  0.00  0.00     0.013 C 
ENDBRANCH   7   8
ENDBRANCH   1   7
TORSDOF 2
ENDMDL
