MODEL 1
REMARK minimizedAffinity -5.80383587
REMARK minimizedRMSD -1
REMARK  2 active torsions:
REMARK  status: ('A' for Active; 'I' for Inactive)
REMARK    1  A    between atoms: C2'_3  and  C1'_4 
REMARK    2  A    between atoms: C1'_4  and  C1_5 
ROOT
ATOM      1  C1  I4B d   1       0.396  -0.316   0.925  0.00  0.00    -0.075 A 
ATOM      2  C2  I4B d   1      -0.468  -1.373   1.075  0.00  0.00     0.003 A 
ATOM      3  C3  I4B d   1      -1.308  -1.450   2.212  0.00  0.00     0.002 A 
ATOM      4  C4  I4B d   1      -1.217  -0.482   3.191  0.00  0.00    -0.004 A 
ATOM      5  C5  I4B d   1      -0.357   0.600   3.026  0.00  0.00     0.002 A 
ATOM      6  C6  I4B d   1       0.446   0.690   1.880  0.00  0.00     0.003 A 
ENDROOT
BRANCH   1   7
ATOM      7  C1' I4B d   1       1.293  -0.283  -0.272  0.00  0.00     0.060 C 
BRANCH   7   8
ATOM      8  C2' I4B d   1       0.421  -0.169  -1.506  0.00  0.00    -0.013 C 
ATOM      9  C4' I4B d   1      -0.489   1.028  -1.421  0.00  0.00     0.013 C 
ATOM     10  C3' I4B d   1       1.321  -0.082  -2.702  0.00  0.00     0.013 C 
ENDBRANCH   7   8
ENDBRANCH   1   7
TORSDOF 2
ENDMDL
