MODEL 1
REMARK minimizedAffinity -5.94839573
REMARK minimizedRMSD -1
REMARK  2 active torsions:
REMARK  status: ('A' for Active; 'I' for Inactive)
REMARK    1  A    between atoms: C2'_3  and  C1'_4 
REMARK    2  A    between atoms: C1'_4  and  C1_5 
ROOT
ATOM      1  C1  I4B d   1      -0.607   0.496  -0.264  0.00  0.00    -0.075 A 
ATOM      2  C2  I4B d   1       0.520   0.467   0.520  0.00  0.00     0.003 A 
ATOM      3  C3  I4B d   1       0.408   0.331   1.924  0.00  0.00     0.002 A 
ATOM      4  C4  I4B d   1      -0.843   0.278   2.505  0.00  0.00    -0.004 A 
ATOM      5  C5  I4B d   1      -1.984   0.284   1.707  0.00  0.00     0.002 A 
ATOM      6  C6  I4B d   1      -1.865   0.381   0.313  0.00  0.00     0.003 A 
ENDROOT
BRANCH   1   7
ATOM      7  C1' I4B d   1      -0.453   0.674  -1.741  0.00  0.00     0.060 C 
BRANCH   7   8
ATOM      8  C2' I4B d   1       0.348  -0.497  -2.272  0.00  0.00    -0.013 C 
ATOM      9  C4' I4B d   1      -0.527  -1.454  -3.037  0.00  0.00     0.013 C 
ATOM     10  C3' I4B d   1       1.444   0.047  -3.139  0.00  0.00     0.013 C 
ENDBRANCH   7   8
ENDBRANCH   1   7
TORSDOF 2
ENDMDL
