MODEL 1
REMARK minimizedAffinity -1.36702013
REMARK minimizedRMSD -1
REMARK  2 active torsions:
REMARK  status: ('A' for Active; 'I' for Inactive)
REMARK    1  A    between atoms: C2'_3  and  C1'_4 
REMARK    2  A    between atoms: C1'_4  and  C1_5 
ROOT
ATOM      1  C1  I4B d   1       0.297   0.241  -0.998  0.00  0.00    -0.075 A 
ATOM      2  C2  I4B d   1      -0.986  -0.133  -0.685  0.00  0.00     0.003 A 
ATOM      3  C3  I4B d   1      -1.362  -0.329   0.666  0.00  0.00     0.002 A 
ATOM      4  C4  I4B d   1      -0.417  -0.191   1.661  0.00  0.00    -0.004 A 
ATOM      5  C5  I4B d   1       0.877   0.211   1.344  0.00  0.00     0.002 A 
ATOM      6  C6  I4B d   1       1.234   0.441   0.007  0.00  0.00     0.003 A 
ENDROOT
BRANCH   1   7
ATOM      7  C1' I4B d   1       0.668   0.408  -2.437  0.00  0.00     0.060 C 
BRANCH   7   8
ATOM      8  C2' I4B d   1       1.562  -0.753  -2.826  0.00  0.00    -0.013 C 
ATOM      9  C4' I4B d   1       0.837  -1.722  -3.722  0.00  0.00     0.013 C 
ATOM     10  C3' I4B d   1       2.777  -0.194  -3.504  0.00  0.00     0.013 C 
ENDBRANCH   7   8
ENDBRANCH   1   7
TORSDOF 2
ENDMDL
