MODEL 1
REMARK minimizedAffinity -0.0537389219
REMARK minimizedRMSD -1
REMARK  2 active torsions:
REMARK  status: ('A' for Active; 'I' for Inactive)
REMARK    1  A    between atoms: C2'_3  and  C1'_4 
REMARK    2  A    between atoms: C1'_4  and  C1_5 
ROOT
ATOM      1  C1  I4B d   1       0.122   0.104  -0.635  0.00  0.00    -0.075 A 
ATOM      2  C2  I4B d   1       0.967   0.788   0.203  0.00  0.00     0.003 A 
ATOM      3  C3  I4B d   1       0.780   0.731   1.605  0.00  0.00     0.002 A 
ATOM      4  C4  I4B d   1      -0.289   0.026   2.120  0.00  0.00    -0.004 A 
ATOM      5  C5  I4B d   1      -1.131  -0.685   1.270  0.00  0.00     0.002 A 
ATOM      6  C6  I4B d   1      -0.918  -0.656  -0.116  0.00  0.00     0.003 A 
ENDROOT
BRANCH   1   7
ATOM      7  C1' I4B d   1       0.329   0.212  -2.113  0.00  0.00     0.060 C 
BRANCH   7   8
ATOM      8  C2' I4B d   1       1.501  -0.673  -2.486  0.00  0.00    -0.013 C 
ATOM      9  C4' I4B d   1       1.084  -1.754  -3.448  0.00  0.00     0.013 C 
ATOM     10  C3' I4B d   1       2.568   0.198  -3.079  0.00  0.00     0.013 C 
ENDBRANCH   7   8
ENDBRANCH   1   7
TORSDOF 2
ENDMDL
