MODEL 1
REMARK minimizedAffinity -4.80344009
REMARK minimizedRMSD -1
REMARK  2 active torsions:
REMARK  status: ('A' for Active; 'I' for Inactive)
REMARK    1  A    between atoms: C2'_3  and  C1'_4 
REMARK    2  A    between atoms: C1'_4  and  C1_5 
ROOT
ATOM      1  C1  I4B d   1      -0.439  -0.095   0.042  0.00  0.00    -0.075 A 
ATOM      2  C2  I4B d   1      -1.606  -0.353   0.717  0.00  0.00     0.003 A 
ATOM      3  C3  I4B d   1      -1.582  -0.610   2.109  0.00  0.00     0.002 A 
ATOM      4  C4  I4B d   1      -0.373  -0.650   2.772  0.00  0.00    -0.004 A 
ATOM      5  C5  I4B d   1       0.807  -0.366   2.091  0.00  0.00     0.002 A 
ATOM      6  C6  I4B d   1       0.773  -0.074   0.720  0.00  0.00     0.003 A 
ENDROOT
BRANCH   1   7
ATOM      7  C1' I4B d   1      -0.497   0.141  -1.434  0.00  0.00     0.060 C 
BRANCH   7   8
ATOM      8  C2' I4B d   1       0.354  -0.915  -2.109  0.00  0.00    -0.013 C 
ATOM      9  C4' I4B d   1      -0.492  -1.864  -2.916  0.00  0.00     0.013 C 
ATOM     10  C3' I4B d   1       1.359  -0.216  -2.975  0.00  0.00     0.013 C 
ENDBRANCH   7   8
ENDBRANCH   1   7
TORSDOF 2
ENDMDL
