MODEL 1
REMARK minimizedAffinity 2.90778041
REMARK minimizedRMSD -1
REMARK  0 active torsions:
REMARK  status: ('A' for Active; 'I' for Inactive)
ROOT
ATOM      1  C   UNL d   1      -2.617   0.535   0.689  0.00  0.00     0.020 A 
ATOM      2  C1  UNL d   1      -1.704   0.683   1.732  0.00  0.00     0.020 A 
ATOM      3  C2  UNL d   1      -0.342   0.475   1.503  0.00  0.00     0.034 A 
ATOM      4  C3  UNL d   1       0.111   0.120   0.228  0.00  0.00     0.017 A 
ATOM      5  C4  UNL d   1      -0.806  -0.028  -0.819  0.00  0.00     0.017 A 
ATOM      6  C5  UNL d   1      -2.168   0.181  -0.584  0.00  0.00     0.034 A 
ATOM      7 Cl   UNL d   1      -0.323  -0.465  -2.420  0.00  0.00    -0.070 Cl
ATOM      8 Cl1  UNL d   1       1.809  -0.120   0.016  0.00  0.00    -0.070 Cl
ENDROOT
TORSDOF 0
ENDMDL
