MODEL 1
REMARK minimizedAffinity -1.73296762
REMARK minimizedRMSD -1
REMARK  0 active torsions:
REMARK  status: ('A' for Active; 'I' for Inactive)
ROOT
ATOM      1  C   UNL d   1      -0.109  -0.717  -0.439  0.00  0.00     0.020 A 
ATOM      2  C1  UNL d   1       1.019  -0.317   0.276  0.00  0.00     0.020 A 
ATOM      3  C2  UNL d   1       1.965   0.519  -0.322  0.00  0.00     0.034 A 
ATOM      4  C3  UNL d   1       1.785   0.956  -1.639  0.00  0.00     0.017 A 
ATOM      5  C4  UNL d   1       0.652   0.554  -2.356  0.00  0.00     0.017 A 
ATOM      6  C5  UNL d   1      -0.292  -0.282  -1.752  0.00  0.00     0.034 A 
ATOM      7 Cl   UNL d   1       0.360   1.053  -3.985  0.00  0.00    -0.070 Cl
ATOM      8 Cl1  UNL d   1       2.994   1.988  -2.316  0.00  0.00    -0.070 Cl
ENDROOT
TORSDOF 0
ENDMDL
