MODEL 1
REMARK minimizedAffinity 9.6297636
REMARK minimizedRMSD -1
REMARK  0 active torsions:
REMARK  status: ('A' for Active; 'I' for Inactive)
ROOT
ATOM      1  C   UNL d   1       2.481   1.376  -2.967  0.00  0.00     0.020 A 
ATOM      2  C1  UNL d   1       2.171   1.606  -4.307  0.00  0.00     0.020 A 
ATOM      3  C2  UNL d   1       1.011   1.058  -4.859  0.00  0.00     0.034 A 
ATOM      4  C3  UNL d   1       0.157   0.278  -4.072  0.00  0.00     0.017 A 
ATOM      5  C4  UNL d   1       0.469   0.048  -2.727  0.00  0.00     0.017 A 
ATOM      6  C5  UNL d   1       1.632   0.599  -2.179  0.00  0.00     0.034 A 
ATOM      7 Cl   UNL d   1      -0.536  -0.905  -1.692  0.00  0.00    -0.070 Cl
ATOM      8 Cl1  UNL d   1      -1.260  -0.368  -4.820  0.00  0.00    -0.070 Cl
ENDROOT
TORSDOF 0
ENDMDL
