MODEL 1
REMARK minimizedAffinity -2.88899779
REMARK minimizedRMSD -1
REMARK  0 active torsions:
REMARK  status: ('A' for Active; 'I' for Inactive)
ROOT
ATOM      1  C   UNL d   1      -2.628   0.191   0.605  0.00  0.00     0.020 A 
ATOM      2  C1  UNL d   1      -2.308   0.272   1.959  0.00  0.00     0.020 A 
ATOM      3  C2  UNL d   1      -0.984   0.113   2.374  0.00  0.00     0.034 A 
ATOM      4  C3  UNL d   1       0.024  -0.128   1.433  0.00  0.00     0.017 A 
ATOM      5  C4  UNL d   1      -0.298  -0.209   0.074  0.00  0.00     0.017 A 
ATOM      6  C5  UNL d   1      -1.626  -0.049  -0.336  0.00  0.00     0.034 A 
ATOM      7 Cl   UNL d   1       0.891  -0.503  -1.145  0.00  0.00    -0.070 Cl
ATOM      8 Cl1  UNL d   1       1.640  -0.314   2.017  0.00  0.00    -0.070 Cl
ENDROOT
TORSDOF 0
ENDMDL
