MODEL 1
REMARK minimizedAffinity -4.96771097
REMARK minimizedRMSD -1
REMARK  0 active torsions:
REMARK  status: ('A' for Active; 'I' for Inactive)
ROOT
ATOM      1  C   UNL d   1      -1.642   0.810   2.305  0.00  0.00     0.020 A 
ATOM      2  C1  UNL d   1      -0.760   0.533   3.348  0.00  0.00     0.020 A 
ATOM      3  C2  UNL d   1       0.574   0.227   3.072  0.00  0.00     0.034 A 
ATOM      4  C3  UNL d   1       1.030   0.197   1.749  0.00  0.00     0.017 A 
ATOM      5  C4  UNL d   1       0.144   0.475   0.702  0.00  0.00     0.017 A 
ATOM      6  C5  UNL d   1      -1.191   0.782   0.985  0.00  0.00     0.034 A 
ATOM      7 Cl   UNL d   1       0.632   0.458  -0.956  0.00  0.00    -0.070 Cl
ATOM      8 Cl1  UNL d   1       2.693  -0.190   1.480  0.00  0.00    -0.070 Cl
ENDROOT
TORSDOF 0
ENDMDL
