MODEL 1
REMARK minimizedAffinity -2.00045514
REMARK minimizedRMSD -1
REMARK  0 active torsions:
REMARK  status: ('A' for Active; 'I' for Inactive)
ROOT
ATOM      1  C   UNL d   1      -1.746   0.837   0.927  0.00  0.00     0.020 A 
ATOM      2  C1  UNL d   1      -0.951   0.599   2.048  0.00  0.00     0.020 A 
ATOM      3  C2  UNL d   1       0.279  -0.046   1.906  0.00  0.00     0.034 A 
ATOM      4  C3  UNL d   1       0.717  -0.457   0.642  0.00  0.00     0.017 A 
ATOM      5  C4  UNL d   1      -0.082  -0.219  -0.482  0.00  0.00     0.017 A 
ATOM      6  C5  UNL d   1      -1.313   0.428  -0.335  0.00  0.00     0.034 A 
ATOM      7 Cl   UNL d   1       0.392  -0.696  -2.074  0.00  0.00    -0.070 Cl
ATOM      8 Cl1  UNL d   1       2.249  -1.250   0.541  0.00  0.00    -0.070 Cl
ENDROOT
TORSDOF 0
ENDMDL
