MODEL 1
REMARK minimizedAffinity -0.510860145
REMARK minimizedRMSD -1
REMARK  0 active torsions:
REMARK  status: ('A' for Active; 'I' for Inactive)
ROOT
ATOM      1  C   UNL d   1      -0.534   0.949   2.166  0.00  0.00     0.124 A 
ATOM      2  C1  UNL d   1      -1.679   0.700   1.422  0.00  0.00     0.062 A 
ATOM      3  C2  UNL d   1      -1.577   0.193   0.130  0.00  0.00     0.162 A 
ATOM      4  C3  UNL d   1      -0.325  -0.069  -0.427  0.00  0.00    -0.034 A 
ATOM      5  C4  UNL d   1       0.822   0.186   0.327  0.00  0.00     0.162 A 
ATOM      6  C5  UNL d   1       0.715   0.692   1.618  0.00  0.00     0.062 A 
ATOM      7  F   UNL d   1       1.822   0.933   2.336  0.00  0.00    -0.097 F 
ATOM      8  F1  UNL d   1       2.041  -0.055  -0.177  0.00  0.00    -0.096 F 
ATOM      9  I   UNL d   1      -0.169  -0.826  -2.359  0.00  0.00    -0.060 I 
ATOM     10  F2  UNL d   1      -2.700  -0.038  -0.567  0.00  0.00    -0.096 F 
ATOM     11  F3  UNL d   1      -2.887   0.949   1.949  0.00  0.00    -0.097 F 
ATOM     12  F4  UNL d   1      -0.635   1.438   3.409  0.00  0.00    -0.092 F 
ENDROOT
TORSDOF 0
ENDMDL
